# generated using pymatgen
data_Sc4Si2IrPt6
_symmetry_space_group_name_H-M   'P 1'
_cell_length_a   4.04074500
_cell_length_b   6.54597100
_cell_length_c   16.18904275
_cell_angle_alpha   90.46953354
_cell_angle_beta   90.00000000
_cell_angle_gamma   90.00000000
_symmetry_Int_Tables_number   1
_chemical_formula_structural   Sc4Si2IrPt6
_chemical_formula_sum   'Sc8 Si4 Ir2 Pt12'
_cell_volume   428.19550903
_cell_formula_units_Z   2
loop_
 _symmetry_equiv_pos_site_id
 _symmetry_equiv_pos_as_xyz
  1  'x, y, z'
loop_
 _atom_site_type_symbol
 _atom_site_label
 _atom_site_symmetry_multiplicity
 _atom_site_fract_x
 _atom_site_fract_y
 _atom_site_fract_z
 _atom_site_occupancy
  Sc  Sc0  1  0.000000  0.282960  0.461832  1
  Sc  Sc1  1  0.000000  0.717040  0.538168  1
  Sc  Sc2  1  0.000000  0.785749  0.039539  1
  Sc  Sc3  1  0.000000  0.214251  0.960461  1
  Sc  Sc4  1  0.000000  0.534943  0.294392  1
  Sc  Sc5  1  0.000000  0.465057  0.705608  1
  Sc  Sc6  1  0.000000  0.030738  0.213522  1
  Sc  Sc7  1  0.000000  0.969262  0.786478  1
  Si  Si8  1  0.500000  0.844983  0.308380  1
  Si  Si9  1  0.500000  0.155017  0.691620  1
  Si  Si10  1  0.500000  0.345200  0.194937  1
  Si  Si11  1  0.500000  0.654800  0.805063  1
  Ir  Ir12  1  0.000000  0.905826  0.381190  1
  Ir  Ir13  1  0.000000  0.094174  0.618810  1
  Pt  Pt14  1  0.000000  0.408372  0.118722  1
  Pt  Pt15  1  0.000000  0.591628  0.881278  1
  Pt  Pt16  1  0.500000  0.600659  0.422298  1
  Pt  Pt17  1  0.500000  0.399341  0.577702  1
  Pt  Pt18  1  0.500000  0.098016  0.079948  1
  Pt  Pt19  1  0.500000  0.901984  0.920052  1
  Pt  Pt20  1  0.500000  0.500000  0.000000  1
  Pt  Pt21  1  0.500000  0.000000  0.500000  1
  Pt  Pt22  1  0.500000  0.217066  0.334210  1
  Pt  Pt23  1  0.500000  0.782934  0.665790  1
  Pt  Pt24  1  0.500000  0.717780  0.167813  1
  Pt  Pt25  1  0.500000  0.282220  0.832187  1
