# generated using pymatgen
data_NpBN
_symmetry_space_group_name_H-M   'P 1'
_cell_length_a   6.13867086
_cell_length_b   6.13867007
_cell_length_c   3.28853200
_cell_angle_alpha   90.00000000
_cell_angle_beta   90.00000000
_cell_angle_gamma   146.07949177
_symmetry_Int_Tables_number   1
_chemical_formula_structural   NpBN
_chemical_formula_sum   'Np2 B2 N2'
_cell_volume   69.15406725
_cell_formula_units_Z   2
loop_
 _symmetry_equiv_pos_site_id
 _symmetry_equiv_pos_as_xyz
  1  'x, y, z'
loop_
 _atom_site_type_symbol
 _atom_site_label
 _atom_site_symmetry_multiplicity
 _atom_site_fract_x
 _atom_site_fract_y
 _atom_site_fract_z
 _atom_site_occupancy
  Np  Np0  1  0.860256  0.139744  0.750000  1
  Np  Np1  1  0.139744  0.860256  0.250000  1
  B  B2  1  0.534582  0.465418  0.750000  1
  B  B3  1  0.465418  0.534582  0.250000  1
  N  N4  1  0.663126  0.336874  0.750000  1
  N  N5  1  0.336874  0.663126  0.250000  1
