# generated using pymatgen
data_Nd3Gd5(BeSi3)4
_symmetry_space_group_name_H-M   'P 1'
_cell_length_a   7.91808600
_cell_length_b   7.91685797
_cell_length_c   8.47403700
_cell_angle_alpha   90.00000000
_cell_angle_beta   90.00000000
_cell_angle_gamma   120.00513970
_symmetry_Int_Tables_number   1
_chemical_formula_structural   Nd3Gd5(BeSi3)4
_chemical_formula_sum   'Nd3 Gd5 Be4 Si12'
_cell_volume   460.01454178
_cell_formula_units_Z   1
loop_
 _symmetry_equiv_pos_site_id
 _symmetry_equiv_pos_as_xyz
  1  'x, y, z'
loop_
 _atom_site_type_symbol
 _atom_site_label
 _atom_site_symmetry_multiplicity
 _atom_site_fract_x
 _atom_site_fract_y
 _atom_site_fract_z
 _atom_site_occupancy
  Nd  Nd0  1  0.500373  0.000735  0.250000  1
  Nd  Nd1  1  0.000038  0.000155  0.750000  1
  Nd  Nd2  1  0.000009  0.999980  0.250000  1
  Gd  Gd3  1  0.500045  0.500429  0.750000  1
  Gd  Gd4  1  0.500507  0.499418  0.250000  1
  Gd  Gd5  1  0.000709  0.500466  0.750000  1
  Gd  Gd6  1  0.998714  0.499465  0.250000  1
  Gd  Gd7  1  0.499459  0.999137  0.750000  1
  Be  Be8  1  0.666955  0.333824  0.997063  1
  Be  Be9  1  0.332982  0.666017  0.999842  1
  Be  Be10  1  0.332982  0.666017  0.500158  1
  Be  Be11  1  0.666955  0.333824  0.502937  1
  Si  Si12  1  0.827632  0.173674  0.997584  1
  Si  Si13  1  0.172239  0.826272  0.998400  1
  Si  Si14  1  0.345791  0.174047  0.997702  1
  Si  Si15  1  0.172239  0.826272  0.501600  1
  Si  Si16  1  0.654249  0.826099  0.998578  1
  Si  Si17  1  0.827632  0.173674  0.502416  1
  Si  Si18  1  0.826453  0.653465  0.999373  1
  Si  Si19  1  0.654249  0.826099  0.501422  1
  Si  Si20  1  0.173769  0.346708  0.000235  1
  Si  Si21  1  0.345791  0.174047  0.502298  1
  Si  Si22  1  0.173769  0.346708  0.499765  1
  Si  Si23  1  0.826453  0.653465  0.500627  1
