# generated using pymatgen
data_Na2Hf(TeO4)3
_symmetry_space_group_name_H-M   'P 1'
_cell_length_a   7.20630820
_cell_length_b   7.20630878
_cell_length_c   7.22992400
_cell_angle_alpha   60.38050841
_cell_angle_beta   60.38050577
_cell_angle_gamma   60.60292921
_symmetry_Int_Tables_number   1
_chemical_formula_structural   Na2Hf(TeO4)3
_chemical_formula_sum   'Na2 Hf1 Te3 O12'
_cell_volume   268.21374619
_cell_formula_units_Z   1
loop_
 _symmetry_equiv_pos_site_id
 _symmetry_equiv_pos_as_xyz
  1  'x, y, z'
loop_
 _atom_site_type_symbol
 _atom_site_label
 _atom_site_symmetry_multiplicity
 _atom_site_fract_x
 _atom_site_fract_y
 _atom_site_fract_z
 _atom_site_occupancy
  Na  Na0  1  0.589574  0.967517  0.470976  1
  Na  Na1  1  0.032483  0.410426  0.529024  1
  Hf  Hf2  1  0.514681  0.485319  0.000000  1
  Te  Te3  1  0.017282  0.481000  0.999997  1
  Te  Te4  1  0.519000  0.982718  0.000003  1
  Te  Te5  1  0.517724  0.482276  0.500000  1
  O  O6  1  0.197464  0.159393  0.071417  1
  O  O7  1  0.600354  0.557869  0.659670  1
  O  O8  1  0.182506  0.546854  0.082315  1
  O  O9  1  0.596523  0.160567  0.676646  1
  O  O10  1  0.589573  0.147257  0.078518  1
  O  O11  1  0.196781  0.554004  0.676659  1
  O  O12  1  0.840607  0.802536  0.928583  1
  O  O13  1  0.442131  0.399646  0.340330  1
  O  O14  1  0.852743  0.410427  0.921482  1
  O  O15  1  0.445996  0.803219  0.323341  1
  O  O16  1  0.453146  0.817494  0.917685  1
  O  O17  1  0.839433  0.403477  0.323354  1
