# generated using pymatgen
data_DyEr3Ga4(NiIr)2
_symmetry_space_group_name_H-M   'P 1'
_cell_length_a   4.28107500
_cell_length_b   6.73768102
_cell_length_c   7.62262403
_cell_angle_alpha   90.01000472
_cell_angle_beta   90.00000000
_cell_angle_gamma   90.00000000
_symmetry_Int_Tables_number   1
_chemical_formula_structural   DyEr3Ga4(NiIr)2
_chemical_formula_sum   'Dy1 Er3 Ga4 Ni2 Ir2'
_cell_volume   219.87091112
_cell_formula_units_Z   1
loop_
 _symmetry_equiv_pos_site_id
 _symmetry_equiv_pos_as_xyz
  1  'x, y, z'
loop_
 _atom_site_type_symbol
 _atom_site_label
 _atom_site_symmetry_multiplicity
 _atom_site_fract_x
 _atom_site_fract_y
 _atom_site_fract_z
 _atom_site_occupancy
  Dy  Dy0  1  0.750000  0.024210  0.686110  1
  Er  Er1  1  0.250000  0.977490  0.312308  1
  Er  Er2  1  0.250000  0.477736  0.186691  1
  Er  Er3  1  0.750000  0.524482  0.813885  1
  Ga  Ga4  1  0.250000  0.346989  0.575163  1
  Ga  Ga5  1  0.250000  0.845403  0.924840  1
  Ga  Ga6  1  0.750000  0.659230  0.441691  1
  Ga  Ga7  1  0.750000  0.160293  0.058385  1
  Ni  Ni8  1  0.250000  0.222820  0.886062  1
  Ni  Ni9  1  0.250000  0.721307  0.616020  1
  Ir  Ir10  1  0.750000  0.769689  0.112804  1
  Ir  Ir11  1  0.750000  0.270351  0.386040  1
