# generated using pymatgen
data_Sc4Ga18PtRh5
_symmetry_space_group_name_H-M   'P 1'
_cell_length_a   7.50531356
_cell_length_b   7.50531296
_cell_length_c   9.40362208
_cell_angle_alpha   90.04155606
_cell_angle_beta   90.04155149
_cell_angle_gamma   120.06915430
_symmetry_Int_Tables_number   1
_chemical_formula_structural   Sc4Ga18PtRh5
_chemical_formula_sum   'Sc4 Ga18 Pt1 Rh5'
_cell_volume   458.41617231
_cell_formula_units_Z   1
loop_
 _symmetry_equiv_pos_site_id
 _symmetry_equiv_pos_as_xyz
  1  'x, y, z'
loop_
 _atom_site_type_symbol
 _atom_site_label
 _atom_site_symmetry_multiplicity
 _atom_site_fract_x
 _atom_site_fract_y
 _atom_site_fract_z
 _atom_site_occupancy
  Sc  Sc0  1  0.996880  0.669514  0.250998  1
  Sc  Sc1  1  0.003120  0.330486  0.749002  1
  Sc  Sc2  1  0.669514  0.996880  0.250998  1
  Sc  Sc3  1  0.330486  0.003120  0.749002  1
  Ga  Ga4  1  0.126337  0.126337  0.252495  1
  Ga  Ga5  1  0.873663  0.873663  0.747505  1
  Ga  Ga6  1  0.995353  0.337994  0.085575  1
  Ga  Ga7  1  0.004647  0.662006  0.914425  1
  Ga  Ga8  1  0.004088  0.665261  0.583048  1
  Ga  Ga9  1  0.334739  0.995912  0.416952  1
  Ga  Ga10  1  0.995912  0.334739  0.416952  1
  Ga  Ga11  1  0.665261  0.004088  0.583048  1
  Ga  Ga12  1  0.662006  0.004647  0.914425  1
  Ga  Ga13  1  0.337994  0.995353  0.085575  1
  Ga  Ga14  1  0.329235  0.329235  0.571460  1
  Ga  Ga15  1  0.670765  0.670765  0.428540  1
  Ga  Ga16  1  0.666559  0.666559  0.073131  1
  Ga  Ga17  1  0.333441  0.333441  0.926869  1
  Ga  Ga18  1  0.338475  0.553135  0.250439  1
  Ga  Ga19  1  0.661525  0.446865  0.749561  1
  Ga  Ga20  1  0.553135  0.338475  0.250439  1
  Ga  Ga21  1  0.446865  0.661525  0.749561  1
  Pt  Pt22  1  0.000000  0.000000  0.000000  1
  Rh  Rh23  1  0.671276  0.328724  0.000000  1
  Rh  Rh24  1  0.328724  0.671276  0.000000  1
  Rh  Rh25  1  0.328416  0.671584  0.500000  1
  Rh  Rh26  1  0.671584  0.328416  0.500000  1
  Rh  Rh27  1  0.000000  0.000000  0.500000  1
