# generated using pymatgen
data_Ac4Zn10SiPb
_symmetry_space_group_name_H-M   'P 1'
_cell_length_a   8.84438121
_cell_length_b   8.84438151
_cell_length_c   9.25199400
_cell_angle_alpha   90.00000000
_cell_angle_beta   90.00000000
_cell_angle_gamma   149.21348411
_symmetry_Int_Tables_number   1
_chemical_formula_structural   Ac4Zn10SiPb
_chemical_formula_sum   'Ac4 Zn10 Si1 Pb1'
_cell_volume   370.42908693
_cell_formula_units_Z   1
loop_
 _symmetry_equiv_pos_site_id
 _symmetry_equiv_pos_as_xyz
  1  'x, y, z'
loop_
 _atom_site_type_symbol
 _atom_site_label
 _atom_site_symmetry_multiplicity
 _atom_site_fract_x
 _atom_site_fract_y
 _atom_site_fract_z
 _atom_site_occupancy
  Ac  Ac0  1  0.206217  0.793783  0.250000  1
  Ac  Ac1  1  0.790853  0.209147  0.750000  1
  Ac  Ac2  1  0.000929  0.999071  0.485406  1
  Ac  Ac3  1  0.000929  0.999071  0.014594  1
  Zn  Zn4  1  0.814777  0.185223  0.390669  1
  Zn  Zn5  1  0.184325  0.815675  0.608110  1
  Zn  Zn6  1  0.814777  0.185223  0.109331  1
  Zn  Zn7  1  0.184325  0.815675  0.891890  1
  Zn  Zn8  1  0.650045  0.349955  0.478875  1
  Zn  Zn9  1  0.343011  0.656989  0.507391  1
  Zn  Zn10  1  0.650045  0.349955  0.021125  1
  Zn  Zn11  1  0.343011  0.656989  0.992609  1
  Zn  Zn12  1  0.409847  0.590153  0.250000  1
  Zn  Zn13  1  0.602867  0.397133  0.750000  1
  Si  Si14  1  0.561158  0.438842  0.250000  1
  Pb  Pb15  1  0.442887  0.557113  0.750000  1
