# generated using pymatgen
data_ZrAlCu3Pt
_symmetry_space_group_name_H-M   'P 1'
_cell_length_a   4.95067001
_cell_length_b   4.95066898
_cell_length_c   4.92114043
_cell_angle_alpha   59.80130520
_cell_angle_beta   59.80131052
_cell_angle_gamma   59.99999704
_symmetry_Int_Tables_number   1
_chemical_formula_structural   ZrAlCu3Pt
_chemical_formula_sum   'Zr1 Al1 Cu3 Pt1'
_cell_volume   85.02913933
_cell_formula_units_Z   1
loop_
 _symmetry_equiv_pos_site_id
 _symmetry_equiv_pos_as_xyz
  1  'x, y, z'
loop_
 _atom_site_type_symbol
 _atom_site_label
 _atom_site_symmetry_multiplicity
 _atom_site_fract_x
 _atom_site_fract_y
 _atom_site_fract_z
 _atom_site_occupancy
  Zr  Zr0  1  0.003773  0.003773  0.988680  1
  Al  Al1  1  0.621059  0.621059  0.136821  1
  Cu  Cu2  1  0.624836  0.122884  0.627444  1
  Cu  Cu3  1  0.122884  0.624836  0.627444  1
  Cu  Cu4  1  0.624836  0.624836  0.627444  1
  Pt  Pt5  1  0.252611  0.252611  0.242166  1
