# generated using pymatgen
data_Ni3Sb12Os
_symmetry_space_group_name_H-M   'P 1'
_cell_length_a   8.04170120
_cell_length_b   8.06123522
_cell_length_c   8.04170097
_cell_angle_alpha   109.52043282
_cell_angle_beta   109.42196039
_cell_angle_gamma   109.52043740
_symmetry_Int_Tables_number   1
_chemical_formula_structural   Ni3Sb12Os
_chemical_formula_sum   'Ni3 Sb12 Os1'
_cell_volume   401.06191274
_cell_formula_units_Z   1
loop_
 _symmetry_equiv_pos_site_id
 _symmetry_equiv_pos_as_xyz
  1  'x, y, z'
loop_
 _atom_site_type_symbol
 _atom_site_label
 _atom_site_symmetry_multiplicity
 _atom_site_fract_x
 _atom_site_fract_y
 _atom_site_fract_z
 _atom_site_occupancy
  Ni  Ni0  1  0.000000  0.000000  0.500000  1
  Ni  Ni1  1  0.500000  0.000000  0.000000  1
  Ni  Ni2  1  0.500000  0.500000  0.500000  1
  Sb  Sb3  1  0.160826  0.822969  0.663537  1
  Sb  Sb4  1  0.839174  0.177031  0.336463  1
  Sb  Sb5  1  0.841408  0.505856  0.658457  1
  Sb  Sb6  1  0.158592  0.494144  0.341543  1
  Sb  Sb7  1  0.817049  0.664447  0.158592  1
  Sb  Sb8  1  0.182951  0.335553  0.841408  1
  Sb  Sb9  1  0.502712  0.662143  0.839174  1
  Sb  Sb10  1  0.497288  0.337857  0.160826  1
  Sb  Sb11  1  0.658457  0.152603  0.817049  1
  Sb  Sb12  1  0.341543  0.847397  0.182951  1
  Sb  Sb13  1  0.663537  0.840568  0.502712  1
  Sb  Sb14  1  0.336463  0.159432  0.497288  1
  Os  Os15  1  0.000000  0.500000  0.000000  1
