# generated using pymatgen
data_YbHoGa9Ir2Pd
_symmetry_space_group_name_H-M   'P 1'
_cell_length_a   7.61223818
_cell_length_b   7.60416447
_cell_length_c   9.50600600
_cell_angle_alpha   90.00000000
_cell_angle_beta   90.00000000
_cell_angle_gamma   119.89320051
_symmetry_Int_Tables_number   1
_chemical_formula_structural   YbHoGa9Ir2Pd
_chemical_formula_sum   'Yb2 Ho2 Ga18 Ir4 Pd2'
_cell_volume   477.04457480
_cell_formula_units_Z   2
loop_
 _symmetry_equiv_pos_site_id
 _symmetry_equiv_pos_as_xyz
  1  'x, y, z'
loop_
 _atom_site_type_symbol
 _atom_site_label
 _atom_site_symmetry_multiplicity
 _atom_site_fract_x
 _atom_site_fract_y
 _atom_site_fract_z
 _atom_site_occupancy
  Yb  Yb0  1  0.996969  0.667605  0.250000  1
  Yb  Yb1  1  0.003031  0.332395  0.750000  1
  Ho  Ho2  1  0.667983  0.997084  0.250000  1
  Ho  Ho3  1  0.332017  0.002916  0.750000  1
  Ga  Ga4  1  0.127553  0.127373  0.250000  1
  Ga  Ga5  1  0.872447  0.872627  0.750000  1
  Ga  Ga6  1  0.999038  0.337478  0.080679  1
  Ga  Ga7  1  0.000962  0.662522  0.919321  1
  Ga  Ga8  1  0.000962  0.662522  0.580679  1
  Ga  Ga9  1  0.335860  0.998564  0.418682  1
  Ga  Ga10  1  0.999038  0.337478  0.419321  1
  Ga  Ga11  1  0.664140  0.001436  0.581318  1
  Ga  Ga12  1  0.664140  0.001436  0.918682  1
  Ga  Ga13  1  0.335860  0.998564  0.081318  1
  Ga  Ga14  1  0.334368  0.334970  0.566643  1
  Ga  Ga15  1  0.665632  0.665030  0.433357  1
  Ga  Ga16  1  0.665632  0.665030  0.066643  1
  Ga  Ga17  1  0.334368  0.334970  0.933357  1
  Ga  Ga18  1  0.337592  0.546671  0.250000  1
  Ga  Ga19  1  0.662408  0.453329  0.750000  1
  Ga  Ga20  1  0.546922  0.337951  0.250000  1
  Ga  Ga21  1  0.453078  0.662049  0.750000  1
  Ir  Ir22  1  0.670740  0.327845  0.999971  1
  Ir  Ir23  1  0.329260  0.672155  0.000029  1
  Ir  Ir24  1  0.329260  0.672155  0.499971  1
  Ir  Ir25  1  0.670740  0.327845  0.500029  1
  Pd  Pd26  1  0.000000  0.000000  0.000000  1
  Pd  Pd27  1  0.000000  0.000000  0.500000  1
