# generated using pymatgen
data_TbTmB6Ir
_symmetry_space_group_name_H-M   'P 1'
_cell_length_a   3.63132900
_cell_length_b   9.14606400
_cell_length_c   11.51177500
_cell_angle_alpha   90.00000000
_cell_angle_beta   90.00000000
_cell_angle_gamma   90.00000000
_symmetry_Int_Tables_number   1
_chemical_formula_structural   TbTmB6Ir
_chemical_formula_sum   'Tb4 Tm4 B24 Ir4'
_cell_volume   382.33330118
_cell_formula_units_Z   4
loop_
 _symmetry_equiv_pos_site_id
 _symmetry_equiv_pos_as_xyz
  1  'x, y, z'
loop_
 _atom_site_type_symbol
 _atom_site_label
 _atom_site_symmetry_multiplicity
 _atom_site_fract_x
 _atom_site_fract_y
 _atom_site_fract_z
 _atom_site_occupancy
  Tb  Tb0  1  0.000000  0.321435  0.413564  1
  Tb  Tb1  1  0.000000  0.678565  0.586436  1
  Tb  Tb2  1  0.000000  0.821435  0.086436  1
  Tb  Tb3  1  0.000000  0.178565  0.913564  1
  Tm  Tm4  1  0.000000  0.944107  0.374033  1
  Tm  Tm5  1  0.000000  0.055893  0.625967  1
  Tm  Tm6  1  0.000000  0.444107  0.125967  1
  Tm  Tm7  1  0.000000  0.555893  0.874033  1
  B  B8  1  0.500000  0.553983  0.433554  1
  B  B9  1  0.500000  0.446017  0.566446  1
  B  B10  1  0.500000  0.053983  0.066446  1
  B  B11  1  0.500000  0.946017  0.933554  1
  B  B12  1  0.500000  0.750642  0.420050  1
  B  B13  1  0.500000  0.249358  0.579950  1
  B  B14  1  0.500000  0.250642  0.079950  1
  B  B15  1  0.500000  0.749358  0.920050  1
  B  B16  1  0.500000  0.793186  0.265295  1
  B  B17  1  0.500000  0.206814  0.734705  1
  B  B18  1  0.500000  0.293186  0.234705  1
  B  B19  1  0.500000  0.706814  0.765295  1
  B  B20  1  0.500000  0.631127  0.183637  1
  B  B21  1  0.500000  0.368873  0.816363  1
  B  B22  1  0.500000  0.131127  0.316363  1
  B  B23  1  0.500000  0.868873  0.683637  1
  B  B24  1  0.500000  0.982070  0.213742  1
  B  B25  1  0.500000  0.017930  0.786258  1
  B  B26  1  0.500000  0.482070  0.286258  1
  B  B27  1  0.500000  0.517930  0.713742  1
  B  B28  1  0.500000  0.606349  0.028954  1
  B  B29  1  0.500000  0.393651  0.971046  1
  B  B30  1  0.500000  0.106349  0.471046  1
  B  B31  1  0.500000  0.893651  0.528954  1
  Ir  Ir32  1  0.000000  0.638886  0.320156  1
  Ir  Ir33  1  0.000000  0.361114  0.679844  1
  Ir  Ir34  1  0.000000  0.138886  0.179844  1
  Ir  Ir35  1  0.000000  0.861114  0.820156  1
