# generated using pymatgen
data_Ca6Si24Os3Ru5
_symmetry_space_group_name_H-M   'P 1'
_cell_length_a   10.16656253
_cell_length_b   10.16656278
_cell_length_c   8.18557219
_cell_angle_alpha   89.98990652
_cell_angle_beta   89.98991125
_cell_angle_gamma   132.48183757
_symmetry_Int_Tables_number   1
_chemical_formula_structural   Ca6Si24Os3Ru5
_chemical_formula_sum   'Ca6 Si24 Os3 Ru5'
_cell_volume   623.95645084
_cell_formula_units_Z   1
loop_
 _symmetry_equiv_pos_site_id
 _symmetry_equiv_pos_as_xyz
  1  'x, y, z'
loop_
 _atom_site_type_symbol
 _atom_site_label
 _atom_site_symmetry_multiplicity
 _atom_site_fract_x
 _atom_site_fract_y
 _atom_site_fract_z
 _atom_site_occupancy
  Ca  Ca0  1  0.500057  0.499943  0.500000  1
  Ca  Ca1  1  0.999823  0.000177  0.000000  1
  Ca  Ca2  1  0.501584  0.001513  0.749975  1
  Ca  Ca3  1  0.998487  0.498416  0.250025  1
  Ca  Ca4  1  0.498625  0.998589  0.249895  1
  Ca  Ca5  1  0.001411  0.501375  0.750105  1
  Si  Si6  1  0.794254  0.205746  0.500000  1
  Si  Si7  1  0.294303  0.705697  0.000000  1
  Si  Si8  1  0.205774  0.794226  0.500000  1
  Si  Si9  1  0.705870  0.294130  0.000000  1
  Si  Si10  1  0.332683  0.332373  0.832396  1
  Si  Si11  1  0.667627  0.667317  0.167604  1
  Si  Si12  1  0.167325  0.167477  0.332335  1
  Si  Si13  1  0.832523  0.832675  0.667665  1
  Si  Si14  1  0.124286  0.891995  0.730117  1
  Si  Si15  1  0.108005  0.875714  0.269883  1
  Si  Si16  1  0.608348  0.376121  0.229640  1
  Si  Si17  1  0.623879  0.391652  0.770360  1
  Si  Si18  1  0.875223  0.107745  0.269276  1
  Si  Si19  1  0.892255  0.124777  0.730724  1
  Si  Si20  1  0.392474  0.624563  0.769944  1
  Si  Si21  1  0.375437  0.607526  0.230056  1
  Si  Si22  1  0.346267  0.113695  0.507582  1
  Si  Si23  1  0.886305  0.653733  0.492418  1
  Si  Si24  1  0.386726  0.154194  0.007044  1
  Si  Si25  1  0.845806  0.613274  0.992956  1
  Si  Si26  1  0.653958  0.886369  0.491962  1
  Si  Si27  1  0.113631  0.346042  0.508038  1
  Si  Si28  1  0.614292  0.847038  0.992355  1
  Si  Si29  1  0.152962  0.385708  0.007645  1
  Os  Os30  1  0.668856  0.331144  0.500000  1
  Os  Os31  1  0.168884  0.831116  0.000000  1
  Os  Os32  1  0.331161  0.668839  0.500000  1
  Ru  Ru33  1  0.831033  0.168967  0.000000  1
  Ru  Ru34  1  0.124984  0.124817  0.624557  1
  Ru  Ru35  1  0.875183  0.875016  0.375443  1
  Ru  Ru36  1  0.374581  0.374877  0.124474  1
  Ru  Ru37  1  0.625123  0.625419  0.875526  1
