# generated using pymatgen
data_Pr6CdGa3Pt13
_symmetry_space_group_name_H-M   'P 1'
_cell_length_a   8.49561014
_cell_length_b   8.49561101
_cell_length_c   8.49561100
_cell_angle_alpha   109.58567518
_cell_angle_beta   109.58567728
_cell_angle_gamma   109.58566226
_symmetry_Int_Tables_number   1
_chemical_formula_structural   Pr6CdGa3Pt13
_chemical_formula_sum   'Pr6 Cd1 Ga3 Pt13'
_cell_volume   470.01085343
_cell_formula_units_Z   1
loop_
 _symmetry_equiv_pos_site_id
 _symmetry_equiv_pos_as_xyz
  1  'x, y, z'
loop_
 _atom_site_type_symbol
 _atom_site_label
 _atom_site_symmetry_multiplicity
 _atom_site_fract_x
 _atom_site_fract_y
 _atom_site_fract_z
 _atom_site_occupancy
  Pr  Pr0  1  0.697590  0.697590  0.999117  1
  Pr  Pr1  1  0.302410  0.000883  0.302410  1
  Pr  Pr2  1  0.000883  0.302410  0.302410  1
  Pr  Pr3  1  0.302410  0.302410  0.000883  1
  Pr  Pr4  1  0.697590  0.999117  0.697590  1
  Pr  Pr5  1  0.999117  0.697590  0.697590  1
  Cd  Cd6  1  0.500000  0.500000  0.500000  1
  Ga  Ga7  1  0.000000  0.000000  0.500000  1
  Ga  Ga8  1  0.000000  0.500000  0.000000  1
  Ga  Ga9  1  0.500000  0.000000  0.000000  1
  Pt  Pt10  1  0.319578  0.319578  0.652840  1
  Pt  Pt11  1  0.679374  0.000000  0.320626  1
  Pt  Pt12  1  0.000000  0.679374  0.320626  1
  Pt  Pt13  1  0.679374  0.320626  0.000000  1
  Pt  Pt14  1  0.319578  0.652840  0.319578  1
  Pt  Pt15  1  0.000000  0.320626  0.679374  1
  Pt  Pt16  1  0.320626  0.679374  0.000000  1
  Pt  Pt17  1  0.320626  0.000000  0.679374  1
  Pt  Pt18  1  0.652840  0.319578  0.319578  1
  Pt  Pt19  1  0.680422  0.680422  0.347160  1
  Pt  Pt20  1  0.680422  0.347160  0.680422  1
  Pt  Pt21  1  0.347160  0.680422  0.680422  1
  Pt  Pt22  1  0.000000  0.000000  0.000000  1
