# generated using pymatgen
data_Sr4Cd(BiO4)3
_symmetry_space_group_name_H-M   'P 1'
_cell_length_a   5.95931374
_cell_length_b   6.13180856
_cell_length_c   8.50064527
_cell_angle_alpha   90.04562958
_cell_angle_beta   89.57943143
_cell_angle_gamma   90.05562735
_symmetry_Int_Tables_number   1
_chemical_formula_structural   Sr4Cd(BiO4)3
_chemical_formula_sum   'Sr4 Cd1 Bi3 O12'
_cell_volume   310.61662118
_cell_formula_units_Z   1
loop_
 _symmetry_equiv_pos_site_id
 _symmetry_equiv_pos_as_xyz
  1  'x, y, z'
loop_
 _atom_site_type_symbol
 _atom_site_label
 _atom_site_symmetry_multiplicity
 _atom_site_fract_x
 _atom_site_fract_y
 _atom_site_fract_z
 _atom_site_occupancy
  Sr  Sr0  1  0.983836  0.444884  0.234158  1
  Sr  Sr1  1  0.513319  0.953596  0.237764  1
  Sr  Sr2  1  0.486681  0.046404  0.762236  1
  Sr  Sr3  1  0.016164  0.555116  0.765842  1
  Cd  Cd4  1  0.000000  0.000000  0.000000  1
  Bi  Bi5  1  0.500000  0.500000  0.500000  1
  Bi  Bi6  1  0.500000  0.500000  0.000000  1
  Bi  Bi7  1  0.000000  0.000000  0.500000  1
  O  O8  1  0.897539  0.958436  0.737331  1
  O  O9  1  0.789617  0.715238  0.434772  1
  O  O10  1  0.789672  0.692783  0.043643  1
  O  O11  1  0.710379  0.210823  0.440858  1
  O  O12  1  0.690462  0.214264  0.049415  1
  O  O13  1  0.603516  0.459551  0.749236  1
  O  O14  1  0.396484  0.540449  0.250764  1
  O  O15  1  0.309538  0.785736  0.950585  1
  O  O16  1  0.289621  0.789177  0.559142  1
  O  O17  1  0.210328  0.307217  0.956357  1
  O  O18  1  0.210383  0.284762  0.565228  1
  O  O19  1  0.102461  0.041564  0.262669  1
