# generated using pymatgen
data_Ce4Si(AgRh3)3
_symmetry_space_group_name_H-M   'P 1'
_cell_length_a   7.33191164
_cell_length_b   7.33191182
_cell_length_c   7.34466600
_cell_angle_alpha   109.50646260
_cell_angle_beta   109.50646310
_cell_angle_gamma   109.43595468
_symmetry_Int_Tables_number   1
_chemical_formula_structural   Ce4Si(AgRh3)3
_chemical_formula_sum   'Ce4 Si1 Ag3 Rh9'
_cell_volume   303.80543906
_cell_formula_units_Z   1
loop_
 _symmetry_equiv_pos_site_id
 _symmetry_equiv_pos_as_xyz
  1  'x, y, z'
loop_
 _atom_site_type_symbol
 _atom_site_label
 _atom_site_symmetry_multiplicity
 _atom_site_fract_x
 _atom_site_fract_y
 _atom_site_fract_z
 _atom_site_occupancy
  Ce  Ce0  1  0.000000  0.000000  0.500000  1
  Ce  Ce1  1  0.042068  0.521034  0.021034  1
  Ce  Ce2  1  0.478966  0.957932  0.978966  1
  Ce  Ce3  1  0.478966  0.521034  0.500000  1
  Si  Si4  1  0.000000  0.000000  0.000000  1
  Ag  Ag5  1  0.744514  0.255486  0.500000  1
  Ag  Ag6  1  0.744514  0.489027  0.244514  1
  Ag  Ag7  1  0.510973  0.255486  0.755486  1
  Rh  Rh8  1  0.245281  0.490562  0.745281  1
  Rh  Rh9  1  0.245281  0.754719  0.500000  1
  Rh  Rh10  1  0.509438  0.754719  0.254719  1
  Rh  Rh11  1  0.731761  0.723853  0.002324  1
  Rh  Rh12  1  0.276147  0.007908  0.278471  1
  Rh  Rh13  1  0.992092  0.268239  0.270563  1
  Rh  Rh14  1  0.276147  0.268239  0.997676  1
  Rh  Rh15  1  0.731761  0.007908  0.729437  1
  Rh  Rh16  1  0.992092  0.723853  0.721529  1
