# generated using pymatgen
data_TbLuB6W
_symmetry_space_group_name_H-M   'P 1'
_cell_length_a   3.58074900
_cell_length_b   9.26887700
_cell_length_c   11.68157000
_cell_angle_alpha   90.00000000
_cell_angle_beta   90.00000000
_cell_angle_gamma   90.00000000
_symmetry_Int_Tables_number   1
_chemical_formula_structural   TbLuB6W
_chemical_formula_sum   'Tb4 Lu4 B24 W4'
_cell_volume   387.70572508
_cell_formula_units_Z   4
loop_
 _symmetry_equiv_pos_site_id
 _symmetry_equiv_pos_as_xyz
  1  'x, y, z'
loop_
 _atom_site_type_symbol
 _atom_site_label
 _atom_site_symmetry_multiplicity
 _atom_site_fract_x
 _atom_site_fract_y
 _atom_site_fract_z
 _atom_site_occupancy
  Tb  Tb0  1  0.000000  0.321200  0.413971  1
  Tb  Tb1  1  0.000000  0.678800  0.586029  1
  Tb  Tb2  1  0.000000  0.821200  0.086029  1
  Tb  Tb3  1  0.000000  0.178800  0.913971  1
  Lu  Lu4  1  0.000000  0.944719  0.371969  1
  Lu  Lu5  1  0.000000  0.055281  0.628031  1
  Lu  Lu6  1  0.000000  0.444719  0.128031  1
  Lu  Lu7  1  0.000000  0.555281  0.871969  1
  B  B8  1  0.500000  0.552204  0.434041  1
  B  B9  1  0.500000  0.447796  0.565959  1
  B  B10  1  0.500000  0.052204  0.065959  1
  B  B11  1  0.500000  0.947796  0.934041  1
  B  B12  1  0.500000  0.753359  0.420767  1
  B  B13  1  0.500000  0.246641  0.579233  1
  B  B14  1  0.500000  0.253359  0.079233  1
  B  B15  1  0.500000  0.746641  0.920767  1
  B  B16  1  0.500000  0.795763  0.264436  1
  B  B17  1  0.500000  0.204237  0.735564  1
  B  B18  1  0.500000  0.295763  0.235564  1
  B  B19  1  0.500000  0.704237  0.764436  1
  B  B20  1  0.500000  0.630378  0.182840  1
  B  B21  1  0.500000  0.369622  0.817160  1
  B  B22  1  0.500000  0.130378  0.317160  1
  B  B23  1  0.500000  0.869622  0.682840  1
  B  B24  1  0.500000  0.979303  0.213429  1
  B  B25  1  0.500000  0.020697  0.786571  1
  B  B26  1  0.500000  0.479303  0.286571  1
  B  B27  1  0.500000  0.520697  0.713429  1
  B  B28  1  0.500000  0.597719  0.027286  1
  B  B29  1  0.500000  0.402281  0.972714  1
  B  B30  1  0.500000  0.097719  0.472714  1
  B  B31  1  0.500000  0.902281  0.527286  1
  W  W32  1  0.000000  0.640400  0.319717  1
  W  W33  1  0.000000  0.359600  0.680283  1
  W  W34  1  0.000000  0.140400  0.180283  1
  W  W35  1  0.000000  0.859600  0.819717  1
