# generated using pymatgen
data_Nb3Ga3TcIr2
_symmetry_space_group_name_H-M   'P 1'
_cell_length_a   7.49456500
_cell_length_b   7.49456416
_cell_length_c   2.94120000
_cell_angle_alpha   90.00000000
_cell_angle_beta   90.00000000
_cell_angle_gamma   119.99999929
_symmetry_Int_Tables_number   1
_chemical_formula_structural   Nb3Ga3TcIr2
_chemical_formula_sum   'Nb3 Ga3 Tc1 Ir2'
_cell_volume   143.06981139
_cell_formula_units_Z   1
loop_
 _symmetry_equiv_pos_site_id
 _symmetry_equiv_pos_as_xyz
  1  'x, y, z'
loop_
 _atom_site_type_symbol
 _atom_site_label
 _atom_site_symmetry_multiplicity
 _atom_site_fract_x
 _atom_site_fract_y
 _atom_site_fract_z
 _atom_site_occupancy
  Nb  Nb0  1  0.363332  0.000000  0.500001  1
  Nb  Nb1  1  0.000000  0.363332  0.500001  1
  Nb  Nb2  1  0.636668  0.636668  0.500001  1
  Ga  Ga3  1  0.701405  0.000000  0.000000  1
  Ga  Ga4  1  0.298594  0.298595  0.000000  1
  Ga  Ga5  1  0.000000  0.701406  0.000000  1
  Tc  Tc6  1  0.000000  0.000000  0.500001  1
  Ir  Ir7  1  0.666667  0.333334  0.000000  1
  Ir  Ir8  1  0.333334  0.666667  0.000000  1
