# generated using pymatgen
data_CrPCl9
_symmetry_space_group_name_H-M   'P 1'
_cell_length_a   10.48980827
_cell_length_b   10.48980792
_cell_length_c   6.37061900
_cell_angle_alpha   90.00000000
_cell_angle_beta   90.00000000
_cell_angle_gamma   108.62281282
_symmetry_Int_Tables_number   1
_chemical_formula_structural   CrPCl9
_chemical_formula_sum   'Cr2 P2 Cl18'
_cell_volume   664.29459108
_cell_formula_units_Z   2
loop_
 _symmetry_equiv_pos_site_id
 _symmetry_equiv_pos_as_xyz
  1  'x, y, z'
loop_
 _atom_site_type_symbol
 _atom_site_label
 _atom_site_symmetry_multiplicity
 _atom_site_fract_x
 _atom_site_fract_y
 _atom_site_fract_z
 _atom_site_occupancy
  Cr  Cr0  1  0.750000  0.250000  0.606101  1
  Cr  Cr1  1  0.250000  0.750000  0.393899  1
  P  P2  1  0.750000  0.750000  0.000000  1
  P  P3  1  0.250000  0.250000  0.000000  1
  Cl  Cl4  1  0.223389  0.091861  0.819664  1
  Cl  Cl5  1  0.408139  0.276611  0.180336  1
  Cl  Cl6  1  0.904819  0.404819  0.769730  1
  Cl  Cl7  1  0.095181  0.595181  0.230270  1
  Cl  Cl8  1  0.404819  0.904819  0.230270  1
  Cl  Cl9  1  0.595181  0.095181  0.769730  1
  Cl  Cl10  1  0.750000  0.250000  0.267132  1
  Cl  Cl11  1  0.250000  0.750000  0.732868  1
  Cl  Cl12  1  0.114070  0.885930  0.395349  1
  Cl  Cl13  1  0.614070  0.385930  0.604651  1
  Cl  Cl14  1  0.385930  0.614070  0.395349  1
  Cl  Cl15  1  0.885930  0.114070  0.604651  1
  Cl  Cl16  1  0.276611  0.408139  0.819664  1
  Cl  Cl17  1  0.091861  0.223389  0.180336  1
  Cl  Cl18  1  0.776611  0.908139  0.180336  1
  Cl  Cl19  1  0.591861  0.723389  0.819664  1
  Cl  Cl20  1  0.908139  0.776611  0.819664  1
  Cl  Cl21  1  0.723389  0.591861  0.180336  1
