# generated using pymatgen
data_Tm4Sn5SbRh7
_symmetry_space_group_name_H-M   'P 1'
_cell_length_a   7.56904581
_cell_length_b   7.56904794
_cell_length_c   7.56904707
_cell_angle_alpha   109.40994089
_cell_angle_beta   109.40995956
_cell_angle_gamma   109.59382880
_symmetry_Int_Tables_number   1
_chemical_formula_structural   Tm4Sn5SbRh7
_chemical_formula_sum   'Tm4 Sn5 Sb1 Rh7'
_cell_volume   333.81067830
_cell_formula_units_Z   1
loop_
 _symmetry_equiv_pos_site_id
 _symmetry_equiv_pos_as_xyz
  1  'x, y, z'
loop_
 _atom_site_type_symbol
 _atom_site_label
 _atom_site_symmetry_multiplicity
 _atom_site_fract_x
 _atom_site_fract_y
 _atom_site_fract_z
 _atom_site_occupancy
  Tm  Tm0  1  0.497049  0.998359  0.000000  1
  Tm  Tm1  1  0.998359  0.497049  0.000000  1
  Tm  Tm2  1  0.998359  0.998359  0.501310  1
  Tm  Tm3  1  0.497049  0.497049  0.498690  1
  Sn  Sn4  1  0.312952  0.998057  0.314896  1
  Sn  Sn5  1  0.998057  0.683160  0.685104  1
  Sn  Sn6  1  0.691104  0.691104  0.000000  1
  Sn  Sn7  1  0.683160  0.998057  0.685104  1
  Sn  Sn8  1  0.998057  0.312952  0.314896  1
  Sb  Sb9  1  0.318450  0.318450  0.000000  1
  Rh  Rh10  1  0.252088  0.500914  0.751173  1
  Rh  Rh11  1  0.500914  0.252088  0.751173  1
  Rh  Rh12  1  0.748469  0.248469  0.500000  1
  Rh  Rh13  1  0.500914  0.749742  0.248827  1
  Rh  Rh14  1  0.006806  0.006806  0.000000  1
  Rh  Rh15  1  0.248469  0.748469  0.500000  1
  Rh  Rh16  1  0.749742  0.500914  0.248827  1
