# generated using pymatgen
data_HoLu19FeCo3Sb8
_symmetry_space_group_name_H-M   'P 1'
_cell_length_a   7.66368885
_cell_length_b   8.67828600
_cell_length_c   11.93533926
_cell_angle_alpha   90.00000000
_cell_angle_beta   90.09971482
_cell_angle_gamma   90.00000000
_symmetry_Int_Tables_number   1
_chemical_formula_structural   HoLu19FeCo3Sb8
_chemical_formula_sum   'Ho1 Lu19 Fe1 Co3 Sb8'
_cell_volume   793.79056556
_cell_formula_units_Z   1
loop_
 _symmetry_equiv_pos_site_id
 _symmetry_equiv_pos_as_xyz
  1  'x, y, z'
loop_
 _atom_site_type_symbol
 _atom_site_label
 _atom_site_symmetry_multiplicity
 _atom_site_fract_x
 _atom_site_fract_y
 _atom_site_fract_z
 _atom_site_occupancy
  Ho  Ho0  1  0.877004  0.750000  0.807961  1
  Lu  Lu1  1  0.157343  0.750000  0.204942  1
  Lu  Lu2  1  0.656827  0.250000  0.295390  1
  Lu  Lu3  1  0.843024  0.250000  0.795770  1
  Lu  Lu4  1  0.344333  0.750000  0.703783  1
  Lu  Lu5  1  0.448170  0.750000  0.997492  1
  Lu  Lu6  1  0.948277  0.250000  0.502139  1
  Lu  Lu7  1  0.550774  0.250000  0.002557  1
  Lu  Lu8  1  0.052466  0.750000  0.497075  1
  Lu  Lu9  1  0.621057  0.750000  0.309180  1
  Lu  Lu10  1  0.122020  0.250000  0.191039  1
  Lu  Lu11  1  0.378078  0.250000  0.691198  1
  Lu  Lu12  1  0.824318  0.963378  0.066209  1
  Lu  Lu13  1  0.324959  0.036385  0.435150  1
  Lu  Lu14  1  0.176541  0.460298  0.934969  1
  Lu  Lu15  1  0.675532  0.537651  0.564888  1
  Lu  Lu16  1  0.176541  0.039702  0.934969  1
  Lu  Lu17  1  0.675532  0.962349  0.564888  1
  Lu  Lu18  1  0.824318  0.536622  0.066209  1
  Lu  Lu19  1  0.324959  0.463615  0.435150  1
  Fe  Fe20  1  0.429968  0.750000  0.490173  1
  Co  Co21  1  0.931316  0.250000  0.009215  1
  Co  Co22  1  0.569352  0.250000  0.509165  1
  Co  Co23  1  0.068797  0.750000  0.991837  1
  Sb  Sb24  1  0.931379  0.991827  0.327601  1
  Sb  Sb25  1  0.431567  0.008132  0.172003  1
  Sb  Sb26  1  0.069244  0.490999  0.671807  1
  Sb  Sb27  1  0.567056  0.507662  0.827915  1
  Sb  Sb28  1  0.069244  0.009001  0.671807  1
  Sb  Sb29  1  0.567056  0.992338  0.827915  1
  Sb  Sb30  1  0.931379  0.508173  0.327601  1
  Sb  Sb31  1  0.431567  0.491868  0.172003  1
