# generated using pymatgen
data_Nb4Co4SiAs3
_symmetry_space_group_name_H-M   'P 1'
_cell_length_a   3.72735200
_cell_length_b   6.30256058
_cell_length_c   7.14819562
_cell_angle_alpha   89.95140565
_cell_angle_beta   90.00000000
_cell_angle_gamma   90.00000000
_symmetry_Int_Tables_number   1
_chemical_formula_structural   Nb4Co4SiAs3
_chemical_formula_sum   'Nb4 Co4 Si1 As3'
_cell_volume   167.92436329
_cell_formula_units_Z   1
loop_
 _symmetry_equiv_pos_site_id
 _symmetry_equiv_pos_as_xyz
  1  'x, y, z'
loop_
 _atom_site_type_symbol
 _atom_site_label
 _atom_site_symmetry_multiplicity
 _atom_site_fract_x
 _atom_site_fract_y
 _atom_site_fract_z
 _atom_site_occupancy
  Nb  Nb0  1  0.250000  0.017840  0.826948  1
  Nb  Nb1  1  0.250000  0.528234  0.676883  1
  Nb  Nb2  1  0.750000  0.972748  0.171818  1
  Nb  Nb3  1  0.750000  0.477122  0.324686  1
  Co  Co4  1  0.250000  0.148200  0.438051  1
  Co  Co5  1  0.250000  0.646210  0.055223  1
  Co  Co6  1  0.750000  0.849687  0.568555  1
  Co  Co7  1  0.750000  0.359504  0.937232  1
  Si  Si8  1  0.750000  0.722811  0.880801  1
  As  As9  1  0.250000  0.776936  0.377936  1
  As  As10  1  0.250000  0.276075  0.119420  1
  As  As11  1  0.750000  0.224631  0.622447  1
