# generated using pymatgen
data_HoEr2Zr7Sn6
_symmetry_space_group_name_H-M   'P 1'
_cell_length_a   8.62459419
_cell_length_b   8.72396746
_cell_length_c   5.95077200
_cell_angle_alpha   90.00000000
_cell_angle_beta   90.00000000
_cell_angle_gamma   119.95511783
_symmetry_Int_Tables_number   1
_chemical_formula_structural   HoEr2Zr7Sn6
_chemical_formula_sum   'Ho1 Er2 Zr7 Sn6'
_cell_volume   387.92957139
_cell_formula_units_Z   1
loop_
 _symmetry_equiv_pos_site_id
 _symmetry_equiv_pos_as_xyz
  1  'x, y, z'
loop_
 _atom_site_type_symbol
 _atom_site_label
 _atom_site_symmetry_multiplicity
 _atom_site_fract_x
 _atom_site_fract_y
 _atom_site_fract_z
 _atom_site_occupancy
  Ho  Ho0  1  0.762769  0.998861  0.750000  1
  Er  Er1  1  0.241960  0.241773  0.750000  1
  Er  Er2  1  0.234239  0.999088  0.250000  1
  Zr  Zr3  1  0.998749  0.749003  0.750000  1
  Zr  Zr4  1  0.999019  0.252797  0.250000  1
  Zr  Zr5  1  0.753368  0.752711  0.250000  1
  Zr  Zr6  1  0.334807  0.667624  0.499201  1
  Zr  Zr7  1  0.667994  0.333963  0.000851  1
  Zr  Zr8  1  0.667994  0.333963  0.499149  1
  Zr  Zr9  1  0.334807  0.667624  0.000799  1
  Sn  Sn10  1  0.392912  0.996051  0.750000  1
  Sn  Sn11  1  0.394452  0.397431  0.250000  1
  Sn  Sn12  1  0.998254  0.605288  0.250000  1
  Sn  Sn13  1  0.001043  0.399974  0.750000  1
  Sn  Sn14  1  0.607823  0.603983  0.750000  1
  Sn  Sn15  1  0.609811  0.999866  0.250000  1
