# generated using pymatgen
data_Ho20GaBi7Ir4
_symmetry_space_group_name_H-M   'P 1'
_cell_length_a   7.93057599
_cell_length_b   8.97537379
_cell_length_c   12.38192408
_cell_angle_alpha   90.10512157
_cell_angle_beta   90.11045895
_cell_angle_gamma   90.14419814
_symmetry_Int_Tables_number   1
_chemical_formula_structural   Ho20GaBi7Ir4
_chemical_formula_sum   'Ho20 Ga1 Bi7 Ir4'
_cell_volume   881.33799876
_cell_formula_units_Z   1
loop_
 _symmetry_equiv_pos_site_id
 _symmetry_equiv_pos_as_xyz
  1  'x, y, z'
loop_
 _atom_site_type_symbol
 _atom_site_label
 _atom_site_symmetry_multiplicity
 _atom_site_fract_x
 _atom_site_fract_y
 _atom_site_fract_z
 _atom_site_occupancy
  Ho  Ho0  1  0.829921  0.740242  0.790778  1
  Ho  Ho1  1  0.161814  0.250249  0.205705  1
  Ho  Ho2  1  0.346292  0.260006  0.711254  1
  Ho  Ho3  1  0.660020  0.750903  0.292107  1
  Ho  Ho4  1  0.384056  0.740334  0.697417  1
  Ho  Ho5  1  0.624714  0.249977  0.308089  1
  Ho  Ho6  1  0.863371  0.257532  0.808053  1
  Ho  Ho7  1  0.124521  0.749581  0.192683  1
  Ho  Ho8  1  0.946626  0.751012  0.502119  1
  Ho  Ho9  1  0.055055  0.249106  0.498994  1
  Ho  Ho10  1  0.452467  0.259847  0.991425  1
  Ho  Ho11  1  0.553107  0.740063  0.996162  1
  Ho  Ho12  1  0.676759  0.043224  0.566999  1
  Ho  Ho13  1  0.324223  0.956291  0.434515  1
  Ho  Ho14  1  0.174684  0.957945  0.932936  1
  Ho  Ho15  1  0.324773  0.542048  0.433444  1
  Ho  Ho16  1  0.821816  0.040665  0.065401  1
  Ho  Ho17  1  0.672138  0.459216  0.574705  1
  Ho  Ho18  1  0.824283  0.457762  0.063570  1
  Ho  Ho19  1  0.182188  0.541364  0.931999  1
  Ga  Ga20  1  0.564186  0.494958  0.829712  1
  Bi  Bi21  1  0.432737  0.508586  0.174002  1
  Bi  Bi22  1  0.067765  0.508663  0.671946  1
  Bi  Bi23  1  0.432447  0.991661  0.169569  1
  Bi  Bi24  1  0.932589  0.491183  0.327689  1
  Bi  Bi25  1  0.566974  0.007794  0.827781  1
  Bi  Bi26  1  0.932804  0.009045  0.326779  1
  Bi  Bi27  1  0.067876  0.992028  0.674897  1
  Ir  Ir28  1  0.573407  0.749450  0.509576  1
  Ir  Ir29  1  0.427581  0.250071  0.491642  1
  Ir  Ir30  1  0.070436  0.250059  0.989876  1
  Ir  Ir31  1  0.928370  0.749136  0.008176  1
