# generated using pymatgen
data_HoEr4Tm3Ga3Co
_symmetry_space_group_name_H-M   'P 1'
_cell_length_a   9.90617200
_cell_length_b   9.90617284
_cell_length_c   6.85311200
_cell_angle_alpha   90.00000000
_cell_angle_beta   90.00000000
_cell_angle_gamma   120.00000387
_symmetry_Int_Tables_number   1
_chemical_formula_structural   HoEr4Tm3Ga3Co
_chemical_formula_sum   'Ho2 Er8 Tm6 Ga6 Co2'
_cell_volume   582.41185949
_cell_formula_units_Z   2
loop_
 _symmetry_equiv_pos_site_id
 _symmetry_equiv_pos_as_xyz
  1  'x, y, z'
loop_
 _atom_site_type_symbol
 _atom_site_label
 _atom_site_symmetry_multiplicity
 _atom_site_fract_x
 _atom_site_fract_y
 _atom_site_fract_z
 _atom_site_occupancy
  Ho  Ho0  1  0.000000  0.000000  0.269918  1
  Ho  Ho1  1  0.000000  0.000000  0.769918  1
  Er  Er2  1  0.333333  0.666667  0.672614  1
  Er  Er3  1  0.666667  0.333333  0.172614  1
  Er  Er4  1  0.464072  0.535928  0.292819  1
  Er  Er5  1  0.535928  0.464072  0.792819  1
  Er  Er6  1  0.464072  0.928146  0.292819  1
  Er  Er7  1  0.071854  0.535928  0.292819  1
  Er  Er8  1  0.928146  0.464072  0.792819  1
  Er  Er9  1  0.535928  0.071854  0.792819  1
  Tm  Tm10  1  0.173290  0.826710  0.991188  1
  Tm  Tm11  1  0.826710  0.173290  0.491188  1
  Tm  Tm12  1  0.173290  0.346579  0.991188  1
  Tm  Tm13  1  0.653421  0.826710  0.991188  1
  Tm  Tm14  1  0.346579  0.173290  0.491188  1
  Tm  Tm15  1  0.826710  0.653421  0.491188  1
  Ga  Ga16  1  0.163468  0.836532  0.540241  1
  Ga  Ga17  1  0.836532  0.163468  0.040241  1
  Ga  Ga18  1  0.163468  0.326936  0.540241  1
  Ga  Ga19  1  0.673064  0.836532  0.540241  1
  Ga  Ga20  1  0.326936  0.163468  0.040241  1
  Ga  Ga21  1  0.836532  0.673064  0.040241  1
  Co  Co22  1  0.333333  0.666667  0.057784  1
  Co  Co23  1  0.666667  0.333333  0.557784  1
