# generated using pymatgen
data_CsAlFeF6
_symmetry_space_group_name_H-M   'P 1'
_cell_length_a   7.23856200
_cell_length_b   7.32233200
_cell_length_c   10.37823800
_cell_angle_alpha   90.00000000
_cell_angle_beta   90.00000000
_cell_angle_gamma   90.00000000
_symmetry_Int_Tables_number   1
_chemical_formula_structural   CsAlFeF6
_chemical_formula_sum   'Cs4 Al4 Fe4 F24'
_cell_volume   550.07934869
_cell_formula_units_Z   4
loop_
 _symmetry_equiv_pos_site_id
 _symmetry_equiv_pos_as_xyz
  1  'x, y, z'
loop_
 _atom_site_type_symbol
 _atom_site_label
 _atom_site_symmetry_multiplicity
 _atom_site_fract_x
 _atom_site_fract_y
 _atom_site_fract_z
 _atom_site_occupancy
  Cs  Cs0  1  0.250000  0.514596  0.129580  1
  Cs  Cs1  1  0.750000  0.485404  0.870420  1
  Cs  Cs2  1  0.750000  0.985404  0.629580  1
  Cs  Cs3  1  0.250000  0.014596  0.370420  1
  Al  Al4  1  0.000000  0.500000  0.500000  1
  Al  Al5  1  0.000000  0.000000  0.000000  1
  Al  Al6  1  0.500000  0.500000  0.500000  1
  Al  Al7  1  0.500000  0.000000  0.000000  1
  Fe  Fe8  1  0.250000  0.724740  0.761247  1
  Fe  Fe9  1  0.750000  0.275260  0.238753  1
  Fe  Fe10  1  0.750000  0.775260  0.261247  1
  Fe  Fe11  1  0.250000  0.224740  0.738753  1
  F  F12  1  0.049344  0.796690  0.904451  1
  F  F13  1  0.950656  0.203310  0.095549  1
  F  F14  1  0.950656  0.703310  0.404451  1
  F  F15  1  0.549344  0.203310  0.095549  1
  F  F16  1  0.049344  0.296690  0.595549  1
  F  F17  1  0.450656  0.796690  0.904451  1
  F  F18  1  0.450656  0.296690  0.595549  1
  F  F19  1  0.549344  0.703310  0.404451  1
  F  F20  1  0.250000  0.032385  0.035286  1
  F  F21  1  0.750000  0.967615  0.964714  1
  F  F22  1  0.750000  0.467615  0.535286  1
  F  F23  1  0.250000  0.532385  0.464714  1
  F  F24  1  0.479130  0.640744  0.643342  1
  F  F25  1  0.520870  0.359256  0.356658  1
  F  F26  1  0.520870  0.859256  0.143342  1
  F  F27  1  0.979130  0.359256  0.356658  1
  F  F28  1  0.479130  0.140744  0.856658  1
  F  F29  1  0.020870  0.640744  0.643342  1
  F  F30  1  0.020870  0.140744  0.856658  1
  F  F31  1  0.979130  0.859256  0.143342  1
  F  F32  1  0.250000  0.964922  0.665623  1
  F  F33  1  0.750000  0.035078  0.334377  1
  F  F34  1  0.750000  0.535078  0.165623  1
  F  F35  1  0.250000  0.464922  0.834377  1
