# generated using pymatgen
data_Tm6Zn22CuAs
_symmetry_space_group_name_H-M   'P 1'
_cell_length_a   8.98946110
_cell_length_b   8.98946012
_cell_length_c   8.98945900
_cell_angle_alpha   60.00000045
_cell_angle_beta   60.00000406
_cell_angle_gamma   59.99999272
_symmetry_Int_Tables_number   1
_chemical_formula_structural   Tm6Zn22CuAs
_chemical_formula_sum   'Tm6 Zn22 Cu1 As1'
_cell_volume   513.67190967
_cell_formula_units_Z   1
loop_
 _symmetry_equiv_pos_site_id
 _symmetry_equiv_pos_as_xyz
  1  'x, y, z'
loop_
 _atom_site_type_symbol
 _atom_site_label
 _atom_site_symmetry_multiplicity
 _atom_site_fract_x
 _atom_site_fract_y
 _atom_site_fract_z
 _atom_site_occupancy
  Tm  Tm0  1  0.715286  0.284714  0.284714  1
  Tm  Tm1  1  0.284714  0.715286  0.715286  1
  Tm  Tm2  1  0.284714  0.715286  0.284714  1
  Tm  Tm3  1  0.715286  0.284714  0.715286  1
  Tm  Tm4  1  0.284714  0.284714  0.715286  1
  Tm  Tm5  1  0.715286  0.715286  0.284714  1
  Zn  Zn6  1  0.121635  0.121635  0.121635  1
  Zn  Zn7  1  0.878365  0.878365  0.878365  1
  Zn  Zn8  1  0.121635  0.121635  0.635095  1
  Zn  Zn9  1  0.121635  0.635095  0.121635  1
  Zn  Zn10  1  0.878365  0.878365  0.364905  1
  Zn  Zn11  1  0.878365  0.364905  0.878365  1
  Zn  Zn12  1  0.635095  0.121635  0.121635  1
  Zn  Zn13  1  0.364905  0.878365  0.878365  1
  Zn  Zn14  1  0.500000  0.000000  0.000000  1
  Zn  Zn15  1  0.000000  0.500000  0.500000  1
  Zn  Zn16  1  0.000000  0.500000  0.000000  1
  Zn  Zn17  1  0.500000  0.000000  0.500000  1
  Zn  Zn18  1  0.000000  0.000000  0.500000  1
  Zn  Zn19  1  0.500000  0.500000  0.000000  1
  Zn  Zn20  1  0.330608  0.330608  0.330608  1
  Zn  Zn21  1  0.669392  0.669392  0.669392  1
  Zn  Zn22  1  0.330608  0.330608  0.008176  1
  Zn  Zn23  1  0.330608  0.008176  0.330608  1
  Zn  Zn24  1  0.669392  0.669392  0.991824  1
  Zn  Zn25  1  0.669392  0.991824  0.669392  1
  Zn  Zn26  1  0.008176  0.330608  0.330608  1
  Zn  Zn27  1  0.991824  0.669392  0.669392  1
  Cu  Cu28  1  0.000000  0.000000  0.000000  1
  As  As29  1  0.500000  0.500000  0.500000  1
