# generated using pymatgen
data_LaTh2Sn3RuPt2
_symmetry_space_group_name_H-M   'P 1'
_cell_length_a   7.62467900
_cell_length_b   7.62602621
_cell_length_c   4.21051500
_cell_angle_alpha   90.00000000
_cell_angle_beta   90.00000000
_cell_angle_gamma   119.99416066
_symmetry_Int_Tables_number   1
_chemical_formula_structural   LaTh2Sn3RuPt2
_chemical_formula_sum   'La1 Th2 Sn3 Ru1 Pt2'
_cell_volume   212.03680914
_cell_formula_units_Z   1
loop_
 _symmetry_equiv_pos_site_id
 _symmetry_equiv_pos_as_xyz
  1  'x, y, z'
loop_
 _atom_site_type_symbol
 _atom_site_label
 _atom_site_symmetry_multiplicity
 _atom_site_fract_x
 _atom_site_fract_y
 _atom_site_fract_z
 _atom_site_occupancy
  La  La0  1  0.587967  0.000000  0.000000  1
  Th  Th1  1  0.999191  0.591089  0.000000  1
  Th  Th2  1  0.408103  0.408911  0.000000  1
  Sn  Sn3  1  0.755004  0.759986  0.500000  1
  Sn  Sn4  1  0.995018  0.240014  0.500000  1
  Sn  Sn5  1  0.251150  0.000000  0.500000  1
  Ru  Ru6  1  0.014298  0.000000  0.000000  1
  Pt  Pt7  1  0.320712  0.652155  0.500000  1
  Pt  Pt8  1  0.668558  0.347845  0.500000  1
