# generated using pymatgen
data_La16Cd4Ru2PtAu
_symmetry_space_group_name_H-M   'P 1'
_cell_length_a   10.18343609
_cell_length_b   10.18307614
_cell_length_c   10.15429208
_cell_angle_alpha   60.07396748
_cell_angle_beta   60.07077102
_cell_angle_gamma   60.13048722
_symmetry_Int_Tables_number   1
_chemical_formula_structural   La16Cd4Ru2PtAu
_chemical_formula_sum   'La16 Cd4 Ru2 Pt1 Au1'
_cell_volume   746.12152352
_cell_formula_units_Z   1
loop_
 _symmetry_equiv_pos_site_id
 _symmetry_equiv_pos_as_xyz
  1  'x, y, z'
loop_
 _atom_site_type_symbol
 _atom_site_label
 _atom_site_symmetry_multiplicity
 _atom_site_fract_x
 _atom_site_fract_y
 _atom_site_fract_z
 _atom_site_occupancy
  La  La0  1  0.896727  0.896776  0.913274  1
  La  La1  1  0.438760  0.438820  0.061882  1
  La  La2  1  0.055705  0.055361  0.436639  1
  La  La3  1  0.445858  0.060349  0.059953  1
  La  La4  1  0.310965  0.686389  0.313929  1
  La  La5  1  0.686904  0.686888  0.312253  1
  La  La6  1  0.686379  0.310755  0.314098  1
  La  La7  1  0.301419  0.890302  0.908185  1
  La  La8  1  0.890282  0.301490  0.908093  1
  La  La9  1  0.308248  0.686502  0.692094  1
  La  La10  1  0.902403  0.902384  0.288431  1
  La  La11  1  0.060237  0.445926  0.059935  1
  La  La12  1  0.310460  0.310605  0.691701  1
  La  La13  1  0.058945  0.456133  0.428100  1
  La  La14  1  0.456230  0.058992  0.427928  1
  La  La15  1  0.686494  0.308388  0.692154  1
  Cd  Cd16  1  0.669694  0.669699  0.990540  1
  Cd  Cd17  1  0.987935  0.671220  0.669515  1
  Cd  Cd18  1  0.671242  0.987916  0.669530  1
  Cd  Cd19  1  0.671452  0.671457  0.669759  1
  Ru  Ru20  1  0.112301  0.671081  0.107224  1
  Ru  Ru21  1  0.671067  0.112291  0.107242  1
  Pt  Pt22  1  0.111172  0.111191  0.101470  1
  Au  Au23  1  0.109122  0.109086  0.676069  1
