# generated using pymatgen
data_K9Rb3Al3GaTe12
_symmetry_space_group_name_H-M   'P 1'
_cell_length_a   14.41046012
_cell_length_b   8.80780605
_cell_length_c   11.28448877
_cell_angle_alpha   52.73253317
_cell_angle_beta   89.71547043
_cell_angle_gamma   89.72945126
_symmetry_Int_Tables_number   1
_chemical_formula_structural   K9Rb3Al3GaTe12
_chemical_formula_sum   'K9 Rb3 Al3 Ga1 Te12'
_cell_volume   1139.81552445
_cell_formula_units_Z   1
loop_
 _symmetry_equiv_pos_site_id
 _symmetry_equiv_pos_as_xyz
  1  'x, y, z'
loop_
 _atom_site_type_symbol
 _atom_site_label
 _atom_site_symmetry_multiplicity
 _atom_site_fract_x
 _atom_site_fract_y
 _atom_site_fract_z
 _atom_site_occupancy
  K  K0  1  0.894902  0.316186  0.403503  1
  K  K1  1  0.612135  0.360434  0.475057  1
  K  K2  1  0.112232  0.640236  0.025188  1
  K  K3  1  0.387212  0.640072  0.525269  1
  K  K4  1  0.888418  0.360381  0.974704  1
  K  K5  1  0.606068  0.315686  0.903734  1
  K  K6  1  0.106248  0.684255  0.596501  1
  K  K7  1  0.393756  0.684537  0.095990  1
  K  K8  1  0.188875  0.147569  0.572879  1
  Rb  Rb9  1  0.311573  0.150350  0.069266  1
  Rb  Rb10  1  0.687206  0.850291  0.930570  1
  Rb  Rb11  1  0.813164  0.850038  0.431303  1
  Al  Al12  1  0.564974  0.053332  0.341612  1
  Al  Al13  1  0.433354  0.949409  0.657636  1
  Al  Al14  1  0.934728  0.053579  0.840527  1
  Ga  Ga15  1  0.067115  0.943795  0.160080  1
  Te  Te16  1  0.400945  0.182920  0.361405  1
  Te  Te17  1  0.901930  0.819060  0.137530  1
  Te  Te18  1  0.596835  0.818487  0.638589  1
  Te  Te19  1  0.099008  0.179680  0.858362  1
  Te  Te20  1  0.691037  0.323797  0.198506  1
  Te  Te21  1  0.192141  0.666001  0.305965  1
  Te  Te22  1  0.306012  0.682073  0.798958  1
  Te  Te23  1  0.808266  0.324442  0.698251  1
  Te  Te24  1  0.552791  0.860619  0.235925  1
  Te  Te25  1  0.054644  0.140747  0.263925  1
  Te  Te26  1  0.446428  0.140947  0.764126  1
  Te  Te27  1  0.948001  0.861080  0.734641  1
