# generated using pymatgen
data_Ac2ScCuSe5
_symmetry_space_group_name_H-M   'P 1'
_cell_length_a   12.34194800
_cell_length_b   4.19509800
_cell_length_c   18.11749900
_cell_angle_alpha   90.00000000
_cell_angle_beta   90.00000000
_cell_angle_gamma   90.00000000
_symmetry_Int_Tables_number   1
_chemical_formula_structural   Ac2ScCuSe5
_chemical_formula_sum   'Ac8 Sc4 Cu4 Se20'
_cell_volume   938.04585546
_cell_formula_units_Z   4
loop_
 _symmetry_equiv_pos_site_id
 _symmetry_equiv_pos_as_xyz
  1  'x, y, z'
loop_
 _atom_site_type_symbol
 _atom_site_label
 _atom_site_symmetry_multiplicity
 _atom_site_fract_x
 _atom_site_fract_y
 _atom_site_fract_z
 _atom_site_occupancy
  Ac  Ac0  1  0.364170  0.250000  0.098753  1
  Ac  Ac1  1  0.010781  0.250000  0.175131  1
  Ac  Ac2  1  0.510781  0.250000  0.324870  1
  Ac  Ac3  1  0.864169  0.250000  0.401247  1
  Ac  Ac4  1  0.135831  0.749999  0.598753  1
  Ac  Ac5  1  0.489219  0.749999  0.675131  1
  Ac  Ac6  1  0.989219  0.749999  0.824870  1
  Ac  Ac7  1  0.635830  0.749999  0.901247  1
  Sc  Sc8  1  0.700302  0.749999  0.136543  1
  Sc  Sc9  1  0.200302  0.749999  0.363458  1
  Sc  Sc10  1  0.799698  0.250000  0.636543  1
  Sc  Sc11  1  0.299698  0.250000  0.863458  1
  Cu  Cu12  1  0.820948  0.250000  0.020161  1
  Cu  Cu13  1  0.320947  0.250000  0.479839  1
  Cu  Cu14  1  0.679053  0.749999  0.520161  1
  Cu  Cu15  1  0.179053  0.749999  0.979839  1
  Se  Se16  1  0.618484  0.250000  0.039301  1
  Se  Se17  1  0.893246  0.749999  0.071569  1
  Se  Se18  1  0.180261  0.749999  0.113800  1
  Se  Se19  1  0.493575  0.749999  0.194794  1
  Se  Se20  1  0.753846  0.250000  0.224839  1
  Se  Se21  1  0.253845  0.250000  0.275161  1
  Se  Se22  1  0.993574  0.749999  0.305206  1
  Se  Se23  1  0.680261  0.749999  0.386200  1
  Se  Se24  1  0.393246  0.749999  0.428431  1
  Se  Se25  1  0.118484  0.250000  0.460698  1
  Se  Se26  1  0.881516  0.749999  0.539301  1
  Se  Se27  1  0.606754  0.250000  0.571569  1
  Se  Se28  1  0.319740  0.250000  0.613800  1
  Se  Se29  1  0.006426  0.250000  0.694795  1
  Se  Se30  1  0.746155  0.749999  0.724839  1
  Se  Se31  1  0.246154  0.749999  0.775161  1
  Se  Se32  1  0.506425  0.250000  0.805206  1
  Se  Se33  1  0.819739  0.250000  0.886200  1
  Se  Se34  1  0.106754  0.250000  0.928431  1
  Se  Se35  1  0.381516  0.749999  0.960698  1
