# generated using pymatgen
data_Zr10ZnSi(SnBi)3
_symmetry_space_group_name_H-M   'P 1'
_cell_length_a   8.76032800
_cell_length_b   8.76032699
_cell_length_c   5.94670300
_cell_angle_alpha   90.00000000
_cell_angle_beta   90.00000000
_cell_angle_gamma   119.99999628
_symmetry_Int_Tables_number   1
_chemical_formula_structural   Zr10ZnSi(SnBi)3
_chemical_formula_sum   'Zr10 Zn1 Si1 Sn3 Bi3'
_cell_volume   395.22788722
_cell_formula_units_Z   1
loop_
 _symmetry_equiv_pos_site_id
 _symmetry_equiv_pos_as_xyz
  1  'x, y, z'
loop_
 _atom_site_type_symbol
 _atom_site_label
 _atom_site_symmetry_multiplicity
 _atom_site_fract_x
 _atom_site_fract_y
 _atom_site_fract_z
 _atom_site_occupancy
  Zr  Zr0  1  0.666667  0.333333  0.005044  1
  Zr  Zr1  1  0.333333  0.666667  0.005044  1
  Zr  Zr2  1  0.333333  0.666667  0.494865  1
  Zr  Zr3  1  0.666667  0.333333  0.494865  1
  Zr  Zr4  1  0.742524  0.742524  0.743810  1
  Zr  Zr5  1  0.257476  0.000000  0.743810  1
  Zr  Zr6  1  0.000000  0.257476  0.743810  1
  Zr  Zr7  1  0.263687  0.263687  0.255424  1
  Zr  Zr8  1  0.736313  0.000000  0.255424  1
  Zr  Zr9  1  0.000000  0.736313  0.255424  1
  Zn  Zn10  1  0.000000  0.000000  0.007687  1
  Si  Si11  1  0.000000  0.000000  0.493077  1
  Sn  Sn12  1  0.612370  0.612370  0.247212  1
  Sn  Sn13  1  0.387630  0.000000  0.247212  1
  Sn  Sn14  1  0.000000  0.387630  0.247212  1
  Bi  Bi15  1  0.393053  0.393053  0.753361  1
  Bi  Bi16  1  0.606947  0.000000  0.753361  1
  Bi  Bi17  1  0.000000  0.606947  0.753361  1
