# generated using pymatgen
data_Rb2NaVO4
_symmetry_space_group_name_H-M   'P 1'
_cell_length_a   6.13661900
_cell_length_b   6.10999070
_cell_length_c   8.02105117
_cell_angle_alpha   87.08410431
_cell_angle_beta   90.00000000
_cell_angle_gamma   90.00000000
_symmetry_Int_Tables_number   1
_chemical_formula_structural   Rb2NaVO4
_chemical_formula_sum   'Rb4 Na2 V2 O8'
_cell_volume   300.35740503
_cell_formula_units_Z   2
loop_
 _symmetry_equiv_pos_site_id
 _symmetry_equiv_pos_as_xyz
  1  'x, y, z'
loop_
 _atom_site_type_symbol
 _atom_site_label
 _atom_site_symmetry_multiplicity
 _atom_site_fract_x
 _atom_site_fract_y
 _atom_site_fract_z
 _atom_site_occupancy
  Rb  Rb0  1  0.750000  0.119185  0.826094  1
  Rb  Rb1  1  0.250000  0.880815  0.173906  1
  Rb  Rb2  1  0.250000  0.305973  0.483506  1
  Rb  Rb3  1  0.750000  0.694027  0.516494  1
  Na  Na4  1  0.750000  0.617018  0.032759  1
  Na  Na5  1  0.250000  0.382982  0.967241  1
  V  V6  1  0.250000  0.804841  0.745046  1
  V  V7  1  0.750000  0.195159  0.254954  1
  O  O8  1  0.520523  0.331302  0.171260  1
  O  O9  1  0.020523  0.668698  0.828739  1
  O  O10  1  0.479477  0.668698  0.828739  1
  O  O11  1  0.979477  0.331302  0.171260  1
  O  O12  1  0.750000  0.203715  0.471881  1
  O  O13  1  0.750000  0.923873  0.193255  1
  O  O14  1  0.250000  0.796285  0.528119  1
  O  O15  1  0.250000  0.076127  0.806745  1
