# generated using pymatgen
data_Pr2Ho2P7Ir8
_symmetry_space_group_name_H-M   'P 1'
_cell_length_a   3.95760700
_cell_length_b   12.81024401
_cell_length_c   13.19055943
_cell_angle_alpha   80.87523118
_cell_angle_beta   90.00000000
_cell_angle_gamma   90.00000000
_symmetry_Int_Tables_number   1
_chemical_formula_structural   Pr2Ho2P7Ir8
_chemical_formula_sum   'Pr4 Ho4 P14 Ir16'
_cell_volume   660.27121588
_cell_formula_units_Z   2
loop_
 _symmetry_equiv_pos_site_id
 _symmetry_equiv_pos_as_xyz
  1  'x, y, z'
loop_
 _atom_site_type_symbol
 _atom_site_label
 _atom_site_symmetry_multiplicity
 _atom_site_fract_x
 _atom_site_fract_y
 _atom_site_fract_z
 _atom_site_occupancy
  Pr  Pr0  1  0.750000  0.719875  0.897890  1
  Pr  Pr1  1  0.250000  0.105597  0.787705  1
  Pr  Pr2  1  0.750000  0.894403  0.212295  1
  Pr  Pr3  1  0.250000  0.280125  0.102110  1
  Ho  Ho4  1  0.750000  0.791723  0.559946  1
  Ho  Ho5  1  0.250000  0.208277  0.440054  1
  Ho  Ho6  1  0.750000  0.480010  0.705465  1
  Ho  Ho7  1  0.250000  0.519990  0.294535  1
  P  P8  1  0.250000  0.907140  0.412028  1
  P  P9  1  0.750000  0.472420  0.130152  1
  P  P10  1  0.250000  0.527580  0.869848  1
  P  P11  1  0.750000  0.092860  0.587972  1
  P  P12  1  0.250000  0.741514  0.082629  1
  P  P13  1  0.750000  0.258486  0.917371  1
  P  P14  1  0.750000  0.158535  0.284660  1
  P  P15  1  0.250000  0.841465  0.715340  1
  P  P16  1  0.250000  0.051672  0.100180  1
  P  P17  1  0.750000  0.948328  0.899820  1
  P  P18  1  0.250000  0.316849  0.687131  1
  P  P19  1  0.750000  0.683151  0.312869  1
  P  P20  1  0.250000  0.607892  0.565284  1
  P  P21  1  0.750000  0.392108  0.434716  1
  Ir  Ir22  1  0.250000  0.990266  0.575753  1
  Ir  Ir23  1  0.750000  0.009734  0.424247  1
  Ir  Ir24  1  0.250000  0.660640  0.726930  1
  Ir  Ir25  1  0.750000  0.339360  0.273070  1
  Ir  Ir26  1  0.250000  0.549995  0.049409  1
  Ir  Ir27  1  0.750000  0.450005  0.950591  1
  Ir  Ir28  1  0.250000  0.064399  0.273769  1
  Ir  Ir29  1  0.750000  0.935601  0.726231  1
  Ir  Ir30  1  0.250000  0.422632  0.523316  1
  Ir  Ir31  1  0.750000  0.577368  0.476684  1
  Ir  Ir32  1  0.250000  0.914475  0.998071  1
  Ir  Ir33  1  0.750000  0.085525  0.001929  1
  Ir  Ir34  1  0.250000  0.728412  0.396604  1
  Ir  Ir35  1  0.750000  0.271588  0.603396  1
  Ir  Ir36  1  0.250000  0.344269  0.855795  1
  Ir  Ir37  1  0.750000  0.655731  0.144205  1
