# generated using pymatgen
data_Y3ThGa18PtRh5
_symmetry_space_group_name_H-M   'P 1'
_cell_length_a   7.64069952
_cell_length_b   7.64435385
_cell_length_c   9.53223361
_cell_angle_alpha   90.01940551
_cell_angle_beta   90.02149572
_cell_angle_gamma   119.87603530
_symmetry_Int_Tables_number   1
_chemical_formula_structural   Y3ThGa18PtRh5
_chemical_formula_sum   'Y3 Th1 Ga18 Pt1 Rh5'
_cell_volume   482.76996871
_cell_formula_units_Z   1
loop_
 _symmetry_equiv_pos_site_id
 _symmetry_equiv_pos_as_xyz
  1  'x, y, z'
loop_
 _atom_site_type_symbol
 _atom_site_label
 _atom_site_symmetry_multiplicity
 _atom_site_fract_x
 _atom_site_fract_y
 _atom_site_fract_z
 _atom_site_occupancy
  Y  Y0  1  0.002520  0.331193  0.749933  1
  Y  Y1  1  0.669340  0.997037  0.250092  1
  Y  Y2  1  0.331264  0.002721  0.749936  1
  Th  Th3  1  0.997334  0.668093  0.250350  1
  Ga  Ga4  1  0.331804  0.331780  0.566082  1
  Ga  Ga5  1  0.662855  0.667593  0.439900  1
  Ga  Ga6  1  0.659212  0.663753  0.061401  1
  Ga  Ga7  1  0.335707  0.335703  0.932797  1
  Ga  Ga8  1  0.341160  0.545823  0.250207  1
  Ga  Ga9  1  0.659911  0.451774  0.749701  1
  Ga  Ga10  1  0.542013  0.336039  0.250144  1
  Ga  Ga11  1  0.452653  0.661517  0.749727  1
  Ga  Ga12  1  0.999568  0.332396  0.077084  1
  Ga  Ga13  1  0.000132  0.662193  0.914425  1
  Ga  Ga14  1  0.000213  0.665485  0.584441  1
  Ga  Ga15  1  0.339821  0.004612  0.424185  1
  Ga  Ga16  1  0.999424  0.328990  0.424286  1
  Ga  Ga17  1  0.665641  0.001250  0.579683  1
  Ga  Ga18  1  0.662278  0.001093  0.918827  1
  Ga  Ga19  1  0.343091  0.004512  0.077440  1
  Ga  Ga20  1  0.129520  0.131423  0.252809  1
  Ga  Ga21  1  0.873645  0.875385  0.747074  1
  Pt  Pt22  1  0.000568  0.997733  0.000752  1
  Rh  Rh23  1  0.000426  0.997632  0.499014  1
  Rh  Rh24  1  0.673126  0.331391  0.000607  1
  Rh  Rh25  1  0.326856  0.670774  0.000550  1
  Rh  Rh26  1  0.326632  0.670873  0.499343  1
  Rh  Rh27  1  0.673282  0.331234  0.499209  1
