# generated using pymatgen
data_Tb8ZnAsI12
_symmetry_space_group_name_H-M   'P 1'
_cell_length_a   4.22254500
_cell_length_b   14.08680960
_cell_length_c   14.88153393
_cell_angle_alpha   90.01184096
_cell_angle_beta   90.00000000
_cell_angle_gamma   90.00000000
_symmetry_Int_Tables_number   1
_chemical_formula_structural   Tb8ZnAsI12
_chemical_formula_sum   'Tb8 Zn1 As1 I12'
_cell_volume   885.18617142
_cell_formula_units_Z   1
loop_
 _symmetry_equiv_pos_site_id
 _symmetry_equiv_pos_as_xyz
  1  'x, y, z'
loop_
 _atom_site_type_symbol
 _atom_site_label
 _atom_site_symmetry_multiplicity
 _atom_site_fract_x
 _atom_site_fract_y
 _atom_site_fract_z
 _atom_site_occupancy
  Tb  Tb0  1  0.500000  0.113727  0.347079  1
  Tb  Tb1  1  0.500000  0.886273  0.652921  1
  Tb  Tb2  1  0.500000  0.614750  0.153769  1
  Tb  Tb3  1  0.500000  0.385250  0.846231  1
  Tb  Tb4  1  0.000000  0.109994  0.573346  1
  Tb  Tb5  1  0.000000  0.890006  0.426654  1
  Tb  Tb6  1  0.000000  0.614895  0.923275  1
  Tb  Tb7  1  0.000000  0.385105  0.076725  1
  Zn  Zn8  1  0.500000  0.500000  0.000000  1
  As  As9  1  0.500000  0.000000  0.500000  1
  I  I10  1  0.500000  0.244747  0.164750  1
  I  I11  1  0.500000  0.755253  0.835250  1
  I  I12  1  0.500000  0.748267  0.339559  1
  I  I13  1  0.500000  0.251733  0.660441  1
  I  I14  1  0.000000  0.257099  0.414733  1
  I  I15  1  0.000000  0.742901  0.585267  1
  I  I16  1  0.000000  0.761473  0.086202  1
  I  I17  1  0.000000  0.238527  0.913798  1
  I  I18  1  0.000000  0.998474  0.241929  1
  I  I19  1  0.000000  0.001526  0.758071  1
  I  I20  1  0.000000  0.498925  0.262720  1
  I  I21  1  0.000000  0.501075  0.737280  1
