# generated using pymatgen
data_La16Cd4CoCuRu2
_symmetry_space_group_name_H-M   'P 1'
_cell_length_a   10.10150483
_cell_length_b   10.01138270
_cell_length_c   10.10150642
_cell_angle_alpha   59.84847855
_cell_angle_beta   60.01570841
_cell_angle_gamma   59.84848018
_symmetry_Int_Tables_number   1
_chemical_formula_structural   La16Cd4CoCuRu2
_chemical_formula_sum   'La16 Cd4 Co1 Cu1 Ru2'
_cell_volume   720.78233946
_cell_formula_units_Z   1
loop_
 _symmetry_equiv_pos_site_id
 _symmetry_equiv_pos_as_xyz
  1  'x, y, z'
loop_
 _atom_site_type_symbol
 _atom_site_label
 _atom_site_symmetry_multiplicity
 _atom_site_fract_x
 _atom_site_fract_y
 _atom_site_fract_z
 _atom_site_occupancy
  La  La0  1  0.935542  0.943708  0.558519  1
  La  La1  1  0.561508  0.941056  0.561508  1
  La  La2  1  0.558519  0.943708  0.935542  1
  La  La3  1  0.700685  0.683597  0.307024  1
  La  La4  1  0.152695  0.158138  0.543381  1
  La  La5  1  0.307024  0.683597  0.700685  1
  La  La6  1  0.151373  0.156661  0.151373  1
  La  La7  1  0.543381  0.158138  0.152695  1
  La  La8  1  0.307505  0.680686  0.307505  1
  La  La9  1  0.310303  0.312172  0.685051  1
  La  La10  1  0.687669  0.312770  0.687669  1
  La  La11  1  0.936873  0.562513  0.559218  1
  La  La12  1  0.559218  0.562513  0.936873  1
  La  La13  1  0.157825  0.534692  0.157825  1
  La  La14  1  0.685051  0.312172  0.310303  1
  La  La15  1  0.939167  0.560751  0.939167  1
  Cd  Cd16  1  0.237223  0.920484  0.921038  1
  Cd  Cd17  1  0.921383  0.921176  0.921383  1
  Cd  Cd18  1  0.921038  0.920484  0.237223  1
  Cd  Cd19  1  0.920662  0.237881  0.920662  1
  Co  Co20  1  0.362728  0.354689  0.362728  1
  Cu  Cu21  1  0.359681  0.922602  0.359681  1
  Ru  Ru22  1  0.918033  0.357905  0.364908  1
  Ru  Ru23  1  0.364908  0.357905  0.918033  1
