# generated using pymatgen
data_Y4Er8InCo4Os
_symmetry_space_group_name_H-M   'P 1'
_cell_length_a   8.26915496
_cell_length_b   8.26915391
_cell_length_c   8.26915445
_cell_angle_alpha   111.16188990
_cell_angle_beta   110.69543454
_cell_angle_gamma   106.59443642
_symmetry_Int_Tables_number   1
_chemical_formula_structural   Y4Er8InCo4Os
_chemical_formula_sum   'Y4 Er8 In1 Co4 Os1'
_cell_volume   434.44734938
_cell_formula_units_Z   1
loop_
 _symmetry_equiv_pos_site_id
 _symmetry_equiv_pos_as_xyz
  1  'x, y, z'
loop_
 _atom_site_type_symbol
 _atom_site_label
 _atom_site_symmetry_multiplicity
 _atom_site_fract_x
 _atom_site_fract_y
 _atom_site_fract_z
 _atom_site_occupancy
  Y  Y0  1  0.183680  0.280453  0.464133  1
  Y  Y1  1  0.816320  0.719547  0.535867  1
  Y  Y2  1  0.183680  0.719547  0.903225  1
  Y  Y3  1  0.816320  0.280453  0.096775  1
  Er  Er4  1  0.314426  0.620983  0.306557  1
  Er  Er5  1  0.685574  0.379017  0.693443  1
  Er  Er6  1  0.314426  0.007869  0.693443  1
  Er  Er7  1  0.685574  0.992131  0.306557  1
  Er  Er8  1  0.413982  0.220195  0.193788  1
  Er  Er9  1  0.586018  0.779805  0.806212  1
  Er  Er10  1  0.026407  0.220195  0.806212  1
  Er  Er11  1  0.973593  0.779805  0.193788  1
  In  In12  1  0.500000  0.500000  0.000000  1
  Co  Co13  1  0.111995  0.611995  0.500000  1
  Co  Co14  1  0.888005  0.388005  0.500000  1
  Co  Co15  1  0.377700  0.000000  0.377700  1
  Co  Co16  1  0.622300  0.000000  0.622300  1
  Os  Os17  1  0.000000  0.000000  0.000000  1
