# generated using pymatgen
data_Cu(AuF6)2
_symmetry_space_group_name_H-M   'P 1'
_cell_length_a   6.80034391
_cell_length_b   6.80034430
_cell_length_c   10.08615521
_cell_angle_alpha   70.41290500
_cell_angle_beta   70.41290751
_cell_angle_gamma   78.18196143
_symmetry_Int_Tables_number   1
_chemical_formula_structural   Cu(AuF6)2
_chemical_formula_sum   'Cu2 Au4 F24'
_cell_volume   411.76069608
_cell_formula_units_Z   2
loop_
 _symmetry_equiv_pos_site_id
 _symmetry_equiv_pos_as_xyz
  1  'x, y, z'
loop_
 _atom_site_type_symbol
 _atom_site_label
 _atom_site_symmetry_multiplicity
 _atom_site_fract_x
 _atom_site_fract_y
 _atom_site_fract_z
 _atom_site_occupancy
  Cu  Cu0  1  0.177620  0.822380  0.750000  1
  Cu  Cu1  1  0.822380  0.177620  0.250000  1
  Au  Au2  1  0.247751  0.248708  0.373694  1
  Au  Au3  1  0.248708  0.247751  0.873694  1
  Au  Au4  1  0.752249  0.751292  0.626306  1
  Au  Au5  1  0.751292  0.752249  0.126306  1
  F  F6  1  0.871866  0.887676  0.228361  1
  F  F7  1  0.128134  0.112324  0.771639  1
  F  F8  1  0.286233  0.969279  0.516372  1
  F  F9  1  0.973612  0.289103  0.505563  1
  F  F10  1  0.289103  0.973612  0.005563  1
  F  F11  1  0.375622  0.363548  0.470909  1
  F  F12  1  0.363548  0.375622  0.970909  1
  F  F13  1  0.887676  0.871866  0.728361  1
  F  F14  1  0.793054  0.461914  0.265290  1
  F  F15  1  0.030721  0.713767  0.983628  1
  F  F16  1  0.713767  0.030721  0.483628  1
  F  F17  1  0.969279  0.286233  0.016372  1
  F  F18  1  0.520767  0.210461  0.735921  1
  F  F19  1  0.624378  0.636452  0.529091  1
  F  F20  1  0.206946  0.538086  0.734710  1
  F  F21  1  0.636452  0.624378  0.029091  1
  F  F22  1  0.461914  0.793054  0.765290  1
  F  F23  1  0.789539  0.479233  0.764079  1
  F  F24  1  0.538086  0.206946  0.234710  1
  F  F25  1  0.479233  0.789539  0.264079  1
  F  F26  1  0.210461  0.520767  0.235921  1
  F  F27  1  0.710897  0.026388  0.994437  1
  F  F28  1  0.112324  0.128134  0.271639  1
  F  F29  1  0.026388  0.710897  0.494437  1
