# generated using pymatgen
data_Tb4Al12GaAu9
_symmetry_space_group_name_H-M   'P 1'
_cell_length_a   11.65436300
_cell_length_b   11.65436152
_cell_length_c   4.18074200
_cell_angle_alpha   90.00000000
_cell_angle_beta   90.00000000
_cell_angle_gamma   120.00000137
_symmetry_Int_Tables_number   1
_chemical_formula_structural   Tb4Al12GaAu9
_chemical_formula_sum   'Tb4 Al12 Ga1 Au9'
_cell_volume   491.76885452
_cell_formula_units_Z   1
loop_
 _symmetry_equiv_pos_site_id
 _symmetry_equiv_pos_as_xyz
  1  'x, y, z'
loop_
 _atom_site_type_symbol
 _atom_site_label
 _atom_site_symmetry_multiplicity
 _atom_site_fract_x
 _atom_site_fract_y
 _atom_site_fract_z
 _atom_site_occupancy
  Tb  Tb0  1  0.206681  0.793319  0.500000  1
  Tb  Tb1  1  0.586639  0.793319  0.500000  1
  Tb  Tb2  1  0.206681  0.413361  0.500000  1
  Tb  Tb3  1  0.666667  0.333333  0.000000  1
  Al  Al4  1  0.948596  0.293168  0.000000  1
  Al  Al5  1  0.706832  0.655427  0.000000  1
  Al  Al6  1  0.948596  0.655427  0.000000  1
  Al  Al7  1  0.344573  0.051404  0.000000  1
  Al  Al8  1  0.168679  0.084339  0.500000  1
  Al  Al9  1  0.915661  0.831321  0.500000  1
  Al  Al10  1  0.706832  0.051404  0.000000  1
  Al  Al11  1  0.531524  0.063049  0.500000  1
  Al  Al12  1  0.915661  0.084339  0.500000  1
  Al  Al13  1  0.344573  0.293168  0.000000  1
  Al  Al14  1  0.531524  0.468476  0.500000  1
  Al  Al15  1  0.936951  0.468476  0.500000  1
  Ga  Ga16  1  0.333333  0.666667  0.000000  1
  Au  Au17  1  0.456567  0.543433  0.000000  1
  Au  Au18  1  0.823061  0.911531  0.000000  1
  Au  Au19  1  0.456567  0.913134  0.000000  1
  Au  Au20  1  0.088469  0.176939  0.000000  1
  Au  Au21  1  0.088469  0.911531  0.000000  1
  Au  Au22  1  0.786559  0.573117  0.500000  1
  Au  Au23  1  0.086866  0.543433  0.000000  1
  Au  Au24  1  0.786559  0.213441  0.500000  1
  Au  Au25  1  0.426883  0.213441  0.500000  1
