# generated using pymatgen
data_Al4Ni11MoPt4
_symmetry_space_group_name_H-M   'P 1'
_cell_length_a   3.64617800
_cell_length_b   3.64617800
_cell_length_c   18.49798600
_cell_angle_alpha   90.00000000
_cell_angle_beta   90.00000000
_cell_angle_gamma   90.00000000
_symmetry_Int_Tables_number   1
_chemical_formula_structural   Al4Ni11MoPt4
_chemical_formula_sum   'Al4 Ni11 Mo1 Pt4'
_cell_volume   245.92358379
_cell_formula_units_Z   1
loop_
 _symmetry_equiv_pos_site_id
 _symmetry_equiv_pos_as_xyz
  1  'x, y, z'
loop_
 _atom_site_type_symbol
 _atom_site_label
 _atom_site_symmetry_multiplicity
 _atom_site_fract_x
 _atom_site_fract_y
 _atom_site_fract_z
 _atom_site_occupancy
  Al  Al0  1  0.000000  0.000000  0.202926  1
  Al  Al1  1  0.000000  0.000000  0.399957  1
  Al  Al2  1  0.000000  0.000000  0.600043  1
  Al  Al3  1  0.000000  0.000000  0.797074  1
  Ni  Ni4  1  0.500000  0.500000  0.000000  1
  Ni  Ni5  1  0.500000  0.000000  0.093784  1
  Ni  Ni6  1  0.500000  0.000000  0.298439  1
  Ni  Ni7  1  0.500000  0.000000  0.500000  1
  Ni  Ni8  1  0.500000  0.000000  0.701561  1
  Ni  Ni9  1  0.500000  0.000000  0.906216  1
  Ni  Ni10  1  0.000000  0.500000  0.093784  1
  Ni  Ni11  1  0.000000  0.500000  0.298439  1
  Ni  Ni12  1  0.000000  0.500000  0.500000  1
  Ni  Ni13  1  0.000000  0.500000  0.701561  1
  Ni  Ni14  1  0.000000  0.500000  0.906216  1
  Mo  Mo15  1  0.000000  0.000000  0.000000  1
  Pt  Pt16  1  0.500000  0.500000  0.195973  1
  Pt  Pt17  1  0.500000  0.500000  0.398642  1
  Pt  Pt18  1  0.500000  0.500000  0.601358  1
  Pt  Pt19  1  0.500000  0.500000  0.804027  1
