# generated using pymatgen
data_Li3Dy3AgSn4
_symmetry_space_group_name_H-M   'P 1'
_cell_length_a   8.64791307
_cell_length_b   8.64129074
_cell_length_c   8.64128978
_cell_angle_alpha   149.20462395
_cell_angle_beta   131.00828393
_cell_angle_gamma   58.98400647
_symmetry_Int_Tables_number   1
_chemical_formula_structural   Li3Dy3AgSn4
_chemical_formula_sum   'Li3 Dy3 Ag1 Sn4'
_cell_volume   247.51999328
_cell_formula_units_Z   1
loop_
 _symmetry_equiv_pos_site_id
 _symmetry_equiv_pos_as_xyz
  1  'x, y, z'
loop_
 _atom_site_type_symbol
 _atom_site_label
 _atom_site_symmetry_multiplicity
 _atom_site_fract_x
 _atom_site_fract_y
 _atom_site_fract_z
 _atom_site_occupancy
  Li  Li0  1  0.014166  0.326618  0.687548  1
  Li  Li1  1  0.981291  0.671195  0.310096  1
  Li  Li2  1  0.635178  0.325778  0.309401  1
  Dy  Dy3  1  0.002045  0.001947  0.000098  1
  Dy  Dy4  1  0.376800  0.872963  0.503837  1
  Dy  Dy5  1  0.627828  0.127638  0.500190  1
  Ag  Ag6  1  0.366663  0.674317  0.692346  1
  Sn  Sn7  1  0.202786  0.215946  0.986841  1
  Sn  Sn8  1  0.700623  0.499273  0.201350  1
  Sn  Sn9  1  0.297306  0.496446  0.800859  1
  Sn  Sn10  1  0.795313  0.787880  0.007434  1
