# generated using pymatgen
data_TbHo6Sn23Ru6
_symmetry_space_group_name_H-M   'P 1'
_cell_length_a   9.84259200
_cell_length_b   9.84259088
_cell_length_c   10.07607500
_cell_angle_alpha   90.00000000
_cell_angle_beta   90.00000000
_cell_angle_gamma   119.99999703
_symmetry_Int_Tables_number   1
_chemical_formula_structural   TbHo6Sn23Ru6
_chemical_formula_sum   'Tb1 Ho6 Sn23 Ru6'
_cell_volume   845.35855624
_cell_formula_units_Z   1
loop_
 _symmetry_equiv_pos_site_id
 _symmetry_equiv_pos_as_xyz
  1  'x, y, z'
loop_
 _atom_site_type_symbol
 _atom_site_label
 _atom_site_symmetry_multiplicity
 _atom_site_fract_x
 _atom_site_fract_y
 _atom_site_fract_z
 _atom_site_occupancy
  Tb  Tb0  1  0.000000  0.000000  0.000000  1
  Ho  Ho1  1  0.515624  0.484376  0.696823  1
  Ho  Ho2  1  0.515624  0.031248  0.696823  1
  Ho  Ho3  1  0.968752  0.484376  0.696823  1
  Ho  Ho4  1  0.031248  0.515624  0.303177  1
  Ho  Ho5  1  0.484376  0.968752  0.303177  1
  Ho  Ho6  1  0.484376  0.515624  0.303177  1
  Sn  Sn7  1  0.666667  0.333333  0.178162  1
  Sn  Sn8  1  0.666667  0.333333  0.872144  1
  Sn  Sn9  1  0.333333  0.666667  0.127856  1
  Sn  Sn10  1  0.349177  0.349177  0.000000  1
  Sn  Sn11  1  0.000000  0.650823  0.000000  1
  Sn  Sn12  1  0.650823  0.000000  0.000000  1
  Sn  Sn13  1  0.650823  0.650823  0.000000  1
  Sn  Sn14  1  0.333333  0.666667  0.821838  1
  Sn  Sn15  1  0.439601  0.219801  0.462358  1
  Sn  Sn16  1  0.219801  0.780199  0.537642  1
  Sn  Sn17  1  0.219801  0.439601  0.537642  1
  Sn  Sn18  1  0.560399  0.780199  0.537642  1
  Sn  Sn19  1  0.118519  0.881481  0.273778  1
  Sn  Sn20  1  0.780199  0.560399  0.462358  1
  Sn  Sn21  1  0.780199  0.219801  0.462358  1
  Sn  Sn22  1  0.349177  0.000000  0.000000  1
  Sn  Sn23  1  0.118519  0.237036  0.273778  1
  Sn  Sn24  1  0.762964  0.881481  0.273778  1
  Sn  Sn25  1  0.237036  0.118519  0.726222  1
  Sn  Sn26  1  0.881481  0.762964  0.726222  1
  Sn  Sn27  1  0.881481  0.118519  0.726222  1
  Sn  Sn28  1  0.000000  0.000000  0.500000  1
  Sn  Sn29  1  0.000000  0.349177  0.000000  1
  Ru  Ru30  1  0.170138  0.829862  0.797639  1
  Ru  Ru31  1  0.170138  0.340274  0.797639  1
  Ru  Ru32  1  0.659726  0.829862  0.797639  1
  Ru  Ru33  1  0.340274  0.170138  0.202361  1
  Ru  Ru34  1  0.829862  0.659726  0.202361  1
  Ru  Ru35  1  0.829862  0.170138  0.202361  1
