# generated using pymatgen
data_SrGe7As5Pt4
_symmetry_space_group_name_H-M   'P 1'
_cell_length_a   7.57942519
_cell_length_b   7.54811911
_cell_length_c   7.54429815
_cell_angle_alpha   108.95205560
_cell_angle_beta   109.56234493
_cell_angle_gamma   109.61679140
_symmetry_Int_Tables_number   1
_chemical_formula_structural   SrGe7As5Pt4
_chemical_formula_sum   'Sr1 Ge7 As5 Pt4'
_cell_volume   333.39820010
_cell_formula_units_Z   1
loop_
 _symmetry_equiv_pos_site_id
 _symmetry_equiv_pos_as_xyz
  1  'x, y, z'
loop_
 _atom_site_type_symbol
 _atom_site_label
 _atom_site_symmetry_multiplicity
 _atom_site_fract_x
 _atom_site_fract_y
 _atom_site_fract_z
 _atom_site_occupancy
  Sr  Sr0  1  0.001368  0.994989  0.996740  1
  Ge  Ge1  1  0.496335  0.855320  0.647205  1
  Ge  Ge2  1  0.148636  0.350761  0.499172  1
  Ge  Ge3  1  0.509429  0.152000  0.362529  1
  Ge  Ge4  1  0.847115  0.347463  0.199714  1
  Ge  Ge5  1  0.643396  0.492458  0.848791  1
  Ge  Ge6  1  0.355866  0.207065  0.850372  1
  Ge  Ge7  1  0.800523  0.154835  0.652544  1
  As  As8  1  0.850415  0.641939  0.496024  1
  As  As9  1  0.351238  0.497680  0.145895  1
  As  As10  1  0.207741  0.857142  0.355939  1
  As  As11  1  0.144833  0.642394  0.786416  1
  As  As12  1  0.647921  0.795720  0.147739  1
  Pt  Pt13  1  0.000634  0.001620  0.505376  1
  Pt  Pt14  1  0.500944  0.504228  0.503448  1
  Pt  Pt15  1  0.000916  0.505035  0.002266  1
  Pt  Pt16  1  0.492690  0.999350  0.999830  1
