# generated using pymatgen
data_CdWF6
_symmetry_space_group_name_H-M   'P 1'
_cell_length_a   5.98003802
_cell_length_b   5.98003902
_cell_length_c   5.98003828
_cell_angle_alpha   54.77677937
_cell_angle_beta   54.77677248
_cell_angle_gamma   54.77677133
_symmetry_Int_Tables_number   1
_chemical_formula_structural   CdWF6
_chemical_formula_sum   'Cd1 W1 F6'
_cell_volume   132.82205462
_cell_formula_units_Z   1
loop_
 _symmetry_equiv_pos_site_id
 _symmetry_equiv_pos_as_xyz
  1  'x, y, z'
loop_
 _atom_site_type_symbol
 _atom_site_label
 _atom_site_symmetry_multiplicity
 _atom_site_fract_x
 _atom_site_fract_y
 _atom_site_fract_z
 _atom_site_occupancy
  Cd  Cd0  1  0.500000  0.500000  0.500000  1
  W  W1  1  0.000000  0.000000  0.000000  1
  F  F2  1  0.111642  0.356174  0.770657  1
  F  F3  1  0.356174  0.770657  0.111642  1
  F  F4  1  0.229343  0.888358  0.643826  1
  F  F5  1  0.643826  0.229343  0.888358  1
  F  F6  1  0.888358  0.643826  0.229343  1
  F  F7  1  0.770657  0.111642  0.356174  1
