# generated using pymatgen
data_TbY(H2Br)2
_symmetry_space_group_name_H-M   'P 1'
_cell_length_a   11.50290968
_cell_length_b   11.50291001
_cell_length_c   11.50290823
_cell_angle_alpha   18.89400488
_cell_angle_beta   18.89400263
_cell_angle_gamma   18.89400483
_symmetry_Int_Tables_number   1
_chemical_formula_structural   TbY(H2Br)2
_chemical_formula_sum   'Tb1 Y1 H4 Br2'
_cell_volume   139.46773996
_cell_formula_units_Z   1
loop_
 _symmetry_equiv_pos_site_id
 _symmetry_equiv_pos_as_xyz
  1  'x, y, z'
loop_
 _atom_site_type_symbol
 _atom_site_label
 _atom_site_symmetry_multiplicity
 _atom_site_fract_x
 _atom_site_fract_y
 _atom_site_fract_z
 _atom_site_occupancy
  Tb  Tb0  1  0.119163  0.119163  0.119163  1
  Y  Y1  1  0.880696  0.880696  0.880696  1
  H  H2  1  0.814725  0.814725  0.814725  1
  H  H3  1  0.185364  0.185364  0.185364  1
  H  H4  1  0.541871  0.541871  0.541871  1
  H  H5  1  0.458546  0.458546  0.458546  1
  Br  Br6  1  0.728227  0.728227  0.728227  1
  Br  Br7  1  0.271408  0.271408  0.271408  1
