# generated using pymatgen
data_Er3Al12(IrRu)2
_symmetry_space_group_name_H-M   'P 1'
_cell_length_a   8.79252067
_cell_length_b   8.76478211
_cell_length_c   9.51785898
_cell_angle_alpha   89.99999831
_cell_angle_beta   90.07895586
_cell_angle_gamma   119.89569626
_symmetry_Int_Tables_number   1
_chemical_formula_structural   Er3Al12(IrRu)2
_chemical_formula_sum   'Er6 Al24 Ir4 Ru4'
_cell_volume   635.88615668
_cell_formula_units_Z   2
loop_
 _symmetry_equiv_pos_site_id
 _symmetry_equiv_pos_as_xyz
  1  'x, y, z'
loop_
 _atom_site_type_symbol
 _atom_site_label
 _atom_site_symmetry_multiplicity
 _atom_site_fract_x
 _atom_site_fract_y
 _atom_site_fract_z
 _atom_site_occupancy
  Er  Er0  1  0.193094  0.387079  0.250303  1
  Er  Er1  1  0.806906  0.612921  0.749697  1
  Er  Er2  1  0.611790  0.805895  0.250864  1
  Er  Er3  1  0.388210  0.194105  0.749136  1
  Er  Er4  1  0.193094  0.806015  0.250303  1
  Er  Er5  1  0.806906  0.193985  0.749697  1
  Al  Al6  1  0.333031  0.666516  0.024695  1
  Al  Al7  1  0.666969  0.333484  0.975305  1
  Al  Al8  1  0.664847  0.332423  0.524521  1
  Al  Al9  1  0.335153  0.667577  0.475479  1
  Al  Al10  1  0.165024  0.326276  0.577823  1
  Al  Al11  1  0.834976  0.673724  0.422177  1
  Al  Al12  1  0.673800  0.836900  0.578196  1
  Al  Al13  1  0.836905  0.674621  0.078639  1
  Al  Al14  1  0.326200  0.163100  0.421804  1
  Al  Al15  1  0.163095  0.325379  0.921361  1
  Al  Al16  1  0.165024  0.838748  0.577823  1
  Al  Al17  1  0.325264  0.162632  0.078168  1
  Al  Al18  1  0.834976  0.161252  0.422177  1
  Al  Al19  1  0.674736  0.837368  0.921832  1
  Al  Al20  1  0.836905  0.162283  0.078639  1
  Al  Al21  1  0.163095  0.837717  0.921361  1
  Al  Al22  1  0.560764  0.123211  0.251019  1
  Al  Al23  1  0.439236  0.876789  0.748981  1
  Al  Al24  1  0.875203  0.437602  0.249487  1
  Al  Al25  1  0.124797  0.562398  0.750513  1
  Al  Al26  1  0.560764  0.437553  0.251019  1
  Al  Al27  1  0.439236  0.562447  0.748981  1
  Al  Al28  1  0.999288  0.999644  0.250035  1
  Al  Al29  1  0.000712  0.000356  0.749965  1
  Ir  Ir30  1  0.500000  0.000000  0.000000  1
  Ir  Ir31  1  0.000000  0.500000  0.000000  1
  Ir  Ir32  1  0.500000  0.500000  0.000000  1
  Ir  Ir33  1  0.000000  0.500000  0.500000  1
  Ru  Ru34  1  0.500000  0.000000  0.500000  1
  Ru  Ru35  1  0.500000  0.500000  0.500000  1
  Ru  Ru36  1  0.000000  0.000000  0.000000  1
  Ru  Ru37  1  0.000000  0.000000  0.500000  1
