# generated using pymatgen
data_LaYSi2BOs2
_symmetry_space_group_name_H-M   'P 1'
_cell_length_a   5.92874324
_cell_length_b   5.92874330
_cell_length_c   7.04802000
_cell_angle_alpha   126.26939043
_cell_angle_beta   126.26937884
_cell_angle_gamma   40.85966047
_symmetry_Int_Tables_number   1
_chemical_formula_structural   LaYSi2BOs2
_chemical_formula_sum   'La1 Y1 Si2 B1 Os2'
_cell_volume   125.69455463
_cell_formula_units_Z   1
loop_
 _symmetry_equiv_pos_site_id
 _symmetry_equiv_pos_as_xyz
  1  'x, y, z'
loop_
 _atom_site_type_symbol
 _atom_site_label
 _atom_site_symmetry_multiplicity
 _atom_site_fract_x
 _atom_site_fract_y
 _atom_site_fract_z
 _atom_site_occupancy
  La  La0  1  0.430273  0.430273  0.168380  1
  Y  Y1  1  0.564855  0.564855  0.828799  1
  Si  Si2  1  0.843422  0.843422  0.401428  1
  Si  Si3  1  0.155373  0.155373  0.602138  1
  B  B4  1  0.004492  0.004492  0.995531  1
  Os  Os5  1  0.212112  0.212112  0.320157  1
  Os  Os6  1  0.789471  0.789471  0.683567  1
