# generated using pymatgen
data_B4Ir3
_symmetry_space_group_name_H-M   'P 1'
_cell_length_a   4.59121035
_cell_length_b   5.99800037
_cell_length_c   6.01648662
_cell_angle_alpha   28.86109700
_cell_angle_beta   67.57109735
_cell_angle_gamma   67.50079662
_symmetry_Int_Tables_number   1
_chemical_formula_structural   B4Ir3
_chemical_formula_sum   'B4 Ir3'
_cell_volume   73.48480245
_cell_formula_units_Z   1
loop_
 _symmetry_equiv_pos_site_id
 _symmetry_equiv_pos_as_xyz
  1  'x, y, z'
loop_
 _atom_site_type_symbol
 _atom_site_label
 _atom_site_symmetry_multiplicity
 _atom_site_fract_x
 _atom_site_fract_y
 _atom_site_fract_z
 _atom_site_occupancy
  B  B0  1  0.404782  0.904939  0.123166  1
  B  B1  1  0.015849  0.905352  0.122505  1
  B  B2  1  0.636734  0.280792  0.506272  1
  B  B3  1  0.025463  0.280837  0.506704  1
  Ir  Ir4  1  0.394780  0.714781  0.945089  1
  Ir  Ir5  1  0.646540  0.471191  0.684250  1
  Ir  Ir6  1  0.020966  0.092748  0.314880  1
