# generated using pymatgen
data_Tb3Er(Hf3Ge4)2
_symmetry_space_group_name_H-M   'P 1'
_cell_length_a   7.38778922
_cell_length_b   7.38888110
_cell_length_c   13.59767400
_cell_angle_alpha   90.00000000
_cell_angle_beta   90.00000000
_cell_angle_gamma   89.97651784
_symmetry_Int_Tables_number   1
_chemical_formula_structural   Tb3Er(Hf3Ge4)2
_chemical_formula_sum   'Tb6 Er2 Hf12 Ge16'
_cell_volume   742.26291479
_cell_formula_units_Z   2
loop_
 _symmetry_equiv_pos_site_id
 _symmetry_equiv_pos_as_xyz
  1  'x, y, z'
loop_
 _atom_site_type_symbol
 _atom_site_label
 _atom_site_symmetry_multiplicity
 _atom_site_fract_x
 _atom_site_fract_y
 _atom_site_fract_z
 _atom_site_occupancy
  Tb  Tb0  1  0.157102  0.495831  0.467535  1
  Tb  Tb1  1  0.503907  0.842722  0.032451  1
  Tb  Tb2  1  0.842898  0.504169  0.967535  1
  Tb  Tb3  1  0.496093  0.157278  0.532451  1
  Tb  Tb4  1  0.341969  0.996019  0.782246  1
  Tb  Tb5  1  0.658031  0.003981  0.282246  1
  Er  Er6  1  0.997332  0.342914  0.217740  1
  Er  Er7  1  0.002668  0.657086  0.717740  1
  Hf  Hf8  1  0.173438  0.173658  0.999985  1
  Hf  Hf9  1  0.826562  0.826342  0.499985  1
  Hf  Hf10  1  0.326582  0.673057  0.250005  1
  Hf  Hf11  1  0.673418  0.326943  0.750005  1
  Hf  Hf12  1  0.154883  0.996857  0.375082  1
  Hf  Hf13  1  0.845117  0.003143  0.875082  1
  Hf  Hf14  1  0.502845  0.654755  0.624935  1
  Hf  Hf15  1  0.344706  0.497476  0.874939  1
  Hf  Hf16  1  0.497155  0.345245  0.124935  1
  Hf  Hf17  1  0.655294  0.502524  0.374939  1
  Hf  Hf18  1  0.996962  0.154430  0.624988  1
  Hf  Hf19  1  0.003038  0.845570  0.124988  1
  Ge  Ge20  1  0.364710  0.301344  0.321666  1
  Ge  Ge21  1  0.635290  0.698656  0.821666  1
  Ge  Ge22  1  0.197661  0.864350  0.572751  1
  Ge  Ge23  1  0.134015  0.801083  0.927658  1
  Ge  Ge24  1  0.802339  0.135650  0.072751  1
  Ge  Ge25  1  0.865985  0.198917  0.427658  1
  Ge  Ge26  1  0.300305  0.366179  0.677882  1
  Ge  Ge27  1  0.699695  0.633821  0.177882  1
  Ge  Ge28  1  0.295969  0.040038  0.181583  1
  Ge  Ge29  1  0.704031  0.959962  0.681583  1
  Ge  Ge30  1  0.461105  0.795678  0.431156  1
  Ge  Ge31  1  0.203010  0.538392  0.069154  1
  Ge  Ge32  1  0.538895  0.204322  0.931156  1
  Ge  Ge33  1  0.796990  0.461608  0.569154  1
  Ge  Ge34  1  0.038937  0.297122  0.818245  1
  Ge  Ge35  1  0.961063  0.702878  0.318245  1
