# generated using pymatgen
data_Ho5Sc2Co16ReP12
_symmetry_space_group_name_H-M   'P 1'
_cell_length_a   12.13558940
_cell_length_b   12.13558922
_cell_length_c   3.70097800
_cell_angle_alpha   90.00000000
_cell_angle_beta   90.00000000
_cell_angle_gamma   119.92791967
_symmetry_Int_Tables_number   1
_chemical_formula_structural   Ho5Sc2Co16ReP12
_chemical_formula_sum   'Ho5 Sc2 Co16 Re1 P12'
_cell_volume   472.37168759
_cell_formula_units_Z   1
loop_
 _symmetry_equiv_pos_site_id
 _symmetry_equiv_pos_as_xyz
  1  'x, y, z'
loop_
 _atom_site_type_symbol
 _atom_site_label
 _atom_site_symmetry_multiplicity
 _atom_site_fract_x
 _atom_site_fract_y
 _atom_site_fract_z
 _atom_site_occupancy
  Ho  Ho0  1  0.665539  0.334109  0.000000  1
  Ho  Ho1  1  0.334109  0.665539  0.000000  1
  Ho  Ho2  1  0.812396  0.812396  0.500000  1
  Ho  Ho3  1  0.182879  0.000095  0.500000  1
  Ho  Ho4  1  0.000095  0.182879  0.500000  1
  Sc  Sc5  1  0.560028  0.000425  0.000000  1
  Sc  Sc6  1  0.000425  0.560028  0.000000  1
  Co  Co7  1  0.877514  0.355203  0.500000  1
  Co  Co8  1  0.639817  0.516390  0.500000  1
  Co  Co9  1  0.480138  0.129775  0.500000  1
  Co  Co10  1  0.355203  0.877514  0.500000  1
  Co  Co11  1  0.516390  0.639817  0.500000  1
  Co  Co12  1  0.129775  0.480138  0.500000  1
  Co  Co13  1  0.806568  0.179484  0.000000  1
  Co  Co14  1  0.816970  0.622921  0.000000  1
  Co  Co15  1  0.373531  0.200898  0.000000  1
  Co  Co16  1  0.179484  0.806568  0.000000  1
  Co  Co17  1  0.622921  0.816970  0.000000  1
  Co  Co18  1  0.200898  0.373531  0.000000  1
  Co  Co19  1  0.282177  0.282177  0.500000  1
  Co  Co20  1  0.720210  0.997732  0.500000  1
  Co  Co21  1  0.997732  0.720210  0.500000  1
  Co  Co22  1  0.999539  0.999539  0.000000  1
  Re  Re23  1  0.446655  0.446655  0.000000  1
  P  P24  1  0.692962  0.171812  0.500000  1
  P  P25  1  0.828143  0.518607  0.500000  1
  P  P26  1  0.478731  0.314937  0.500000  1
  P  P27  1  0.171812  0.692962  0.500000  1
  P  P28  1  0.518607  0.828143  0.500000  1
  P  P29  1  0.314937  0.478731  0.500000  1
  P  P30  1  0.177923  0.177923  0.000000  1
  P  P31  1  0.819813  0.997932  0.000000  1
  P  P32  1  0.997932  0.819813  0.000000  1
  P  P33  1  0.637603  0.637603  0.000000  1
  P  P34  1  0.356326  0.004216  0.000000  1
  P  P35  1  0.004216  0.356326  0.000000  1
