# generated using pymatgen
data_NaAcO2
_symmetry_space_group_name_H-M   'P 1'
_cell_length_a   6.98504977
_cell_length_b   6.98505040
_cell_length_c   6.98504978
_cell_angle_alpha   138.49190608
_cell_angle_beta   138.49191591
_cell_angle_gamma   60.15044891
_symmetry_Int_Tables_number   1
_chemical_formula_structural   NaAcO2
_chemical_formula_sum   'Na2 Ac2 O4'
_cell_volume   148.13293536
_cell_formula_units_Z   2
loop_
 _symmetry_equiv_pos_site_id
 _symmetry_equiv_pos_as_xyz
  1  'x, y, z'
loop_
 _atom_site_type_symbol
 _atom_site_label
 _atom_site_symmetry_multiplicity
 _atom_site_fract_x
 _atom_site_fract_y
 _atom_site_fract_z
 _atom_site_occupancy
  Na  Na0  1  0.000000  0.000000  0.000000  1
  Na  Na1  1  0.750000  0.250000  0.500000  1
  Ac  Ac2  1  0.250000  0.750000  0.500000  1
  Ac  Ac3  1  0.500000  0.500000  0.000000  1
  O  O4  1  0.287140  0.287140  0.000000  1
  O  O5  1  0.037140  0.537140  0.500000  1
  O  O6  1  0.712860  0.712860  0.000000  1
  O  O7  1  0.462860  0.962860  0.500000  1
