# generated using pymatgen
data_Sm2Ho8In3Hg5Pd4
_symmetry_space_group_name_H-M   'P 1'
_cell_length_a   3.64208800
_cell_length_b   7.97012476
_cell_length_c   18.43717072
_cell_angle_alpha   89.71510400
_cell_angle_beta   90.00000000
_cell_angle_gamma   90.00000000
_symmetry_Int_Tables_number   1
_chemical_formula_structural   Sm2Ho8In3Hg5Pd4
_chemical_formula_sum   'Sm2 Ho8 In3 Hg5 Pd4'
_cell_volume   535.18565309
_cell_formula_units_Z   1
loop_
 _symmetry_equiv_pos_site_id
 _symmetry_equiv_pos_as_xyz
  1  'x, y, z'
loop_
 _atom_site_type_symbol
 _atom_site_label
 _atom_site_symmetry_multiplicity
 _atom_site_fract_x
 _atom_site_fract_y
 _atom_site_fract_z
 _atom_site_occupancy
  Sm  Sm0  1  0.000000  0.498716  0.501372  1
  Sm  Sm1  1  0.000000  0.001003  0.000539  1
  Ho  Ho2  1  0.000000  0.743806  0.284455  1
  Ho  Ho3  1  0.000000  0.265845  0.713279  1
  Ho  Ho4  1  0.000000  0.753852  0.781872  1
  Ho  Ho5  1  0.000000  0.244928  0.216302  1
  Ho  Ho6  1  0.000000  0.610480  0.083672  1
  Ho  Ho7  1  0.000000  0.387955  0.915904  1
  Ho  Ho8  1  0.000000  0.884670  0.585549  1
  Ho  Ho9  1  0.000000  0.108713  0.417064  1
  In  In10  1  0.500000  0.418751  0.349682  1
  In  In11  1  0.500000  0.919323  0.151712  1
  In  In12  1  0.500000  0.079313  0.847661  1
  Hg  Hg13  1  0.500000  0.710470  0.931948  1
  Hg  Hg14  1  0.500000  0.290294  0.068443  1
  Hg  Hg15  1  0.500000  0.788844  0.432201  1
  Hg  Hg16  1  0.500000  0.203886  0.566682  1
  Hg  Hg17  1  0.500000  0.582032  0.649453  1
  Pd  Pd18  1  0.500000  0.533695  0.197758  1
  Pd  Pd19  1  0.500000  0.466615  0.803649  1
  Pd  Pd20  1  0.500000  0.973537  0.697796  1
  Pd  Pd21  1  0.500000  0.033276  0.303008  1
