# generated using pymatgen
data_Tb2Fe3Co9As7
_symmetry_space_group_name_H-M   'P 1'
_cell_length_a   3.77208700
_cell_length_b   9.36347283
_cell_length_c   9.36347300
_cell_angle_alpha   119.99999802
_cell_angle_beta   90.00000000
_cell_angle_gamma   90.00000000
_symmetry_Int_Tables_number   1
_chemical_formula_structural   Tb2Fe3Co9As7
_chemical_formula_sum   'Tb2 Fe3 Co9 As7'
_cell_volume   286.40873448
_cell_formula_units_Z   1
loop_
 _symmetry_equiv_pos_site_id
 _symmetry_equiv_pos_as_xyz
  1  'x, y, z'
loop_
 _atom_site_type_symbol
 _atom_site_label
 _atom_site_symmetry_multiplicity
 _atom_site_fract_x
 _atom_site_fract_y
 _atom_site_fract_z
 _atom_site_occupancy
  Tb  Tb0  1  0.000000  0.666667  0.333333  1
  Tb  Tb1  1  0.500000  0.333333  0.666667  1
  Fe  Fe2  1  0.500000  0.784132  0.904027  1
  Fe  Fe3  1  0.500000  0.119895  0.215868  1
  Fe  Fe4  1  0.500000  0.095973  0.880105  1
  Co  Co5  1  0.000000  0.568332  0.942484  1
  Co  Co6  1  0.000000  0.374152  0.431668  1
  Co  Co7  1  0.000000  0.057516  0.625848  1
  Co  Co8  1  0.000000  0.879878  0.156831  1
  Co  Co9  1  0.000000  0.276952  0.120122  1
  Co  Co10  1  0.000000  0.843169  0.723048  1
  Co  Co11  1  0.500000  0.950300  0.381629  1
  Co  Co12  1  0.500000  0.431329  0.049700  1
  Co  Co13  1  0.500000  0.618371  0.568671  1
  As  As14  1  0.000000  0.000000  0.000000  1
  As  As15  1  0.500000  0.708184  0.112683  1
  As  As16  1  0.500000  0.404499  0.291816  1
  As  As17  1  0.500000  0.887317  0.595501  1
  As  As18  1  0.000000  0.590485  0.705670  1
  As  As19  1  0.000000  0.115184  0.409515  1
  As  As20  1  0.000000  0.294330  0.884816  1
