# generated using pymatgen
data_Pr16Sm3YSn16
_symmetry_space_group_name_H-M   'P 1'
_cell_length_a   8.32027502
_cell_length_b   8.49389108
_cell_length_c   16.08509100
_cell_angle_alpha   90.00000000
_cell_angle_beta   90.00000000
_cell_angle_gamma   89.99605329
_symmetry_Int_Tables_number   1
_chemical_formula_structural   Pr16Sm3YSn16
_chemical_formula_sum   'Pr16 Sm3 Y1 Sn16'
_cell_volume   1136.75766314
_cell_formula_units_Z   1
loop_
 _symmetry_equiv_pos_site_id
 _symmetry_equiv_pos_as_xyz
  1  'x, y, z'
loop_
 _atom_site_type_symbol
 _atom_site_label
 _atom_site_symmetry_multiplicity
 _atom_site_fract_x
 _atom_site_fract_y
 _atom_site_fract_z
 _atom_site_occupancy
  Pr  Pr0  1  0.367290  0.835566  0.879386  1
  Pr  Pr1  1  0.868058  0.663925  0.620450  1
  Pr  Pr2  1  0.632567  0.164099  0.379303  1
  Pr  Pr3  1  0.132439  0.335690  0.120735  1
  Pr  Pr4  1  0.632567  0.164099  0.120697  1
  Pr  Pr5  1  0.132439  0.335690  0.379265  1
  Pr  Pr6  1  0.367290  0.835566  0.620614  1
  Pr  Pr7  1  0.868058  0.663925  0.879550  1
  Pr  Pr8  1  0.518002  0.319379  0.900811  1
  Pr  Pr9  1  0.018392  0.180948  0.599095  1
  Pr  Pr10  1  0.481726  0.680802  0.400630  1
  Pr  Pr11  1  0.981621  0.819263  0.099278  1
  Pr  Pr12  1  0.481726  0.680802  0.099370  1
  Pr  Pr13  1  0.981621  0.819263  0.400722  1
  Pr  Pr14  1  0.518002  0.319379  0.599189  1
  Pr  Pr15  1  0.018392  0.180948  0.900905  1
  Sm  Sm16  1  0.697824  0.998584  0.750000  1
  Sm  Sm17  1  0.802043  0.498829  0.250000  1
  Sm  Sm18  1  0.302000  0.001320  0.250000  1
  Y  Y19  1  0.198879  0.501006  0.750000  1
  Sn  Sn20  1  0.292651  0.034510  0.043059  1
  Sn  Sn21  1  0.792737  0.465385  0.456957  1
  Sn  Sn22  1  0.707217  0.965659  0.543083  1
  Sn  Sn23  1  0.207279  0.534724  0.956907  1
  Sn  Sn24  1  0.707217  0.965659  0.956917  1
  Sn  Sn25  1  0.207279  0.534724  0.543093  1
  Sn  Sn26  1  0.292651  0.034510  0.456941  1
  Sn  Sn27  1  0.792737  0.465385  0.043043  1
  Sn  Sn28  1  0.565135  0.616106  0.750000  1
  Sn  Sn29  1  0.066101  0.883984  0.750000  1
  Sn  Sn30  1  0.434033  0.384137  0.250000  1
  Sn  Sn31  1  0.933821  0.115730  0.250000  1
  Sn  Sn32  1  0.323937  0.144690  0.750000  1
  Sn  Sn33  1  0.823074  0.355680  0.750000  1
  Sn  Sn34  1  0.676589  0.855823  0.250000  1
  Sn  Sn35  1  0.176607  0.644213  0.250000  1
