# generated using pymatgen
data_RbGaFeF6
_symmetry_space_group_name_H-M   'P 1'
_cell_length_a   7.41503549
_cell_length_b   7.41503419
_cell_length_c   7.41503510
_cell_angle_alpha   119.38967651
_cell_angle_beta   120.81267312
_cell_angle_gamma   89.82928007
_symmetry_Int_Tables_number   1
_chemical_formula_structural   RbGaFeF6
_chemical_formula_sum   'Rb2 Ga2 Fe2 F12'
_cell_volume   287.78875985
_cell_formula_units_Z   2
loop_
 _symmetry_equiv_pos_site_id
 _symmetry_equiv_pos_as_xyz
  1  'x, y, z'
loop_
 _atom_site_type_symbol
 _atom_site_label
 _atom_site_symmetry_multiplicity
 _atom_site_fract_x
 _atom_site_fract_y
 _atom_site_fract_z
 _atom_site_occupancy
  Rb  Rb0  1  0.618702  0.868702  0.750000  1
  Rb  Rb1  1  0.381298  0.131298  0.250000  1
  Ga  Ga2  1  0.000000  0.500000  0.000000  1
  Ga  Ga3  1  0.000000  0.000000  0.500000  1
  Fe  Fe4  1  0.500000  0.500000  0.000000  1
  Fe  Fe5  1  0.000000  0.500000  0.500000  1
  F  F6  1  0.055089  0.805089  0.250000  1
  F  F7  1  0.662835  0.412835  0.250000  1
  F  F8  1  0.063538  0.837910  0.647040  1
  F  F9  1  0.690869  0.416497  0.852960  1
  F  F10  1  0.690869  0.837910  0.274372  1
  F  F11  1  0.063538  0.416497  0.225628  1
  F  F12  1  0.944911  0.194911  0.750000  1
  F  F13  1  0.337165  0.587165  0.750000  1
  F  F14  1  0.936462  0.162090  0.352960  1
  F  F15  1  0.309131  0.583503  0.147040  1
  F  F16  1  0.309131  0.162090  0.725628  1
  F  F17  1  0.936462  0.583503  0.774372  1
