# generated using pymatgen
data_Tm5Mg3(Ni4As3)4
_symmetry_space_group_name_H-M   'P 1'
_cell_length_a   12.64632400
_cell_length_b   12.64632487
_cell_length_c   3.89947600
_cell_angle_alpha   90.00000000
_cell_angle_beta   90.00000000
_cell_angle_gamma   119.99882751
_symmetry_Int_Tables_number   1
_chemical_formula_structural   Tm5Mg3(Ni4As3)4
_chemical_formula_sum   'Tm5 Mg3 Ni16 As12'
_cell_volume   540.09561720
_cell_formula_units_Z   1
loop_
 _symmetry_equiv_pos_site_id
 _symmetry_equiv_pos_as_xyz
  1  'x, y, z'
loop_
 _atom_site_type_symbol
 _atom_site_label
 _atom_site_symmetry_multiplicity
 _atom_site_fract_x
 _atom_site_fract_y
 _atom_site_fract_z
 _atom_site_occupancy
  Tm  Tm0  1  0.666686  0.333278  0.000000  1
  Tm  Tm1  1  0.333279  0.666686  0.000000  1
  Tm  Tm2  1  0.183767  0.000030  0.500000  1
  Tm  Tm3  1  0.000030  0.183767  0.500000  1
  Tm  Tm4  1  0.816366  0.816366  0.500000  1
  Mg  Mg5  1  0.563445  0.999842  0.000000  1
  Mg  Mg6  1  0.436688  0.436687  0.000000  1
  Mg  Mg7  1  0.999842  0.563445  0.000000  1
  Ni  Ni8  1  0.999831  0.999831  0.000000  1
  Ni  Ni9  1  0.803922  0.181685  0.000000  1
  Ni  Ni10  1  0.378176  0.196338  0.000000  1
  Ni  Ni11  1  0.196338  0.378176  0.000000  1
  Ni  Ni12  1  0.818224  0.622004  0.000000  1
  Ni  Ni13  1  0.181685  0.803922  0.000000  1
  Ni  Ni14  1  0.622004  0.818223  0.000000  1
  Ni  Ni15  1  0.718999  0.999334  0.500000  1
  Ni  Ni16  1  0.482739  0.120347  0.500000  1
  Ni  Ni17  1  0.280716  0.280716  0.500000  1
  Ni  Ni18  1  0.879919  0.362493  0.500000  1
  Ni  Ni19  1  0.120347  0.482739  0.500000  1
  Ni  Ni20  1  0.637229  0.517935  0.500000  1
  Ni  Ni21  1  0.517935  0.637229  0.500000  1
  Ni  Ni22  1  0.999334  0.718998  0.500000  1
  Ni  Ni23  1  0.362493  0.879919  0.500000  1
  As  As24  1  0.355906  0.000107  0.000000  1
  As  As25  1  0.823352  0.000033  0.000000  1
  As  As26  1  0.176620  0.176620  0.000000  1
  As  As27  1  0.000107  0.355906  0.000000  1
  As  As28  1  0.644481  0.644481  0.000000  1
  As  As29  1  0.000033  0.823352  0.000000  1
  As  As30  1  0.692780  0.173558  0.500000  1
  As  As31  1  0.481176  0.307545  0.500000  1
  As  As32  1  0.307545  0.481176  0.500000  1
  As  As33  1  0.825782  0.518779  0.500000  1
  As  As34  1  0.173558  0.692780  0.500000  1
  As  As35  1  0.518779  0.825782  0.500000  1
