# generated using pymatgen
data_SmHo4(In2Rh)2
_symmetry_space_group_name_H-M   'P 1'
_cell_length_a   3.64596200
_cell_length_b   8.01917400
_cell_length_c   18.36716500
_cell_angle_alpha   90.00000000
_cell_angle_beta   90.00000000
_cell_angle_gamma   90.00000000
_symmetry_Int_Tables_number   1
_chemical_formula_structural   SmHo4(In2Rh)2
_chemical_formula_sum   'Sm2 Ho8 In8 Rh4'
_cell_volume   537.01189091
_cell_formula_units_Z   2
loop_
 _symmetry_equiv_pos_site_id
 _symmetry_equiv_pos_as_xyz
  1  'x, y, z'
loop_
 _atom_site_type_symbol
 _atom_site_label
 _atom_site_symmetry_multiplicity
 _atom_site_fract_x
 _atom_site_fract_y
 _atom_site_fract_z
 _atom_site_occupancy
  Sm  Sm0  1  0.000000  0.000000  0.000000  1
  Sm  Sm1  1  0.000000  0.500000  0.500000  1
  Ho  Ho2  1  0.000000  0.117073  0.410749  1
  Ho  Ho3  1  0.000000  0.882927  0.589251  1
  Ho  Ho4  1  0.000000  0.382927  0.910749  1
  Ho  Ho5  1  0.000000  0.617073  0.089251  1
  Ho  Ho6  1  0.000000  0.244839  0.220784  1
  Ho  Ho7  1  0.000000  0.755161  0.779216  1
  Ho  Ho8  1  0.000000  0.255161  0.720784  1
  Ho  Ho9  1  0.000000  0.744839  0.279216  1
  In  In10  1  0.500000  0.425485  0.348301  1
  In  In11  1  0.500000  0.574515  0.651699  1
  In  In12  1  0.500000  0.074515  0.848301  1
  In  In13  1  0.500000  0.925485  0.151699  1
  In  In14  1  0.500000  0.296449  0.068690  1
  In  In15  1  0.500000  0.703551  0.931310  1
  In  In16  1  0.500000  0.203551  0.568690  1
  In  In17  1  0.500000  0.796449  0.431310  1
  Rh  Rh18  1  0.500000  0.023095  0.304964  1
  Rh  Rh19  1  0.500000  0.976905  0.695036  1
  Rh  Rh20  1  0.500000  0.476905  0.804964  1
  Rh  Rh21  1  0.500000  0.523095  0.195036  1
