# generated using pymatgen
data_HoTm3Ga6Ir7
_symmetry_space_group_name_H-M   'P 1'
_cell_length_a   7.25095200
_cell_length_b   7.25095213
_cell_length_c   7.24058600
_cell_angle_alpha   109.44225760
_cell_angle_beta   109.44225796
_cell_angle_gamma   109.50016741
_symmetry_Int_Tables_number   1
_chemical_formula_structural   HoTm3Ga6Ir7
_chemical_formula_sum   'Ho1 Tm3 Ga6 Ir7'
_cell_volume   293.15479739
_cell_formula_units_Z   1
loop_
 _symmetry_equiv_pos_site_id
 _symmetry_equiv_pos_as_xyz
  1  'x, y, z'
loop_
 _atom_site_type_symbol
 _atom_site_label
 _atom_site_symmetry_multiplicity
 _atom_site_fract_x
 _atom_site_fract_y
 _atom_site_fract_z
 _atom_site_occupancy
  Ho  Ho0  1  0.000000  0.000000  0.500000  1
  Tm  Tm1  1  0.000000  0.500000  0.000000  1
  Tm  Tm2  1  0.500000  0.000000  0.000000  1
  Tm  Tm3  1  0.500000  0.500000  0.500000  1
  Ga  Ga4  1  0.687422  0.687422  0.999644  1
  Ga  Ga5  1  0.312578  0.000000  0.312222  1
  Ga  Ga6  1  0.000000  0.312578  0.312222  1
  Ga  Ga7  1  0.312578  0.312578  0.000356  1
  Ga  Ga8  1  0.687422  0.000000  0.687778  1
  Ga  Ga9  1  0.000000  0.687422  0.687778  1
  Ir  Ir10  1  0.749672  0.250328  0.500000  1
  Ir  Ir11  1  0.749672  0.499345  0.249672  1
  Ir  Ir12  1  0.500655  0.250328  0.750328  1
  Ir  Ir13  1  0.250328  0.500655  0.750328  1
  Ir  Ir14  1  0.250328  0.749672  0.500000  1
  Ir  Ir15  1  0.499345  0.749672  0.249672  1
  Ir  Ir16  1  0.000000  0.000000  0.000000  1
