# generated using pymatgen
data_Dy4Er7TmOs4
_symmetry_space_group_name_H-M   'P 1'
_cell_length_a   6.27764324
_cell_length_b   7.37782556
_cell_length_c   8.97903000
_cell_angle_alpha   89.99762362
_cell_angle_beta   89.98410084
_cell_angle_gamma   89.97778874
_symmetry_Int_Tables_number   1
_chemical_formula_structural   Dy4Er7TmOs4
_chemical_formula_sum   'Dy4 Er7 Tm1 Os4'
_cell_volume   415.86693028
_cell_formula_units_Z   1
loop_
 _symmetry_equiv_pos_site_id
 _symmetry_equiv_pos_as_xyz
  1  'x, y, z'
loop_
 _atom_site_type_symbol
 _atom_site_label
 _atom_site_symmetry_multiplicity
 _atom_site_fract_x
 _atom_site_fract_y
 _atom_site_fract_z
 _atom_site_occupancy
  Dy  Dy0  1  0.870383  0.538735  0.249871  1
  Dy  Dy1  1  0.629396  0.038476  0.249915  1
  Dy  Dy2  1  0.129743  0.461520  0.750097  1
  Dy  Dy3  1  0.370395  0.961303  0.750063  1
  Er  Er4  1  0.167107  0.175234  0.437246  1
  Er  Er5  1  0.667067  0.324755  0.562685  1
  Er  Er6  1  0.832657  0.824855  0.937367  1
  Er  Er7  1  0.667056  0.324995  0.937276  1
  Er  Er8  1  0.832990  0.824857  0.562754  1
  Er  Er9  1  0.333015  0.675130  0.436962  1
  Er  Er10  1  0.167251  0.175119  0.062782  1
  Tm  Tm11  1  0.332887  0.675039  0.062881  1
  Os  Os12  1  0.043117  0.882801  0.250000  1
  Os  Os13  1  0.456938  0.383182  0.250017  1
  Os  Os14  1  0.957081  0.116967  0.750057  1
  Os  Os15  1  0.542915  0.617038  0.750025  1
