# generated using pymatgen
data_Yb5Y3(Si4Mo3)4
_symmetry_space_group_name_H-M   'P 1'
_cell_length_a   6.73298361
_cell_length_b   6.94980571
_cell_length_c   13.00595894
_cell_angle_alpha   89.93799413
_cell_angle_beta   89.97627922
_cell_angle_gamma   89.95818781
_symmetry_Int_Tables_number   1
_chemical_formula_structural   Yb5Y3(Si4Mo3)4
_chemical_formula_sum   'Yb5 Y3 Si16 Mo12'
_cell_volume   608.58632931
_cell_formula_units_Z   1
loop_
 _symmetry_equiv_pos_site_id
 _symmetry_equiv_pos_as_xyz
  1  'x, y, z'
loop_
 _atom_site_type_symbol
 _atom_site_label
 _atom_site_symmetry_multiplicity
 _atom_site_fract_x
 _atom_site_fract_y
 _atom_site_fract_z
 _atom_site_occupancy
  Yb  Yb0  1  0.497936  0.335187  0.090529  1
  Yb  Yb1  1  0.997847  0.166971  0.407913  1
  Yb  Yb2  1  0.501555  0.667424  0.592182  1
  Yb  Yb3  1  0.001747  0.832008  0.907597  1
  Yb  Yb4  1  0.501550  0.666357  0.909482  1
  Y  Y5  1  0.999993  0.830377  0.594015  1
  Y  Y6  1  0.499804  0.331668  0.406686  1
  Y  Y7  1  0.999720  0.168500  0.092816  1
  Si  Si8  1  0.659120  0.042259  0.545321  1
  Si  Si9  1  0.158588  0.457914  0.954195  1
  Si  Si10  1  0.341528  0.957185  0.045786  1
  Si  Si11  1  0.841257  0.542404  0.454273  1
  Si  Si12  1  0.339900  0.956738  0.454483  1
  Si  Si13  1  0.841248  0.544203  0.045558  1
  Si  Si14  1  0.659094  0.041949  0.954189  1
  Si  Si15  1  0.160033  0.456408  0.545165  1
  Si  Si16  1  0.534013  0.371709  0.750089  1
  Si  Si17  1  0.034679  0.128258  0.749754  1
  Si  Si18  1  0.465336  0.631883  0.249247  1
  Si  Si19  1  0.965687  0.869794  0.250268  1
  Si  Si20  1  0.799728  0.628493  0.751249  1
  Si  Si21  1  0.303824  0.869777  0.751347  1
  Si  Si22  1  0.197904  0.371065  0.249913  1
  Si  Si23  1  0.697253  0.129584  0.249644  1
  Mo  Mo24  1  0.832980  0.333351  0.626070  1
  Mo  Mo25  1  0.333190  0.167823  0.873079  1
  Mo  Mo26  1  0.166514  0.666330  0.126463  1
  Mo  Mo27  1  0.667482  0.833608  0.374194  1
  Mo  Mo28  1  0.167244  0.666733  0.373347  1
  Mo  Mo29  1  0.667653  0.834356  0.127197  1
  Mo  Mo30  1  0.834651  0.331189  0.872609  1
  Mo  Mo31  1  0.333519  0.167160  0.626323  1
  Mo  Mo32  1  0.662372  0.007436  0.749556  1
  Mo  Mo33  1  0.161849  0.492287  0.749115  1
  Mo  Mo34  1  0.336400  0.995615  0.250542  1
  Mo  Mo35  1  0.836802  0.505999  0.249808  1
