# generated using pymatgen
data_Yb2Al20NiOs3
_symmetry_space_group_name_H-M   'P 1'
_cell_length_a   6.88261503
_cell_length_b   6.87109806
_cell_length_c   9.11050252
_cell_angle_alpha   90.62204901
_cell_angle_beta   90.07359542
_cell_angle_gamma   96.79110823
_symmetry_Int_Tables_number   1
_chemical_formula_structural   Yb2Al20NiOs3
_chemical_formula_sum   'Yb2 Al20 Ni1 Os3'
_cell_volume   427.79637857
_cell_formula_units_Z   1
loop_
 _symmetry_equiv_pos_site_id
 _symmetry_equiv_pos_as_xyz
  1  'x, y, z'
loop_
 _atom_site_type_symbol
 _atom_site_label
 _atom_site_symmetry_multiplicity
 _atom_site_fract_x
 _atom_site_fract_y
 _atom_site_fract_z
 _atom_site_occupancy
  Yb  Yb0  1  0.628912  0.376210  0.750168  1
  Yb  Yb1  1  0.371088  0.623790  0.249832  1
  Al  Al2  1  0.279152  0.020117  0.748975  1
  Al  Al3  1  0.020566  0.280987  0.247521  1
  Al  Al4  1  0.720848  0.979883  0.251025  1
  Al  Al5  1  0.979434  0.719013  0.752479  1
  Al  Al6  1  0.877199  0.122967  0.952421  1
  Al  Al7  1  0.122801  0.877033  0.047579  1
  Al  Al8  1  0.876238  0.123274  0.545015  1
  Al  Al9  1  0.123762  0.876726  0.454985  1
  Al  Al10  1  0.642832  0.917045  0.752758  1
  Al  Al11  1  0.913481  0.643551  0.250651  1
  Al  Al12  1  0.357168  0.082955  0.247242  1
  Al  Al13  1  0.086519  0.356449  0.749349  1
  Al  Al14  1  0.343698  0.659159  0.897986  1
  Al  Al15  1  0.656302  0.340841  0.102014  1
  Al  Al16  1  0.345104  0.657022  0.598747  1
  Al  Al17  1  0.654896  0.342978  0.401253  1
  Al  Al18  1  0.723344  0.726410  0.000096  1
  Al  Al19  1  0.722209  0.722078  0.502616  1
  Al  Al20  1  0.276656  0.273590  0.999904  1
  Al  Al21  1  0.277791  0.277922  0.497384  1
  Ni  Ni22  1  0.500000  0.000000  0.000000  1
  Os  Os23  1  0.000000  0.500000  0.000000  1
  Os  Os24  1  0.500000  0.000000  0.500000  1
  Os  Os25  1  0.000000  0.500000  0.500000  1
