# generated using pymatgen
data_Yb5Co2Si12Ir17
_symmetry_space_group_name_H-M   'P 1'
_cell_length_a   12.79703885
_cell_length_b   12.76686352
_cell_length_c   3.95966500
_cell_angle_alpha   90.00000000
_cell_angle_beta   90.00000000
_cell_angle_gamma   119.92202510
_symmetry_Int_Tables_number   1
_chemical_formula_structural   Yb5Co2Si12Ir17
_chemical_formula_sum   'Yb5 Co2 Si12 Ir17'
_cell_volume   560.69086651
_cell_formula_units_Z   1
loop_
 _symmetry_equiv_pos_site_id
 _symmetry_equiv_pos_as_xyz
  1  'x, y, z'
loop_
 _atom_site_type_symbol
 _atom_site_label
 _atom_site_symmetry_multiplicity
 _atom_site_fract_x
 _atom_site_fract_y
 _atom_site_fract_z
 _atom_site_occupancy
  Yb  Yb0  1  0.335468  0.669419  0.000000  1
  Yb  Yb1  1  0.664532  0.333951  0.000000  1
  Yb  Yb2  1  0.183116  0.180981  0.500000  1
  Yb  Yb3  1  0.816884  0.997865  0.500000  1
  Yb  Yb4  1  0.000000  0.818144  0.500000  1
  Co  Co5  1  0.717781  0.718156  0.500000  1
  Co  Co6  1  0.282219  0.000376  0.500000  1
  Si  Si7  1  0.813189  0.813634  0.000000  1
  Si  Si8  1  0.186811  0.000444  0.000000  1
  Si  Si9  1  0.000000  0.179042  0.000000  1
  Si  Si10  1  0.314338  0.841753  0.500000  1
  Si  Si11  1  0.166242  0.479420  0.500000  1
  Si  Si12  1  0.527630  0.686114  0.500000  1
  Si  Si13  1  0.833758  0.313178  0.500000  1
  Si  Si14  1  0.472370  0.158484  0.500000  1
  Si  Si15  1  0.685662  0.527415  0.500000  1
  Si  Si16  1  0.370967  0.370374  0.000000  1
  Si  Si17  1  0.629033  0.999407  0.000000  1
  Si  Si18  1  0.000000  0.631578  0.000000  1
  Ir  Ir19  1  0.194094  0.819277  0.000000  1
  Ir  Ir20  1  0.184512  0.377100  0.000000  1
  Ir  Ir21  1  0.624454  0.805573  0.000000  1
  Ir  Ir22  1  0.815488  0.192589  0.000000  1
  Ir  Ir23  1  0.375546  0.181120  0.000000  1
  Ir  Ir24  1  0.805906  0.625184  0.000000  1
  Ir  Ir25  1  0.000000  0.280579  0.500000  1
  Ir  Ir26  1  0.127993  0.641849  0.500000  1
  Ir  Ir27  1  0.361483  0.488031  0.500000  1
  Ir  Ir28  1  0.512675  0.871902  0.500000  1
  Ir  Ir29  1  0.638517  0.126549  0.500000  1
  Ir  Ir30  1  0.487325  0.359229  0.500000  1
  Ir  Ir31  1  0.872007  0.513857  0.500000  1
  Ir  Ir32  1  0.557327  0.556231  0.000000  1
  Ir  Ir33  1  0.442673  0.998904  0.000000  1
  Ir  Ir34  1  0.000000  0.446752  0.000000  1
  Ir  Ir35  1  0.000000  0.995540  0.000000  1
