# generated using pymatgen
data_Hf16TaCo3NiRu3
_symmetry_space_group_name_H-M   'P 1'
_cell_length_a   8.64468117
_cell_length_b   8.64468042
_cell_length_c   8.64468162
_cell_angle_alpha   60.13302343
_cell_angle_beta   60.13302647
_cell_angle_gamma   60.13302660
_symmetry_Int_Tables_number   1
_chemical_formula_structural   Hf16TaCo3NiRu3
_chemical_formula_sum   'Hf16 Ta1 Co3 Ni1 Ru3'
_cell_volume   458.18271253
_cell_formula_units_Z   1
loop_
 _symmetry_equiv_pos_site_id
 _symmetry_equiv_pos_as_xyz
  1  'x, y, z'
loop_
 _atom_site_type_symbol
 _atom_site_label
 _atom_site_symmetry_multiplicity
 _atom_site_fract_x
 _atom_site_fract_y
 _atom_site_fract_z
 _atom_site_occupancy
  Hf  Hf0  1  0.699160  0.101500  0.101500  1
  Hf  Hf1  1  0.101500  0.699160  0.101500  1
  Hf  Hf2  1  0.101500  0.101500  0.699160  1
  Hf  Hf3  1  0.100216  0.100216  0.100216  1
  Hf  Hf4  1  0.315870  0.315870  0.685111  1
  Hf  Hf5  1  0.685884  0.685884  0.315125  1
  Hf  Hf6  1  0.315870  0.685111  0.315870  1
  Hf  Hf7  1  0.685884  0.315125  0.685884  1
  Hf  Hf8  1  0.685111  0.315870  0.315870  1
  Hf  Hf9  1  0.315125  0.685884  0.685884  1
  Hf  Hf10  1  0.955252  0.955252  0.540908  1
  Hf  Hf11  1  0.552813  0.552813  0.950266  1
  Hf  Hf12  1  0.955252  0.540908  0.955252  1
  Hf  Hf13  1  0.552813  0.950266  0.552813  1
  Hf  Hf14  1  0.540908  0.955252  0.955252  1
  Hf  Hf15  1  0.950266  0.552813  0.552813  1
  Ta  Ta16  1  0.326067  0.326067  0.326067  1
  Co  Co17  1  0.327290  0.890322  0.890322  1
  Co  Co18  1  0.890322  0.327290  0.890322  1
  Co  Co19  1  0.890322  0.890322  0.327290  1
  Ni  Ni20  1  0.889586  0.889586  0.889586  1
  Ru  Ru21  1  0.992359  0.335313  0.335313  1
  Ru  Ru22  1  0.335313  0.992359  0.335313  1
  Ru  Ru23  1  0.335313  0.335313  0.992359  1
