# generated using pymatgen
data_DyNp3Ga12Re
_symmetry_space_group_name_H-M   'P 1'
_cell_length_a   7.49860923
_cell_length_b   7.54271326
_cell_length_c   7.49860863
_cell_angle_alpha   109.59041960
_cell_angle_beta   109.35177156
_cell_angle_gamma   109.59039819
_symmetry_Int_Tables_number   1
_chemical_formula_structural   DyNp3Ga12Re
_chemical_formula_sum   'Dy1 Np3 Ga12 Re1'
_cell_volume   326.00643296
_cell_formula_units_Z   1
loop_
 _symmetry_equiv_pos_site_id
 _symmetry_equiv_pos_as_xyz
  1  'x, y, z'
loop_
 _atom_site_type_symbol
 _atom_site_label
 _atom_site_symmetry_multiplicity
 _atom_site_fract_x
 _atom_site_fract_y
 _atom_site_fract_z
 _atom_site_occupancy
  Dy  Dy0  1  0.000000  0.500000  0.000000  1
  Np  Np1  1  0.000000  0.000000  0.500000  1
  Np  Np2  1  0.500000  0.000000  0.000000  1
  Np  Np3  1  0.500000  0.500000  0.500000  1
  Ga  Ga4  1  0.708335  0.710089  0.000000  1
  Ga  Ga5  1  0.291665  0.001755  0.291665  1
  Ga  Ga6  1  0.000000  0.289911  0.291665  1
  Ga  Ga7  1  0.291665  0.289911  0.000000  1
  Ga  Ga8  1  0.708335  0.998245  0.708335  1
  Ga  Ga9  1  0.000000  0.710089  0.708335  1
  Ga  Ga10  1  0.749693  0.249693  0.499388  1
  Ga  Ga11  1  0.749693  0.500000  0.250307  1
  Ga  Ga12  1  0.499388  0.249693  0.749693  1
  Ga  Ga13  1  0.250307  0.500000  0.749693  1
  Ga  Ga14  1  0.250307  0.750307  0.500612  1
  Ga  Ga15  1  0.500612  0.750307  0.250307  1
  Re  Re16  1  0.000000  0.000000  0.000000  1
