# generated using pymatgen
data_Ho5Tl2Rh
_symmetry_space_group_name_H-M   'P 1'
_cell_length_a   7.68530300
_cell_length_b   9.06907200
_cell_length_c   12.43798300
_cell_angle_alpha   90.00000000
_cell_angle_beta   90.00000000
_cell_angle_gamma   90.00000000
_symmetry_Int_Tables_number   1
_chemical_formula_structural   Ho5Tl2Rh
_chemical_formula_sum   'Ho20 Tl8 Rh4'
_cell_volume   866.90958213
_cell_formula_units_Z   4
loop_
 _symmetry_equiv_pos_site_id
 _symmetry_equiv_pos_as_xyz
  1  'x, y, z'
loop_
 _atom_site_type_symbol
 _atom_site_label
 _atom_site_symmetry_multiplicity
 _atom_site_fract_x
 _atom_site_fract_y
 _atom_site_fract_z
 _atom_site_occupancy
  Ho  Ho0  1  0.847536  0.750000  0.779196  1
  Ho  Ho1  1  0.152464  0.250000  0.220804  1
  Ho  Ho2  1  0.347536  0.250000  0.720804  1
  Ho  Ho3  1  0.652464  0.750000  0.279196  1
  Ho  Ho4  1  0.381171  0.750000  0.695333  1
  Ho  Ho5  1  0.618829  0.250000  0.304667  1
  Ho  Ho6  1  0.881171  0.250000  0.804667  1
  Ho  Ho7  1  0.118829  0.750000  0.195333  1
  Ho  Ho8  1  0.958892  0.750000  0.500508  1
  Ho  Ho9  1  0.041108  0.250000  0.499492  1
  Ho  Ho10  1  0.458892  0.250000  0.999492  1
  Ho  Ho11  1  0.541108  0.750000  0.000508  1
  Ho  Ho12  1  0.676327  0.036286  0.576188  1
  Ho  Ho13  1  0.323673  0.963714  0.423812  1
  Ho  Ho14  1  0.176327  0.963714  0.923812  1
  Ho  Ho15  1  0.323673  0.536286  0.423812  1
  Ho  Ho16  1  0.823673  0.036286  0.076188  1
  Ho  Ho17  1  0.676327  0.463714  0.576188  1
  Ho  Ho18  1  0.823673  0.463714  0.076188  1
  Ho  Ho19  1  0.176327  0.536286  0.923812  1
  Tl  Tl20  1  0.581892  0.494290  0.833002  1
  Tl  Tl21  1  0.418108  0.505710  0.166998  1
  Tl  Tl22  1  0.081892  0.505710  0.666998  1
  Tl  Tl23  1  0.418108  0.994290  0.166998  1
  Tl  Tl24  1  0.918108  0.494290  0.333002  1
  Tl  Tl25  1  0.581892  0.005710  0.833002  1
  Tl  Tl26  1  0.918108  0.005710  0.333002  1
  Tl  Tl27  1  0.081892  0.994290  0.666998  1
  Rh  Rh28  1  0.576578  0.750000  0.503895  1
  Rh  Rh29  1  0.423422  0.250000  0.496105  1
  Rh  Rh30  1  0.076578  0.250000  0.996105  1
  Rh  Rh31  1  0.923422  0.750000  0.003895  1
