# generated using pymatgen
data_Ac11NdSi12
_symmetry_space_group_name_H-M   'P 1'
_cell_length_a   4.07339100
_cell_length_b   14.21331753
_cell_length_c   11.64868046
_cell_angle_alpha   89.99948521
_cell_angle_beta   90.00000000
_cell_angle_gamma   90.00000000
_symmetry_Int_Tables_number   1
_chemical_formula_structural   Ac11NdSi12
_chemical_formula_sum   'Ac11 Nd1 Si12'
_cell_volume   674.41665989
_cell_formula_units_Z   1
loop_
 _symmetry_equiv_pos_site_id
 _symmetry_equiv_pos_as_xyz
  1  'x, y, z'
loop_
 _atom_site_type_symbol
 _atom_site_label
 _atom_site_symmetry_multiplicity
 _atom_site_fract_x
 _atom_site_fract_y
 _atom_site_fract_z
 _atom_site_occupancy
  Ac  Ac0  1  0.250000  0.664224  0.854749  1
  Ac  Ac1  1  0.250000  0.830839  0.359406  1
  Ac  Ac2  1  0.750000  0.334183  0.142326  1
  Ac  Ac3  1  0.750000  0.167326  0.642064  1
  Ac  Ac4  1  0.250000  0.334883  0.856667  1
  Ac  Ac5  1  0.250000  0.169850  0.360750  1
  Ac  Ac6  1  0.750000  0.666268  0.140849  1
  Ac  Ac7  1  0.750000  0.832641  0.640554  1
  Ac  Ac8  1  0.250000  0.000449  0.857875  1
  Ac  Ac9  1  0.250000  0.499624  0.358941  1
  Ac  Ac10  1  0.750000  0.999272  0.141759  1
  Nd  Nd11  1  0.750000  0.500306  0.634911  1
  Si  Si12  1  0.250000  0.339508  0.572896  1
  Si  Si13  1  0.250000  0.167069  0.065705  1
  Si  Si14  1  0.750000  0.663324  0.438978  1
  Si  Si15  1  0.750000  0.832020  0.932605  1
  Si  Si16  1  0.250000  0.660913  0.570107  1
  Si  Si17  1  0.250000  0.832389  0.061926  1
  Si  Si18  1  0.750000  0.336785  0.441849  1
  Si  Si19  1  0.750000  0.167768  0.936319  1
  Si  Si20  1  0.250000  0.000069  0.562830  1
  Si  Si21  1  0.250000  0.500153  0.061868  1
  Si  Si22  1  0.750000  0.000377  0.433502  1
  Si  Si23  1  0.750000  0.499762  0.930563  1
