# generated using pymatgen
data_Ba3SrGa4(GeO7)2
_symmetry_space_group_name_H-M   'P 1'
_cell_length_a   8.30289535
_cell_length_b   5.65028763
_cell_length_c   8.31948495
_cell_angle_alpha   89.60320107
_cell_angle_beta   90.45647026
_cell_angle_gamma   90.03956887
_symmetry_Int_Tables_number   1
_chemical_formula_structural   Ba3SrGa4(GeO7)2
_chemical_formula_sum   'Ba3 Sr1 Ga4 Ge2 O14'
_cell_volume   390.27638626
_cell_formula_units_Z   1
loop_
 _symmetry_equiv_pos_site_id
 _symmetry_equiv_pos_as_xyz
  1  'x, y, z'
loop_
 _atom_site_type_symbol
 _atom_site_label
 _atom_site_symmetry_multiplicity
 _atom_site_fract_x
 _atom_site_fract_y
 _atom_site_fract_z
 _atom_site_occupancy
  Ba  Ba0  1  0.661866  0.487299  0.578903  1
  Ba  Ba1  1  0.159017  0.514862  0.419476  1
  Ba  Ba2  1  0.334933  0.497136  0.907014  1
  Sr  Sr3  1  0.830614  0.509091  0.099879  1
  Ga  Ga4  1  0.502163  0.997477  0.249959  1
  Ga  Ga5  1  0.000994  0.996392  0.749954  1
  Ga  Ga6  1  0.855386  0.025136  0.386660  1
  Ga  Ga7  1  0.358909  0.976603  0.607927  1
  Ge  Ge8  1  0.135445  0.034639  0.107042  1
  Ge  Ge9  1  0.647474  0.965579  0.896520  1
  O  O10  1  0.512427  0.840062  0.752276  1
  O  O11  1  0.001723  0.176922  0.243138  1
  O  O12  1  0.855492  0.706045  0.375308  1
  O  O13  1  0.360776  0.295072  0.613750  1
  O  O14  1  0.129712  0.727059  0.107146  1
  O  O15  1  0.650973  0.273066  0.903982  1
  O  O16  1  0.586607  0.811905  0.078807  1
  O  O17  1  0.079981  0.183453  0.921764  1
  O  O18  1  0.418757  0.818007  0.417486  1
  O  O19  1  0.914966  0.173755  0.581650  1
  O  O20  1  0.668879  0.192896  0.317553  1
  O  O21  1  0.171533  0.812896  0.678066  1
  O  O22  1  0.327502  0.168091  0.156523  1
  O  O23  1  0.833869  0.816557  0.849216  1
