# generated using pymatgen
data_TbHo(ScSb5)2
_symmetry_space_group_name_H-M   'P 1'
_cell_length_a   4.20491700
_cell_length_b   13.07358874
_cell_length_c   14.25581566
_cell_angle_alpha   78.77099785
_cell_angle_beta   90.00000000
_cell_angle_gamma   90.00000000
_symmetry_Int_Tables_number   1
_chemical_formula_structural   TbHo(ScSb5)2
_chemical_formula_sum   'Tb2 Ho2 Sc4 Sb20'
_cell_volume   768.68761837
_cell_formula_units_Z   2
loop_
 _symmetry_equiv_pos_site_id
 _symmetry_equiv_pos_as_xyz
  1  'x, y, z'
loop_
 _atom_site_type_symbol
 _atom_site_label
 _atom_site_symmetry_multiplicity
 _atom_site_fract_x
 _atom_site_fract_y
 _atom_site_fract_z
 _atom_site_occupancy
  Tb  Tb0  1  0.250000  0.669824  0.576111  1
  Tb  Tb1  1  0.750000  0.330176  0.423889  1
  Ho  Ho2  1  0.250000  0.953206  0.354913  1
  Ho  Ho3  1  0.750000  0.046794  0.645087  1
  Sc  Sc4  1  0.250000  0.396487  0.772767  1
  Sc  Sc5  1  0.750000  0.603513  0.227233  1
  Sc  Sc6  1  0.250000  0.657402  0.858742  1
  Sc  Sc7  1  0.750000  0.342598  0.141258  1
  Sb  Sb8  1  0.250000  0.147594  0.780269  1
  Sb  Sb9  1  0.750000  0.852406  0.219731  1
  Sb  Sb10  1  0.250000  0.141706  0.483505  1
  Sb  Sb11  1  0.750000  0.858294  0.516495  1
  Sb  Sb12  1  0.250000  0.162516  0.161057  1
  Sb  Sb13  1  0.750000  0.837484  0.838943  1
  Sb  Sb14  1  0.250000  0.422026  0.974754  1
  Sb  Sb15  1  0.750000  0.577974  0.025246  1
  Sb  Sb16  1  0.750000  0.028457  0.913317  1
  Sb  Sb17  1  0.250000  0.971543  0.086683  1
  Sb  Sb18  1  0.750000  0.142030  0.315467  1
  Sb  Sb19  1  0.250000  0.857970  0.684533  1
  Sb  Sb20  1  0.750000  0.280353  0.936348  1
  Sb  Sb21  1  0.250000  0.719647  0.063652  1
  Sb  Sb22  1  0.750000  0.289092  0.659119  1
  Sb  Sb23  1  0.250000  0.710908  0.340881  1
  Sb  Sb24  1  0.750000  0.573021  0.742090  1
  Sb  Sb25  1  0.250000  0.426979  0.257910  1
  Sb  Sb26  1  0.750000  0.570508  0.443611  1
  Sb  Sb27  1  0.250000  0.429492  0.556389  1
