# generated using pymatgen
data_HoThAl3Re
_symmetry_space_group_name_H-M   'P 1'
_cell_length_a   5.52412000
_cell_length_b   5.52411891
_cell_length_c   9.09709900
_cell_angle_alpha   90.00000000
_cell_angle_beta   90.00000000
_cell_angle_gamma   120.00000650
_symmetry_Int_Tables_number   1
_chemical_formula_structural   HoThAl3Re
_chemical_formula_sum   'Ho2 Th2 Al6 Re2'
_cell_volume   240.41394071
_cell_formula_units_Z   2
loop_
 _symmetry_equiv_pos_site_id
 _symmetry_equiv_pos_as_xyz
  1  'x, y, z'
loop_
 _atom_site_type_symbol
 _atom_site_label
 _atom_site_symmetry_multiplicity
 _atom_site_fract_x
 _atom_site_fract_y
 _atom_site_fract_z
 _atom_site_occupancy
  Ho  Ho0  1  0.666667  0.333333  0.443111  1
  Ho  Ho1  1  0.333333  0.666667  0.556889  1
  Th  Th2  1  0.333333  0.666667  0.956280  1
  Th  Th3  1  0.666667  0.333333  0.043720  1
  Al  Al4  1  0.675015  0.837507  0.257447  1
  Al  Al5  1  0.162493  0.837507  0.257447  1
  Al  Al6  1  0.162493  0.324985  0.257447  1
  Al  Al7  1  0.324985  0.162493  0.742553  1
  Al  Al8  1  0.837507  0.162493  0.742553  1
  Al  Al9  1  0.837507  0.675015  0.742553  1
  Re  Re10  1  0.000000  0.000000  0.500000  1
  Re  Re11  1  0.000000  0.000000  0.000000  1
