# generated using pymatgen
data_Sr6Sn8BiAu
_symmetry_space_group_name_H-M   'P 1'
_cell_length_a   9.00392189
_cell_length_b   9.00392109
_cell_length_c   9.00392178
_cell_angle_alpha   120.42878861
_cell_angle_beta   120.42878538
_cell_angle_gamma   89.25891038
_symmetry_Int_Tables_number   1
_chemical_formula_structural   Sr6Sn8BiAu
_chemical_formula_sum   'Sr6 Sn8 Bi1 Au1'
_cell_volume   512.76320904
_cell_formula_units_Z   1
loop_
 _symmetry_equiv_pos_site_id
 _symmetry_equiv_pos_as_xyz
  1  'x, y, z'
loop_
 _atom_site_type_symbol
 _atom_site_label
 _atom_site_symmetry_multiplicity
 _atom_site_fract_x
 _atom_site_fract_y
 _atom_site_fract_z
 _atom_site_occupancy
  Sr  Sr0  1  0.253588  0.253588  0.000000  1
  Sr  Sr1  1  0.746412  0.746412  0.000000  1
  Sr  Sr2  1  0.164630  0.660453  0.825084  1
  Sr  Sr3  1  0.835370  0.339547  0.174916  1
  Sr  Sr4  1  0.660453  0.835370  0.495823  1
  Sr  Sr5  1  0.339547  0.164630  0.504177  1
  Sn  Sn6  1  0.830354  0.332711  0.786019  1
  Sn  Sn7  1  0.169646  0.667289  0.213981  1
  Sn  Sn8  1  0.546692  0.044334  0.213981  1
  Sn  Sn9  1  0.332711  0.546692  0.502357  1
  Sn  Sn10  1  0.955666  0.169646  0.502357  1
  Sn  Sn11  1  0.453308  0.955666  0.786019  1
  Sn  Sn12  1  0.667289  0.453308  0.497643  1
  Sn  Sn13  1  0.044334  0.830354  0.497643  1
  Bi  Bi14  1  0.000000  0.000000  0.000000  1
  Au  Au15  1  0.500000  0.500000  0.000000  1
