# generated using pymatgen
data_Er5Ga2Bi
_symmetry_space_group_name_H-M   'P 1'
_cell_length_a   8.66201784
_cell_length_b   8.69158353
_cell_length_c   6.52542600
_cell_angle_alpha   90.00000000
_cell_angle_beta   90.00000000
_cell_angle_gamma   120.11297261
_symmetry_Int_Tables_number   1
_chemical_formula_structural   Er5Ga2Bi
_chemical_formula_sum   'Er10 Ga4 Bi2'
_cell_volume   424.97360901
_cell_formula_units_Z   2
loop_
 _symmetry_equiv_pos_site_id
 _symmetry_equiv_pos_as_xyz
  1  'x, y, z'
loop_
 _atom_site_type_symbol
 _atom_site_label
 _atom_site_symmetry_multiplicity
 _atom_site_fract_x
 _atom_site_fract_y
 _atom_site_fract_z
 _atom_site_occupancy
  Er  Er0  1  0.982663  0.748471  0.750000  1
  Er  Er1  1  0.982663  0.234193  0.250000  1
  Er  Er2  1  0.768899  0.769451  0.250000  1
  Er  Er3  1  0.768899  0.999448  0.750000  1
  Er  Er4  1  0.233498  0.250627  0.750000  1
  Er  Er5  1  0.233498  0.982871  0.250000  1
  Er  Er6  1  0.329838  0.664920  0.500000  1
  Er  Er7  1  0.691737  0.345868  0.000000  1
  Er  Er8  1  0.691737  0.345868  0.500000  1
  Er  Er9  1  0.329838  0.664920  0.000000  1
  Ga  Ga10  1  0.001444  0.601137  0.250000  1
  Ga  Ga11  1  0.001444  0.400307  0.750000  1
  Ga  Ga12  1  0.596623  0.601165  0.750000  1
  Ga  Ga13  1  0.596623  0.995457  0.250000  1
  Bi  Bi14  1  0.395299  0.005908  0.750000  1
  Bi  Bi15  1  0.395299  0.389391  0.250000  1
