# generated using pymatgen
data_LiLaSeS
_symmetry_space_group_name_H-M   'P 1'
_cell_length_a   6.90578739
_cell_length_b   7.58088600
_cell_length_c   7.07365128
_cell_angle_alpha   89.99901997
_cell_angle_beta   100.47857747
_cell_angle_gamma   90.00081863
_symmetry_Int_Tables_number   1
_chemical_formula_structural   LiLaSeS
_chemical_formula_sum   'Li4 La4 Se4 S4'
_cell_volume   364.14386911
_cell_formula_units_Z   4
loop_
 _symmetry_equiv_pos_site_id
 _symmetry_equiv_pos_as_xyz
  1  'x, y, z'
loop_
 _atom_site_type_symbol
 _atom_site_label
 _atom_site_symmetry_multiplicity
 _atom_site_fract_x
 _atom_site_fract_y
 _atom_site_fract_z
 _atom_site_occupancy
  Li  Li0  1  0.101985  0.663449  0.068812  1
  Li  Li1  1  0.897999  0.163447  0.431176  1
  Li  Li2  1  0.101973  0.836557  0.568802  1
  Li  Li3  1  0.898038  0.336538  0.931210  1
  La  La4  1  0.322382  0.054494  0.201318  1
  La  La5  1  0.677595  0.554491  0.298676  1
  La  La6  1  0.322434  0.445520  0.701355  1
  La  La7  1  0.677602  0.945515  0.798666  1
  Se  Se8  1  0.910349  0.888785  0.222946  1
  Se  Se9  1  0.089659  0.388785  0.277063  1
  Se  Se10  1  0.910345  0.611213  0.722947  1
  Se  Se11  1  0.089648  0.111208  0.777043  1
  S  S12  1  0.579731  0.266822  0.007832  1
  S  S13  1  0.420264  0.766824  0.492162  1
  S  S14  1  0.579721  0.233177  0.507828  1
  S  S15  1  0.420272  0.733178  0.992163  1
