# generated using pymatgen
data_TbHo(Ga3Co)3
_symmetry_space_group_name_H-M   'P 1'
_cell_length_a   7.36847279
_cell_length_b   7.36847161
_cell_length_c   9.42022900
_cell_angle_alpha   90.00000000
_cell_angle_beta   90.00000000
_cell_angle_gamma   119.78745580
_symmetry_Int_Tables_number   1
_chemical_formula_structural   TbHo(Ga3Co)3
_chemical_formula_sum   'Tb2 Ho2 Ga18 Co6'
_cell_volume   443.88774647
_cell_formula_units_Z   2
loop_
 _symmetry_equiv_pos_site_id
 _symmetry_equiv_pos_as_xyz
  1  'x, y, z'
loop_
 _atom_site_type_symbol
 _atom_site_label
 _atom_site_symmetry_multiplicity
 _atom_site_fract_x
 _atom_site_fract_y
 _atom_site_fract_z
 _atom_site_occupancy
  Tb  Tb0  1  0.331582  0.002613  0.750000  1
  Tb  Tb1  1  0.002613  0.331582  0.750000  1
  Ho  Ho2  1  0.668435  0.997271  0.250000  1
  Ho  Ho3  1  0.997271  0.668435  0.250000  1
  Ga  Ga4  1  0.665761  0.999747  0.928634  1
  Ga  Ga5  1  0.334254  0.999836  0.427879  1
  Ga  Ga6  1  0.999836  0.334254  0.427878  1
  Ga  Ga7  1  0.334254  0.999836  0.072121  1
  Ga  Ga8  1  0.999747  0.665761  0.928634  1
  Ga  Ga9  1  0.999836  0.334254  0.072121  1
  Ga  Ga10  1  0.333824  0.333824  0.556991  1
  Ga  Ga11  1  0.333824  0.333824  0.943009  1
  Ga  Ga12  1  0.666538  0.666538  0.057705  1
  Ga  Ga13  1  0.666538  0.666538  0.442295  1
  Ga  Ga14  1  0.878639  0.878639  0.750000  1
  Ga  Ga15  1  0.120819  0.120819  0.250000  1
  Ga  Ga16  1  0.336222  0.550636  0.250000  1
  Ga  Ga17  1  0.550636  0.336222  0.250000  1
  Ga  Ga18  1  0.663807  0.449942  0.750000  1
  Ga  Ga19  1  0.449942  0.663807  0.750000  1
  Ga  Ga20  1  0.665761  0.999747  0.571367  1
  Ga  Ga21  1  0.999747  0.665761  0.571366  1
  Co  Co22  1  0.329174  0.671039  0.000303  1
  Co  Co23  1  0.671039  0.329174  0.499697  1
  Co  Co24  1  0.671039  0.329174  0.000303  1
  Co  Co25  1  0.329174  0.671039  0.499697  1
  Co  Co26  1  0.999844  0.999844  0.000365  1
  Co  Co27  1  0.999844  0.999844  0.499635  1
