# generated using pymatgen
data_Ho12ZnCo4Sb
_symmetry_space_group_name_H-M   'P 1'
_cell_length_a   8.31025756
_cell_length_b   8.31025830
_cell_length_c   8.31025858
_cell_angle_alpha   111.95930923
_cell_angle_beta   108.85446102
_cell_angle_gamma   107.63106684
_symmetry_Int_Tables_number   1
_chemical_formula_structural   Ho12ZnCo4Sb
_chemical_formula_sum   'Ho12 Zn1 Co4 Sb1'
_cell_volume   441.11996512
_cell_formula_units_Z   1
loop_
 _symmetry_equiv_pos_site_id
 _symmetry_equiv_pos_as_xyz
  1  'x, y, z'
loop_
 _atom_site_type_symbol
 _atom_site_label
 _atom_site_symmetry_multiplicity
 _atom_site_fract_x
 _atom_site_fract_y
 _atom_site_fract_z
 _atom_site_occupancy
  Ho  Ho0  1  0.428790  0.227008  0.201782  1
  Ho  Ho1  1  0.571210  0.772992  0.798218  1
  Ho  Ho2  1  0.025225  0.227008  0.798218  1
  Ho  Ho3  1  0.974775  0.772992  0.201782  1
  Ho  Ho4  1  0.180178  0.282604  0.462780  1
  Ho  Ho5  1  0.819822  0.717396  0.537220  1
  Ho  Ho6  1  0.180178  0.717396  0.897573  1
  Ho  Ho7  1  0.819822  0.282604  0.102427  1
  Ho  Ho8  1  0.322881  0.635792  0.312911  1
  Ho  Ho9  1  0.677119  0.364208  0.687089  1
  Ho  Ho10  1  0.322881  0.009970  0.687089  1
  Ho  Ho11  1  0.677119  0.990030  0.312911  1
  Zn  Zn12  1  0.000000  0.000000  0.000000  1
  Co  Co13  1  0.347500  0.000000  0.347500  1
  Co  Co14  1  0.652500  0.000000  0.652500  1
  Co  Co15  1  0.114342  0.614342  0.500000  1
  Co  Co16  1  0.885658  0.385658  0.500000  1
  Sb  Sb17  1  0.500000  0.500000  0.000000  1
