# generated using pymatgen
data_Ho8Tm4Ni4SnAu
_symmetry_space_group_name_H-M   'P 1'
_cell_length_a   8.31082816
_cell_length_b   8.31128706
_cell_length_c   8.31082710
_cell_angle_alpha   112.38146906
_cell_angle_beta   109.40057513
_cell_angle_gamma   106.67970934
_symmetry_Int_Tables_number   1
_chemical_formula_structural   Ho8Tm4Ni4SnAu
_chemical_formula_sum   'Ho8 Tm4 Ni4 Sn1 Au1'
_cell_volume   440.82721777
_cell_formula_units_Z   1
loop_
 _symmetry_equiv_pos_site_id
 _symmetry_equiv_pos_as_xyz
  1  'x, y, z'
loop_
 _atom_site_type_symbol
 _atom_site_label
 _atom_site_symmetry_multiplicity
 _atom_site_fract_x
 _atom_site_fract_y
 _atom_site_fract_z
 _atom_site_occupancy
  Ho  Ho0  1  0.180770  0.292724  0.473470  1
  Ho  Ho1  1  0.819230  0.707276  0.526530  1
  Ho  Ho2  1  0.180746  0.707276  0.888047  1
  Ho  Ho3  1  0.819254  0.292724  0.111953  1
  Ho  Ho4  1  0.323929  0.631532  0.307603  1
  Ho  Ho5  1  0.676071  0.368468  0.692397  1
  Ho  Ho6  1  0.323912  0.016237  0.692325  1
  Ho  Ho7  1  0.676088  0.983763  0.307675  1
  Tm  Tm8  1  0.420472  0.222619  0.197900  1
  Tm  Tm9  1  0.579528  0.777381  0.802100  1
  Tm  Tm10  1  0.024717  0.222619  0.802148  1
  Tm  Tm11  1  0.975283  0.777381  0.197852  1
  Ni  Ni12  1  0.358816  0.000000  0.358816  1
  Ni  Ni13  1  0.641184  0.000000  0.641184  1
  Ni  Ni14  1  0.125747  0.625777  0.500030  1
  Ni  Ni15  1  0.874253  0.374223  0.499970  1
  Sn  Sn16  1  0.500000  0.500000  0.000000  1
  Au  Au17  1  0.000000  0.000000  0.000000  1
