# generated using pymatgen
data_Ce6OsAu7
_symmetry_space_group_name_H-M   'P 1'
_cell_length_a   8.26143157
_cell_length_b   8.26143113
_cell_length_c   8.26142976
_cell_angle_alpha   114.39448702
_cell_angle_beta   114.39449069
_cell_angle_gamma   114.39449462
_symmetry_Int_Tables_number   1
_chemical_formula_structural   Ce6OsAu7
_chemical_formula_sum   'Ce6 Os1 Au7'
_cell_volume   332.31174427
_cell_formula_units_Z   1
loop_
 _symmetry_equiv_pos_site_id
 _symmetry_equiv_pos_as_xyz
  1  'x, y, z'
loop_
 _atom_site_type_symbol
 _atom_site_label
 _atom_site_symmetry_multiplicity
 _atom_site_fract_x
 _atom_site_fract_y
 _atom_site_fract_z
 _atom_site_occupancy
  Ce  Ce0  1  0.379324  0.016025  0.264717  1
  Ce  Ce1  1  0.016025  0.264717  0.379324  1
  Ce  Ce2  1  0.264717  0.379324  0.016025  1
  Ce  Ce3  1  0.620676  0.983975  0.735283  1
  Ce  Ce4  1  0.983975  0.735283  0.620676  1
  Ce  Ce5  1  0.735283  0.620676  0.983975  1
  Os  Os6  1  0.000000  0.000000  0.000000  1
  Au  Au7  1  0.069207  0.569062  0.234460  1
  Au  Au8  1  0.234460  0.069207  0.569062  1
  Au  Au9  1  0.569062  0.234460  0.069207  1
  Au  Au10  1  0.765540  0.930793  0.430938  1
  Au  Au11  1  0.930793  0.430938  0.765540  1
  Au  Au12  1  0.430938  0.765540  0.930793  1
  Au  Au13  1  0.500000  0.500000  0.500000  1
