# generated using pymatgen
data_YEr3Ga18RuRh5
_symmetry_space_group_name_H-M   'P 1'
_cell_length_a   7.54902298
_cell_length_b   7.55262565
_cell_length_c   9.54907115
_cell_angle_alpha   90.04999830
_cell_angle_beta   90.05743727
_cell_angle_gamma   119.83252200
_symmetry_Int_Tables_number   1
_chemical_formula_structural   YEr3Ga18RuRh5
_chemical_formula_sum   'Y1 Er3 Ga18 Ru1 Rh5'
_cell_volume   472.29153301
_cell_formula_units_Z   1
loop_
 _symmetry_equiv_pos_site_id
 _symmetry_equiv_pos_as_xyz
  1  'x, y, z'
loop_
 _atom_site_type_symbol
 _atom_site_label
 _atom_site_symmetry_multiplicity
 _atom_site_fract_x
 _atom_site_fract_y
 _atom_site_fract_z
 _atom_site_occupancy
  Y  Y0  1  0.996527  0.667836  0.249092  1
  Er  Er1  1  0.001662  0.331618  0.750519  1
  Er  Er2  1  0.668150  0.998273  0.249493  1
  Er  Er3  1  0.332194  0.003494  0.750982  1
  Ga  Ga4  1  0.124907  0.125938  0.250326  1
  Ga  Ga5  1  0.874674  0.875337  0.749677  1
  Ga  Ga6  1  0.999242  0.333461  0.079493  1
  Ga  Ga7  1  0.998455  0.664254  0.918896  1
  Ga  Ga8  1  0.999645  0.665580  0.581393  1
  Ga  Ga9  1  0.335115  0.001070  0.419932  1
  Ga  Ga10  1  0.000548  0.333939  0.420756  1
  Ga  Ga11  1  0.665361  0.999592  0.580016  1
  Ga  Ga12  1  0.665754  0.000885  0.919742  1
  Ga  Ga13  1  0.336445  0.002191  0.079766  1
  Ga  Ga14  1  0.332585  0.332699  0.565082  1
  Ga  Ga15  1  0.666689  0.667447  0.436050  1
  Ga  Ga16  1  0.665998  0.665118  0.063442  1
  Ga  Ga17  1  0.334837  0.333377  0.935430  1
  Ga  Ga18  1  0.338871  0.548048  0.250158  1
  Ga  Ga19  1  0.661691  0.451256  0.750631  1
  Ga  Ga20  1  0.547745  0.337413  0.249318  1
  Ga  Ga21  1  0.451842  0.661722  0.749841  1
  Ru  Ru22  1  0.672348  0.327669  0.999748  1
  Rh  Rh23  1  0.328278  0.671590  0.999795  1
  Rh  Rh24  1  0.328297  0.671490  0.500188  1
  Rh  Rh25  1  0.671633  0.328185  0.500253  1
  Rh  Rh26  1  0.000233  0.000268  0.999669  1
  Rh  Rh27  1  0.000278  0.000245  0.500311  1
