# generated using pymatgen
data_Hf3SnIr2N
_symmetry_space_group_name_H-M   'P 1'
_cell_length_a   8.68576869
_cell_length_b   8.68882785
_cell_length_c   8.68512431
_cell_angle_alpha   59.98803120
_cell_angle_beta   59.97871591
_cell_angle_gamma   59.98972559
_symmetry_Int_Tables_number   1
_chemical_formula_structural   Hf3SnIr2N
_chemical_formula_sum   'Hf12 Sn4 Ir8 N4'
_cell_volume   463.32697209
_cell_formula_units_Z   4
loop_
 _symmetry_equiv_pos_site_id
 _symmetry_equiv_pos_as_xyz
  1  'x, y, z'
loop_
 _atom_site_type_symbol
 _atom_site_label
 _atom_site_symmetry_multiplicity
 _atom_site_fract_x
 _atom_site_fract_y
 _atom_site_fract_z
 _atom_site_occupancy
  Hf  Hf0  1  0.813854  0.813853  0.186154  1
  Hf  Hf1  1  0.186198  0.186191  0.813816  1
  Hf  Hf2  1  0.813757  0.186217  0.813789  1
  Hf  Hf3  1  0.186108  0.813874  0.186133  1
  Hf  Hf4  1  0.186177  0.813803  0.813832  1
  Hf  Hf5  1  0.813835  0.186142  0.186177  1
  Hf  Hf6  1  0.436150  0.436144  0.063839  1
  Hf  Hf7  1  0.063796  0.063817  0.436184  1
  Hf  Hf8  1  0.436239  0.063786  0.436210  1
  Hf  Hf9  1  0.063889  0.436130  0.063862  1
  Hf  Hf10  1  0.063816  0.436199  0.436169  1
  Hf  Hf11  1  0.436168  0.063864  0.063814  1
  Sn  Sn12  1  0.125013  0.624999  0.624993  1
  Sn  Sn13  1  0.625004  0.124999  0.624994  1
  Sn  Sn14  1  0.624991  0.624999  0.125017  1
  Sn  Sn15  1  0.625002  0.624993  0.624994  1
  Ir  Ir16  1  0.775830  0.408046  0.408078  1
  Ir  Ir17  1  0.407996  0.776064  0.407992  1
  Ir  Ir18  1  0.408106  0.408067  0.775756  1
  Ir  Ir19  1  0.408004  0.407953  0.407999  1
  Ir  Ir20  1  0.474180  0.841947  0.841926  1
  Ir  Ir21  1  0.841998  0.473940  0.842014  1
  Ir  Ir22  1  0.841896  0.841928  0.474252  1
  Ir  Ir23  1  0.841994  0.842041  0.842005  1
  N  N24  1  0.624997  0.125001  0.125001  1
  N  N25  1  0.125001  0.624998  0.125000  1
  N  N26  1  0.125001  0.125001  0.624998  1
  N  N27  1  0.125001  0.125000  0.124999  1
