# generated using pymatgen
data_Ho5Sc5(In2Ir)4
_symmetry_space_group_name_H-M   'P 1'
_cell_length_a   3.52661600
_cell_length_b   7.87475447
_cell_length_c   17.86148508
_cell_angle_alpha   89.86251534
_cell_angle_beta   90.00000000
_cell_angle_gamma   90.00000000
_symmetry_Int_Tables_number   1
_chemical_formula_structural   Ho5Sc5(In2Ir)4
_chemical_formula_sum   'Ho5 Sc5 In8 Ir4'
_cell_volume   496.03407348
_cell_formula_units_Z   1
loop_
 _symmetry_equiv_pos_site_id
 _symmetry_equiv_pos_as_xyz
  1  'x, y, z'
loop_
 _atom_site_type_symbol
 _atom_site_label
 _atom_site_symmetry_multiplicity
 _atom_site_fract_x
 _atom_site_fract_y
 _atom_site_fract_z
 _atom_site_occupancy
  Ho  Ho0  1  0.000000  0.000000  0.000000  1
  Ho  Ho1  1  0.000000  0.748374  0.780056  1
  Ho  Ho2  1  0.000000  0.251626  0.219944  1
  Ho  Ho3  1  0.000000  0.249808  0.717303  1
  Ho  Ho4  1  0.000000  0.750192  0.282697  1
  Sc  Sc5  1  0.000000  0.500000  0.500000  1
  Sc  Sc6  1  0.000000  0.879671  0.586879  1
  Sc  Sc7  1  0.000000  0.120329  0.413121  1
  Sc  Sc8  1  0.000000  0.377835  0.911212  1
  Sc  Sc9  1  0.000000  0.622165  0.088788  1
  In  In10  1  0.500000  0.799829  0.439993  1
  In  In11  1  0.500000  0.200171  0.560007  1
  In  In12  1  0.500000  0.308049  0.062051  1
  In  In13  1  0.500000  0.691951  0.937949  1
  In  In14  1  0.500000  0.926106  0.149836  1
  In  In15  1  0.500000  0.073894  0.850164  1
  In  In16  1  0.500000  0.426394  0.355031  1
  In  In17  1  0.500000  0.573606  0.644969  1
  Ir  Ir18  1  0.500000  0.963829  0.691072  1
  Ir  Ir19  1  0.500000  0.036171  0.308928  1
  Ir  Ir20  1  0.500000  0.463789  0.806620  1
  Ir  Ir21  1  0.500000  0.536211  0.193380  1
