# generated using pymatgen
data_Ca3(Ni2Sn)4
_symmetry_space_group_name_H-M   'P 1'
_cell_length_a   8.90014300
_cell_length_b   8.90014244
_cell_length_c   7.50871400
_cell_angle_alpha   90.00000000
_cell_angle_beta   90.00000000
_cell_angle_gamma   120.00000580
_symmetry_Int_Tables_number   1
_chemical_formula_structural   Ca3(Ni2Sn)4
_chemical_formula_sum   'Ca6 Ni16 Sn8'
_cell_volume   515.09829331
_cell_formula_units_Z   2
loop_
 _symmetry_equiv_pos_site_id
 _symmetry_equiv_pos_as_xyz
  1  'x, y, z'
loop_
 _atom_site_type_symbol
 _atom_site_label
 _atom_site_symmetry_multiplicity
 _atom_site_fract_x
 _atom_site_fract_y
 _atom_site_fract_z
 _atom_site_occupancy
  Ca  Ca0  1  0.471609  0.943218  0.502832  1
  Ca  Ca1  1  0.056782  0.528391  0.502832  1
  Ca  Ca2  1  0.471609  0.528391  0.502832  1
  Ca  Ca3  1  0.528391  0.056782  0.002832  1
  Ca  Ca4  1  0.943218  0.471609  0.002832  1
  Ca  Ca5  1  0.528391  0.471609  0.002832  1
  Ni  Ni6  1  0.836371  0.672743  0.667253  1
  Ni  Ni7  1  0.327257  0.163629  0.667253  1
  Ni  Ni8  1  0.836371  0.163629  0.667253  1
  Ni  Ni9  1  0.163629  0.327257  0.167253  1
  Ni  Ni10  1  0.672743  0.836371  0.167253  1
  Ni  Ni11  1  0.163629  0.836371  0.167253  1
  Ni  Ni12  1  0.897908  0.795814  0.980985  1
  Ni  Ni13  1  0.204186  0.102092  0.980985  1
  Ni  Ni14  1  0.897908  0.102092  0.980985  1
  Ni  Ni15  1  0.102092  0.204186  0.480985  1
  Ni  Ni16  1  0.795814  0.897908  0.480985  1
  Ni  Ni17  1  0.102092  0.897908  0.480985  1
  Ni  Ni18  1  0.666667  0.333333  0.326507  1
  Ni  Ni19  1  0.333333  0.666667  0.826507  1
  Ni  Ni20  1  0.000000  0.000000  0.223831  1
  Ni  Ni21  1  0.000000  0.000000  0.723831  1
  Sn  Sn22  1  0.832247  0.664494  0.300759  1
  Sn  Sn23  1  0.335506  0.167753  0.300759  1
  Sn  Sn24  1  0.832247  0.167753  0.300759  1
  Sn  Sn25  1  0.167753  0.335506  0.800759  1
  Sn  Sn26  1  0.664494  0.832247  0.800759  1
  Sn  Sn27  1  0.167753  0.832247  0.800759  1
  Sn  Sn28  1  0.666667  0.333333  0.676895  1
  Sn  Sn29  1  0.333333  0.666667  0.176895  1
