# generated using pymatgen
data_Zr8CoBi4Os
_symmetry_space_group_name_H-M   'P 1'
_cell_length_a   8.37493363
_cell_length_b   8.37493316
_cell_length_c   8.37493343
_cell_angle_alpha   95.83427662
_cell_angle_beta   95.83427240
_cell_angle_gamma   142.81585812
_symmetry_Int_Tables_number   1
_chemical_formula_structural   Zr8CoBi4Os
_chemical_formula_sum   'Zr8 Co1 Bi4 Os1'
_cell_volume   336.49268124
_cell_formula_units_Z   1
loop_
 _symmetry_equiv_pos_site_id
 _symmetry_equiv_pos_as_xyz
  1  'x, y, z'
loop_
 _atom_site_type_symbol
 _atom_site_label
 _atom_site_symmetry_multiplicity
 _atom_site_fract_x
 _atom_site_fract_y
 _atom_site_fract_z
 _atom_site_occupancy
  Zr  Zr0  1  0.701349  0.585977  0.281322  1
  Zr  Zr1  1  0.585977  0.304655  0.884629  1
  Zr  Zr2  1  0.079972  0.195345  0.281322  1
  Zr  Zr3  1  0.914023  0.798651  0.718678  1
  Zr  Zr4  1  0.195345  0.914023  0.115371  1
  Zr  Zr5  1  0.798651  0.079972  0.884629  1
  Zr  Zr6  1  0.304655  0.420028  0.718678  1
  Zr  Zr7  1  0.420028  0.701349  0.115371  1
  Co  Co8  1  0.750000  0.750000  0.000000  1
  Bi  Bi9  1  0.139896  0.639896  0.779792  1
  Bi  Bi10  1  0.360104  0.139896  0.500000  1
  Bi  Bi11  1  0.639896  0.860104  0.500000  1
  Bi  Bi12  1  0.860104  0.360104  0.220208  1
  Os  Os13  1  0.250000  0.250000  0.000000  1
