# generated using pymatgen
data_AcTb(GaPd)2
_symmetry_space_group_name_H-M   'P 1'
_cell_length_a   4.52225500
_cell_length_b   7.38726766
_cell_length_c   7.94888410
_cell_angle_alpha   92.13166423
_cell_angle_beta   90.00000000
_cell_angle_gamma   90.00000000
_symmetry_Int_Tables_number   1
_chemical_formula_structural   AcTb(GaPd)2
_chemical_formula_sum   'Ac2 Tb2 Ga4 Pd4'
_cell_volume   265.36546788
_cell_formula_units_Z   2
loop_
 _symmetry_equiv_pos_site_id
 _symmetry_equiv_pos_as_xyz
  1  'x, y, z'
loop_
 _atom_site_type_symbol
 _atom_site_label
 _atom_site_symmetry_multiplicity
 _atom_site_fract_x
 _atom_site_fract_y
 _atom_site_fract_z
 _atom_site_occupancy
  Ac  Ac0  1  0.250000  0.474549  0.210678  1
  Ac  Ac1  1  0.750000  0.525451  0.789322  1
  Tb  Tb2  1  0.250000  0.978119  0.299907  1
  Tb  Tb3  1  0.750000  0.021881  0.700093  1
  Ga  Ga4  1  0.250000  0.847691  0.927394  1
  Ga  Ga5  1  0.750000  0.152309  0.072606  1
  Ga  Ga6  1  0.250000  0.287524  0.577875  1
  Ga  Ga7  1  0.750000  0.712476  0.422125  1
  Pd  Pd8  1  0.750000  0.791489  0.100878  1
  Pd  Pd9  1  0.250000  0.208511  0.899122  1
  Pd  Pd10  1  0.750000  0.250838  0.405697  1
  Pd  Pd11  1  0.250000  0.749162  0.594303  1
