# generated using pymatgen
data_Tl2V2CoO7
_symmetry_space_group_name_H-M   'P 1'
_cell_length_a   8.55907800
_cell_length_b   8.55907800
_cell_length_c   11.66369500
_cell_angle_alpha   90.00000000
_cell_angle_beta   90.00000000
_cell_angle_gamma   90.00000000
_symmetry_Int_Tables_number   1
_chemical_formula_structural   Tl2V2CoO7
_chemical_formula_sum   'Tl8 V8 Co4 O28'
_cell_volume   854.45682464
_cell_formula_units_Z   4
loop_
 _symmetry_equiv_pos_site_id
 _symmetry_equiv_pos_as_xyz
  1  'x, y, z'
loop_
 _atom_site_type_symbol
 _atom_site_label
 _atom_site_symmetry_multiplicity
 _atom_site_fract_x
 _atom_site_fract_y
 _atom_site_fract_z
 _atom_site_occupancy
  Tl  Tl0  1  0.814164  0.185836  0.000000  1
  Tl  Tl1  1  0.350456  0.350456  0.000000  1
  Tl  Tl2  1  0.649544  0.649544  0.000000  1
  Tl  Tl3  1  0.185836  0.814164  0.000000  1
  Tl  Tl4  1  0.850456  0.149544  0.500000  1
  Tl  Tl5  1  0.314164  0.314164  0.500000  1
  Tl  Tl6  1  0.685837  0.685837  0.500000  1
  Tl  Tl7  1  0.149544  0.850456  0.500000  1
  V  V8  1  0.142407  0.142407  0.214679  1
  V  V9  1  0.857593  0.857593  0.214679  1
  V  V10  1  0.642406  0.357593  0.285322  1
  V  V11  1  0.357593  0.642406  0.285322  1
  V  V12  1  0.642406  0.357593  0.714679  1
  V  V13  1  0.357593  0.642406  0.714679  1
  V  V14  1  0.142407  0.142407  0.785322  1
  V  V15  1  0.857593  0.857593  0.785322  1
  Co  Co16  1  0.500000  0.000000  0.250000  1
  Co  Co17  1  0.000000  0.500000  0.250000  1
  Co  Co18  1  0.500000  0.000000  0.750000  1
  Co  Co19  1  0.000000  0.500000  0.750000  1
  O  O20  1  0.642505  0.357496  0.141142  1
  O  O21  1  0.357496  0.642505  0.141142  1
  O  O22  1  0.325558  0.089994  0.161490  1
  O  O23  1  0.089994  0.325558  0.161490  1
  O  O24  1  0.910006  0.674442  0.161490  1
  O  O25  1  0.674442  0.910006  0.161490  1
  O  O26  1  0.000000  0.000000  0.161326  1
  O  O27  1  0.500000  0.500000  0.338674  1
  O  O28  1  0.589994  0.174442  0.338511  1
  O  O29  1  0.825558  0.410006  0.338511  1
  O  O30  1  0.174442  0.589994  0.338511  1
  O  O31  1  0.410006  0.825558  0.338511  1
  O  O32  1  0.142504  0.142504  0.358858  1
  O  O33  1  0.857496  0.857496  0.358858  1
  O  O34  1  0.142504  0.142504  0.641143  1
  O  O35  1  0.857496  0.857496  0.641143  1
  O  O36  1  0.589994  0.174442  0.661490  1
  O  O37  1  0.825558  0.410006  0.661490  1
  O  O38  1  0.174442  0.589994  0.661490  1
  O  O39  1  0.410006  0.825558  0.661490  1
  O  O40  1  0.500000  0.500000  0.661327  1
  O  O41  1  0.000000  0.000000  0.838673  1
  O  O42  1  0.325558  0.089994  0.838511  1
  O  O43  1  0.089994  0.325558  0.838511  1
  O  O44  1  0.910006  0.674442  0.838511  1
  O  O45  1  0.674442  0.910006  0.838511  1
  O  O46  1  0.642505  0.357496  0.858858  1
  O  O47  1  0.357496  0.642505  0.858858  1
