# generated using pymatgen
data_Dy3Lu2Co19Si11P
_symmetry_space_group_name_H-M   'P 1'
_cell_length_a   12.10399430
_cell_length_b   12.13936702
_cell_length_c   3.71056200
_cell_angle_alpha   90.00000000
_cell_angle_beta   90.00000000
_cell_angle_gamma   120.09670293
_symmetry_Int_Tables_number   1
_chemical_formula_structural   Dy3Lu2Co19Si11P
_chemical_formula_sum   'Dy3 Lu2 Co19 Si11 P1'
_cell_volume   471.70562596
_cell_formula_units_Z   1
loop_
 _symmetry_equiv_pos_site_id
 _symmetry_equiv_pos_as_xyz
  1  'x, y, z'
loop_
 _atom_site_type_symbol
 _atom_site_label
 _atom_site_symmetry_multiplicity
 _atom_site_fract_x
 _atom_site_fract_y
 _atom_site_fract_z
 _atom_site_occupancy
  Dy  Dy0  1  0.668362  0.334392  0.000000  1
  Dy  Dy1  1  0.331638  0.666032  0.000000  1
  Dy  Dy2  1  0.000000  0.813845  0.500000  1
  Lu  Lu3  1  0.185204  0.186197  0.500000  1
  Lu  Lu4  1  0.814796  0.000993  0.500000  1
  Co  Co5  1  0.557848  0.558777  0.000000  1
  Co  Co6  1  0.442152  0.000929  0.000000  1
  Co  Co7  1  0.000000  0.440792  0.000000  1
  Co  Co8  1  0.824048  0.195952  0.000000  1
  Co  Co9  1  0.802530  0.623401  0.000000  1
  Co  Co10  1  0.377201  0.180662  0.000000  1
  Co  Co11  1  0.197470  0.820871  0.000000  1
  Co  Co12  1  0.622799  0.803462  0.000000  1
  Co  Co13  1  0.175952  0.371904  0.000000  1
  Co  Co14  1  0.645888  0.123358  0.500000  1
  Co  Co15  1  0.876778  0.519919  0.500000  1
  Co  Co16  1  0.478605  0.356015  0.500000  1
  Co  Co17  1  0.123222  0.643142  0.500000  1
  Co  Co18  1  0.521395  0.877411  0.500000  1
  Co  Co19  1  0.354112  0.477470  0.500000  1
  Co  Co20  1  0.718477  0.719756  0.500000  1
  Co  Co21  1  0.281523  0.001279  0.500000  1
  Co  Co22  1  0.000000  0.276087  0.500000  1
  Co  Co23  1  0.000000  0.005584  0.000000  1
  Si  Si24  1  0.369841  0.369951  0.000000  1
  Si  Si25  1  0.630159  0.000111  0.000000  1
  Si  Si26  1  0.000000  0.628262  0.000000  1
  Si  Si27  1  0.841394  0.317916  0.500000  1
  Si  Si28  1  0.681920  0.522746  0.500000  1
  Si  Si29  1  0.479256  0.161012  0.500000  1
  Si  Si30  1  0.318080  0.840825  0.500000  1
  Si  Si31  1  0.520744  0.681757  0.500000  1
  Si  Si32  1  0.158606  0.476522  0.500000  1
  Si  Si33  1  0.817043  0.818679  0.000000  1
  Si  Si34  1  0.182957  0.001636  0.000000  1
  P  P35  1  0.000000  0.182355  0.000000  1
