# generated using pymatgen
data_ThAl10RePd
_symmetry_space_group_name_H-M   'P 1'
_cell_length_a   6.92570904
_cell_length_b   6.92570778
_cell_length_c   9.24040900
_cell_angle_alpha   90.73769951
_cell_angle_beta   90.73769937
_cell_angle_gamma   97.29829517
_symmetry_Int_Tables_number   1
_chemical_formula_structural   ThAl10RePd
_chemical_formula_sum   'Th2 Al20 Re2 Pd2'
_cell_volume   439.54589624
_cell_formula_units_Z   2
loop_
 _symmetry_equiv_pos_site_id
 _symmetry_equiv_pos_as_xyz
  1  'x, y, z'
loop_
 _atom_site_type_symbol
 _atom_site_label
 _atom_site_symmetry_multiplicity
 _atom_site_fract_x
 _atom_site_fract_y
 _atom_site_fract_z
 _atom_site_occupancy
  Th  Th0  1  0.872563  0.127437  0.750000  1
  Th  Th1  1  0.127437  0.872563  0.250000  1
  Al  Al2  1  0.516950  0.773687  0.742099  1
  Al  Al3  1  0.483050  0.226313  0.257901  1
  Al  Al4  1  0.597511  0.857235  0.250004  1
  Al  Al5  1  0.779284  0.779311  0.999435  1
  Al  Al6  1  0.159104  0.843886  0.604413  1
  Al  Al7  1  0.220716  0.220689  0.000565  1
  Al  Al8  1  0.142765  0.402489  0.249996  1
  Al  Al9  1  0.622929  0.383517  0.947838  1
  Al  Al10  1  0.843886  0.159104  0.104413  1
  Al  Al11  1  0.383517  0.622929  0.447838  1
  Al  Al12  1  0.156114  0.840896  0.895587  1
  Al  Al13  1  0.226313  0.483050  0.757901  1
  Al  Al14  1  0.377071  0.616483  0.052162  1
  Al  Al15  1  0.840896  0.156114  0.395587  1
  Al  Al16  1  0.616483  0.377071  0.552162  1
  Al  Al17  1  0.402489  0.142765  0.749996  1
  Al  Al18  1  0.773687  0.516950  0.242099  1
  Al  Al19  1  0.779311  0.779284  0.499435  1
  Al  Al20  1  0.220689  0.220716  0.500565  1
  Al  Al21  1  0.857235  0.597511  0.750004  1
  Re  Re22  1  0.000000  0.500000  0.000000  1
  Re  Re23  1  0.500000  0.000000  0.500000  1
  Pd  Pd24  1  0.000000  0.500000  0.500000  1
  Pd  Pd25  1  0.500000  0.000000  0.000000  1
