# generated using pymatgen
data_YbPaGa8Fe9
_symmetry_space_group_name_H-M   'P 1'
_cell_length_a   6.56076656
_cell_length_b   6.56122183
_cell_length_c   6.55752100
_cell_angle_alpha   83.69281476
_cell_angle_beta   96.33846545
_cell_angle_gamma   96.31770335
_symmetry_Int_Tables_number   1
_chemical_formula_structural   YbPaGa8Fe9
_chemical_formula_sum   'Yb1 Pa1 Ga8 Fe9'
_cell_volume   277.48249399
_cell_formula_units_Z   1
loop_
 _symmetry_equiv_pos_site_id
 _symmetry_equiv_pos_as_xyz
  1  'x, y, z'
loop_
 _atom_site_type_symbol
 _atom_site_label
 _atom_site_symmetry_multiplicity
 _atom_site_fract_x
 _atom_site_fract_y
 _atom_site_fract_z
 _atom_site_occupancy
  Yb  Yb0  1  0.358698  0.641247  0.641402  1
  Pa  Pa1  1  0.626260  0.373397  0.373421  1
  Ga  Ga2  1  0.317320  0.319199  0.994660  1
  Ga  Ga3  1  0.680816  0.682779  0.994885  1
  Ga  Ga4  1  0.869069  0.130993  0.130979  1
  Ga  Ga5  1  0.317177  0.994548  0.319158  1
  Ga  Ga6  1  0.005237  0.682436  0.319465  1
  Ga  Ga7  1  0.680811  0.994783  0.682728  1
  Ga  Ga8  1  0.005222  0.319423  0.682354  1
  Ga  Ga9  1  0.132609  0.867611  0.867465  1
  Fe  Fe10  1  0.500988  0.001443  0.001425  1
  Fe  Fe11  1  0.998631  0.499167  0.001440  1
  Fe  Fe12  1  0.340087  0.660031  0.164482  1
  Fe  Fe13  1  0.166414  0.336562  0.336757  1
  Fe  Fe14  1  0.663278  0.833972  0.336589  1
  Fe  Fe15  1  0.998640  0.001195  0.498988  1
  Fe  Fe16  1  0.339910  0.164372  0.660001  1
  Fe  Fe17  1  0.835580  0.660213  0.660087  1
  Fe  Fe18  1  0.663255  0.336625  0.833713  1
