# generated using pymatgen
data_Y2Ga2PdRh
_symmetry_space_group_name_H-M   'P 1'
_cell_length_a   4.44138800
_cell_length_b   6.92426200
_cell_length_c   7.66955600
_cell_angle_alpha   90.00000000
_cell_angle_beta   90.00000000
_cell_angle_gamma   90.00000000
_symmetry_Int_Tables_number   1
_chemical_formula_structural   Y2Ga2PdRh
_chemical_formula_sum   'Y4 Ga4 Pd2 Rh2'
_cell_volume   235.86441849
_cell_formula_units_Z   2
loop_
 _symmetry_equiv_pos_site_id
 _symmetry_equiv_pos_as_xyz
  1  'x, y, z'
loop_
 _atom_site_type_symbol
 _atom_site_label
 _atom_site_symmetry_multiplicity
 _atom_site_fract_x
 _atom_site_fract_y
 _atom_site_fract_z
 _atom_site_occupancy
  Y  Y0  1  0.250000  0.983221  0.303596  1
  Y  Y1  1  0.250000  0.483221  0.196404  1
  Y  Y2  1  0.750000  0.024710  0.689542  1
  Y  Y3  1  0.750000  0.524710  0.810458  1
  Ga  Ga4  1  0.250000  0.331673  0.570835  1
  Ga  Ga5  1  0.250000  0.831673  0.929165  1
  Ga  Ga6  1  0.750000  0.663631  0.424199  1
  Ga  Ga7  1  0.750000  0.163631  0.075801  1
  Pd  Pd8  1  0.250000  0.221014  0.897824  1
  Pd  Pd9  1  0.250000  0.721014  0.602176  1
  Rh  Rh10  1  0.750000  0.775749  0.101287  1
  Rh  Rh11  1  0.750000  0.275749  0.398713  1
