# generated using pymatgen
data_TbHf7Ti10(Si8Mo)2
_symmetry_space_group_name_H-M   'P 1'
_cell_length_a   6.81698013
_cell_length_b   6.81654772
_cell_length_c   12.51113210
_cell_angle_alpha   89.93462814
_cell_angle_beta   89.97090217
_cell_angle_gamma   89.94993649
_symmetry_Int_Tables_number   1
_chemical_formula_structural   TbHf7Ti10(Si8Mo)2
_chemical_formula_sum   'Tb1 Hf7 Ti10 Si16 Mo2'
_cell_volume   581.36999429
_cell_formula_units_Z   1
loop_
 _symmetry_equiv_pos_site_id
 _symmetry_equiv_pos_as_xyz
  1  'x, y, z'
loop_
 _atom_site_type_symbol
 _atom_site_label
 _atom_site_symmetry_multiplicity
 _atom_site_fract_x
 _atom_site_fract_y
 _atom_site_fract_z
 _atom_site_occupancy
  Tb  Tb0  1  0.998528  0.659585  0.031225  1
  Hf  Hf1  1  0.342364  0.997683  0.468955  1
  Hf  Hf2  1  0.500892  0.842677  0.717251  1
  Hf  Hf3  1  0.497359  0.158160  0.221293  1
  Hf  Hf4  1  0.841575  0.501501  0.282027  1
  Hf  Hf5  1  0.158087  0.497184  0.780938  1
  Hf  Hf6  1  0.655211  0.003325  0.967954  1
  Hf  Hf7  1  0.998845  0.342445  0.530976  1
  Ti  Ti8  1  0.828646  0.171273  0.748698  1
  Ti  Ti9  1  0.671010  0.671332  0.499662  1
  Ti  Ti10  1  0.155513  0.002717  0.871008  1
  Ti  Ti11  1  0.496453  0.651961  0.123572  1
  Ti  Ti12  1  0.504050  0.348292  0.622669  1
  Ti  Ti13  1  0.652153  0.492269  0.875891  1
  Ti  Ti14  1  0.348042  0.503606  0.378176  1
  Ti  Ti15  1  0.847979  0.996304  0.373667  1
  Ti  Ti16  1  0.005377  0.152990  0.129082  1
  Ti  Ti17  1  0.995901  0.848866  0.625339  1
  Si  Si18  1  0.205290  0.135740  0.676794  1
  Si  Si19  1  0.369944  0.706304  0.924884  1
  Si  Si20  1  0.635585  0.294438  0.427775  1
  Si  Si21  1  0.702465  0.360368  0.073379  1
  Si  Si22  1  0.293851  0.635307  0.572804  1
  Si  Si23  1  0.789426  0.869658  0.180424  1
  Si  Si24  1  0.135158  0.206216  0.325226  1
  Si  Si25  1  0.862183  0.796951  0.818136  1
  Si  Si26  1  0.297481  0.957893  0.064477  1
  Si  Si27  1  0.543741  0.794498  0.315900  1
  Si  Si28  1  0.454551  0.204859  0.812391  1
  Si  Si29  1  0.795591  0.545529  0.684632  1
  Si  Si30  1  0.208070  0.453449  0.188380  1
  Si  Si31  1  0.704393  0.045951  0.564075  1
  Si  Si32  1  0.955109  0.287568  0.934192  1
  Si  Si33  1  0.045474  0.705235  0.436345  1
  Mo  Mo34  1  0.331232  0.326594  0.000252  1
  Mo  Mo35  1  0.172468  0.831275  0.251556  1
