# generated using pymatgen
data_Pr4Ga3CoI2
_symmetry_space_group_name_H-M   'P 1'
_cell_length_a   4.24891500
_cell_length_b   4.24891447
_cell_length_c   17.55689200
_cell_angle_alpha   90.00000000
_cell_angle_beta   90.00000000
_cell_angle_gamma   119.99999638
_symmetry_Int_Tables_number   1
_chemical_formula_structural   Pr4Ga3CoI2
_chemical_formula_sum   'Pr4 Ga3 Co1 I2'
_cell_volume   274.49492327
_cell_formula_units_Z   1
loop_
 _symmetry_equiv_pos_site_id
 _symmetry_equiv_pos_as_xyz
  1  'x, y, z'
loop_
 _atom_site_type_symbol
 _atom_site_label
 _atom_site_symmetry_multiplicity
 _atom_site_fract_x
 _atom_site_fract_y
 _atom_site_fract_z
 _atom_site_occupancy
  Pr  Pr0  1  0.000000  0.000000  0.118715  1
  Pr  Pr1  1  0.000000  0.000000  0.394327  1
  Pr  Pr2  1  0.000000  0.000000  0.881904  1
  Pr  Pr3  1  0.000000  0.000000  0.602446  1
  Ga  Ga4  1  0.333333  0.666667  0.011916  1
  Ga  Ga5  1  0.666667  0.333333  0.988615  1
  Ga  Ga6  1  0.333333  0.666667  0.497677  1
  Co  Co7  1  0.666667  0.333333  0.502934  1
  I  I8  1  0.333333  0.666667  0.752172  1
  I  I9  1  0.666667  0.333333  0.249294  1
