# generated using pymatgen
data_YbEr(Ni2As)4
_symmetry_space_group_name_H-M   'P 1'
_cell_length_a   7.22925255
_cell_length_b   7.22925255
_cell_length_c   3.75277900
_cell_angle_alpha   90.00000000
_cell_angle_beta   90.00000000
_cell_angle_gamma   90.22183619
_symmetry_Int_Tables_number   1
_chemical_formula_structural   YbEr(Ni2As)4
_chemical_formula_sum   'Yb1 Er1 Ni8 As4'
_cell_volume   196.12661274
_cell_formula_units_Z   1
loop_
 _symmetry_equiv_pos_site_id
 _symmetry_equiv_pos_as_xyz
  1  'x, y, z'
loop_
 _atom_site_type_symbol
 _atom_site_label
 _atom_site_symmetry_multiplicity
 _atom_site_fract_x
 _atom_site_fract_y
 _atom_site_fract_z
 _atom_site_occupancy
  Yb  Yb0  1  0.000000  0.000000  0.500000  1
  Er  Er1  1  0.500000  0.500000  0.000000  1
  Ni  Ni2  1  0.088089  0.345191  0.000000  1
  Ni  Ni3  1  0.846226  0.411321  0.500000  1
  Ni  Ni4  1  0.153774  0.588679  0.500000  1
  Ni  Ni5  1  0.911911  0.654809  0.000000  1
  Ni  Ni6  1  0.411321  0.846226  0.500000  1
  Ni  Ni7  1  0.588679  0.153774  0.500000  1
  Ni  Ni8  1  0.345191  0.088089  0.000000  1
  Ni  Ni9  1  0.654809  0.911911  0.000000  1
  As  As10  1  0.781005  0.218995  0.000000  1
  As  As11  1  0.716749  0.716749  0.500000  1
  As  As12  1  0.283251  0.283251  0.500000  1
  As  As13  1  0.218995  0.781005  0.000000  1
