# generated using pymatgen
data_Lu12InNi4Ir
_symmetry_space_group_name_H-M   'P 1'
_cell_length_a   8.12520478
_cell_length_b   8.12520641
_cell_length_c   8.12520484
_cell_angle_alpha   111.31564817
_cell_angle_beta   110.65254295
_cell_angle_gamma   106.48679216
_symmetry_Int_Tables_number   1
_chemical_formula_structural   Lu12InNi4Ir
_chemical_formula_sum   'Lu12 In1 Ni4 Ir1'
_cell_volume   412.08520209
_cell_formula_units_Z   1
loop_
 _symmetry_equiv_pos_site_id
 _symmetry_equiv_pos_as_xyz
  1  'x, y, z'
loop_
 _atom_site_type_symbol
 _atom_site_label
 _atom_site_symmetry_multiplicity
 _atom_site_fract_x
 _atom_site_fract_y
 _atom_site_fract_z
 _atom_site_occupancy
  Lu  Lu0  1  0.417929  0.226230  0.191700  1
  Lu  Lu1  1  0.582071  0.773770  0.808300  1
  Lu  Lu2  1  0.034530  0.226230  0.808300  1
  Lu  Lu3  1  0.965470  0.773770  0.191700  1
  Lu  Lu4  1  0.179863  0.279332  0.459195  1
  Lu  Lu5  1  0.820137  0.720668  0.540805  1
  Lu  Lu6  1  0.179863  0.720668  0.900530  1
  Lu  Lu7  1  0.820137  0.279332  0.099470  1
  Lu  Lu8  1  0.323170  0.629269  0.306099  1
  Lu  Lu9  1  0.676830  0.370731  0.693901  1
  Lu  Lu10  1  0.323170  0.017072  0.693901  1
  Lu  Lu11  1  0.676830  0.982928  0.306099  1
  In  In12  1  0.500000  0.500000  0.000000  1
  Ni  Ni13  1  0.354503  0.000000  0.354503  1
  Ni  Ni14  1  0.645497  0.000000  0.645497  1
  Ni  Ni15  1  0.121651  0.621651  0.500000  1
  Ni  Ni16  1  0.878349  0.378349  0.500000  1
  Ir  Ir17  1  0.000000  0.000000  0.000000  1
