# generated using pymatgen
data_DyLu9(PaGa10)2
_symmetry_space_group_name_H-M   'P 1'
_cell_length_a   6.03091906
_cell_length_b   9.53785850
_cell_length_c   11.36038863
_cell_angle_alpha   90.04810509
_cell_angle_beta   89.89145507
_cell_angle_gamma   89.99951261
_symmetry_Int_Tables_number   1
_chemical_formula_structural   DyLu9(PaGa10)2
_chemical_formula_sum   'Dy1 Lu9 Pa2 Ga20'
_cell_volume   653.47146899
_cell_formula_units_Z   1
loop_
 _symmetry_equiv_pos_site_id
 _symmetry_equiv_pos_as_xyz
  1  'x, y, z'
loop_
 _atom_site_type_symbol
 _atom_site_label
 _atom_site_symmetry_multiplicity
 _atom_site_fract_x
 _atom_site_fract_y
 _atom_site_fract_z
 _atom_site_occupancy
  Dy  Dy0  1  0.885993  0.509026  0.351935  1
  Lu  Lu1  1  0.849145  0.748491  0.073261  1
  Lu  Lu2  1  0.646458  0.754712  0.573007  1
  Lu  Lu3  1  0.145959  0.244633  0.927384  1
  Lu  Lu4  1  0.352293  0.252536  0.426446  1
  Lu  Lu5  1  0.387375  0.490525  0.147881  1
  Lu  Lu6  1  0.113651  0.491038  0.647826  1
  Lu  Lu7  1  0.387772  0.008581  0.149192  1
  Lu  Lu8  1  0.889411  0.993642  0.350932  1
  Lu  Lu9  1  0.612458  0.509218  0.852935  1
  Pa  Pa10  1  0.614561  0.989062  0.852999  1
  Pa  Pa11  1  0.116254  0.008516  0.647675  1
  Ga  Ga12  1  0.869360  0.052221  0.091438  1
  Ga  Ga13  1  0.630204  0.451725  0.593524  1
  Ga  Ga14  1  0.128922  0.547373  0.906766  1
  Ga  Ga15  1  0.369782  0.949850  0.408982  1
  Ga  Ga16  1  0.123581  0.943790  0.910749  1
  Ga  Ga17  1  0.373467  0.553528  0.408877  1
  Ga  Ga18  1  0.869172  0.446695  0.089006  1
  Ga  Ga19  1  0.625160  0.054806  0.589798  1
  Ga  Ga20  1  0.170711  0.750647  0.252013  1
  Ga  Ga21  1  0.333004  0.746308  0.757022  1
  Ga  Ga22  1  0.833005  0.252318  0.744329  1
  Ga  Ga23  1  0.669496  0.249060  0.245248  1
  Ga  Ga24  1  0.379691  0.748295  0.005699  1
  Ga  Ga25  1  0.120623  0.749871  0.503188  1
  Ga  Ga26  1  0.618102  0.249525  0.994137  1
  Ga  Ga27  1  0.882694  0.250334  0.497647  1
  Ga  Ga28  1  0.603493  0.752909  0.299232  1
  Ga  Ga29  1  0.897165  0.747919  0.795592  1
  Ga  Ga30  1  0.397332  0.251306  0.703673  1
  Ga  Ga31  1  0.103706  0.251541  0.201610  1
