# generated using pymatgen
data_Tb3Dy5(RuC2)4
_symmetry_space_group_name_H-M   'P 1'
_cell_length_a   5.13604200
_cell_length_b   6.45997981
_cell_length_c   9.80099524
_cell_angle_alpha   89.94241071
_cell_angle_beta   90.00000000
_cell_angle_gamma   90.00000000
_symmetry_Int_Tables_number   1
_chemical_formula_structural   Tb3Dy5(RuC2)4
_chemical_formula_sum   'Tb3 Dy5 Ru4 C8'
_cell_volume   325.18438746
_cell_formula_units_Z   1
loop_
 _symmetry_equiv_pos_site_id
 _symmetry_equiv_pos_as_xyz
  1  'x, y, z'
loop_
 _atom_site_type_symbol
 _atom_site_label
 _atom_site_symmetry_multiplicity
 _atom_site_fract_x
 _atom_site_fract_y
 _atom_site_fract_z
 _atom_site_occupancy
  Tb  Tb0  1  0.250000  0.025448  0.283562  1
  Tb  Tb1  1  0.750000  0.974318  0.716362  1
  Tb  Tb2  1  0.250000  0.525610  0.216377  1
  Dy  Dy3  1  0.750000  0.820858  0.053776  1
  Dy  Dy4  1  0.250000  0.679198  0.554165  1
  Dy  Dy5  1  0.750000  0.320520  0.446083  1
  Dy  Dy6  1  0.250000  0.179441  0.945920  1
  Dy  Dy7  1  0.750000  0.474187  0.783292  1
  Ru  Ru8  1  0.750000  0.279069  0.134735  1
  Ru  Ru9  1  0.250000  0.221101  0.634957  1
  Ru  Ru10  1  0.750000  0.778847  0.365335  1
  Ru  Ru11  1  0.250000  0.720855  0.865161  1
  C  C12  1  0.750000  0.175438  0.947053  1
  C  C13  1  0.250000  0.825653  0.052587  1
  C  C14  1  0.750000  0.673879  0.553005  1
  C  C15  1  0.250000  0.325681  0.447467  1
  C  C16  1  0.750000  0.043018  0.256816  1
  C  C17  1  0.250000  0.456984  0.757106  1
  C  C18  1  0.750000  0.542993  0.243115  1
  C  C19  1  0.250000  0.956903  0.743125  1
