# generated using pymatgen
data_Tb2Zn4InHg
_symmetry_space_group_name_H-M   'P 1'
_cell_length_a   4.53090900
_cell_length_b   7.22461000
_cell_length_c   9.99590800
_cell_angle_alpha   90.00000000
_cell_angle_beta   90.00000000
_cell_angle_gamma   90.00000000
_symmetry_Int_Tables_number   1
_chemical_formula_structural   Tb2Zn4InHg
_chemical_formula_sum   'Tb4 Zn8 In2 Hg2'
_cell_volume   327.20655697
_cell_formula_units_Z   2
loop_
 _symmetry_equiv_pos_site_id
 _symmetry_equiv_pos_as_xyz
  1  'x, y, z'
loop_
 _atom_site_type_symbol
 _atom_site_label
 _atom_site_symmetry_multiplicity
 _atom_site_fract_x
 _atom_site_fract_y
 _atom_site_fract_z
 _atom_site_occupancy
  Tb  Tb0  1  0.250000  0.311764  0.677775  1
  Tb  Tb1  1  0.250000  0.811764  0.822225  1
  Tb  Tb2  1  0.750000  0.691620  0.329409  1
  Tb  Tb3  1  0.750000  0.191620  0.170591  1
  Zn  Zn4  1  0.250000  0.907875  0.145031  1
  Zn  Zn5  1  0.250000  0.407875  0.354969  1
  Zn  Zn6  1  0.750000  0.094186  0.854146  1
  Zn  Zn7  1  0.750000  0.594186  0.645854  1
  Zn  Zn8  1  0.250000  0.177155  0.963028  1
  Zn  Zn9  1  0.250000  0.677155  0.536972  1
  Zn  Zn10  1  0.750000  0.816521  0.036636  1
  Zn  Zn11  1  0.750000  0.316521  0.463364  1
  In  In12  1  0.250000  0.525124  0.096598  1
  In  In13  1  0.250000  0.025124  0.403402  1
  Hg  Hg14  1  0.750000  0.475754  0.900709  1
  Hg  Hg15  1  0.750000  0.975754  0.599291  1
