# generated using pymatgen
data_Ac2CdIn3
_symmetry_space_group_name_H-M   'P 1'
_cell_length_a   6.53746185
_cell_length_b   6.51129596
_cell_length_c   6.51129586
_cell_angle_alpha   133.44112937
_cell_angle_beta   103.52410001
_cell_angle_gamma   94.43259580
_symmetry_Int_Tables_number   1
_chemical_formula_structural   Ac2CdIn3
_chemical_formula_sum   'Ac2 Cd1 In3'
_cell_volume   184.20302419
_cell_formula_units_Z   1
loop_
 _symmetry_equiv_pos_site_id
 _symmetry_equiv_pos_as_xyz
  1  'x, y, z'
loop_
 _atom_site_type_symbol
 _atom_site_label
 _atom_site_symmetry_multiplicity
 _atom_site_fract_x
 _atom_site_fract_y
 _atom_site_fract_z
 _atom_site_occupancy
  Ac  Ac0  1  0.715840  0.964493  0.751347  1
  Ac  Ac1  1  0.285854  0.034777  0.251077  1
  Cd  Cd2  1  0.114637  0.665629  0.449009  1
  In  In3  1  0.711362  0.663148  0.048213  1
  In  In4  1  0.884360  0.338482  0.545877  1
  In  In5  1  0.287947  0.333471  0.954476  1
