# generated using pymatgen
data_Dy16In3HgPt4
_symmetry_space_group_name_H-M   'P 1'
_cell_length_a   9.70721858
_cell_length_b   9.70721872
_cell_length_c   9.71307098
_cell_angle_alpha   60.01991962
_cell_angle_beta   60.01992472
_cell_angle_gamma   60.00000173
_symmetry_Int_Tables_number   1
_chemical_formula_structural   Dy16In3HgPt4
_chemical_formula_sum   'Dy16 In3 Hg1 Pt4'
_cell_volume   647.38391570
_cell_formula_units_Z   1
loop_
 _symmetry_equiv_pos_site_id
 _symmetry_equiv_pos_as_xyz
  1  'x, y, z'
loop_
 _atom_site_type_symbol
 _atom_site_label
 _atom_site_symmetry_multiplicity
 _atom_site_fract_x
 _atom_site_fract_y
 _atom_site_fract_z
 _atom_site_occupancy
  Dy  Dy0  1  0.690111  0.310620  0.309157  1
  Dy  Dy1  1  0.690111  0.690111  0.309157  1
  Dy  Dy2  1  0.310620  0.690111  0.309157  1
  Dy  Dy3  1  0.937264  0.937264  0.559875  1
  Dy  Dy4  1  0.148868  0.148868  0.553395  1
  Dy  Dy5  1  0.565598  0.937264  0.559875  1
  Dy  Dy6  1  0.148095  0.148095  0.148909  1
  Dy  Dy7  1  0.309365  0.309365  0.690732  1
  Dy  Dy8  1  0.937264  0.565598  0.559875  1
  Dy  Dy9  1  0.563581  0.563581  0.935714  1
  Dy  Dy10  1  0.563581  0.937126  0.935714  1
  Dy  Dy11  1  0.937126  0.563581  0.935714  1
  Dy  Dy12  1  0.148095  0.554899  0.148909  1
  Dy  Dy13  1  0.309365  0.690538  0.690732  1
  Dy  Dy14  1  0.690538  0.309365  0.690732  1
  Dy  Dy15  1  0.554899  0.148095  0.148909  1
  In  In16  1  0.248979  0.916566  0.917888  1
  In  In17  1  0.916566  0.248979  0.917888  1
  In  In18  1  0.916566  0.916566  0.917888  1
  Hg  Hg19  1  0.913244  0.913244  0.260270  1
  Pt  Pt20  1  0.357101  0.357101  0.356790  1
  Pt  Pt21  1  0.929011  0.357101  0.356790  1
  Pt  Pt22  1  0.356953  0.356953  0.929142  1
  Pt  Pt23  1  0.357101  0.929011  0.356790  1
