# generated using pymatgen
data_Ba2Ge5N8
_symmetry_space_group_name_H-M   'P 1'
_cell_length_a   6.14188400
_cell_length_b   7.30626500
_cell_length_c   10.02803800
_cell_angle_alpha   90.00000000
_cell_angle_beta   90.00000000
_cell_angle_gamma   90.00000000
_symmetry_Int_Tables_number   1
_chemical_formula_structural   Ba2Ge5N8
_chemical_formula_sum   'Ba4 Ge10 N16'
_cell_volume   450.00050475
_cell_formula_units_Z   2
loop_
 _symmetry_equiv_pos_site_id
 _symmetry_equiv_pos_as_xyz
  1  'x, y, z'
loop_
 _atom_site_type_symbol
 _atom_site_label
 _atom_site_symmetry_multiplicity
 _atom_site_fract_x
 _atom_site_fract_y
 _atom_site_fract_z
 _atom_site_occupancy
  Ba  Ba0  1  0.500000  0.120459  0.868262  1
  Ba  Ba1  1  0.000000  0.879541  0.368262  1
  Ba  Ba2  1  0.500000  0.133604  0.500971  1
  Ba  Ba3  1  0.000000  0.866396  0.000971  1
  Ge  Ge4  1  0.500000  0.599124  0.399987  1
  Ge  Ge5  1  0.000000  0.400876  0.899987  1
  Ge  Ge6  1  0.500000  0.582160  0.961939  1
  Ge  Ge7  1  0.000000  0.417840  0.461939  1
  Ge  Ge8  1  0.500000  0.944841  0.178136  1
  Ge  Ge9  1  0.000000  0.055159  0.678136  1
  Ge  Ge10  1  0.752534  0.331162  0.182879  1
  Ge  Ge11  1  0.747466  0.668838  0.682879  1
  Ge  Ge12  1  0.247466  0.331162  0.182879  1
  Ge  Ge13  1  0.252534  0.668838  0.682879  1
  N  N14  1  0.500000  0.569147  0.771328  1
  N  N15  1  0.000000  0.430853  0.271328  1
  N  N16  1  0.500000  0.832636  0.343600  1
  N  N17  1  0.000000  0.167364  0.843600  1
  N  N18  1  0.500000  0.410483  0.273605  1
  N  N19  1  0.000000  0.589517  0.773605  1
  N  N20  1  0.748557  0.555256  0.510929  1
  N  N21  1  0.751443  0.444744  0.010929  1
  N  N22  1  0.251443  0.555256  0.510929  1
  N  N23  1  0.248557  0.444744  0.010929  1
  N  N24  1  0.753889  0.082624  0.171503  1
  N  N25  1  0.746111  0.917376  0.671503  1
  N  N26  1  0.246111  0.082624  0.171503  1
  N  N27  1  0.253889  0.917376  0.671503  1
  N  N28  1  0.000000  0.183484  0.516899  1
  N  N29  1  0.500000  0.816516  0.016899  1
