# generated using pymatgen
data_NiF18
_symmetry_space_group_name_H-M   'P 1'
_cell_length_a   7.03030287
_cell_length_b   9.92995162
_cell_length_c   10.67888522
_cell_angle_alpha   91.02644977
_cell_angle_beta   99.14983607
_cell_angle_gamma   73.31122845
_symmetry_Int_Tables_number   1
_chemical_formula_structural   NiF18
_chemical_formula_sum   'Ni2 F36'
_cell_volume   704.70782194
_cell_formula_units_Z   2
loop_
 _symmetry_equiv_pos_site_id
 _symmetry_equiv_pos_as_xyz
  1  'x, y, z'
loop_
 _atom_site_type_symbol
 _atom_site_label
 _atom_site_symmetry_multiplicity
 _atom_site_fract_x
 _atom_site_fract_y
 _atom_site_fract_z
 _atom_site_occupancy
  Ni  Ni0  1  0.680479  0.819829  0.828543  1
  Ni  Ni1  1  0.319521  0.180171  0.171457  1
  F  F2  1  0.326933  0.378054  0.902759  1
  F  F3  1  0.673067  0.621946  0.097241  1
  F  F4  1  0.307663  0.257913  0.564741  1
  F  F5  1  0.692337  0.742087  0.435259  1
  F  F6  1  0.908537  0.209195  0.829705  1
  F  F7  1  0.091463  0.790805  0.170295  1
  F  F8  1  0.689863  0.877382  0.998953  1
  F  F9  1  0.310137  0.122618  0.001047  1
  F  F10  1  0.801039  0.627428  0.859775  1
  F  F11  1  0.198961  0.372572  0.140225  1
  F  F12  1  0.453365  0.419712  0.829058  1
  F  F13  1  0.546635  0.580288  0.170942  1
  F  F14  1  0.792628  0.710768  0.688608  1
  F  F15  1  0.207372  0.289232  0.311392  1
  F  F16  1  0.763180  0.998828  0.537206  1
  F  F17  1  0.236820  0.001172  0.462794  1
  F  F18  1  0.277225  0.197763  0.677397  1
  F  F19  1  0.722775  0.802237  0.322603  1
  F  F20  1  0.821044  0.075694  0.643482  1
  F  F21  1  0.178956  0.924306  0.356518  1
  F  F22  1  0.840671  0.941227  0.869424  1
  F  F23  1  0.159329  0.058773  0.130576  1
  F  F24  1  0.883739  0.354045  0.803376  1
  F  F25  1  0.116261  0.645955  0.196624  1
  F  F26  1  0.225376  0.709738  0.926518  1
  F  F27  1  0.774624  0.290262  0.073482  1
  F  F28  1  0.457187  0.909633  0.729459  1
  F  F29  1  0.542813  0.090367  0.270541  1
  F  F30  1  0.117555  0.755183  0.576903  1
  F  F31  1  0.882445  0.244817  0.423097  1
  F  F32  1  0.201020  0.622455  0.642254  1
  F  F33  1  0.798980  0.377545  0.357746  1
  F  F34  1  0.299897  0.798112  0.852868  1
  F  F35  1  0.700103  0.201888  0.147132  1
  F  F36  1  0.517883  0.435891  0.534872  1
  F  F37  1  0.482117  0.564109  0.465128  1
