# generated using pymatgen
data_Tb2ScGa(Ni6B)2
_symmetry_space_group_name_H-M   'P 1'
_cell_length_a   4.94505600
_cell_length_b   4.89909995
_cell_length_c   10.94220600
_cell_angle_alpha   90.00000000
_cell_angle_beta   90.00000000
_cell_angle_gamma   120.31077939
_symmetry_Int_Tables_number   1
_chemical_formula_structural   Tb2ScGa(Ni6B)2
_chemical_formula_sum   'Tb2 Sc1 Ga1 Ni12 B2'
_cell_volume   228.85186233
_cell_formula_units_Z   1
loop_
 _symmetry_equiv_pos_site_id
 _symmetry_equiv_pos_as_xyz
  1  'x, y, z'
loop_
 _atom_site_type_symbol
 _atom_site_label
 _atom_site_symmetry_multiplicity
 _atom_site_fract_x
 _atom_site_fract_y
 _atom_site_fract_z
 _atom_site_occupancy
  Tb  Tb0  1  0.000000  0.000000  0.315873  1
  Tb  Tb1  1  0.000000  0.000000  0.684127  1
  Sc  Sc2  1  0.000000  0.000000  0.000000  1
  Ga  Ga3  1  0.500000  0.000000  0.500000  1
  Ni  Ni4  1  0.500000  0.500000  0.500000  1
  Ni  Ni5  1  0.000000  0.500000  0.500000  1
  Ni  Ni6  1  0.333483  0.666966  0.315876  1
  Ni  Ni7  1  0.666517  0.333034  0.315876  1
  Ni  Ni8  1  0.666517  0.333034  0.684124  1
  Ni  Ni9  1  0.333483  0.666966  0.684124  1
  Ni  Ni10  1  0.500000  0.000000  0.129182  1
  Ni  Ni11  1  0.500000  0.500000  0.130278  1
  Ni  Ni12  1  0.000000  0.500000  0.130278  1
  Ni  Ni13  1  0.500000  0.000000  0.870818  1
  Ni  Ni14  1  0.500000  0.500000  0.869722  1
  Ni  Ni15  1  0.000000  0.500000  0.869722  1
  B  B16  1  0.331856  0.663713  0.000000  1
  B  B17  1  0.668144  0.336287  0.000000  1
