# generated using pymatgen
data_Nd8SnGeI12
_symmetry_space_group_name_H-M   'P 1'
_cell_length_a   4.39298500
_cell_length_b   14.52500715
_cell_length_c   15.36556200
_cell_angle_alpha   89.74830418
_cell_angle_beta   90.00000000
_cell_angle_gamma   90.00000000
_symmetry_Int_Tables_number   1
_chemical_formula_structural   Nd8SnGeI12
_chemical_formula_sum   'Nd8 Sn1 Ge1 I12'
_cell_volume   980.43844854
_cell_formula_units_Z   1
loop_
 _symmetry_equiv_pos_site_id
 _symmetry_equiv_pos_as_xyz
  1  'x, y, z'
loop_
 _atom_site_type_symbol
 _atom_site_label
 _atom_site_symmetry_multiplicity
 _atom_site_fract_x
 _atom_site_fract_y
 _atom_site_fract_z
 _atom_site_occupancy
  Nd  Nd0  1  0.500000  0.120907  0.339113  1
  Nd  Nd1  1  0.500000  0.879093  0.660887  1
  Nd  Nd2  1  0.500000  0.614393  0.152585  1
  Nd  Nd3  1  0.500000  0.385607  0.847415  1
  Nd  Nd4  1  0.000000  0.120643  0.581137  1
  Nd  Nd5  1  0.000000  0.879357  0.418863  1
  Nd  Nd6  1  0.000000  0.611592  0.924940  1
  Nd  Nd7  1  0.000000  0.388408  0.075060  1
  Sn  Sn8  1  0.500000  0.000000  0.500000  1
  Ge  Ge9  1  0.500000  0.500000  0.000000  1
  I  I10  1  0.500000  0.248081  0.160782  1
  I  I11  1  0.500000  0.751919  0.839218  1
  I  I12  1  0.500000  0.741860  0.334496  1
  I  I13  1  0.500000  0.258140  0.665504  1
  I  I14  1  0.000000  0.259770  0.413922  1
  I  I15  1  0.000000  0.740230  0.586078  1
  I  I16  1  0.000000  0.756296  0.084524  1
  I  I17  1  0.000000  0.243704  0.915476  1
  I  I18  1  0.000000  0.000275  0.239396  1
  I  I19  1  0.000000  0.999725  0.760604  1
  I  I20  1  0.000000  0.499337  0.257138  1
  I  I21  1  0.000000  0.500663  0.742862  1
