# generated using pymatgen
data_Nd2Fe4BC3
_symmetry_space_group_name_H-M   'P 1'
_cell_length_a   6.37701140
_cell_length_b   5.54113331
_cell_length_c   5.23005075
_cell_angle_alpha   72.53922115
_cell_angle_beta   56.36971689
_cell_angle_gamma   51.47636348
_symmetry_Int_Tables_number   1
_chemical_formula_structural   Nd2Fe4BC3
_chemical_formula_sum   'Nd2 Fe4 B1 C3'
_cell_volume   120.09943737
_cell_formula_units_Z   1
loop_
 _symmetry_equiv_pos_site_id
 _symmetry_equiv_pos_as_xyz
  1  'x, y, z'
loop_
 _atom_site_type_symbol
 _atom_site_label
 _atom_site_symmetry_multiplicity
 _atom_site_fract_x
 _atom_site_fract_y
 _atom_site_fract_z
 _atom_site_occupancy
  Nd  Nd0  1  0.000467  0.999533  0.000467  1
  Nd  Nd1  1  0.252567  0.247433  0.252567  1
  Fe  Fe2  1  0.623804  0.634504  0.379942  1
  Fe  Fe3  1  0.379942  0.361750  0.623804  1
  Fe  Fe4  1  0.608205  0.621793  0.883539  1
  Fe  Fe5  1  0.883539  0.886464  0.608205  1
  B  B6  1  0.928501  0.571499  0.928501  1
  C  C7  1  0.322453  0.677547  0.322453  1
  C  C8  1  0.679744  0.320256  0.679744  1
  C  C9  1  0.570779  0.929221  0.570779  1
