# generated using pymatgen
data_LaRuF7
_symmetry_space_group_name_H-M   'P 1'
_cell_length_a   5.79074200
_cell_length_b   9.36103042
_cell_length_c   12.43932617
_cell_angle_alpha   63.00504933
_cell_angle_beta   90.00000000
_cell_angle_gamma   90.00000000
_symmetry_Int_Tables_number   1
_chemical_formula_structural   LaRuF7
_chemical_formula_sum   'La4 Ru4 F28'
_cell_volume   600.83484470
_cell_formula_units_Z   4
loop_
 _symmetry_equiv_pos_site_id
 _symmetry_equiv_pos_as_xyz
  1  'x, y, z'
loop_
 _atom_site_type_symbol
 _atom_site_label
 _atom_site_symmetry_multiplicity
 _atom_site_fract_x
 _atom_site_fract_y
 _atom_site_fract_z
 _atom_site_occupancy
  La  La0  1  0.758315  0.807456  0.268785  1
  La  La1  1  0.258315  0.192544  0.231215  1
  La  La2  1  0.241685  0.192544  0.731215  1
  La  La3  1  0.741685  0.807456  0.768785  1
  Ru  Ru4  1  0.245328  0.726504  0.544244  1
  Ru  Ru5  1  0.745328  0.273496  0.955756  1
  Ru  Ru6  1  0.754672  0.273496  0.455756  1
  Ru  Ru7  1  0.254672  0.726504  0.044244  1
  F  F8  1  0.966637  0.714246  0.456655  1
  F  F9  1  0.466637  0.285754  0.043345  1
  F  F10  1  0.033363  0.285754  0.543345  1
  F  F11  1  0.533363  0.714246  0.956655  1
  F  F12  1  0.055798  0.708292  0.922687  1
  F  F13  1  0.555798  0.291708  0.577313  1
  F  F14  1  0.944202  0.291708  0.077313  1
  F  F15  1  0.444202  0.708292  0.422687  1
  F  F16  1  0.739513  0.502436  0.863733  1
  F  F17  1  0.239513  0.497564  0.636267  1
  F  F18  1  0.260487  0.497564  0.136267  1
  F  F19  1  0.760487  0.502436  0.363733  1
  F  F20  1  0.741661  0.045914  0.045148  1
  F  F21  1  0.241661  0.954086  0.454852  1
  F  F22  1  0.258339  0.954086  0.954852  1
  F  F23  1  0.758339  0.045914  0.545148  1
  F  F24  1  0.047554  0.745311  0.667042  1
  F  F25  1  0.547554  0.254689  0.832958  1
  F  F26  1  0.952446  0.254689  0.332958  1
  F  F27  1  0.452446  0.745311  0.167042  1
  F  F28  1  0.020043  0.266306  0.864524  1
  F  F29  1  0.520043  0.733694  0.635476  1
  F  F30  1  0.979957  0.733694  0.135476  1
  F  F31  1  0.479957  0.266306  0.364524  1
  F  F32  1  0.083020  0.971570  0.231759  1
  F  F33  1  0.583020  0.028430  0.268241  1
  F  F34  1  0.916980  0.028430  0.768241  1
  F  F35  1  0.416980  0.971570  0.731759  1
