# generated using pymatgen
data_DyHo2Co5(P3Ir2)2
_symmetry_space_group_name_H-M   'P 1'
_cell_length_a   3.79065000
_cell_length_b   10.82795700
_cell_length_c   12.53093300
_cell_angle_alpha   90.00000000
_cell_angle_beta   90.00000000
_cell_angle_gamma   90.00000000
_symmetry_Int_Tables_number   1
_chemical_formula_structural   DyHo2Co5(P3Ir2)2
_chemical_formula_sum   'Dy2 Ho4 Co10 P12 Ir8'
_cell_volume   514.33208486
_cell_formula_units_Z   2
loop_
 _symmetry_equiv_pos_site_id
 _symmetry_equiv_pos_as_xyz
  1  'x, y, z'
loop_
 _atom_site_type_symbol
 _atom_site_label
 _atom_site_symmetry_multiplicity
 _atom_site_fract_x
 _atom_site_fract_y
 _atom_site_fract_z
 _atom_site_occupancy
  Dy  Dy0  1  0.000000  0.500000  0.521213  1
  Dy  Dy1  1  0.500000  0.000000  0.478787  1
  Ho  Ho2  1  0.500000  0.815451  0.197193  1
  Ho  Ho3  1  0.500000  0.184549  0.197193  1
  Ho  Ho4  1  0.000000  0.684549  0.802807  1
  Ho  Ho5  1  0.000000  0.315451  0.802807  1
  Co  Co6  1  0.000000  0.500000  0.991860  1
  Co  Co7  1  0.500000  0.000000  0.008140  1
  Co  Co8  1  0.500000  0.879076  0.716527  1
  Co  Co9  1  0.500000  0.120924  0.716527  1
  Co  Co10  1  0.000000  0.620924  0.283473  1
  Co  Co11  1  0.000000  0.379076  0.283473  1
  Co  Co12  1  0.500000  0.332864  0.995489  1
  Co  Co13  1  0.500000  0.667136  0.995489  1
  Co  Co14  1  0.000000  0.167136  0.004511  1
  Co  Co15  1  0.000000  0.832864  0.004511  1
  P  P16  1  0.500000  0.309874  0.625307  1
  P  P17  1  0.500000  0.690126  0.625307  1
  P  P18  1  0.000000  0.190126  0.374693  1
  P  P19  1  0.000000  0.809874  0.374693  1
  P  P20  1  0.500000  0.500000  0.894394  1
  P  P21  1  0.000000  0.000000  0.105606  1
  P  P22  1  0.500000  0.842800  0.897077  1
  P  P23  1  0.500000  0.157200  0.897077  1
  P  P24  1  0.000000  0.657200  0.102923  1
  P  P25  1  0.000000  0.342800  0.102923  1
  P  P26  1  0.500000  0.500000  0.344136  1
  P  P27  1  0.000000  0.000000  0.655864  1
  Ir  Ir28  1  0.500000  0.298557  0.425961  1
  Ir  Ir29  1  0.500000  0.701443  0.425961  1
  Ir  Ir30  1  0.000000  0.201443  0.574039  1
  Ir  Ir31  1  0.000000  0.798557  0.574039  1
  Ir  Ir32  1  0.500000  0.500000  0.159469  1
  Ir  Ir33  1  0.000000  0.000000  0.840531  1
  Ir  Ir34  1  0.500000  0.500000  0.709104  1
  Ir  Ir35  1  0.000000  0.000000  0.290896  1
