# generated using pymatgen
data_LaSm4DyU4O20
_symmetry_space_group_name_H-M   'P 1'
_cell_length_a   6.73293469
_cell_length_b   7.64087105
_cell_length_c   8.57194745
_cell_angle_alpha   101.33758768
_cell_angle_beta   97.78899570
_cell_angle_gamma   107.20898118
_symmetry_Int_Tables_number   1
_chemical_formula_structural   LaSm4DyU4O20
_chemical_formula_sum   'La1 Sm4 Dy1 U4 O20'
_cell_volume   404.09727652
_cell_formula_units_Z   1
loop_
 _symmetry_equiv_pos_site_id
 _symmetry_equiv_pos_as_xyz
  1  'x, y, z'
loop_
 _atom_site_type_symbol
 _atom_site_label
 _atom_site_symmetry_multiplicity
 _atom_site_fract_x
 _atom_site_fract_y
 _atom_site_fract_z
 _atom_site_occupancy
  La  La0  1  0.000000  0.500000  0.500000  1
  Sm  Sm1  1  0.613154  0.704993  0.700323  1
  Sm  Sm2  1  0.386846  0.295007  0.299677  1
  Sm  Sm3  1  0.198852  0.898377  0.893997  1
  Sm  Sm4  1  0.801148  0.101623  0.106003  1
  Dy  Dy5  1  0.000000  0.000000  0.500000  1
  U  U6  1  0.403468  0.805243  0.301685  1
  U  U7  1  0.198783  0.400904  0.901945  1
  U  U8  1  0.801217  0.599096  0.098055  1
  U  U9  1  0.596532  0.194757  0.698315  1
  O  O10  1  0.438246  0.533232  0.133897  1
  O  O11  1  0.555719  0.990616  0.838591  1
  O  O12  1  0.272079  0.148238  0.743454  1
  O  O13  1  0.365706  0.598774  0.437762  1
  O  O14  1  0.055040  0.733926  0.327381  1
  O  O15  1  0.444281  0.009384  0.161409  1
  O  O16  1  0.150667  0.187035  0.030248  1
  O  O17  1  0.561754  0.466768  0.866103  1
  O  O18  1  0.855437  0.339660  0.949457  1
  O  O19  1  0.258820  0.605140  0.766399  1
  O  O20  1  0.953723  0.780904  0.652075  1
  O  O21  1  0.353969  0.058857  0.455171  1
  O  O22  1  0.646031  0.941143  0.544829  1
  O  O23  1  0.046277  0.219096  0.347925  1
  O  O24  1  0.741180  0.394860  0.233601  1
  O  O25  1  0.144563  0.660340  0.050543  1
  O  O26  1  0.849333  0.812965  0.969752  1
  O  O27  1  0.944960  0.266074  0.672619  1
  O  O28  1  0.634294  0.401226  0.562238  1
  O  O29  1  0.727921  0.851762  0.256546  1
