# generated using pymatgen
data_LaPr7(B4Br5)2
_symmetry_space_group_name_H-M   'P 1'
_cell_length_a   9.39584179
_cell_length_b   9.39584268
_cell_length_c   19.55224686
_cell_angle_alpha   72.10586626
_cell_angle_beta   72.10585813
_cell_angle_gamma   26.47199094
_symmetry_Int_Tables_number   1
_chemical_formula_structural   LaPr7(B4Br5)2
_chemical_formula_sum   'La1 Pr7 B8 Br10'
_cell_volume   730.09547492
_cell_formula_units_Z   1
loop_
 _symmetry_equiv_pos_site_id
 _symmetry_equiv_pos_as_xyz
  1  'x, y, z'
loop_
 _atom_site_type_symbol
 _atom_site_label
 _atom_site_symmetry_multiplicity
 _atom_site_fract_x
 _atom_site_fract_y
 _atom_site_fract_z
 _atom_site_occupancy
  La  La0  1  0.044697  0.044697  0.106627  1
  Pr  Pr1  1  0.609802  0.609802  0.723641  1
  Pr  Pr2  1  0.390520  0.390520  0.276347  1
  Pr  Pr3  1  0.980696  0.980696  0.628419  1
  Pr  Pr4  1  0.019362  0.019362  0.371366  1
  Pr  Pr5  1  0.325723  0.325723  0.793212  1
  Pr  Pr6  1  0.674544  0.674544  0.207550  1
  Pr  Pr7  1  0.956164  0.956164  0.891114  1
  B  B8  1  0.152622  0.782966  0.759984  1
  B  B9  1  0.217652  0.847663  0.239479  1
  B  B10  1  0.847663  0.217652  0.239479  1
  B  B11  1  0.782966  0.152622  0.759984  1
  B  B12  1  0.463656  0.463656  0.809797  1
  B  B13  1  0.536801  0.536801  0.189395  1
  B  B14  1  0.470876  0.470876  0.710233  1
  B  B15  1  0.529237  0.529237  0.289923  1
  Br  Br16  1  0.152881  0.152881  0.603373  1
  Br  Br17  1  0.847155  0.847155  0.396325  1
  Br  Br18  1  0.137820  0.137820  0.828899  1
  Br  Br19  1  0.861658  0.861658  0.172429  1
  Br  Br20  1  0.782539  0.782539  0.913259  1
  Br  Br21  1  0.219256  0.219256  0.088204  1
  Br  Br22  1  0.799567  0.799567  0.685724  1
  Br  Br23  1  0.200143  0.200143  0.315187  1
  Br  Br24  1  0.498959  0.498959  0.500462  1
  Br  Br25  1  0.497042  0.497042  0.999594  1
