# generated using pymatgen
data_Mn4Cr16Ge(MoC3)2
_symmetry_space_group_name_H-M   'P 1'
_cell_length_a   7.51283255
_cell_length_b   7.51283154
_cell_length_c   7.51283200
_cell_angle_alpha   59.99999796
_cell_angle_beta   60.00000242
_cell_angle_gamma   59.99999716
_symmetry_Int_Tables_number   1
_chemical_formula_structural   Mn4Cr16Ge(MoC3)2
_chemical_formula_sum   'Mn4 Cr16 Ge1 Mo2 C6'
_cell_volume   299.84446142
_cell_formula_units_Z   1
loop_
 _symmetry_equiv_pos_site_id
 _symmetry_equiv_pos_as_xyz
  1  'x, y, z'
loop_
 _atom_site_type_symbol
 _atom_site_label
 _atom_site_symmetry_multiplicity
 _atom_site_fract_x
 _atom_site_fract_y
 _atom_site_fract_z
 _atom_site_occupancy
  Mn  Mn0  1  0.616675  0.616675  0.149974  1
  Mn  Mn1  1  0.616675  0.149974  0.616675  1
  Mn  Mn2  1  0.149974  0.616675  0.616675  1
  Mn  Mn3  1  0.616675  0.616675  0.616675  1
  Cr  Cr4  1  0.384789  0.384789  0.845636  1
  Cr  Cr5  1  0.384789  0.845636  0.384789  1
  Cr  Cr6  1  0.845636  0.384789  0.384789  1
  Cr  Cr7  1  0.384789  0.384789  0.384789  1
  Cr  Cr8  1  0.998947  0.998947  0.343557  1
  Cr  Cr9  1  0.658548  0.998947  0.343557  1
  Cr  Cr10  1  0.998947  0.658548  0.343557  1
  Cr  Cr11  1  0.658548  0.343557  0.998947  1
  Cr  Cr12  1  0.998947  0.343557  0.998947  1
  Cr  Cr13  1  0.998947  0.343557  0.658548  1
  Cr  Cr14  1  0.343557  0.658548  0.998947  1
  Cr  Cr15  1  0.343557  0.998947  0.658548  1
  Cr  Cr16  1  0.343557  0.998947  0.998947  1
  Cr  Cr17  1  0.998947  0.998947  0.658548  1
  Cr  Cr18  1  0.998947  0.658548  0.998947  1
  Cr  Cr19  1  0.658548  0.998947  0.998947  1
  Ge  Ge20  1  0.000000  0.000000  0.000000  1
  Mo  Mo21  1  0.750000  0.750000  0.750000  1
  Mo  Mo22  1  0.250000  0.250000  0.250000  1
  C  C23  1  0.720212  0.720212  0.279788  1
  C  C24  1  0.279788  0.720212  0.279788  1
  C  C25  1  0.720212  0.279788  0.279788  1
  C  C26  1  0.279788  0.279788  0.720212  1
  C  C27  1  0.720212  0.279788  0.720212  1
  C  C28  1  0.279788  0.720212  0.720212  1
