# generated using pymatgen
data_Ho10Cd3Ru
_symmetry_space_group_name_H-M   'P 1'
_cell_length_a   9.54095600
_cell_length_b   9.54095576
_cell_length_c   9.81419900
_cell_angle_alpha   90.00000000
_cell_angle_beta   90.00000000
_cell_angle_gamma   120.00000082
_symmetry_Int_Tables_number   1
_chemical_formula_structural   Ho10Cd3Ru
_chemical_formula_sum   'Ho20 Cd6 Ru2'
_cell_volume   773.69406113
_cell_formula_units_Z   2
loop_
 _symmetry_equiv_pos_site_id
 _symmetry_equiv_pos_as_xyz
  1  'x, y, z'
loop_
 _atom_site_type_symbol
 _atom_site_label
 _atom_site_symmetry_multiplicity
 _atom_site_fract_x
 _atom_site_fract_y
 _atom_site_fract_z
 _atom_site_occupancy
  Ho  Ho0  1  0.000000  0.000000  0.500000  1
  Ho  Ho1  1  0.000000  0.000000  0.000000  1
  Ho  Ho2  1  0.209764  0.790236  0.440420  1
  Ho  Ho3  1  0.209764  0.419529  0.440420  1
  Ho  Ho4  1  0.580471  0.790236  0.440420  1
  Ho  Ho5  1  0.790236  0.209764  0.559580  1
  Ho  Ho6  1  0.790236  0.580471  0.559580  1
  Ho  Ho7  1  0.419529  0.209764  0.559580  1
  Ho  Ho8  1  0.790236  0.209764  0.940420  1
  Ho  Ho9  1  0.790236  0.580471  0.940420  1
  Ho  Ho10  1  0.419529  0.209764  0.940420  1
  Ho  Ho11  1  0.209764  0.790236  0.059580  1
  Ho  Ho12  1  0.209764  0.419529  0.059580  1
  Ho  Ho13  1  0.580471  0.790236  0.059580  1
  Ho  Ho14  1  0.541278  0.458722  0.250000  1
  Ho  Ho15  1  0.541278  0.082555  0.250000  1
  Ho  Ho16  1  0.917445  0.458722  0.250000  1
  Ho  Ho17  1  0.458722  0.541278  0.750000  1
  Ho  Ho18  1  0.458722  0.917445  0.750000  1
  Ho  Ho19  1  0.082555  0.541278  0.750000  1
  Cd  Cd20  1  0.885375  0.114625  0.250000  1
  Cd  Cd21  1  0.885375  0.770752  0.250000  1
  Cd  Cd22  1  0.229248  0.114625  0.250000  1
  Cd  Cd23  1  0.114625  0.885375  0.750000  1
  Cd  Cd24  1  0.114625  0.229248  0.750000  1
  Cd  Cd25  1  0.770752  0.885375  0.750000  1
  Ru  Ru26  1  0.333333  0.666667  0.250000  1
  Ru  Ru27  1  0.666667  0.333333  0.750000  1
