# generated using pymatgen
data_Tm12Th4Cd4IrRu3
_symmetry_space_group_name_H-M   'P 1'
_cell_length_a   9.62593245
_cell_length_b   9.63429515
_cell_length_c   9.63410429
_cell_angle_alpha   59.91468728
_cell_angle_beta   59.88039834
_cell_angle_gamma   59.88132541
_symmetry_Int_Tables_number   1
_chemical_formula_structural   Tm12Th4Cd4IrRu3
_chemical_formula_sum   'Tm12 Th4 Cd4 Ir1 Ru3'
_cell_volume   630.22394880
_cell_formula_units_Z   1
loop_
 _symmetry_equiv_pos_site_id
 _symmetry_equiv_pos_as_xyz
  1  'x, y, z'
loop_
 _atom_site_type_symbol
 _atom_site_label
 _atom_site_symmetry_multiplicity
 _atom_site_fract_x
 _atom_site_fract_y
 _atom_site_fract_z
 _atom_site_occupancy
  Tm  Tm0  1  0.063552  0.438010  0.437833  1
  Tm  Tm1  1  0.434986  0.063222  0.063209  1
  Tm  Tm2  1  0.437333  0.062230  0.437378  1
  Tm  Tm3  1  0.063709  0.436604  0.060377  1
  Tm  Tm4  1  0.437265  0.437474  0.062183  1
  Tm  Tm5  1  0.063710  0.060374  0.436521  1
  Tm  Tm6  1  0.183544  0.816276  0.816031  1
  Tm  Tm7  1  0.812458  0.185770  0.185588  1
  Tm  Tm8  1  0.813909  0.186250  0.815251  1
  Tm  Tm9  1  0.184062  0.814585  0.185547  1
  Tm  Tm10  1  0.813964  0.815512  0.186016  1
  Tm  Tm11  1  0.184103  0.185766  0.814332  1
  Th  Th12  1  0.595933  0.600402  0.600376  1
  Th  Th13  1  0.597626  0.600770  0.201833  1
  Th  Th14  1  0.597767  0.201466  0.600872  1
  Th  Th15  1  0.204739  0.598497  0.598503  1
  Cd  Cd16  1  0.832069  0.832327  0.832744  1
  Cd  Cd17  1  0.831757  0.832176  0.501950  1
  Cd  Cd18  1  0.831579  0.502119  0.832377  1
  Cd  Cd19  1  0.501416  0.832068  0.832478  1
  Ir  Ir20  1  0.826526  0.391922  0.392084  1
  Ru  Ru21  1  0.395495  0.392602  0.392770  1
  Ru  Ru22  1  0.396282  0.393267  0.820344  1
  Ru  Ru23  1  0.396215  0.820312  0.393402  1
