# generated using pymatgen
data_Y5LuAl16Os6Rh
_symmetry_space_group_name_H-M   'P 1'
_cell_length_a   8.95256511
_cell_length_b   8.95256568
_cell_length_c   8.92220500
_cell_angle_alpha   60.11212314
_cell_angle_beta   60.11212106
_cell_angle_gamma   59.77576202
_symmetry_Int_Tables_number   1
_chemical_formula_structural   Y5LuAl16Os6Rh
_chemical_formula_sum   'Y5 Lu1 Al16 Os6 Rh1'
_cell_volume   505.64098445
_cell_formula_units_Z   1
loop_
 _symmetry_equiv_pos_site_id
 _symmetry_equiv_pos_as_xyz
  1  'x, y, z'
loop_
 _atom_site_type_symbol
 _atom_site_label
 _atom_site_symmetry_multiplicity
 _atom_site_fract_x
 _atom_site_fract_y
 _atom_site_fract_z
 _atom_site_occupancy
  Y  Y0  1  0.711229  0.288627  0.288771  1
  Y  Y1  1  0.711229  0.288627  0.711373  1
  Y  Y2  1  0.712247  0.712247  0.287753  1
  Y  Y3  1  0.288627  0.711229  0.711373  1
  Y  Y4  1  0.288627  0.711229  0.288771  1
  Lu  Lu5  1  0.287787  0.287787  0.712213  1
  Al  Al6  1  0.631048  0.123083  0.122934  1
  Al  Al7  1  0.123083  0.631048  0.122934  1
  Al  Al8  1  0.123340  0.123340  0.632482  1
  Al  Al9  1  0.123340  0.123340  0.120836  1
  Al  Al10  1  0.367518  0.879164  0.876660  1
  Al  Al11  1  0.879164  0.367518  0.876660  1
  Al  Al12  1  0.877066  0.877066  0.368952  1
  Al  Al13  1  0.877066  0.877066  0.876917  1
  Al  Al14  1  0.001624  0.332632  0.332874  1
  Al  Al15  1  0.332632  0.001624  0.332874  1
  Al  Al16  1  0.332825  0.332825  0.999891  1
  Al  Al17  1  0.332825  0.332825  0.334460  1
  Al  Al18  1  0.000109  0.665540  0.667175  1
  Al  Al19  1  0.665540  0.000109  0.667175  1
  Al  Al20  1  0.667126  0.667126  0.998376  1
  Al  Al21  1  0.667126  0.667126  0.667368  1
  Os  Os22  1  0.498951  0.000920  0.999080  1
  Os  Os23  1  0.498951  0.000920  0.501049  1
  Os  Os24  1  0.499839  0.499839  0.000161  1
  Os  Os25  1  0.000920  0.498951  0.501049  1
  Os  Os26  1  0.000920  0.498951  0.999080  1
  Os  Os27  1  0.999839  0.999839  0.500161  1
  Rh  Rh28  1  0.999400  0.999400  0.000600  1
