# generated using pymatgen
data_Na5C3O9F
_symmetry_space_group_name_H-M   'P 1'
_cell_length_a   3.57587319
_cell_length_b   8.18393507
_cell_length_c   9.21025738
_cell_angle_alpha   63.61188692
_cell_angle_beta   94.81960199
_cell_angle_gamma   100.64784924
_symmetry_Int_Tables_number   1
_chemical_formula_structural   Na5C3O9F
_chemical_formula_sum   'Na5 C3 O9 F1'
_cell_volume   237.29301583
_cell_formula_units_Z   1
loop_
 _symmetry_equiv_pos_site_id
 _symmetry_equiv_pos_as_xyz
  1  'x, y, z'
loop_
 _atom_site_type_symbol
 _atom_site_label
 _atom_site_symmetry_multiplicity
 _atom_site_fract_x
 _atom_site_fract_y
 _atom_site_fract_z
 _atom_site_occupancy
  Na  Na0  1  0.063715  0.315792  0.999819  1
  Na  Na1  1  0.725370  0.546496  0.216630  1
  Na  Na2  1  0.403489  0.867278  0.355380  1
  Na  Na3  1  0.403707  0.222922  0.644964  1
  Na  Na4  1  0.725612  0.763036  0.783269  1
  C  C5  1  0.352147  0.926719  0.999966  1
  C  C6  1  0.984605  0.162454  0.396112  1
  C  C7  1  0.984783  0.558541  0.603948  1
  O  O8  1  0.430325  0.086593  0.999904  1
  O  O9  1  0.313434  0.780211  0.135809  1
  O  O10  1  0.979205  0.082336  0.303314  1
  O  O11  1  0.163166  0.328956  0.353402  1
  O  O12  1  0.812326  0.611762  0.465504  1
  O  O13  1  0.812709  0.077564  0.534339  1
  O  O14  1  0.163455  0.682385  0.646662  1
  O  O15  1  0.979592  0.385643  0.696841  1
  O  O16  1  0.313710  0.915928  0.864127  1
  F  F17  1  0.640648  0.488185  0.000011  1
