# generated using pymatgen
data_Er2Si3Ni14
_symmetry_space_group_name_H-M   'P 1'
_cell_length_a   8.23107200
_cell_length_b   8.23107297
_cell_length_c   7.99754900
_cell_angle_alpha   90.00000000
_cell_angle_beta   90.00000000
_cell_angle_gamma   120.00000412
_symmetry_Int_Tables_number   1
_chemical_formula_structural   Er2Si3Ni14
_chemical_formula_sum   'Er4 Si6 Ni28'
_cell_volume   469.24578034
_cell_formula_units_Z   2
loop_
 _symmetry_equiv_pos_site_id
 _symmetry_equiv_pos_as_xyz
  1  'x, y, z'
loop_
 _atom_site_type_symbol
 _atom_site_label
 _atom_site_symmetry_multiplicity
 _atom_site_fract_x
 _atom_site_fract_y
 _atom_site_fract_z
 _atom_site_occupancy
  Er  Er0  1  0.000000  0.000000  0.250000  1
  Er  Er1  1  0.000000  0.000000  0.750000  1
  Er  Er2  1  0.333333  0.666667  0.750000  1
  Er  Er3  1  0.666667  0.333333  0.250000  1
  Si  Si4  1  0.500000  0.500000  0.500000  1
  Si  Si5  1  0.500000  0.000000  0.500000  1
  Si  Si6  1  0.000000  0.500000  0.500000  1
  Si  Si7  1  0.500000  0.500000  0.000000  1
  Si  Si8  1  0.500000  0.000000  0.000000  1
  Si  Si9  1  0.000000  0.500000  0.000000  1
  Ni  Ni10  1  0.333333  0.666667  0.398740  1
  Ni  Ni11  1  0.666667  0.333333  0.601260  1
  Ni  Ni12  1  0.666667  0.333333  0.898740  1
  Ni  Ni13  1  0.333333  0.666667  0.101260  1
  Ni  Ni14  1  0.330916  0.368270  0.250000  1
  Ni  Ni15  1  0.631730  0.962647  0.250000  1
  Ni  Ni16  1  0.037353  0.669084  0.250000  1
  Ni  Ni17  1  0.631730  0.669084  0.250000  1
  Ni  Ni18  1  0.037353  0.368270  0.250000  1
  Ni  Ni19  1  0.330916  0.962647  0.250000  1
  Ni  Ni20  1  0.669084  0.631730  0.750000  1
  Ni  Ni21  1  0.368270  0.037353  0.750000  1
  Ni  Ni22  1  0.962647  0.330916  0.750000  1
  Ni  Ni23  1  0.368270  0.330916  0.750000  1
  Ni  Ni24  1  0.962647  0.631730  0.750000  1
  Ni  Ni25  1  0.669084  0.037353  0.750000  1
  Ni  Ni26  1  0.169989  0.830011  0.521933  1
  Ni  Ni27  1  0.169989  0.339977  0.521933  1
  Ni  Ni28  1  0.660023  0.830011  0.521933  1
  Ni  Ni29  1  0.830011  0.169989  0.478067  1
  Ni  Ni30  1  0.830011  0.660023  0.478067  1
  Ni  Ni31  1  0.339977  0.169989  0.478067  1
  Ni  Ni32  1  0.830011  0.169989  0.021933  1
  Ni  Ni33  1  0.830011  0.660023  0.021933  1
  Ni  Ni34  1  0.339977  0.169989  0.021933  1
  Ni  Ni35  1  0.169989  0.830011  0.978067  1
  Ni  Ni36  1  0.169989  0.339977  0.978067  1
  Ni  Ni37  1  0.660023  0.830011  0.978067  1
