# generated using pymatgen
data_K6I2O9
_symmetry_space_group_name_H-M   'P 1'
_cell_length_a   6.29364232
_cell_length_b   6.29364209
_cell_length_c   8.22816300
_cell_angle_alpha   90.80120212
_cell_angle_beta   90.80120209
_cell_angle_gamma   85.87082855
_symmetry_Int_Tables_number   1
_chemical_formula_structural   K6I2O9
_chemical_formula_sum   'K6 I2 O9'
_cell_volume   325.01168361
_cell_formula_units_Z   1
loop_
 _symmetry_equiv_pos_site_id
 _symmetry_equiv_pos_as_xyz
  1  'x, y, z'
loop_
 _atom_site_type_symbol
 _atom_site_label
 _atom_site_symmetry_multiplicity
 _atom_site_fract_x
 _atom_site_fract_y
 _atom_site_fract_z
 _atom_site_occupancy
  K  K0  1  0.505218  0.505218  0.043462  1
  K  K1  1  0.002546  0.510099  0.280746  1
  K  K2  1  0.005725  0.506689  0.764806  1
  K  K3  1  0.010016  0.010016  0.536096  1
  K  K4  1  0.506689  0.005725  0.764806  1
  K  K5  1  0.510099  0.002546  0.280746  1
  I  I6  1  0.510339  0.510339  0.541312  1
  I  I7  1  0.008275  0.008275  0.011802  1
  O  O8  1  0.802953  0.802953  0.005241  1
  O  O9  1  0.200009  0.815015  0.905846  1
  O  O10  1  0.724347  0.724347  0.543035  1
  O  O11  1  0.335729  0.676420  0.401619  1
  O  O12  1  0.676420  0.335729  0.401619  1
  O  O13  1  0.297631  0.297631  0.554813  1
  O  O14  1  0.815015  0.200009  0.905846  1
  O  O15  1  0.213467  0.213467  0.007693  1
  O  O16  1  0.011019  0.011019  0.233016  1
