# generated using pymatgen
data_Dy16In3Hg(IrRh)2
_symmetry_space_group_name_H-M   'P 1'
_cell_length_a   9.66681491
_cell_length_b   9.64051497
_cell_length_c   9.63978808
_cell_angle_alpha   59.84156259
_cell_angle_beta   59.90720221
_cell_angle_gamma   59.90970979
_symmetry_Int_Tables_number   1
_chemical_formula_structural   Dy16In3Hg(IrRh)2
_chemical_formula_sum   'Dy16 In3 Hg1 Ir2 Rh2'
_cell_volume   633.59615034
_cell_formula_units_Z   1
loop_
 _symmetry_equiv_pos_site_id
 _symmetry_equiv_pos_as_xyz
  1  'x, y, z'
loop_
 _atom_site_type_symbol
 _atom_site_label
 _atom_site_symmetry_multiplicity
 _atom_site_fract_x
 _atom_site_fract_y
 _atom_site_fract_z
 _atom_site_occupancy
  Dy  Dy0  1  0.689458  0.311641  0.309442  1
  Dy  Dy1  1  0.689591  0.689631  0.311644  1
  Dy  Dy2  1  0.309133  0.689631  0.311644  1
  Dy  Dy3  1  0.937523  0.939761  0.558101  1
  Dy  Dy4  1  0.151185  0.148690  0.548940  1
  Dy  Dy5  1  0.564615  0.939761  0.558101  1
  Dy  Dy6  1  0.152910  0.150749  0.149589  1
  Dy  Dy7  1  0.307475  0.311532  0.690349  1
  Dy  Dy8  1  0.941125  0.561141  0.556608  1
  Dy  Dy9  1  0.562683  0.562373  0.937486  1
  Dy  Dy10  1  0.565004  0.936519  0.933474  1
  Dy  Dy11  1  0.937458  0.562373  0.937486  1
  Dy  Dy12  1  0.151016  0.549475  0.148492  1
  Dy  Dy13  1  0.309195  0.690977  0.690634  1
  Dy  Dy14  1  0.690645  0.311532  0.690349  1
  Dy  Dy15  1  0.546750  0.150749  0.149589  1
  In  In16  1  0.246162  0.917460  0.920132  1
  In  In17  1  0.916803  0.245729  0.920664  1
  In  In18  1  0.916246  0.917460  0.920132  1
  Hg  Hg19  1  0.913214  0.914415  0.259157  1
  Ir  Ir20  1  0.358056  0.357453  0.357760  1
  Ir  Ir21  1  0.926733  0.357453  0.357760  1
  Rh  Rh22  1  0.358688  0.358683  0.923941  1
  Rh  Rh23  1  0.358331  0.924813  0.358527  1
