# generated using pymatgen
data_Dy11YIrOs3
_symmetry_space_group_name_H-M   'P 1'
_cell_length_a   6.37845198
_cell_length_b   7.37492423
_cell_length_c   9.07261300
_cell_angle_alpha   90.00000000
_cell_angle_beta   90.00000000
_cell_angle_gamma   89.87070770
_symmetry_Int_Tables_number   1
_chemical_formula_structural   Dy11YIrOs3
_chemical_formula_sum   'Dy11 Y1 Ir1 Os3'
_cell_volume   426.78007323
_cell_formula_units_Z   1
loop_
 _symmetry_equiv_pos_site_id
 _symmetry_equiv_pos_as_xyz
  1  'x, y, z'
loop_
 _atom_site_type_symbol
 _atom_site_label
 _atom_site_symmetry_multiplicity
 _atom_site_fract_x
 _atom_site_fract_y
 _atom_site_fract_z
 _atom_site_occupancy
  Dy  Dy0  1  0.331761  0.673834  0.062579  1
  Dy  Dy1  1  0.170676  0.176229  0.437955  1
  Dy  Dy2  1  0.670205  0.324858  0.563697  1
  Dy  Dy3  1  0.827243  0.824927  0.934544  1
  Dy  Dy4  1  0.670205  0.324858  0.936303  1
  Dy  Dy5  1  0.827243  0.824927  0.565456  1
  Dy  Dy6  1  0.331761  0.673834  0.437421  1
  Dy  Dy7  1  0.170676  0.176229  0.062045  1
  Dy  Dy8  1  0.630623  0.039505  0.250000  1
  Dy  Dy9  1  0.130231  0.461790  0.750000  1
  Dy  Dy10  1  0.368597  0.961212  0.750000  1
  Y  Y11  1  0.870214  0.537057  0.250000  1
  Ir  Ir12  1  0.041546  0.884801  0.250000  1
  Os  Os13  1  0.458858  0.383060  0.250000  1
  Os  Os14  1  0.961632  0.115993  0.750000  1
  Os  Os15  1  0.538529  0.616887  0.750000  1
