# generated using pymatgen
data_Ho16Er4Ir5Pt7
_symmetry_space_group_name_H-M   'P 1'
_cell_length_a   10.98981143
_cell_length_b   10.98981143
_cell_length_c   6.29827905
_cell_angle_alpha   90.01037947
_cell_angle_beta   90.01037947
_cell_angle_gamma   90.19785332
_symmetry_Int_Tables_number   1
_chemical_formula_structural   Ho16Er4Ir5Pt7
_chemical_formula_sum   'Ho16 Er4 Ir5 Pt7'
_cell_volume   760.67610807
_cell_formula_units_Z   1
loop_
 _symmetry_equiv_pos_site_id
 _symmetry_equiv_pos_as_xyz
  1  'x, y, z'
loop_
 _atom_site_type_symbol
 _atom_site_label
 _atom_site_symmetry_multiplicity
 _atom_site_fract_x
 _atom_site_fract_y
 _atom_site_fract_z
 _atom_site_occupancy
  Ho  Ho0  1  0.295073  0.086662  0.373359  1
  Ho  Ho1  1  0.295260  0.908908  0.873617  1
  Ho  Ho2  1  0.705023  0.086960  0.873346  1
  Ho  Ho3  1  0.704997  0.912365  0.372911  1
  Ho  Ho4  1  0.583857  0.792712  0.872366  1
  Ho  Ho5  1  0.587255  0.206207  0.374314  1
  Ho  Ho6  1  0.411045  0.792011  0.377954  1
  Ho  Ho7  1  0.412558  0.204739  0.874148  1
  Ho  Ho8  1  0.207288  0.416143  0.627634  1
  Ho  Ho9  1  0.207989  0.588955  0.122046  1
  Ho  Ho10  1  0.793793  0.412745  0.125686  1
  Ho  Ho11  1  0.795261  0.587442  0.625852  1
  Ho  Ho12  1  0.913338  0.704927  0.126641  1
  Ho  Ho13  1  0.913040  0.294977  0.626654  1
  Ho  Ho14  1  0.091092  0.704740  0.626383  1
  Ho  Ho15  1  0.087635  0.295003  0.127089  1
  Er  Er16  1  0.999867  0.999893  0.500305  1
  Er  Er17  1  0.000107  0.000133  0.999695  1
  Er  Er18  1  0.498001  0.501154  0.999581  1
  Er  Er19  1  0.498846  0.501999  0.500419  1
  Ir  Ir20  1  0.347390  0.652610  0.750000  1
  Ir  Ir21  1  0.500198  0.000205  0.122893  1
  Ir  Ir22  1  0.500108  0.000465  0.621351  1
  Ir  Ir23  1  0.999535  0.499892  0.878649  1
  Ir  Ir24  1  0.999795  0.499802  0.377107  1
  Pt  Pt25  1  0.846882  0.153118  0.250000  1
  Pt  Pt26  1  0.846495  0.847048  0.750356  1
  Pt  Pt27  1  0.152952  0.153505  0.749644  1
  Pt  Pt28  1  0.152466  0.847534  0.250000  1
  Pt  Pt29  1  0.652742  0.347258  0.750000  1
  Pt  Pt30  1  0.654004  0.653891  0.250139  1
  Pt  Pt31  1  0.346109  0.345996  0.249861  1
