# generated using pymatgen
data_Li9Ni3N4
_symmetry_space_group_name_H-M   'P 1'
_cell_length_a   5.17793865
_cell_length_b   5.17793858
_cell_length_c   9.68750504
_cell_angle_alpha   83.92642337
_cell_angle_beta   83.92642448
_cell_angle_gamma   42.20222521
_symmetry_Int_Tables_number   1
_chemical_formula_structural   Li9Ni3N4
_chemical_formula_sum   'Li9 Ni3 N4'
_cell_volume   173.34925093
_cell_formula_units_Z   1
loop_
 _symmetry_equiv_pos_site_id
 _symmetry_equiv_pos_as_xyz
  1  'x, y, z'
loop_
 _atom_site_type_symbol
 _atom_site_label
 _atom_site_symmetry_multiplicity
 _atom_site_fract_x
 _atom_site_fract_y
 _atom_site_fract_z
 _atom_site_occupancy
  Li  Li0  1  0.411994  0.411994  0.251686  1
  Li  Li1  1  0.175867  0.175867  0.005559  1
  Li  Li2  1  0.948805  0.948805  0.768980  1
  Li  Li3  1  0.703946  0.703946  0.541520  1
  Li  Li4  1  0.824133  0.824133  0.994441  1
  Li  Li5  1  0.588006  0.588006  0.748314  1
  Li  Li6  1  0.296054  0.296054  0.458480  1
  Li  Li7  1  0.051195  0.051195  0.231020  1
  Li  Li8  1  0.000000  0.000000  0.500000  1
  Ni  Ni9  1  0.732480  0.732480  0.254186  1
  Ni  Ni10  1  0.500000  0.500000  0.000000  1
  Ni  Ni11  1  0.267520  0.267520  0.745814  1
  N  N12  1  0.616207  0.616207  0.125588  1
  N  N13  1  0.383793  0.383793  0.874412  1
  N  N14  1  0.136191  0.136191  0.628580  1
  N  N15  1  0.863809  0.863809  0.371420  1
