# generated using pymatgen
data_SnP3WO12
_symmetry_space_group_name_H-M   'P 1'
_cell_length_a   8.73447233
_cell_length_b   8.74957891
_cell_length_c   9.07160136
_cell_angle_alpha   90.08349749
_cell_angle_beta   119.05481242
_cell_angle_gamma   119.98825870
_symmetry_Int_Tables_number   1
_chemical_formula_structural   SnP3WO12
_chemical_formula_sum   'Sn2 P6 W2 O24'
_cell_volume   496.85186893
_cell_formula_units_Z   2
loop_
 _symmetry_equiv_pos_site_id
 _symmetry_equiv_pos_as_xyz
  1  'x, y, z'
loop_
 _atom_site_type_symbol
 _atom_site_label
 _atom_site_symmetry_multiplicity
 _atom_site_fract_x
 _atom_site_fract_y
 _atom_site_fract_z
 _atom_site_occupancy
  Sn  Sn0  1  0.212322  0.860001  0.070691  1
  Sn  Sn1  1  0.789488  0.644621  0.432368  1
  P  P2  1  0.996829  0.957889  0.248127  1
  P  P3  1  0.289376  0.539481  0.251874  1
  P  P4  1  0.283570  0.749328  0.749829  1
  P  P5  1  0.710621  0.249964  0.249984  1
  P  P6  1  0.718265  0.464961  0.748182  1
  P  P7  1  0.001288  0.036858  0.751869  1
  W  W8  1  0.209775  0.355878  0.563356  1
  W  W9  1  0.789417  0.141847  0.933682  1
  O  O10  1  0.303873  0.716964  0.228766  1
  O  O11  1  0.870001  0.989172  0.073478  1
  O  O12  1  0.843690  0.856198  0.593752  1
  O  O13  1  0.831044  0.793449  0.266120  1
  O  O14  1  0.149638  0.925174  0.241106  1
  O  O15  1  0.472119  0.538244  0.271042  1
  O  O16  1  0.108208  0.745873  0.582932  1
  O  O17  1  0.895433  0.637465  0.913802  1
  O  O18  1  0.279423  0.770962  0.914460  1
  O  O19  1  0.498504  0.918022  0.785637  1
  O  O20  1  0.734499  0.479592  0.587665  1
  O  O21  1  0.725316  0.430812  0.266664  1
  O  O22  1  0.280097  0.573252  0.721445  1
  O  O23  1  0.279534  0.514507  0.416579  1
  O  O24  1  0.520827  0.086230  0.242068  1
  O  O25  1  0.706479  0.205563  0.082816  1
  O  O26  1  0.080186  0.368335  0.083732  1
  O  O27  1  0.914588  0.279086  0.417835  1
  O  O28  1  0.504361  0.432940  0.701835  1
  O  O29  1  0.862195  0.081545  0.775848  1
  O  O30  1  0.142465  0.205424  0.714936  1
  O  O31  1  0.135684  0.135524  0.408054  1
  O  O32  1  0.155293  0.026194  0.924746  1
  O  O33  1  0.705590  0.288644  0.784722  1
