# generated using pymatgen
data_LaPH2Ir
_symmetry_space_group_name_H-M   'P 1'
_cell_length_a   4.23499200
_cell_length_b   4.23499193
_cell_length_c   8.63313500
_cell_angle_alpha   90.00000000
_cell_angle_beta   90.00000000
_cell_angle_gamma   120.00001616
_symmetry_Int_Tables_number   1
_chemical_formula_structural   LaPH2Ir
_chemical_formula_sum   'La2 P2 H4 Ir2'
_cell_volume   134.09243421
_cell_formula_units_Z   2
loop_
 _symmetry_equiv_pos_site_id
 _symmetry_equiv_pos_as_xyz
  1  'x, y, z'
loop_
 _atom_site_type_symbol
 _atom_site_label
 _atom_site_symmetry_multiplicity
 _atom_site_fract_x
 _atom_site_fract_y
 _atom_site_fract_z
 _atom_site_occupancy
  La  La0  1  0.000000  0.000000  0.500000  1
  La  La1  1  0.000000  0.000000  0.000000  1
  P  P2  1  0.666667  0.333333  0.750000  1
  P  P3  1  0.333333  0.666667  0.250000  1
  H  H4  1  0.666667  0.333333  0.051371  1
  H  H5  1  0.333333  0.666667  0.948629  1
  H  H6  1  0.666667  0.333333  0.448629  1
  H  H7  1  0.333333  0.666667  0.551371  1
  Ir  Ir8  1  0.333333  0.666667  0.750000  1
  Ir  Ir9  1  0.666667  0.333333  0.250000  1
