# generated using pymatgen
data_Ho4Al4PdRu3
_symmetry_space_group_name_H-M   'P 1'
_cell_length_a   4.16192000
_cell_length_b   6.93377635
_cell_length_c   7.99665674
_cell_angle_alpha   90.20594404
_cell_angle_beta   90.00000000
_cell_angle_gamma   90.00000000
_symmetry_Int_Tables_number   1
_chemical_formula_structural   Ho4Al4PdRu3
_chemical_formula_sum   'Ho4 Al4 Pd1 Ru3'
_cell_volume   230.76460981
_cell_formula_units_Z   1
loop_
 _symmetry_equiv_pos_site_id
 _symmetry_equiv_pos_as_xyz
  1  'x, y, z'
loop_
 _atom_site_type_symbol
 _atom_site_label
 _atom_site_symmetry_multiplicity
 _atom_site_fract_x
 _atom_site_fract_y
 _atom_site_fract_z
 _atom_site_occupancy
  Ho  Ho0  1  0.250000  0.026075  0.674898  1
  Ho  Ho1  1  0.250000  0.540333  0.818378  1
  Ho  Ho2  1  0.750000  0.968827  0.320399  1
  Ho  Ho3  1  0.750000  0.472299  0.184358  1
  Al  Al4  1  0.250000  0.138240  0.064304  1
  Al  Al5  1  0.250000  0.640682  0.439487  1
  Al  Al6  1  0.750000  0.853298  0.940953  1
  Al  Al7  1  0.750000  0.360937  0.557288  1
  Pd  Pd8  1  0.750000  0.227598  0.879009  1
  Ru  Ru9  1  0.250000  0.269218  0.377880  1
  Ru  Ru10  1  0.250000  0.769990  0.120659  1
  Ru  Ru11  1  0.750000  0.732503  0.622388  1
