# generated using pymatgen
data_ScPa(NiP)3
_symmetry_space_group_name_H-M   'P 1'
_cell_length_a   3.79277900
_cell_length_b   10.17414800
_cell_length_c   12.35010500
_cell_angle_alpha   90.00000000
_cell_angle_beta   90.00000000
_cell_angle_gamma   90.00000000
_symmetry_Int_Tables_number   1
_chemical_formula_structural   ScPa(NiP)3
_chemical_formula_sum   'Sc4 Pa4 Ni12 P12'
_cell_volume   476.56949351
_cell_formula_units_Z   4
loop_
 _symmetry_equiv_pos_site_id
 _symmetry_equiv_pos_as_xyz
  1  'x, y, z'
loop_
 _atom_site_type_symbol
 _atom_site_label
 _atom_site_symmetry_multiplicity
 _atom_site_fract_x
 _atom_site_fract_y
 _atom_site_fract_z
 _atom_site_occupancy
  Sc  Sc0  1  0.250000  0.158803  0.497880  1
  Sc  Sc1  1  0.750000  0.841197  0.502120  1
  Sc  Sc2  1  0.750000  0.658803  0.002120  1
  Sc  Sc3  1  0.250000  0.341197  0.997880  1
  Pa  Pa4  1  0.250000  0.068058  0.208676  1
  Pa  Pa5  1  0.750000  0.931942  0.791324  1
  Pa  Pa6  1  0.750000  0.568058  0.291324  1
  Pa  Pa7  1  0.250000  0.431942  0.708676  1
  Ni  Ni8  1  0.250000  0.723077  0.664585  1
  Ni  Ni9  1  0.750000  0.276923  0.335415  1
  Ni  Ni10  1  0.750000  0.223077  0.835415  1
  Ni  Ni11  1  0.250000  0.776923  0.164585  1
  Ni  Ni12  1  0.250000  0.362997  0.215845  1
  Ni  Ni13  1  0.750000  0.637003  0.784155  1
  Ni  Ni14  1  0.750000  0.862997  0.284155  1
  Ni  Ni15  1  0.250000  0.137003  0.715845  1
  Ni  Ni16  1  0.250000  0.598300  0.485510  1
  Ni  Ni17  1  0.750000  0.401700  0.514490  1
  Ni  Ni18  1  0.750000  0.098300  0.014490  1
  Ni  Ni19  1  0.250000  0.901700  0.985510  1
  P  P20  1  0.250000  0.941928  0.623284  1
  P  P21  1  0.750000  0.058072  0.376716  1
  P  P22  1  0.750000  0.441928  0.876716  1
  P  P23  1  0.250000  0.558072  0.123284  1
  P  P24  1  0.250000  0.393574  0.403610  1
  P  P25  1  0.750000  0.606426  0.596390  1
  P  P26  1  0.750000  0.893574  0.096390  1
  P  P27  1  0.250000  0.106426  0.903610  1
  P  P28  1  0.250000  0.766394  0.354399  1
  P  P29  1  0.750000  0.233606  0.645601  1
  P  P30  1  0.750000  0.266394  0.145601  1
  P  P31  1  0.250000  0.733606  0.854399  1
