# generated using pymatgen
data_Dy12Tc3Ag
_symmetry_space_group_name_H-M   'P 1'
_cell_length_a   6.32589776
_cell_length_b   7.45791615
_cell_length_c   9.26588500
_cell_angle_alpha   90.00000000
_cell_angle_beta   90.00000000
_cell_angle_gamma   89.64242378
_symmetry_Int_Tables_number   1
_chemical_formula_structural   Dy12Tc3Ag
_chemical_formula_sum   'Dy12 Tc3 Ag1'
_cell_volume   437.13754918
_cell_formula_units_Z   1
loop_
 _symmetry_equiv_pos_site_id
 _symmetry_equiv_pos_as_xyz
  1  'x, y, z'
loop_
 _atom_site_type_symbol
 _atom_site_label
 _atom_site_symmetry_multiplicity
 _atom_site_fract_x
 _atom_site_fract_y
 _atom_site_fract_z
 _atom_site_occupancy
  Dy  Dy0  1  0.329600  0.675049  0.070154  1
  Dy  Dy1  1  0.166864  0.181457  0.434629  1
  Dy  Dy2  1  0.666521  0.308485  0.552500  1
  Dy  Dy3  1  0.850144  0.833833  0.943941  1
  Dy  Dy4  1  0.666521  0.308485  0.947500  1
  Dy  Dy5  1  0.850144  0.833833  0.556059  1
  Dy  Dy6  1  0.329600  0.675049  0.429846  1
  Dy  Dy7  1  0.166864  0.181457  0.065371  1
  Dy  Dy8  1  0.867904  0.543938  0.250000  1
  Dy  Dy9  1  0.624290  0.034509  0.250000  1
  Dy  Dy10  1  0.112178  0.450713  0.750000  1
  Dy  Dy11  1  0.369351  0.979552  0.750000  1
  Tc  Tc12  1  0.040561  0.886276  0.250000  1
  Tc  Tc13  1  0.463373  0.384366  0.250000  1
  Tc  Tc14  1  0.943023  0.113760  0.750000  1
  Ag  Ag15  1  0.553058  0.609239  0.750000  1
