# generated using pymatgen
data_Mg6AlSiPd4
_symmetry_space_group_name_H-M   'P 1'
_cell_length_a   8.37765820
_cell_length_b   8.37765850
_cell_length_c   8.39935700
_cell_angle_alpha   59.91428105
_cell_angle_beta   59.91427985
_cell_angle_gamma   59.77410833
_symmetry_Int_Tables_number   1
_chemical_formula_structural   Mg6AlSiPd4
_chemical_formula_sum   'Mg12 Al2 Si2 Pd8'
_cell_volume   415.59224620
_cell_formula_units_Z   2
loop_
 _symmetry_equiv_pos_site_id
 _symmetry_equiv_pos_as_xyz
  1  'x, y, z'
loop_
 _atom_site_type_symbol
 _atom_site_label
 _atom_site_symmetry_multiplicity
 _atom_site_fract_x
 _atom_site_fract_y
 _atom_site_fract_z
 _atom_site_occupancy
  Mg  Mg0  1  0.194013  0.804950  0.195585  1
  Mg  Mg1  1  0.195009  0.195009  0.804991  1
  Mg  Mg2  1  0.194013  0.804950  0.805452  1
  Mg  Mg3  1  0.055987  0.445050  0.054415  1
  Mg  Mg4  1  0.804950  0.194013  0.195585  1
  Mg  Mg5  1  0.055987  0.445050  0.444548  1
  Mg  Mg6  1  0.445050  0.055987  0.444548  1
  Mg  Mg7  1  0.444784  0.444784  0.055216  1
  Mg  Mg8  1  0.805216  0.805216  0.194784  1
  Mg  Mg9  1  0.445050  0.055987  0.054415  1
  Mg  Mg10  1  0.804950  0.194013  0.805452  1
  Mg  Mg11  1  0.054991  0.054991  0.445009  1
  Al  Al12  1  0.625000  0.625000  0.625000  1
  Al  Al13  1  0.625000  0.625000  0.125000  1
  Si  Si14  1  0.125000  0.625000  0.625000  1
  Si  Si15  1  0.625000  0.125000  0.625000  1
  Pd  Pd16  1  0.842334  0.484425  0.836621  1
  Pd  Pd17  1  0.839490  0.839490  0.833723  1
  Pd  Pd18  1  0.484425  0.842334  0.836621  1
  Pd  Pd19  1  0.407666  0.765575  0.413379  1
  Pd  Pd20  1  0.839490  0.839490  0.487297  1
  Pd  Pd21  1  0.765575  0.407666  0.413379  1
  Pd  Pd22  1  0.410510  0.410510  0.416277  1
  Pd  Pd23  1  0.410510  0.410510  0.762703  1
