# generated using pymatgen
data_Dy3Er13Cd4Co3Ni
_symmetry_space_group_name_H-M   'P 1'
_cell_length_a   9.43179210
_cell_length_b   9.42148226
_cell_length_c   9.42148300
_cell_angle_alpha   59.99999387
_cell_angle_beta   60.03614661
_cell_angle_gamma   60.03614876
_symmetry_Int_Tables_number   1
_chemical_formula_structural   Dy3Er13Cd4Co3Ni
_chemical_formula_sum   'Dy3 Er13 Cd4 Co3 Ni1'
_cell_volume   592.31778805
_cell_formula_units_Z   1
loop_
 _symmetry_equiv_pos_site_id
 _symmetry_equiv_pos_as_xyz
  1  'x, y, z'
loop_
 _atom_site_type_symbol
 _atom_site_label
 _atom_site_symmetry_multiplicity
 _atom_site_fract_x
 _atom_site_fract_y
 _atom_site_fract_z
 _atom_site_occupancy
  Dy  Dy0  1  0.344488  0.349275  0.349275  1
  Dy  Dy1  1  0.344488  0.349275  0.956962  1
  Dy  Dy2  1  0.344488  0.956962  0.349275  1
  Er  Er3  1  0.960923  0.346359  0.346359  1
  Er  Er4  1  0.816358  0.187320  0.187320  1
  Er  Er5  1  0.187184  0.812847  0.812847  1
  Er  Er6  1  0.187184  0.812847  0.187123  1
  Er  Er7  1  0.816358  0.187320  0.809002  1
  Er  Er8  1  0.187184  0.187123  0.812847  1
  Er  Er9  1  0.816358  0.809002  0.187320  1
  Er  Er10  1  0.935685  0.563387  0.563387  1
  Er  Er11  1  0.561764  0.936801  0.936801  1
  Er  Er12  1  0.561764  0.936801  0.564634  1
  Er  Er13  1  0.935685  0.563387  0.937540  1
  Er  Er14  1  0.561764  0.564634  0.936801  1
  Er  Er15  1  0.935685  0.937540  0.563387  1
  Cd  Cd16  1  0.581575  0.580277  0.580277  1
  Cd  Cd17  1  0.581575  0.580277  0.257871  1
  Cd  Cd18  1  0.581575  0.257871  0.580277  1
  Cd  Cd19  1  0.256524  0.581159  0.581159  1
  Co  Co20  1  0.141183  0.140998  0.140998  1
  Co  Co21  1  0.141183  0.140998  0.576821  1
  Co  Co22  1  0.141183  0.576821  0.140998  1
  Ni  Ni23  1  0.577842  0.140720  0.140720  1
