# generated using pymatgen
data_TbDyFe7Ni5P7
_symmetry_space_group_name_H-M   'P 1'
_cell_length_a   9.04135810
_cell_length_b   9.06447372
_cell_length_c   3.65481900
_cell_angle_alpha   90.00000000
_cell_angle_beta   90.00000000
_cell_angle_gamma   120.19123887
_symmetry_Int_Tables_number   1
_chemical_formula_structural   TbDyFe7Ni5P7
_chemical_formula_sum   'Tb1 Dy1 Fe7 Ni5 P7'
_cell_volume   258.90034781
_cell_formula_units_Z   1
loop_
 _symmetry_equiv_pos_site_id
 _symmetry_equiv_pos_as_xyz
  1  'x, y, z'
loop_
 _atom_site_type_symbol
 _atom_site_label
 _atom_site_symmetry_multiplicity
 _atom_site_fract_x
 _atom_site_fract_y
 _atom_site_fract_z
 _atom_site_occupancy
  Tb  Tb0  1  0.997663  0.998705  0.500000  1
  Dy  Dy1  1  0.336086  0.668148  0.000000  1
  Fe  Fe2  1  0.942103  0.489210  0.000000  1
  Fe  Fe3  1  0.509298  0.450851  0.000000  1
  Fe  Fe4  1  0.548327  0.062232  0.000000  1
  Fe  Fe5  1  0.619046  0.899264  0.500000  1
  Fe  Fe6  1  0.762445  0.552874  0.500000  1
  Fe  Fe7  1  0.449216  0.212162  0.500000  1
  Fe  Fe8  1  0.786137  0.239265  0.500000  1
  Ni  Ni9  1  0.727607  0.764069  0.000000  1
  Ni  Ni10  1  0.232899  0.958917  0.000000  1
  Ni  Ni11  1  0.037511  0.269857  0.000000  1
  Ni  Ni12  1  0.104735  0.720638  0.500000  1
  Ni  Ni13  1  0.278641  0.382196  0.500000  1
  P  P14  1  0.959815  0.737164  0.000000  1
  P  P15  1  0.261194  0.219879  0.000000  1
  P  P16  1  0.772191  0.032924  0.000000  1
  P  P17  1  0.064386  0.447229  0.500000  1
  P  P18  1  0.553757  0.622679  0.500000  1
  P  P19  1  0.389814  0.935879  0.500000  1
  P  P20  1  0.667129  0.335860  0.000000  1
