# generated using pymatgen
data_Tb2LuFe2Co7P6
_symmetry_space_group_name_H-M   'P 1'
_cell_length_a   3.69486900
_cell_length_b   10.54559400
_cell_length_c   12.09458200
_cell_angle_alpha   90.00000000
_cell_angle_beta   90.00000000
_cell_angle_gamma   90.00000000
_symmetry_Int_Tables_number   1
_chemical_formula_structural   Tb2LuFe2Co7P6
_chemical_formula_sum   'Tb4 Lu2 Fe4 Co14 P12'
_cell_volume   471.26040898
_cell_formula_units_Z   2
loop_
 _symmetry_equiv_pos_site_id
 _symmetry_equiv_pos_as_xyz
  1  'x, y, z'
loop_
 _atom_site_type_symbol
 _atom_site_label
 _atom_site_symmetry_multiplicity
 _atom_site_fract_x
 _atom_site_fract_y
 _atom_site_fract_z
 _atom_site_occupancy
  Tb  Tb0  1  0.000000  0.500000  0.522177  1
  Tb  Tb1  1  0.500000  0.000000  0.476642  1
  Tb  Tb2  1  0.000000  0.680908  0.796103  1
  Tb  Tb3  1  0.000000  0.319092  0.796103  1
  Lu  Lu4  1  0.500000  0.819766  0.203974  1
  Lu  Lu5  1  0.500000  0.180234  0.203974  1
  Fe  Fe6  1  0.500000  0.500000  0.155819  1
  Fe  Fe7  1  0.000000  0.000000  0.845131  1
  Fe  Fe8  1  0.000000  0.500000  0.990470  1
  Fe  Fe9  1  0.500000  0.000000  0.013360  1
  Co  Co10  1  0.500000  0.500000  0.701431  1
  Co  Co11  1  0.000000  0.000000  0.296956  1
  Co  Co12  1  0.500000  0.330922  0.996142  1
  Co  Co13  1  0.500000  0.669078  0.996142  1
  Co  Co14  1  0.000000  0.167500  0.007523  1
  Co  Co15  1  0.000000  0.832500  0.007523  1
  Co  Co16  1  0.500000  0.295946  0.428526  1
  Co  Co17  1  0.500000  0.704054  0.428526  1
  Co  Co18  1  0.000000  0.203134  0.568495  1
  Co  Co19  1  0.000000  0.796866  0.568495  1
  Co  Co20  1  0.500000  0.879328  0.709288  1
  Co  Co21  1  0.500000  0.120672  0.709288  1
  Co  Co22  1  0.000000  0.622075  0.289401  1
  Co  Co23  1  0.000000  0.377925  0.289401  1
  P  P24  1  0.500000  0.500000  0.886212  1
  P  P25  1  0.000000  0.000000  0.117008  1
  P  P26  1  0.500000  0.500000  0.341059  1
  P  P27  1  0.000000  0.000000  0.658363  1
  P  P28  1  0.500000  0.309322  0.615570  1
  P  P29  1  0.500000  0.690678  0.615570  1
  P  P30  1  0.000000  0.189422  0.380964  1
  P  P31  1  0.000000  0.810578  0.380964  1
  P  P32  1  0.500000  0.848457  0.894241  1
  P  P33  1  0.500000  0.151543  0.894241  1
  P  P34  1  0.000000  0.654093  0.107460  1
  P  P35  1  0.000000  0.345907  0.107460  1
