# generated using pymatgen
data_La4ZrIr3
_symmetry_space_group_name_H-M   'P 1'
_cell_length_a   11.38093700
_cell_length_b   11.38093700
_cell_length_c   6.40846900
_cell_angle_alpha   90.00000000
_cell_angle_beta   90.00000000
_cell_angle_gamma   90.00000000
_symmetry_Int_Tables_number   1
_chemical_formula_structural   La4ZrIr3
_chemical_formula_sum   'La16 Zr4 Ir12'
_cell_volume   830.06160617
_cell_formula_units_Z   4
loop_
 _symmetry_equiv_pos_site_id
 _symmetry_equiv_pos_as_xyz
  1  'x, y, z'
loop_
 _atom_site_type_symbol
 _atom_site_label
 _atom_site_symmetry_multiplicity
 _atom_site_fract_x
 _atom_site_fract_y
 _atom_site_fract_z
 _atom_site_occupancy
  La  La0  1  0.086744  0.286115  0.119235  1
  La  La1  1  0.786115  0.413256  0.119235  1
  La  La2  1  0.213885  0.586744  0.119235  1
  La  La3  1  0.913256  0.713885  0.119235  1
  La  La4  1  0.413256  0.786115  0.380765  1
  La  La5  1  0.586744  0.213885  0.380765  1
  La  La6  1  0.286115  0.086744  0.380765  1
  La  La7  1  0.713885  0.913256  0.380765  1
  La  La8  1  0.413256  0.213885  0.880765  1
  La  La9  1  0.713885  0.086744  0.880765  1
  La  La10  1  0.286115  0.913256  0.880765  1
  La  La11  1  0.586744  0.786115  0.880765  1
  La  La12  1  0.086744  0.713885  0.619235  1
  La  La13  1  0.913256  0.286115  0.619235  1
  La  La14  1  0.213885  0.413256  0.619235  1
  La  La15  1  0.786115  0.586744  0.619235  1
  Zr  Zr16  1  0.000000  0.000000  0.000000  1
  Zr  Zr17  1  0.500000  0.500000  0.000000  1
  Zr  Zr18  1  0.500000  0.500000  0.500000  1
  Zr  Zr19  1  0.000000  0.000000  0.500000  1
  Ir  Ir20  1  0.137447  0.862553  0.250000  1
  Ir  Ir21  1  0.362553  0.362553  0.250000  1
  Ir  Ir22  1  0.637447  0.637447  0.250000  1
  Ir  Ir23  1  0.862553  0.137447  0.250000  1
  Ir  Ir24  1  0.362553  0.637447  0.750000  1
  Ir  Ir25  1  0.137447  0.137447  0.750000  1
  Ir  Ir26  1  0.862553  0.862553  0.750000  1
  Ir  Ir27  1  0.637447  0.362553  0.750000  1
  Ir  Ir28  1  0.000000  0.500000  0.380018  1
  Ir  Ir29  1  0.500000  0.000000  0.119982  1
  Ir  Ir30  1  0.500000  0.000000  0.619982  1
  Ir  Ir31  1  0.000000  0.500000  0.880018  1
