# generated using pymatgen
data_Th4Ta3Ti3Si8
_symmetry_space_group_name_H-M   'P 1'
_cell_length_a   7.17793003
_cell_length_b   7.17856211
_cell_length_c   13.32162005
_cell_angle_alpha   90.01826664
_cell_angle_beta   90.06098222
_cell_angle_gamma   90.00713091
_symmetry_Int_Tables_number   1
_chemical_formula_structural   Th4Ta3Ti3Si8
_chemical_formula_sum   'Th8 Ta6 Ti6 Si16'
_cell_volume   686.42557184
_cell_formula_units_Z   2
loop_
 _symmetry_equiv_pos_site_id
 _symmetry_equiv_pos_as_xyz
  1  'x, y, z'
loop_
 _atom_site_type_symbol
 _atom_site_label
 _atom_site_symmetry_multiplicity
 _atom_site_fract_x
 _atom_site_fract_y
 _atom_site_fract_z
 _atom_site_occupancy
  Th  Th0  1  0.337847  0.001634  0.468877  1
  Th  Th1  1  0.498399  0.837761  0.718762  1
  Th  Th2  1  0.501808  0.162145  0.218771  1
  Th  Th3  1  0.837363  0.497418  0.281707  1
  Th  Th4  1  0.162333  0.502212  0.781532  1
  Th  Th5  1  0.662082  0.998527  0.968599  1
  Th  Th6  1  0.001920  0.337810  0.531472  1
  Th  Th7  1  0.997138  0.662609  0.031844  1
  Ta  Ta8  1  0.329620  0.330248  0.999684  1
  Ta  Ta9  1  0.171167  0.829445  0.249126  1
  Ta  Ta10  1  0.831339  0.170297  0.750018  1
  Ta  Ta11  1  0.670786  0.670345  0.499401  1
  Ta  Ta12  1  0.158563  0.006210  0.876786  1
  Ta  Ta13  1  0.492717  0.658587  0.126428  1
  Ti  Ti14  1  0.506506  0.340820  0.626894  1
  Ti  Ti15  1  0.659112  0.493332  0.874002  1
  Ti  Ti16  1  0.342008  0.506966  0.374039  1
  Ti  Ti17  1  0.840757  0.992361  0.376544  1
  Ti  Ti18  1  0.006897  0.157953  0.123572  1
  Ti  Ti19  1  0.993132  0.840496  0.624238  1
  Si  Si20  1  0.198280  0.123987  0.686453  1
  Si  Si21  1  0.376452  0.699077  0.936114  1
  Si  Si22  1  0.623436  0.302324  0.437309  1
  Si  Si23  1  0.697820  0.374444  0.063063  1
  Si  Si24  1  0.303383  0.623800  0.562566  1
  Si  Si25  1  0.801736  0.877202  0.187111  1
  Si  Si26  1  0.124098  0.196357  0.312660  1
  Si  Si27  1  0.874856  0.802180  0.812918  1
  Si  Si28  1  0.287582  0.959659  0.065110  1
  Si  Si29  1  0.541288  0.788775  0.315497  1
  Si  Si30  1  0.459573  0.213341  0.814329  1
  Si  Si31  1  0.787902  0.541289  0.684488  1
  Si  Si32  1  0.210328  0.457123  0.185344  1
  Si  Si33  1  0.712519  0.040989  0.564792  1
  Si  Si34  1  0.957727  0.289728  0.935081  1
  Si  Si35  1  0.041525  0.712550  0.434868  1
