# generated using pymatgen
data_K3YbOs2O9
_symmetry_space_group_name_H-M   'P 1'
_cell_length_a   6.03904700
_cell_length_b   6.03904615
_cell_length_c   14.48440200
_cell_angle_alpha   90.00000000
_cell_angle_beta   90.00000000
_cell_angle_gamma   119.99998823
_symmetry_Int_Tables_number   1
_chemical_formula_structural   K3YbOs2O9
_chemical_formula_sum   'K6 Yb2 Os4 O18'
_cell_volume   457.47567954
_cell_formula_units_Z   2
loop_
 _symmetry_equiv_pos_site_id
 _symmetry_equiv_pos_as_xyz
  1  'x, y, z'
loop_
 _atom_site_type_symbol
 _atom_site_label
 _atom_site_symmetry_multiplicity
 _atom_site_fract_x
 _atom_site_fract_y
 _atom_site_fract_z
 _atom_site_occupancy
  K  K0  1  0.000000  0.000000  0.250000  1
  K  K1  1  0.000000  0.000000  0.750000  1
  K  K2  1  0.333333  0.666667  0.392638  1
  K  K3  1  0.666667  0.333333  0.607362  1
  K  K4  1  0.666667  0.333333  0.892638  1
  K  K5  1  0.333333  0.666667  0.107362  1
  Yb  Yb6  1  0.000000  0.000000  0.500000  1
  Yb  Yb7  1  0.000000  0.000000  0.000000  1
  Os  Os8  1  0.666667  0.333333  0.349941  1
  Os  Os9  1  0.333333  0.666667  0.650059  1
  Os  Os10  1  0.333333  0.666667  0.849941  1
  Os  Os11  1  0.666667  0.333333  0.150059  1
  O  O12  1  0.532046  0.467954  0.250000  1
  O  O13  1  0.532046  0.064090  0.250000  1
  O  O14  1  0.935910  0.467954  0.250000  1
  O  O15  1  0.467954  0.532046  0.750000  1
  O  O16  1  0.467954  0.935910  0.750000  1
  O  O17  1  0.064090  0.532046  0.750000  1
  O  O18  1  0.360861  0.180431  0.412992  1
  O  O19  1  0.819569  0.180431  0.412992  1
  O  O20  1  0.819569  0.639139  0.412992  1
  O  O21  1  0.639139  0.819569  0.587008  1
  O  O22  1  0.180431  0.819569  0.587008  1
  O  O23  1  0.180431  0.360861  0.587008  1
  O  O24  1  0.639139  0.819569  0.912992  1
  O  O25  1  0.180431  0.819569  0.912992  1
  O  O26  1  0.180431  0.360861  0.912992  1
  O  O27  1  0.360861  0.180431  0.087008  1
  O  O28  1  0.819569  0.180431  0.087008  1
  O  O29  1  0.819569  0.639139  0.087008  1
