# generated using pymatgen
data_Dy4InPt11
_symmetry_space_group_name_H-M   'P 1'
_cell_length_a   4.20663600
_cell_length_b   5.85066703
_cell_length_c   11.68692169
_cell_angle_alpha   87.66950557
_cell_angle_beta   90.00000000
_cell_angle_gamma   90.00000000
_symmetry_Int_Tables_number   1
_chemical_formula_structural   Dy4InPt11
_chemical_formula_sum   'Dy4 In1 Pt11'
_cell_volume   287.39624830
_cell_formula_units_Z   1
loop_
 _symmetry_equiv_pos_site_id
 _symmetry_equiv_pos_as_xyz
  1  'x, y, z'
loop_
 _atom_site_type_symbol
 _atom_site_label
 _atom_site_symmetry_multiplicity
 _atom_site_fract_x
 _atom_site_fract_y
 _atom_site_fract_z
 _atom_site_occupancy
  Dy  Dy0  1  0.500000  0.754141  0.375967  1
  Dy  Dy1  1  0.500000  0.719881  0.862180  1
  Dy  Dy2  1  0.500000  0.280119  0.137820  1
  Dy  Dy3  1  0.500000  0.245859  0.624033  1
  In  In4  1  0.000000  0.000000  0.000000  1
  Pt  Pt5  1  0.000000  0.013296  0.249482  1
  Pt  Pt6  1  0.000000  0.986704  0.750518  1
  Pt  Pt7  1  0.000000  0.500000  0.000000  1
  Pt  Pt8  1  0.000000  0.500000  0.500000  1
  Pt  Pt9  1  0.000000  0.515568  0.250089  1
  Pt  Pt10  1  0.000000  0.484432  0.749911  1
  Pt  Pt11  1  0.500000  0.252728  0.377654  1
  Pt  Pt12  1  0.500000  0.230222  0.880581  1
  Pt  Pt13  1  0.500000  0.769778  0.119419  1
  Pt  Pt14  1  0.500000  0.747272  0.622346  1
  Pt  Pt15  1  0.000000  0.000000  0.500000  1
