# generated using pymatgen
data_Ta2PdRu2Pt3
_symmetry_space_group_name_H-M   'P 1'
_cell_length_a   3.99270100
_cell_length_b   3.98108600
_cell_length_c   7.80389300
_cell_angle_alpha   90.00000000
_cell_angle_beta   90.00000000
_cell_angle_gamma   90.00000000
_symmetry_Int_Tables_number   1
_chemical_formula_structural   Ta2PdRu2Pt3
_chemical_formula_sum   'Ta2 Pd1 Ru2 Pt3'
_cell_volume   124.04511156
_cell_formula_units_Z   1
loop_
 _symmetry_equiv_pos_site_id
 _symmetry_equiv_pos_as_xyz
  1  'x, y, z'
loop_
 _atom_site_type_symbol
 _atom_site_label
 _atom_site_symmetry_multiplicity
 _atom_site_fract_x
 _atom_site_fract_y
 _atom_site_fract_z
 _atom_site_occupancy
  Ta  Ta0  1  0.000000  0.000000  0.234526  1
  Ta  Ta1  1  0.000000  0.000000  0.765474  1
  Pd  Pd2  1  0.500000  0.000000  0.500000  1
  Ru  Ru3  1  0.000000  0.500000  0.000000  1
  Ru  Ru4  1  0.500000  0.000000  0.000000  1
  Pt  Pt5  1  0.500000  0.500000  0.246278  1
  Pt  Pt6  1  0.500000  0.500000  0.753722  1
  Pt  Pt7  1  0.000000  0.500000  0.500000  1
