# generated using pymatgen
data_Nd8Mg3Zn5(Ir3Rh)2
_symmetry_space_group_name_H-M   'P 1'
_cell_length_a   4.10228500
_cell_length_b   7.34452746
_cell_length_c   16.74871978
_cell_angle_alpha   89.94941087
_cell_angle_beta   90.00000000
_cell_angle_gamma   90.00000000
_symmetry_Int_Tables_number   1
_chemical_formula_structural   Nd8Mg3Zn5(Ir3Rh)2
_chemical_formula_sum   'Nd8 Mg3 Zn5 Ir6 Rh2'
_cell_volume   504.62775720
_cell_formula_units_Z   1
loop_
 _symmetry_equiv_pos_site_id
 _symmetry_equiv_pos_as_xyz
  1  'x, y, z'
loop_
 _atom_site_type_symbol
 _atom_site_label
 _atom_site_symmetry_multiplicity
 _atom_site_fract_x
 _atom_site_fract_y
 _atom_site_fract_z
 _atom_site_occupancy
  Nd  Nd0  1  0.250000  0.167719  0.939886  1
  Nd  Nd1  1  0.250000  0.660754  0.560474  1
  Nd  Nd2  1  0.750000  0.333504  0.436742  1
  Nd  Nd3  1  0.750000  0.958484  0.280771  1
  Nd  Nd4  1  0.750000  0.832336  0.061123  1
  Nd  Nd5  1  0.750000  0.448108  0.210997  1
  Nd  Nd6  1  0.250000  0.042638  0.722023  1
  Nd  Nd7  1  0.250000  0.552506  0.788870  1
  Mg  Mg8  1  0.750000  0.002815  0.562607  1
  Mg  Mg9  1  0.250000  0.628277  0.347947  1
  Mg  Mg10  1  0.750000  0.372824  0.652344  1
  Zn  Zn11  1  0.250000  0.498539  0.059830  1
  Zn  Zn12  1  0.750000  0.502018  0.940428  1
  Zn  Zn13  1  0.250000  0.996693  0.436466  1
  Zn  Zn14  1  0.250000  0.122995  0.148872  1
  Zn  Zn15  1  0.750000  0.876514  0.852173  1
  Ir  Ir16  1  0.750000  0.758342  0.436935  1
  Ir  Ir17  1  0.250000  0.247018  0.309631  1
  Ir  Ir18  1  0.750000  0.252745  0.815556  1
  Ir  Ir19  1  0.750000  0.752600  0.689928  1
  Ir  Ir20  1  0.250000  0.244155  0.561103  1
  Ir  Ir21  1  0.250000  0.747927  0.185060  1
  Rh  Rh22  1  0.750000  0.256241  0.062919  1
  Rh  Rh23  1  0.250000  0.744251  0.937313  1
