# generated using pymatgen
data_Cs4Mn3TcN8
_symmetry_space_group_name_H-M   'P 1'
_cell_length_a   5.84710700
_cell_length_b   8.27358200
_cell_length_c   11.70978200
_cell_angle_alpha   90.00000000
_cell_angle_beta   90.00000000
_cell_angle_gamma   90.00000000
_symmetry_Int_Tables_number   1
_chemical_formula_structural   Cs4Mn3TcN8
_chemical_formula_sum   'Cs8 Mn6 Tc2 N16'
_cell_volume   566.47849407
_cell_formula_units_Z   2
loop_
 _symmetry_equiv_pos_site_id
 _symmetry_equiv_pos_as_xyz
  1  'x, y, z'
loop_
 _atom_site_type_symbol
 _atom_site_label
 _atom_site_symmetry_multiplicity
 _atom_site_fract_x
 _atom_site_fract_y
 _atom_site_fract_z
 _atom_site_occupancy
  Cs  Cs0  1  0.750000  0.128472  0.500000  1
  Cs  Cs1  1  0.250000  0.871528  0.000000  1
  Cs  Cs2  1  0.250000  0.886419  0.500000  1
  Cs  Cs3  1  0.750000  0.113581  0.000000  1
  Cs  Cs4  1  0.758630  0.371469  0.758902  1
  Cs  Cs5  1  0.258630  0.628531  0.741098  1
  Cs  Cs6  1  0.241370  0.628531  0.258902  1
  Cs  Cs7  1  0.741370  0.371469  0.241098  1
  Mn  Mn8  1  0.250000  0.360286  0.500000  1
  Mn  Mn9  1  0.750000  0.639714  0.000000  1
  Mn  Mn10  1  0.254945  0.118623  0.746254  1
  Mn  Mn11  1  0.754945  0.881377  0.753746  1
  Mn  Mn12  1  0.745055  0.881377  0.246254  1
  Mn  Mn13  1  0.245055  0.118623  0.253746  1
  Tc  Tc14  1  0.750000  0.622608  0.500000  1
  Tc  Tc15  1  0.250000  0.377392  0.000000  1
  N  N16  1  0.506654  0.001811  0.749815  1
  N  N17  1  0.006654  0.998189  0.750185  1
  N  N18  1  0.493346  0.998189  0.249815  1
  N  N19  1  0.993346  0.001811  0.250185  1
  N  N20  1  0.252020  0.249417  0.870157  1
  N  N21  1  0.752020  0.750583  0.629843  1
  N  N22  1  0.747980  0.750583  0.370157  1
  N  N23  1  0.247980  0.249417  0.129843  1
  N  N24  1  0.748433  0.761729  0.122204  1
  N  N25  1  0.248433  0.238271  0.377796  1
  N  N26  1  0.251567  0.238271  0.622204  1
  N  N27  1  0.751567  0.761729  0.877796  1
  N  N28  1  0.993052  0.511109  0.999829  1
  N  N29  1  0.493052  0.488891  0.500171  1
  N  N30  1  0.006948  0.488891  0.499829  1
  N  N31  1  0.506948  0.511109  0.000171  1
