# generated using pymatgen
data_NdCr2BiF14
_symmetry_space_group_name_H-M   'P 1'
_cell_length_a   5.55813565
_cell_length_b   5.95318900
_cell_length_c   8.13985700
_cell_angle_alpha   100.98182286
_cell_angle_beta   89.68566277
_cell_angle_gamma   90.02340431
_symmetry_Int_Tables_number   1
_chemical_formula_structural   NdCr2BiF14
_chemical_formula_sum   'Nd1 Cr2 Bi1 F14'
_cell_volume   264.40051445
_cell_formula_units_Z   1
loop_
 _symmetry_equiv_pos_site_id
 _symmetry_equiv_pos_as_xyz
  1  'x, y, z'
loop_
 _atom_site_type_symbol
 _atom_site_label
 _atom_site_symmetry_multiplicity
 _atom_site_fract_x
 _atom_site_fract_y
 _atom_site_fract_z
 _atom_site_occupancy
  Nd  Nd0  1  0.204529  0.335240  0.308380  1
  Cr  Cr1  1  0.713270  0.808566  0.220698  1
  Cr  Cr2  1  0.212896  0.190995  0.778120  1
  Bi  Bi3  1  0.696701  0.657806  0.685033  1
  F  F4  1  0.860342  0.421416  0.471769  1
  F  F5  1  0.368101  0.578025  0.531300  1
  F  F6  1  0.409250  0.941458  0.781396  1
  F  F7  1  0.912714  0.057556  0.220100  1
  F  F8  1  0.944093  0.001473  0.765198  1
  F  F9  1  0.445967  0.004380  0.236888  1
  F  F10  1  0.022929  0.447716  0.790017  1
  F  F11  1  0.516562  0.553200  0.211420  1
  F  F12  1  0.702286  0.766206  0.994125  1
  F  F13  1  0.208335  0.237291  0.008139  1
  F  F14  1  0.722699  0.863146  0.452069  1
  F  F15  1  0.226825  0.137003  0.547369  1
  F  F16  1  0.496888  0.374078  0.788888  1
  F  F17  1  0.988332  0.624442  0.209093  1
