# generated using pymatgen
data_Tb9HoIn8(PdPt)2
_symmetry_space_group_name_H-M   'P 1'
_cell_length_a   3.63604700
_cell_length_b   8.19597517
_cell_length_c   18.36750515
_cell_angle_alpha   90.21232813
_cell_angle_beta   90.00000000
_cell_angle_gamma   90.00000000
_symmetry_Int_Tables_number   1
_chemical_formula_structural   Tb9HoIn8(PdPt)2
_chemical_formula_sum   'Tb9 Ho1 In8 Pd2 Pt2'
_cell_volume   547.36536112
_cell_formula_units_Z   1
loop_
 _symmetry_equiv_pos_site_id
 _symmetry_equiv_pos_as_xyz
  1  'x, y, z'
loop_
 _atom_site_type_symbol
 _atom_site_label
 _atom_site_symmetry_multiplicity
 _atom_site_fract_x
 _atom_site_fract_y
 _atom_site_fract_z
 _atom_site_occupancy
  Tb  Tb0  1  0.000000  0.118227  0.415876  1
  Tb  Tb1  1  0.000000  0.881619  0.584003  1
  Tb  Tb2  1  0.000000  0.382550  0.915310  1
  Tb  Tb3  1  0.000000  0.617476  0.084854  1
  Tb  Tb4  1  0.000000  0.246230  0.219100  1
  Tb  Tb5  1  0.000000  0.753816  0.780899  1
  Tb  Tb6  1  0.000000  0.260792  0.720189  1
  Tb  Tb7  1  0.000000  0.000016  0.000032  1
  Tb  Tb8  1  0.000000  0.499980  0.499993  1
  Ho  Ho9  1  0.000000  0.739230  0.279575  1
  In  In10  1  0.500000  0.422775  0.350905  1
  In  In11  1  0.500000  0.577566  0.649017  1
  In  In12  1  0.500000  0.075379  0.850260  1
  In  In13  1  0.500000  0.924328  0.149956  1
  In  In14  1  0.500000  0.292413  0.066776  1
  In  In15  1  0.500000  0.707749  0.933206  1
  In  In16  1  0.500000  0.206850  0.567231  1
  In  In17  1  0.500000  0.792986  0.432512  1
  Pd  Pd18  1  0.500000  0.023175  0.303324  1
  Pd  Pd19  1  0.500000  0.975689  0.696571  1
  Pt  Pt20  1  0.500000  0.475355  0.803262  1
  Pt  Pt21  1  0.500000  0.525798  0.197148  1
