# generated using pymatgen
data_Y7HoTi11NbSi16
_symmetry_space_group_name_H-M   'P 1'
_cell_length_a   7.06469534
_cell_length_b   7.06397243
_cell_length_c   12.96935826
_cell_angle_alpha   89.99076093
_cell_angle_beta   90.01578105
_cell_angle_gamma   90.03597884
_symmetry_Int_Tables_number   1
_chemical_formula_structural   Y7HoTi11NbSi16
_chemical_formula_sum   'Y7 Ho1 Ti11 Nb1 Si16'
_cell_volume   647.23323950
_cell_formula_units_Z   1
loop_
 _symmetry_equiv_pos_site_id
 _symmetry_equiv_pos_as_xyz
  1  'x, y, z'
loop_
 _atom_site_type_symbol
 _atom_site_label
 _atom_site_symmetry_multiplicity
 _atom_site_fract_x
 _atom_site_fract_y
 _atom_site_fract_z
 _atom_site_occupancy
  Y  Y0  1  0.341599  0.002114  0.466731  1
  Y  Y1  1  0.497846  0.840423  0.716643  1
  Y  Y2  1  0.501819  0.158407  0.216036  1
  Y  Y3  1  0.840505  0.497822  0.283409  1
  Y  Y4  1  0.158461  0.501855  0.783736  1
  Y  Y5  1  0.658257  0.998179  0.966810  1
  Y  Y6  1  0.002187  0.341528  0.533332  1
  Ho  Ho7  1  0.998671  0.657843  0.033195  1
  Ti  Ti8  1  0.171437  0.828022  0.249809  1
  Ti  Ti9  1  0.828251  0.171504  0.750040  1
  Ti  Ti10  1  0.672099  0.672016  0.500203  1
  Ti  Ti11  1  0.152728  0.008250  0.876895  1
  Ti  Ti12  1  0.493005  0.651043  0.124744  1
  Ti  Ti13  1  0.507106  0.348463  0.625521  1
  Ti  Ti14  1  0.651427  0.493426  0.875257  1
  Ti  Ti15  1  0.348431  0.506670  0.374421  1
  Ti  Ti16  1  0.847786  0.992923  0.376437  1
  Ti  Ti17  1  0.008023  0.153092  0.123220  1
  Ti  Ti18  1  0.992565  0.847680  0.623589  1
  Nb  Nb19  1  0.327032  0.327483  0.000007  1
  Si  Si20  1  0.202869  0.130591  0.684333  1
  Si  Si21  1  0.368529  0.703488  0.934063  1
  Si  Si22  1  0.631104  0.297625  0.434602  1
  Si  Si23  1  0.704187  0.369662  0.065942  1
  Si  Si24  1  0.297645  0.631015  0.565664  1
  Si  Si25  1  0.797674  0.868891  0.184158  1
  Si  Si26  1  0.130730  0.203033  0.315707  1
  Si  Si27  1  0.869567  0.797219  0.815562  1
  Si  Si28  1  0.290136  0.951838  0.064526  1
  Si  Si29  1  0.547178  0.790513  0.314419  1
  Si  Si30  1  0.453900  0.208792  0.812918  1
  Si  Si31  1  0.790456  0.546925  0.685652  1
  Si  Si32  1  0.208141  0.454069  0.186703  1
  Si  Si33  1  0.709299  0.047041  0.564596  1
  Si  Si34  1  0.952343  0.291271  0.935434  1
  Si  Si35  1  0.047009  0.709283  0.435686  1
