# generated using pymatgen
data_YHfU(Co3B2)3
_symmetry_space_group_name_H-M   'P 1'
_cell_length_a   5.76219082
_cell_length_b   5.76219095
_cell_length_c   5.76219077
_cell_angle_alpha   94.57533093
_cell_angle_beta   94.57532936
_cell_angle_gamma   94.57533330
_symmetry_Int_Tables_number   1
_chemical_formula_structural   YHfU(Co3B2)3
_chemical_formula_sum   'Y1 Hf1 U1 Co9 B6'
_cell_volume   189.38811622
_cell_formula_units_Z   1
loop_
 _symmetry_equiv_pos_site_id
 _symmetry_equiv_pos_as_xyz
  1  'x, y, z'
loop_
 _atom_site_type_symbol
 _atom_site_label
 _atom_site_symmetry_multiplicity
 _atom_site_fract_x
 _atom_site_fract_y
 _atom_site_fract_z
 _atom_site_occupancy
  Y  Y0  1  0.669833  0.669833  0.669833  1
  Hf  Hf1  1  0.328870  0.328870  0.328870  1
  U  U2  1  0.003602  0.003602  0.003602  1
  Co  Co3  1  0.491376  0.006312  0.006312  1
  Co  Co4  1  0.006312  0.491376  0.006312  1
  Co  Co5  1  0.006312  0.006312  0.491376  1
  Co  Co6  1  0.694917  0.188558  0.694917  1
  Co  Co7  1  0.694917  0.694917  0.188558  1
  Co  Co8  1  0.188558  0.694917  0.694917  1
  Co  Co9  1  0.308263  0.803070  0.308263  1
  Co  Co10  1  0.308263  0.308263  0.803070  1
  Co  Co11  1  0.803070  0.308263  0.308263  1
  B  B12  1  0.370068  0.003766  0.624020  1
  B  B13  1  0.624020  0.370068  0.003766  1
  B  B14  1  0.003766  0.624020  0.370068  1
  B  B15  1  0.624020  0.003766  0.370068  1
  B  B16  1  0.370068  0.624020  0.003766  1
  B  B17  1  0.003766  0.370068  0.624020  1
