# generated using pymatgen
data_LiDy8Er8Cd(InPt2)2
_symmetry_space_group_name_H-M   'P 1'
_cell_length_a   9.65236301
_cell_length_b   9.65236264
_cell_length_c   9.65856400
_cell_angle_alpha   59.88219029
_cell_angle_beta   59.88218471
_cell_angle_gamma   59.96511654
_symmetry_Int_Tables_number   1
_chemical_formula_structural   LiDy8Er8Cd(InPt2)2
_chemical_formula_sum   'Li1 Dy8 Er8 Cd1 In2 Pt4'
_cell_volume   635.00180855
_cell_formula_units_Z   1
loop_
 _symmetry_equiv_pos_site_id
 _symmetry_equiv_pos_as_xyz
  1  'x, y, z'
loop_
 _atom_site_type_symbol
 _atom_site_label
 _atom_site_symmetry_multiplicity
 _atom_site_fract_x
 _atom_site_fract_y
 _atom_site_fract_z
 _atom_site_occupancy
  Li  Li0  1  0.571490  0.571644  0.572170  1
  Dy  Dy1  1  0.191145  0.191337  0.810280  1
  Dy  Dy2  1  0.812749  0.812457  0.188087  1
  Dy  Dy3  1  0.936513  0.564562  0.564507  1
  Dy  Dy4  1  0.562273  0.936660  0.936852  1
  Dy  Dy5  1  0.565024  0.935969  0.564117  1
  Dy  Dy6  1  0.937981  0.561712  0.936123  1
  Dy  Dy7  1  0.564886  0.564276  0.935731  1
  Dy  Dy8  1  0.938121  0.936071  0.561652  1
  Er  Er9  1  0.351017  0.351215  0.350734  1
  Er  Er10  1  0.351732  0.351633  0.945302  1
  Er  Er11  1  0.351342  0.944926  0.351986  1
  Er  Er12  1  0.944947  0.351701  0.352123  1
  Er  Er13  1  0.809038  0.192365  0.192020  1
  Er  Er14  1  0.188080  0.812566  0.812562  1
  Er  Er15  1  0.191899  0.809766  0.191633  1
  Er  Er16  1  0.812106  0.188309  0.812103  1
  Cd  Cd17  1  0.254344  0.583039  0.582672  1
  In  In18  1  0.582007  0.583214  0.255090  1
  In  In19  1  0.582163  0.255128  0.583088  1
  Pt  Pt20  1  0.143399  0.143356  0.144935  1
  Pt  Pt21  1  0.142509  0.142813  0.570787  1
  Pt  Pt22  1  0.144264  0.570949  0.142812  1
  Pt  Pt23  1  0.570970  0.144329  0.142633  1
