# generated using pymatgen
data_MnBe(VP)2
_symmetry_space_group_name_H-M   'P 1'
_cell_length_a   3.27307700
_cell_length_b   5.85435100
_cell_length_c   7.08759600
_cell_angle_alpha   90.00000000
_cell_angle_beta   90.00000000
_cell_angle_gamma   90.00000000
_symmetry_Int_Tables_number   1
_chemical_formula_structural   MnBe(VP)2
_chemical_formula_sum   'Mn2 Be2 V4 P4'
_cell_volume   135.81068317
_cell_formula_units_Z   2
loop_
 _symmetry_equiv_pos_site_id
 _symmetry_equiv_pos_as_xyz
  1  'x, y, z'
loop_
 _atom_site_type_symbol
 _atom_site_label
 _atom_site_symmetry_multiplicity
 _atom_site_fract_x
 _atom_site_fract_y
 _atom_site_fract_z
 _atom_site_occupancy
  Mn  Mn0  1  0.250000  0.132466  0.556959  1
  Mn  Mn1  1  0.250000  0.632466  0.943041  1
  Be  Be2  1  0.750000  0.866120  0.436271  1
  Be  Be3  1  0.750000  0.366120  0.063729  1
  V  V4  1  0.250000  0.037731  0.166336  1
  V  V5  1  0.250000  0.537731  0.333664  1
  V  V6  1  0.750000  0.962029  0.835076  1
  V  V7  1  0.750000  0.462029  0.664924  1
  P  P8  1  0.250000  0.760930  0.632225  1
  P  P9  1  0.250000  0.260930  0.867775  1
  P  P10  1  0.750000  0.240724  0.360855  1
  P  P11  1  0.750000  0.740724  0.139145  1
