# generated using pymatgen
data_Tm20NiBi8Ru3
_symmetry_space_group_name_H-M   'P 1'
_cell_length_a   7.88041635
_cell_length_b   8.93394100
_cell_length_c   12.27445919
_cell_angle_alpha   90.00000000
_cell_angle_beta   90.27170583
_cell_angle_gamma   90.00000000
_symmetry_Int_Tables_number   1
_chemical_formula_structural   Tm20NiBi8Ru3
_chemical_formula_sum   'Tm20 Ni1 Bi8 Ru3'
_cell_volume   864.15117884
_cell_formula_units_Z   1
loop_
 _symmetry_equiv_pos_site_id
 _symmetry_equiv_pos_as_xyz
  1  'x, y, z'
loop_
 _atom_site_type_symbol
 _atom_site_label
 _atom_site_symmetry_multiplicity
 _atom_site_fract_x
 _atom_site_fract_y
 _atom_site_fract_z
 _atom_site_occupancy
  Tm  Tm0  1  0.840728  0.750000  0.794777  1
  Tm  Tm1  1  0.158870  0.250000  0.207198  1
  Tm  Tm2  1  0.341797  0.250000  0.708002  1
  Tm  Tm3  1  0.656853  0.750000  0.294008  1
  Tm  Tm4  1  0.380396  0.750000  0.693368  1
  Tm  Tm5  1  0.618441  0.250000  0.307828  1
  Tm  Tm6  1  0.880399  0.250000  0.808741  1
  Tm  Tm7  1  0.118257  0.750000  0.189316  1
  Tm  Tm8  1  0.945202  0.750000  0.503062  1
  Tm  Tm9  1  0.055875  0.250000  0.497013  1
  Tm  Tm10  1  0.446644  0.250000  0.997698  1
  Tm  Tm11  1  0.553585  0.750000  0.001631  1
  Tm  Tm12  1  0.674307  0.042306  0.564336  1
  Tm  Tm13  1  0.325028  0.955847  0.435522  1
  Tm  Tm14  1  0.175288  0.957083  0.935537  1
  Tm  Tm15  1  0.325028  0.544153  0.435522  1
  Tm  Tm16  1  0.825516  0.043110  0.063824  1
  Tm  Tm17  1  0.674307  0.457694  0.564336  1
  Tm  Tm18  1  0.825516  0.456890  0.063824  1
  Tm  Tm19  1  0.175288  0.542917  0.935537  1
  Ni  Ni20  1  0.925565  0.750000  0.009737  1
  Bi  Bi21  1  0.571154  0.490700  0.827997  1
  Bi  Bi22  1  0.430348  0.509447  0.171726  1
  Bi  Bi23  1  0.069496  0.509161  0.672701  1
  Bi  Bi24  1  0.430348  0.990553  0.171726  1
  Bi  Bi25  1  0.930016  0.491230  0.326907  1
  Bi  Bi26  1  0.571154  0.009300  0.827997  1
  Bi  Bi27  1  0.930016  0.008770  0.326907  1
  Bi  Bi28  1  0.069496  0.990839  0.672701  1
  Ru  Ru29  1  0.575479  0.750000  0.510891  1
  Ru  Ru30  1  0.424757  0.250000  0.489773  1
  Ru  Ru31  1  0.074847  0.250000  0.989859  1
