# generated using pymatgen
data_ErHf7(Ta3Si4)4
_symmetry_space_group_name_H-M   'P 1'
_cell_length_a   6.86336712
_cell_length_b   6.86631270
_cell_length_c   12.71500135
_cell_angle_alpha   89.94471970
_cell_angle_beta   89.99215885
_cell_angle_gamma   89.95822903
_symmetry_Int_Tables_number   1
_chemical_formula_structural   ErHf7(Ta3Si4)4
_chemical_formula_sum   'Er1 Hf7 Ta12 Si16'
_cell_volume   599.20702604
_cell_formula_units_Z   1
loop_
 _symmetry_equiv_pos_site_id
 _symmetry_equiv_pos_as_xyz
  1  'x, y, z'
loop_
 _atom_site_type_symbol
 _atom_site_label
 _atom_site_symmetry_multiplicity
 _atom_site_fract_x
 _atom_site_fract_y
 _atom_site_fract_z
 _atom_site_occupancy
  Er  Er0  1  0.996901  0.661007  0.030598  1
  Hf  Hf1  1  0.339380  0.999758  0.470237  1
  Hf  Hf2  1  0.500929  0.840129  0.718940  1
  Hf  Hf3  1  0.498478  0.161072  0.221626  1
  Hf  Hf4  1  0.840197  0.501538  0.281218  1
  Hf  Hf5  1  0.161155  0.498264  0.779727  1
  Hf  Hf6  1  0.655888  0.003921  0.968818  1
  Hf  Hf7  1  0.999341  0.339402  0.529771  1
  Ta  Ta8  1  0.332639  0.327747  0.000024  1
  Ta  Ta9  1  0.170440  0.831756  0.251388  1
  Ta  Ta10  1  0.830497  0.169626  0.749191  1
  Ta  Ta11  1  0.669904  0.669894  0.500270  1
  Ta  Ta12  1  0.154866  0.003164  0.871632  1
  Ta  Ta13  1  0.497105  0.651705  0.124650  1
  Ta  Ta14  1  0.503669  0.348474  0.622863  1
  Ta  Ta15  1  0.652471  0.493023  0.874165  1
  Ta  Ta16  1  0.348426  0.504075  0.377048  1
  Ta  Ta17  1  0.847702  0.996906  0.375396  1
  Ta  Ta18  1  0.005412  0.152144  0.127124  1
  Ta  Ta19  1  0.995851  0.848039  0.625078  1
  Si  Si20  1  0.207442  0.136452  0.676281  1
  Si  Si21  1  0.367014  0.706746  0.926462  1
  Si  Si22  1  0.636350  0.292435  0.426660  1
  Si  Si23  1  0.705226  0.360458  0.072735  1
  Si  Si24  1  0.291801  0.636532  0.573422  1
  Si  Si25  1  0.789172  0.867802  0.179685  1
  Si  Si26  1  0.136303  0.207849  0.323867  1
  Si  Si27  1  0.862179  0.794251  0.820956  1
  Si  Si28  1  0.301252  0.956280  0.063791  1
  Si  Si29  1  0.543292  0.800551  0.314420  1
  Si  Si30  1  0.455071  0.200570  0.812434  1
  Si  Si31  1  0.800575  0.543653  0.685803  1
  Si  Si32  1  0.202145  0.454841  0.187747  1
  Si  Si33  1  0.699510  0.044190  0.563591  1
  Si  Si34  1  0.956744  0.295342  0.935833  1
  Si  Si35  1  0.044671  0.700406  0.436551  1
