# generated using pymatgen
data_Y2Al9ReNi2
_symmetry_space_group_name_H-M   'P 1'
_cell_length_a   7.46216958
_cell_length_b   7.46219434
_cell_length_c   9.39698300
_cell_angle_alpha   90.00000000
_cell_angle_beta   90.00000000
_cell_angle_gamma   117.91307251
_symmetry_Int_Tables_number   1
_chemical_formula_structural   Y2Al9ReNi2
_chemical_formula_sum   'Y4 Al18 Re2 Ni4'
_cell_volume   462.38606743
_cell_formula_units_Z   2
loop_
 _symmetry_equiv_pos_site_id
 _symmetry_equiv_pos_as_xyz
  1  'x, y, z'
loop_
 _atom_site_type_symbol
 _atom_site_label
 _atom_site_symmetry_multiplicity
 _atom_site_fract_x
 _atom_site_fract_y
 _atom_site_fract_z
 _atom_site_occupancy
  Y  Y0  1  0.993368  0.688806  0.250000  1
  Y  Y1  1  0.006632  0.311194  0.750000  1
  Y  Y2  1  0.688805  0.993370  0.250000  1
  Y  Y3  1  0.311195  0.006630  0.750000  1
  Al  Al4  1  0.142470  0.142469  0.250000  1
  Al  Al5  1  0.857530  0.857531  0.750000  1
  Al  Al6  1  0.999919  0.342844  0.074854  1
  Al  Al7  1  0.000081  0.657156  0.925146  1
  Al  Al8  1  0.000081  0.657156  0.574854  1
  Al  Al9  1  0.342844  0.999920  0.425146  1
  Al  Al10  1  0.999919  0.342844  0.425146  1
  Al  Al11  1  0.657156  0.000080  0.574854  1
  Al  Al12  1  0.657156  0.000080  0.925146  1
  Al  Al13  1  0.342844  0.999920  0.074854  1
  Al  Al14  1  0.335390  0.335390  0.541606  1
  Al  Al15  1  0.664610  0.664610  0.458394  1
  Al  Al16  1  0.664610  0.664610  0.041606  1
  Al  Al17  1  0.335390  0.335390  0.958394  1
  Al  Al18  1  0.344410  0.562898  0.250000  1
  Al  Al19  1  0.655590  0.437102  0.750000  1
  Al  Al20  1  0.562900  0.344409  0.250000  1
  Al  Al21  1  0.437100  0.655591  0.750000  1
  Re  Re22  1  0.000000  0.000000  0.000000  1
  Re  Re23  1  0.000000  0.000000  0.500000  1
  Ni  Ni24  1  0.670087  0.329911  0.000003  1
  Ni  Ni25  1  0.329913  0.670089  0.999997  1
  Ni  Ni26  1  0.329913  0.670089  0.500003  1
  Ni  Ni27  1  0.670087  0.329911  0.499997  1
