# generated using pymatgen
data_Dy4TmRu2
_symmetry_space_group_name_H-M   'P 1'
_cell_length_a   6.34377922
_cell_length_b   7.25469859
_cell_length_c   8.47618616
_cell_angle_alpha   96.64949354
_cell_angle_beta   111.97561510
_cell_angle_gamma   90.00000273
_symmetry_Int_Tables_number   1
_chemical_formula_structural   Dy4TmRu2
_chemical_formula_sum   'Dy8 Tm2 Ru4'
_cell_volume   358.91862244
_cell_formula_units_Z   2
loop_
 _symmetry_equiv_pos_site_id
 _symmetry_equiv_pos_as_xyz
  1  'x, y, z'
loop_
 _atom_site_type_symbol
 _atom_site_label
 _atom_site_symmetry_multiplicity
 _atom_site_fract_x
 _atom_site_fract_y
 _atom_site_fract_z
 _atom_site_occupancy
  Dy  Dy0  1  0.791786  0.084380  0.814652  1
  Dy  Dy1  1  0.977134  0.415620  0.185348  1
  Dy  Dy2  1  0.208214  0.915620  0.185348  1
  Dy  Dy3  1  0.022866  0.584380  0.814652  1
  Dy  Dy4  1  0.206852  0.184769  0.567054  1
  Dy  Dy5  1  0.639798  0.315231  0.432946  1
  Dy  Dy6  1  0.793148  0.815231  0.432946  1
  Dy  Dy7  1  0.360202  0.684769  0.567054  1
  Tm  Tm8  1  0.421751  0.250000  0.000000  1
  Tm  Tm9  1  0.578249  0.750000  0.000000  1
  Ru  Ru10  1  0.602777  0.424405  0.781574  1
  Ru  Ru11  1  0.821202  0.075595  0.218426  1
  Ru  Ru12  1  0.397223  0.575595  0.218426  1
  Ru  Ru13  1  0.178798  0.924405  0.781574  1
