# generated using pymatgen
data_Dy13Ho7(FeBi2)4
_symmetry_space_group_name_H-M   'P 1'
_cell_length_a   7.94950407
_cell_length_b   8.93558709
_cell_length_c   12.39052604
_cell_angle_alpha   90.00818182
_cell_angle_beta   89.99495208
_cell_angle_gamma   90.01426740
_symmetry_Int_Tables_number   1
_chemical_formula_structural   Dy13Ho7(FeBi2)4
_chemical_formula_sum   'Dy13 Ho7 Fe4 Bi8'
_cell_volume   880.14221796
_cell_formula_units_Z   1
loop_
 _symmetry_equiv_pos_site_id
 _symmetry_equiv_pos_as_xyz
  1  'x, y, z'
loop_
 _atom_site_type_symbol
 _atom_site_label
 _atom_site_symmetry_multiplicity
 _atom_site_fract_x
 _atom_site_fract_y
 _atom_site_fract_z
 _atom_site_occupancy
  Dy  Dy0  1  0.347519  0.750097  0.700805  1
  Dy  Dy1  1  0.652409  0.249960  0.299101  1
  Dy  Dy2  1  0.847663  0.249969  0.799259  1
  Dy  Dy3  1  0.152363  0.750018  0.200803  1
  Dy  Dy4  1  0.884264  0.750011  0.812541  1
  Dy  Dy5  1  0.115814  0.249985  0.187491  1
  Dy  Dy6  1  0.384031  0.249880  0.687608  1
  Dy  Dy7  1  0.615764  0.750153  0.312418  1
  Dy  Dy8  1  0.674023  0.536873  0.562899  1
  Dy  Dy9  1  0.055783  0.750069  0.495228  1
  Dy  Dy10  1  0.944537  0.249891  0.504740  1
  Dy  Dy11  1  0.555564  0.249992  0.004784  1
  Dy  Dy12  1  0.444309  0.750016  0.995247  1
  Ho  Ho13  1  0.326151  0.463046  0.437038  1
  Ho  Ho14  1  0.173660  0.462980  0.937124  1
  Ho  Ho15  1  0.326410  0.037004  0.437139  1
  Ho  Ho16  1  0.826383  0.537036  0.062864  1
  Ho  Ho17  1  0.673673  0.962954  0.562896  1
  Ho  Ho18  1  0.826413  0.962970  0.062873  1
  Ho  Ho19  1  0.173658  0.037033  0.937112  1
  Fe  Fe20  1  0.070653  0.749984  0.991185  1
  Fe  Fe21  1  0.929266  0.250009  0.008824  1
  Fe  Fe22  1  0.570638  0.249960  0.508810  1
  Fe  Fe23  1  0.428954  0.750157  0.491129  1
  Bi  Bi24  1  0.570815  0.507203  0.826837  1
  Bi  Bi25  1  0.429125  0.492775  0.173240  1
  Bi  Bi26  1  0.071066  0.492737  0.673301  1
  Bi  Bi27  1  0.429114  0.007236  0.173227  1
  Bi  Bi28  1  0.929103  0.507219  0.326719  1
  Bi  Bi29  1  0.570881  0.992774  0.826765  1
  Bi  Bi30  1  0.929163  0.992764  0.326736  1
  Bi  Bi31  1  0.070832  0.007243  0.673257  1
