# generated using pymatgen
data_YbPr6RuI12
_symmetry_space_group_name_H-M   'P 1'
_cell_length_a   10.14755529
_cell_length_b   10.14755487
_cell_length_c   10.14755601
_cell_angle_alpha   107.09756785
_cell_angle_beta   107.09755473
_cell_angle_gamma   107.09755864
_symmetry_Int_Tables_number   1
_chemical_formula_structural   YbPr6RuI12
_chemical_formula_sum   'Yb1 Pr6 Ru1 I12'
_cell_volume   867.89551313
_cell_formula_units_Z   1
loop_
 _symmetry_equiv_pos_site_id
 _symmetry_equiv_pos_as_xyz
  1  'x, y, z'
loop_
 _atom_site_type_symbol
 _atom_site_label
 _atom_site_symmetry_multiplicity
 _atom_site_fract_x
 _atom_site_fract_y
 _atom_site_fract_z
 _atom_site_occupancy
  Yb  Yb0  1  0.500000  0.500000  0.500000  1
  Pr  Pr1  1  0.975020  0.900944  0.697558  1
  Pr  Pr2  1  0.024980  0.099056  0.302442  1
  Pr  Pr3  1  0.099056  0.302442  0.024980  1
  Pr  Pr4  1  0.302442  0.024980  0.099056  1
  Pr  Pr5  1  0.900944  0.697558  0.975020  1
  Pr  Pr6  1  0.697558  0.975020  0.900944  1
  Ru  Ru7  1  0.000000  0.000000  0.000000  1
  I  I8  1  0.539169  0.617328  0.837806  1
  I  I9  1  0.460831  0.382672  0.162194  1
  I  I10  1  0.318696  0.927441  0.774964  1
  I  I11  1  0.382672  0.162194  0.460831  1
  I  I12  1  0.927441  0.774964  0.318696  1
  I  I13  1  0.681304  0.072559  0.225036  1
  I  I14  1  0.072559  0.225036  0.681304  1
  I  I15  1  0.774964  0.318696  0.927441  1
  I  I16  1  0.225036  0.681304  0.072559  1
  I  I17  1  0.837806  0.539169  0.617328  1
  I  I18  1  0.162194  0.460831  0.382672  1
  I  I19  1  0.617328  0.837806  0.539169  1
