# generated using pymatgen
data_Pr6Ga3GeIr4
_symmetry_space_group_name_H-M   'P 1'
_cell_length_a   5.77302822
_cell_length_b   8.22305093
_cell_length_c   13.67631500
_cell_angle_alpha   90.00000000
_cell_angle_beta   90.00000000
_cell_angle_gamma   90.25332604
_symmetry_Int_Tables_number   1
_chemical_formula_structural   Pr6Ga3GeIr4
_chemical_formula_sum   'Pr12 Ga6 Ge2 Ir8'
_cell_volume   649.23438182
_cell_formula_units_Z   2
loop_
 _symmetry_equiv_pos_site_id
 _symmetry_equiv_pos_as_xyz
  1  'x, y, z'
loop_
 _atom_site_type_symbol
 _atom_site_label
 _atom_site_symmetry_multiplicity
 _atom_site_fract_x
 _atom_site_fract_y
 _atom_site_fract_z
 _atom_site_occupancy
  Pr  Pr0  1  0.145377  0.893510  0.599897  1
  Pr  Pr1  1  0.854623  0.106490  0.099897  1
  Pr  Pr2  1  0.146227  0.604257  0.400145  1
  Pr  Pr3  1  0.853773  0.395743  0.900145  1
  Pr  Pr4  1  0.854623  0.106490  0.400103  1
  Pr  Pr5  1  0.145377  0.893510  0.900103  1
  Pr  Pr6  1  0.853773  0.395743  0.599855  1
  Pr  Pr7  1  0.146227  0.604257  0.099855  1
  Pr  Pr8  1  0.371137  0.251844  0.750000  1
  Pr  Pr9  1  0.628863  0.748156  0.250000  1
  Pr  Pr10  1  0.371527  0.247715  0.250000  1
  Pr  Pr11  1  0.628473  0.752285  0.750000  1
  Ga  Ga12  1  0.865187  0.395759  0.250000  1
  Ga  Ga13  1  0.134813  0.604241  0.750000  1
  Ga  Ga14  1  0.379537  0.249011  0.499832  1
  Ga  Ga15  1  0.620463  0.750989  0.999832  1
  Ga  Ga16  1  0.620463  0.750989  0.500168  1
  Ga  Ga17  1  0.379537  0.249011  0.000168  1
  Ge  Ge18  1  0.866692  0.105957  0.750000  1
  Ge  Ge19  1  0.133308  0.894043  0.250000  1
  Ir  Ir20  1  0.641292  0.028369  0.592098  1
  Ir  Ir21  1  0.358708  0.971631  0.092098  1
  Ir  Ir22  1  0.642416  0.472821  0.408176  1
  Ir  Ir23  1  0.357584  0.527179  0.908176  1
  Ir  Ir24  1  0.358708  0.971631  0.407902  1
  Ir  Ir25  1  0.641292  0.028369  0.907902  1
  Ir  Ir26  1  0.357584  0.527179  0.591824  1
  Ir  Ir27  1  0.642416  0.472821  0.091824  1
