# generated using pymatgen
data_Nd2AlRhI
_symmetry_space_group_name_H-M   'P 1'
_cell_length_a   4.32579200
_cell_length_b   4.32579220
_cell_length_c   17.39211300
_cell_angle_alpha   90.00000000
_cell_angle_beta   90.00000000
_cell_angle_gamma   119.99999843
_symmetry_Int_Tables_number   1
_chemical_formula_structural   Nd2AlRhI
_chemical_formula_sum   'Nd4 Al2 Rh2 I2'
_cell_volume   281.84755637
_cell_formula_units_Z   2
loop_
 _symmetry_equiv_pos_site_id
 _symmetry_equiv_pos_as_xyz
  1  'x, y, z'
loop_
 _atom_site_type_symbol
 _atom_site_label
 _atom_site_symmetry_multiplicity
 _atom_site_fract_x
 _atom_site_fract_y
 _atom_site_fract_z
 _atom_site_occupancy
  Nd  Nd0  1  0.000000  0.000000  0.393702  1
  Nd  Nd1  1  0.000000  0.000000  0.893702  1
  Nd  Nd2  1  0.000000  0.000000  0.609401  1
  Nd  Nd3  1  0.000000  0.000000  0.109401  1
  Al  Al4  1  0.333333  0.666667  0.504099  1
  Al  Al5  1  0.666667  0.333333  0.004099  1
  Rh  Rh6  1  0.666667  0.333333  0.494855  1
  Rh  Rh7  1  0.333333  0.666667  0.994855  1
  I  I8  1  0.333333  0.666667  0.247941  1
  I  I9  1  0.666667  0.333333  0.747941  1
