# generated using pymatgen
data_Ho15ErMgIn3Ir4
_symmetry_space_group_name_H-M   'P 1'
_cell_length_a   9.63239686
_cell_length_b   9.64489763
_cell_length_c   9.62444063
_cell_angle_alpha   59.92966963
_cell_angle_beta   60.01053850
_cell_angle_gamma   59.95706929
_symmetry_Int_Tables_number   1
_chemical_formula_structural   Ho15ErMgIn3Ir4
_chemical_formula_sum   'Ho15 Er1 Mg1 In3 Ir4'
_cell_volume   631.76372254
_cell_formula_units_Z   1
loop_
 _symmetry_equiv_pos_site_id
 _symmetry_equiv_pos_as_xyz
  1  'x, y, z'
loop_
 _atom_site_type_symbol
 _atom_site_label
 _atom_site_symmetry_multiplicity
 _atom_site_fract_x
 _atom_site_fract_y
 _atom_site_fract_z
 _atom_site_occupancy
  Ho  Ho0  1  0.061038  0.063422  0.437470  1
  Ho  Ho1  1  0.651448  0.041998  0.651899  1
  Ho  Ho2  1  0.192336  0.807901  0.191861  1
  Ho  Ho3  1  0.436247  0.062516  0.438721  1
  Ho  Ho4  1  0.192252  0.190670  0.810190  1
  Ho  Ho5  1  0.651448  0.654655  0.651899  1
  Ho  Ho6  1  0.048436  0.651161  0.649243  1
  Ho  Ho7  1  0.437485  0.061773  0.061552  1
  Ho  Ho8  1  0.650279  0.652189  0.045342  1
  Ho  Ho9  1  0.192252  0.806888  0.810190  1
  Ho  Ho10  1  0.811405  0.188805  0.810984  1
  Ho  Ho11  1  0.813619  0.188172  0.189340  1
  Ho  Ho12  1  0.813619  0.808868  0.189340  1
  Ho  Ho13  1  0.061038  0.438069  0.437470  1
  Ho  Ho14  1  0.437485  0.439190  0.061552  1
  Er  Er15  1  0.060111  0.439625  0.060638  1
  Mg  Mg16  1  0.731731  0.422536  0.423195  1
  In  In17  1  0.418704  0.416593  0.748111  1
  In  In18  1  0.418505  0.748352  0.416637  1
  In  In19  1  0.418505  0.416505  0.416637  1
  Ir  Ir20  1  0.859701  0.857873  0.857840  1
  Ir  Ir21  1  0.423000  0.859174  0.858651  1
  Ir  Ir22  1  0.859658  0.858475  0.423394  1
  Ir  Ir23  1  0.859701  0.424588  0.857840  1
