# generated using pymatgen
data_Dy9Th3(CoRu)2
_symmetry_space_group_name_H-M   'P 1'
_cell_length_a   6.31277053
_cell_length_b   7.08940171
_cell_length_c   9.54961000
_cell_angle_alpha   90.00000000
_cell_angle_beta   90.00000000
_cell_angle_gamma   90.83972886
_symmetry_Int_Tables_number   1
_chemical_formula_structural   Dy9Th3(CoRu)2
_chemical_formula_sum   'Dy9 Th3 Co2 Ru2'
_cell_volume   427.33511307
_cell_formula_units_Z   1
loop_
 _symmetry_equiv_pos_site_id
 _symmetry_equiv_pos_as_xyz
  1  'x, y, z'
loop_
 _atom_site_type_symbol
 _atom_site_label
 _atom_site_symmetry_multiplicity
 _atom_site_fract_x
 _atom_site_fract_y
 _atom_site_fract_z
 _atom_site_occupancy
  Dy  Dy0  1  0.671433  0.319778  0.932042  1
  Dy  Dy1  1  0.637056  0.042423  0.250000  1
  Dy  Dy2  1  0.175429  0.180445  0.428426  1
  Dy  Dy3  1  0.835709  0.830151  0.566216  1
  Dy  Dy4  1  0.175429  0.180445  0.071574  1
  Dy  Dy5  1  0.835709  0.830151  0.933784  1
  Dy  Dy6  1  0.671433  0.319778  0.567958  1
  Dy  Dy7  1  0.329439  0.670362  0.067819  1
  Dy  Dy8  1  0.329439  0.670362  0.432181  1
  Th  Th9  1  0.148741  0.445302  0.750000  1
  Th  Th10  1  0.343549  0.953220  0.750000  1
  Th  Th11  1  0.835181  0.547342  0.250000  1
  Co  Co12  1  0.968565  0.129576  0.750000  1
  Co  Co13  1  0.469270  0.383897  0.250000  1
  Ru  Ru14  1  0.535220  0.626882  0.750000  1
  Ru  Ru15  1  0.038398  0.869885  0.250000  1
