# generated using pymatgen
data_La7Nd13Sn16
_symmetry_space_group_name_H-M   'P 1'
_cell_length_a   8.31707612
_cell_length_b   8.47035266
_cell_length_c   16.02361400
_cell_angle_alpha   90.00503938
_cell_angle_beta   90.00970651
_cell_angle_gamma   89.97801526
_symmetry_Int_Tables_number   1
_chemical_formula_structural   La7Nd13Sn16
_chemical_formula_sum   'La7 Nd13 Sn16'
_cell_volume   1128.84055362
_cell_formula_units_Z   1
loop_
 _symmetry_equiv_pos_site_id
 _symmetry_equiv_pos_as_xyz
  1  'x, y, z'
loop_
 _atom_site_type_symbol
 _atom_site_label
 _atom_site_symmetry_multiplicity
 _atom_site_fract_x
 _atom_site_fract_y
 _atom_site_fract_z
 _atom_site_occupancy
  La  La0  1  0.018335  0.180782  0.599015  1
  La  La1  1  0.481658  0.680676  0.400904  1
  La  La2  1  0.981716  0.819304  0.098896  1
  La  La3  1  0.481640  0.680549  0.098966  1
  La  La4  1  0.981728  0.819282  0.401093  1
  La  La5  1  0.518420  0.319112  0.598938  1
  La  La6  1  0.018200  0.180868  0.901011  1
  Nd  Nd7  1  0.367714  0.835399  0.879280  1
  Nd  Nd8  1  0.867393  0.664578  0.620735  1
  Nd  Nd9  1  0.632558  0.164458  0.379396  1
  Nd  Nd10  1  0.132685  0.335420  0.120845  1
  Nd  Nd11  1  0.632533  0.164496  0.120586  1
  Nd  Nd12  1  0.132654  0.335436  0.379118  1
  Nd  Nd13  1  0.367506  0.835451  0.620743  1
  Nd  Nd14  1  0.867161  0.664520  0.879375  1
  Nd  Nd15  1  0.518683  0.319092  0.900517  1
  Nd  Nd16  1  0.197552  0.501973  0.750116  1
  Nd  Nd17  1  0.697474  0.997820  0.750140  1
  Nd  Nd18  1  0.802187  0.497974  0.250030  1
  Nd  Nd19  1  0.302116  0.002048  0.250035  1
  Sn  Sn20  1  0.294291  0.036026  0.042466  1
  Sn  Sn21  1  0.793904  0.464333  0.457443  1
  Sn  Sn22  1  0.706025  0.964451  0.542629  1
  Sn  Sn23  1  0.207305  0.535199  0.957691  1
  Sn  Sn24  1  0.705409  0.965383  0.957284  1
  Sn  Sn25  1  0.206085  0.536201  0.541994  1
  Sn  Sn26  1  0.293839  0.035711  0.457422  1
  Sn  Sn27  1  0.792735  0.463618  0.042044  1
  Sn  Sn28  1  0.567828  0.616745  0.750242  1
  Sn  Sn29  1  0.067016  0.883820  0.750068  1
  Sn  Sn30  1  0.433117  0.382996  0.250007  1
  Sn  Sn31  1  0.932818  0.116972  0.249990  1
  Sn  Sn32  1  0.324089  0.141405  0.750636  1
  Sn  Sn33  1  0.821296  0.357668  0.750336  1
  Sn  Sn34  1  0.677207  0.858246  0.250032  1
  Sn  Sn35  1  0.177127  0.641989  0.249981  1
