# generated using pymatgen
data_Cs2Sc(WO4)3
_symmetry_space_group_name_H-M   'P 1'
_cell_length_a   7.45925833
_cell_length_b   7.45654721
_cell_length_c   7.52515818
_cell_angle_alpha   89.99999930
_cell_angle_beta   60.27058482
_cell_angle_gamma   119.98798105
_symmetry_Int_Tables_number   1
_chemical_formula_structural   Cs2Sc(WO4)3
_chemical_formula_sum   'Cs2 Sc1 W3 O12'
_cell_volume   297.21891756
_cell_formula_units_Z   1
loop_
 _symmetry_equiv_pos_site_id
 _symmetry_equiv_pos_as_xyz
  1  'x, y, z'
loop_
 _atom_site_type_symbol
 _atom_site_label
 _atom_site_symmetry_multiplicity
 _atom_site_fract_x
 _atom_site_fract_y
 _atom_site_fract_z
 _atom_site_occupancy
  Cs  Cs0  1  0.255316  0.131625  0.116874  1
  Cs  Cs1  1  0.744684  0.876309  0.883126  1
  Sc  Sc2  1  0.000000  0.503682  0.000000  1
  W  W3  1  0.499826  0.003633  0.500195  1
  W  W4  1  0.500174  0.503807  0.499805  1
  W  W5  1  0.000000  0.503733  0.500000  1
  O  O6  1  0.616826  0.812209  0.446202  1
  O  O7  1  0.870269  0.438905  0.799090  1
  O  O8  1  0.265744  0.834321  0.799090  1
  O  O9  1  0.245333  0.440708  0.446269  1
  O  O10  1  0.265746  0.438879  0.799064  1
  O  O11  1  0.245282  0.812183  0.446339  1
  O  O12  1  0.383174  0.195383  0.553798  1
  O  O13  1  0.129731  0.568636  0.200910  1
  O  O14  1  0.734254  0.173132  0.200936  1
  O  O15  1  0.754718  0.566901  0.553661  1
  O  O16  1  0.734256  0.568577  0.200910  1
  O  O17  1  0.754667  0.195374  0.553731  1
