# generated using pymatgen
data_Ca2NdLu5(B6Ru)4
_symmetry_space_group_name_H-M   'P 1'
_cell_length_a   3.62444500
_cell_length_b   9.10019562
_cell_length_c   11.51234500
_cell_angle_alpha   89.85706269
_cell_angle_beta   90.00000000
_cell_angle_gamma   90.00000000
_symmetry_Int_Tables_number   1
_chemical_formula_structural   Ca2NdLu5(B6Ru)4
_chemical_formula_sum   'Ca2 Nd1 Lu5 B24 Ru4'
_cell_volume   379.71231863
_cell_formula_units_Z   1
loop_
 _symmetry_equiv_pos_site_id
 _symmetry_equiv_pos_as_xyz
  1  'x, y, z'
loop_
 _atom_site_type_symbol
 _atom_site_label
 _atom_site_symmetry_multiplicity
 _atom_site_fract_x
 _atom_site_fract_y
 _atom_site_fract_z
 _atom_site_occupancy
  Ca  Ca0  1  0.000000  0.323411  0.415382  1
  Ca  Ca1  1  0.000000  0.676275  0.585101  1
  Nd  Nd2  1  0.000000  0.822306  0.085827  1
  Lu  Lu3  1  0.000000  0.178478  0.913550  1
  Lu  Lu4  1  0.000000  0.942558  0.370266  1
  Lu  Lu5  1  0.000000  0.058070  0.630005  1
  Lu  Lu6  1  0.000000  0.442167  0.130350  1
  Lu  Lu7  1  0.000000  0.556267  0.868984  1
  B  B8  1  0.500000  0.554058  0.432289  1
  B  B9  1  0.500000  0.444851  0.568713  1
  B  B10  1  0.500000  0.056875  0.066113  1
  B  B11  1  0.500000  0.947691  0.931179  1
  B  B12  1  0.500000  0.749387  0.417775  1
  B  B13  1  0.500000  0.250447  0.583450  1
  B  B14  1  0.500000  0.250246  0.080110  1
  B  B15  1  0.500000  0.750241  0.916145  1
  B  B16  1  0.500000  0.791016  0.266177  1
  B  B17  1  0.500000  0.207493  0.736645  1
  B  B18  1  0.500000  0.291209  0.233781  1
  B  B19  1  0.500000  0.709150  0.765163  1
  B  B20  1  0.500000  0.628908  0.185627  1
  B  B21  1  0.500000  0.368285  0.816430  1
  B  B22  1  0.500000  0.130693  0.314482  1
  B  B23  1  0.500000  0.870640  0.685484  1
  B  B24  1  0.500000  0.985324  0.212904  1
  B  B25  1  0.500000  0.018567  0.787830  1
  B  B26  1  0.500000  0.482725  0.287436  1
  B  B27  1  0.500000  0.515825  0.713081  1
  B  B28  1  0.500000  0.597824  0.026641  1
  B  B29  1  0.500000  0.397635  0.971966  1
  B  B30  1  0.500000  0.098091  0.473414  1
  B  B31  1  0.500000  0.902416  0.526981  1
  Ru  Ru32  1  0.000000  0.639806  0.318365  1
  Ru  Ru33  1  0.000000  0.358290  0.683728  1
  Ru  Ru34  1  0.000000  0.139484  0.178458  1
  Ru  Ru35  1  0.000000  0.863292  0.820168  1
