# generated using pymatgen
data_Sm8Sn(PdPt7)3
_symmetry_space_group_name_H-M   'P 1'
_cell_length_a   8.50129300
_cell_length_b   8.50663000
_cell_length_c   8.52220400
_cell_angle_alpha   90.00000000
_cell_angle_beta   90.00000000
_cell_angle_gamma   90.00000000
_symmetry_Int_Tables_number   1
_chemical_formula_structural   Sm8Sn(PdPt7)3
_chemical_formula_sum   'Sm8 Sn1 Pd3 Pt21'
_cell_volume   616.30324415
_cell_formula_units_Z   1
loop_
 _symmetry_equiv_pos_site_id
 _symmetry_equiv_pos_as_xyz
  1  'x, y, z'
loop_
 _atom_site_type_symbol
 _atom_site_label
 _atom_site_symmetry_multiplicity
 _atom_site_fract_x
 _atom_site_fract_y
 _atom_site_fract_z
 _atom_site_occupancy
  Sm  Sm0  1  0.251119  0.251229  0.251177  1
  Sm  Sm1  1  0.748994  0.748842  0.748806  1
  Sm  Sm2  1  0.748994  0.748842  0.251194  1
  Sm  Sm3  1  0.748881  0.251229  0.748823  1
  Sm  Sm4  1  0.251119  0.251229  0.748823  1
  Sm  Sm5  1  0.251006  0.748842  0.251194  1
  Sm  Sm6  1  0.251006  0.748842  0.748806  1
  Sm  Sm7  1  0.748881  0.251229  0.251177  1
  Sn  Sn8  1  0.000000  0.000189  0.000000  1
  Pd  Pd9  1  0.500000  0.744102  0.500000  1
  Pd  Pd10  1  0.500000  0.499838  0.255774  1
  Pd  Pd11  1  0.500000  0.499838  0.744226  1
  Pt  Pt12  1  0.267998  0.500091  0.000000  1
  Pt  Pt13  1  0.732002  0.500091  0.000000  1
  Pt  Pt14  1  0.000000  0.267361  0.500000  1
  Pt  Pt15  1  0.500000  0.267640  0.000000  1
  Pt  Pt16  1  0.000000  0.731967  0.500000  1
  Pt  Pt17  1  0.500000  0.732039  0.000000  1
  Pt  Pt18  1  0.500000  0.000235  0.267449  1
  Pt  Pt19  1  0.267990  0.000411  0.500000  1
  Pt  Pt20  1  0.500000  0.000235  0.732551  1
  Pt  Pt21  1  0.732010  0.000411  0.500000  1
  Pt  Pt22  1  0.000000  0.500045  0.267334  1
  Pt  Pt23  1  0.000000  0.500045  0.732666  1
  Pt  Pt24  1  0.255821  0.499485  0.500000  1
  Pt  Pt25  1  0.744179  0.499485  0.500000  1
  Pt  Pt26  1  0.500000  0.256048  0.500000  1
  Pt  Pt27  1  0.315440  0.999935  0.000000  1
  Pt  Pt28  1  0.684560  0.999935  0.000000  1
  Pt  Pt29  1  0.000000  0.315303  0.000000  1
  Pt  Pt30  1  0.000000  0.685202  0.000000  1
  Pt  Pt31  1  0.000000  0.999894  0.314605  1
  Pt  Pt32  1  0.000000  0.999894  0.685395  1
