# generated using pymatgen
data_Y3Th(AlRu)4
_symmetry_space_group_name_H-M   'P 1'
_cell_length_a   7.05649338
_cell_length_b   4.03314700
_cell_length_c   8.23913882
_cell_angle_alpha   90.00000000
_cell_angle_beta   89.41211699
_cell_angle_gamma   90.00000000
_symmetry_Int_Tables_number   1
_chemical_formula_structural   Y3Th(AlRu)4
_chemical_formula_sum   'Y3 Th1 Al4 Ru4'
_cell_volume   234.47251890
_cell_formula_units_Z   1
loop_
 _symmetry_equiv_pos_site_id
 _symmetry_equiv_pos_as_xyz
  1  'x, y, z'
loop_
 _atom_site_type_symbol
 _atom_site_label
 _atom_site_symmetry_multiplicity
 _atom_site_fract_x
 _atom_site_fract_y
 _atom_site_fract_z
 _atom_site_occupancy
  Y  Y0  1  0.467734  0.749999  0.320369  1
  Y  Y1  1  0.533853  0.250000  0.678633  1
  Y  Y2  1  0.032346  0.250000  0.815958  1
  Th  Th3  1  0.971613  0.749999  0.183217  1
  Al  Al4  1  0.627818  0.250000  0.056382  1
  Al  Al5  1  0.144452  0.250000  0.448205  1
  Al  Al6  1  0.863065  0.749999  0.562600  1
  Al  Al7  1  0.364241  0.749999  0.938447  1
  Ru  Ru8  1  0.256200  0.250000  0.124596  1
  Ru  Ru9  1  0.776048  0.250000  0.367754  1
  Ru  Ru10  1  0.232222  0.749999  0.625593  1
  Ru  Ru11  1  0.730412  0.749999  0.878243  1
