# generated using pymatgen
data_Ho4CuNi3Hg2
_symmetry_space_group_name_H-M   'P 1'
_cell_length_a   7.37517847
_cell_length_b   7.37517847
_cell_length_c   3.63809600
_cell_angle_alpha   90.00000000
_cell_angle_beta   90.00000000
_cell_angle_gamma   89.71715575
_symmetry_Int_Tables_number   1
_chemical_formula_structural   Ho4CuNi3Hg2
_chemical_formula_sum   'Ho4 Cu1 Ni3 Hg2'
_cell_volume   197.88548098
_cell_formula_units_Z   1
loop_
 _symmetry_equiv_pos_site_id
 _symmetry_equiv_pos_as_xyz
  1  'x, y, z'
loop_
 _atom_site_type_symbol
 _atom_site_label
 _atom_site_symmetry_multiplicity
 _atom_site_fract_x
 _atom_site_fract_y
 _atom_site_fract_z
 _atom_site_occupancy
  Ho  Ho0  1  0.312616  0.173891  0.500001  1
  Ho  Ho1  1  0.832951  0.332951  0.500001  1
  Ho  Ho2  1  0.177963  0.677963  0.500001  1
  Ho  Ho3  1  0.673891  0.812616  0.500001  1
  Cu  Cu4  1  0.618303  0.118304  0.000000  1
  Ni  Ni5  1  0.120339  0.384241  0.000000  1
  Ni  Ni6  1  0.884241  0.620338  0.000000  1
  Ni  Ni7  1  0.383320  0.883320  0.000000  1
  Hg  Hg8  1  0.997224  0.999151  0.000000  1
  Hg  Hg9  1  0.499151  0.497224  0.000000  1
