# generated using pymatgen
data_K3UPbS5
_symmetry_space_group_name_H-M   'P 1'
_cell_length_a   7.36765538
_cell_length_b   11.13915834
_cell_length_c   7.40074200
_cell_angle_alpha   101.48357638
_cell_angle_beta   101.72831423
_cell_angle_gamma   109.50361733
_symmetry_Int_Tables_number   1
_chemical_formula_structural   K3UPbS5
_chemical_formula_sum   'K6 U2 Pb2 S10'
_cell_volume   536.61033002
_cell_formula_units_Z   2
loop_
 _symmetry_equiv_pos_site_id
 _symmetry_equiv_pos_as_xyz
  1  'x, y, z'
loop_
 _atom_site_type_symbol
 _atom_site_label
 _atom_site_symmetry_multiplicity
 _atom_site_fract_x
 _atom_site_fract_y
 _atom_site_fract_z
 _atom_site_occupancy
  K  K0  1  0.988819  0.494647  0.992634  1
  K  K1  1  0.816299  0.303963  0.424530  1
  K  K2  1  0.000107  0.998737  0.500110  1
  K  K3  1  0.192186  0.693549  0.576590  1
  K  K4  1  0.400185  0.400826  0.706763  1
  K  K5  1  0.576693  0.097508  0.784393  1
  U  U6  1  0.200367  0.201802  0.102727  1
  U  U7  1  0.800384  0.802705  0.897064  1
  Pb  Pb8  1  0.390911  0.903500  0.197548  1
  Pb  Pb9  1  0.591012  0.592396  0.303452  1
  S  S10  1  0.550198  0.334442  0.073106  1
  S  S11  1  0.832579  0.037337  0.113079  1
  S  S12  1  0.993473  0.759363  0.202324  1
  S  S13  1  0.211785  0.423544  0.317197  1
  S  S14  1  0.379428  0.149468  0.400889  1
  S  S15  1  0.620857  0.836790  0.583445  1
  S  S16  1  0.800450  0.589931  0.674688  1
  S  S17  1  0.020416  0.238398  0.800555  1
  S  S18  1  0.174774  0.958043  0.889841  1
  S  S19  1  0.459081  0.683053  0.959065  1
