# generated using pymatgen
data_K3LaRhO6
_symmetry_space_group_name_H-M   'P 1'
_cell_length_a   7.30318151
_cell_length_b   7.30323778
_cell_length_c   7.30317534
_cell_angle_alpha   92.74906349
_cell_angle_beta   92.74865286
_cell_angle_gamma   92.75019348
_symmetry_Int_Tables_number   1
_chemical_formula_structural   K3LaRhO6
_chemical_formula_sum   'K6 La2 Rh2 O12'
_cell_volume   388.13875218
_cell_formula_units_Z   2
loop_
 _symmetry_equiv_pos_site_id
 _symmetry_equiv_pos_as_xyz
  1  'x, y, z'
loop_
 _atom_site_type_symbol
 _atom_site_label
 _atom_site_symmetry_multiplicity
 _atom_site_fract_x
 _atom_site_fract_y
 _atom_site_fract_z
 _atom_site_occupancy
  K  K0  1  0.750072  0.381599  0.118336  1
  K  K1  1  0.618395  0.881687  0.249923  1
  K  K2  1  0.118329  0.750070  0.381578  1
  K  K3  1  0.881670  0.249930  0.618422  1
  K  K4  1  0.381605  0.118312  0.750077  1
  K  K5  1  0.249928  0.618400  0.881664  1
  La  La6  1  0.250007  0.250013  0.250004  1
  La  La7  1  0.749993  0.749987  0.749996  1
  Rh  Rh8  1  0.000000  0.000000  0.000000  1
  Rh  Rh9  1  0.500000  0.500000  0.500000  1
  O  O10  1  0.918984  0.740774  0.037829  1
  O  O11  1  0.259227  0.962174  0.081024  1
  O  O12  1  0.418932  0.537795  0.240766  1
  O  O13  1  0.962168  0.081020  0.259224  1
  O  O14  1  0.537801  0.240772  0.418931  1
  O  O15  1  0.759230  0.581074  0.462193  1
  O  O16  1  0.240769  0.418926  0.537807  1
  O  O17  1  0.462199  0.759228  0.581068  1
  O  O18  1  0.037832  0.918980  0.740775  1
  O  O19  1  0.581067  0.462204  0.759234  1
  O  O20  1  0.740773  0.037826  0.918976  1
  O  O21  1  0.081016  0.259225  0.962171  1
