# generated using pymatgen
data_La3Sm(Mo2O7)2
_symmetry_space_group_name_H-M   'P 1'
_cell_length_a   7.59989240
_cell_length_b   7.59989218
_cell_length_c   7.51809570
_cell_angle_alpha   59.63944293
_cell_angle_beta   59.63944148
_cell_angle_gamma   60.00000021
_symmetry_Int_Tables_number   1
_chemical_formula_structural   La3Sm(Mo2O7)2
_chemical_formula_sum   'La3 Sm1 Mo4 O14'
_cell_volume   305.36500997
_cell_formula_units_Z   1
loop_
 _symmetry_equiv_pos_site_id
 _symmetry_equiv_pos_as_xyz
  1  'x, y, z'
loop_
 _atom_site_type_symbol
 _atom_site_label
 _atom_site_symmetry_multiplicity
 _atom_site_fract_x
 _atom_site_fract_y
 _atom_site_fract_z
 _atom_site_occupancy
  La  La0  1  0.125000  0.125000  0.125000  1
  La  La1  1  0.625000  0.125000  0.125000  1
  La  La2  1  0.125000  0.625000  0.125000  1
  Sm  Sm3  1  0.125000  0.125000  0.625000  1
  Mo  Mo4  1  0.625000  0.625000  0.625000  1
  Mo  Mo5  1  0.125000  0.625000  0.625000  1
  Mo  Mo6  1  0.625000  0.125000  0.625000  1
  Mo  Mo7  1  0.625000  0.625000  0.125000  1
  O  O8  1  0.290494  0.290494  0.702735  1
  O  O9  1  0.294265  0.705793  0.294150  1
  O  O10  1  0.955735  0.544207  0.955850  1
  O  O11  1  0.705793  0.294265  0.294150  1
  O  O12  1  0.000656  0.000656  0.998032  1
  O  O13  1  0.544207  0.544207  0.955850  1
  O  O14  1  0.290494  0.716277  0.702735  1
  O  O15  1  0.533723  0.959506  0.547265  1
  O  O16  1  0.544207  0.955735  0.955850  1
  O  O17  1  0.705793  0.705793  0.294150  1
  O  O18  1  0.249344  0.249344  0.251968  1
  O  O19  1  0.959506  0.959506  0.547265  1
  O  O20  1  0.959506  0.533723  0.547265  1
  O  O21  1  0.716277  0.290494  0.702735  1
