# generated using pymatgen
data_Tm4Lu2Al16Os7
_symmetry_space_group_name_H-M   'P 1'
_cell_length_a   8.89855633
_cell_length_b   8.89855580
_cell_length_c   8.90237200
_cell_angle_alpha   59.98581997
_cell_angle_beta   59.98582194
_cell_angle_gamma   60.02775277
_symmetry_Int_Tables_number   1
_chemical_formula_structural   Tm4Lu2Al16Os7
_chemical_formula_sum   'Tm4 Lu2 Al16 Os7'
_cell_volume   498.45697810
_cell_formula_units_Z   1
loop_
 _symmetry_equiv_pos_site_id
 _symmetry_equiv_pos_as_xyz
  1  'x, y, z'
loop_
 _atom_site_type_symbol
 _atom_site_label
 _atom_site_symmetry_multiplicity
 _atom_site_fract_x
 _atom_site_fract_y
 _atom_site_fract_z
 _atom_site_occupancy
  Tm  Tm0  1  0.711321  0.711321  0.288719  1
  Tm  Tm1  1  0.288532  0.711468  0.288574  1
  Tm  Tm2  1  0.711468  0.288532  0.288574  1
  Tm  Tm3  1  0.288679  0.288679  0.711361  1
  Lu  Lu4  1  0.711504  0.288496  0.711541  1
  Lu  Lu5  1  0.288496  0.711504  0.711541  1
  Al  Al6  1  0.878902  0.878902  0.363256  1
  Al  Al7  1  0.878842  0.363216  0.878805  1
  Al  Al8  1  0.363216  0.878842  0.878805  1
  Al  Al9  1  0.879041  0.879041  0.878745  1
  Al  Al10  1  0.120959  0.120959  0.636827  1
  Al  Al11  1  0.121158  0.636784  0.120863  1
  Al  Al12  1  0.636784  0.121158  0.120863  1
  Al  Al13  1  0.121098  0.121098  0.121060  1
  Al  Al14  1  0.666875  0.666875  0.999438  1
  Al  Al15  1  0.666847  0.999634  0.666912  1
  Al  Al16  1  0.999634  0.666847  0.666912  1
  Al  Al17  1  0.666642  0.666642  0.666885  1
  Al  Al18  1  0.333358  0.333358  0.000167  1
  Al  Al19  1  0.333153  0.000366  0.333390  1
  Al  Al20  1  0.000366  0.333153  0.333390  1
  Al  Al21  1  0.333125  0.333125  0.333185  1
  Os  Os22  1  0.000000  0.000000  0.999913  1
  Os  Os23  1  0.000000  0.000000  0.500436  1
  Os  Os24  1  0.499809  0.999790  0.500250  1
  Os  Os25  1  0.999790  0.499809  0.500250  1
  Os  Os26  1  0.500000  0.500000  0.999641  1
  Os  Os27  1  0.000210  0.500191  0.999848  1
  Os  Os28  1  0.500191  0.000210  0.999848  1
