# generated using pymatgen
data_Tm17Mg(ZrIr6)2
_symmetry_space_group_name_H-M   'P 1'
_cell_length_a   10.71369400
_cell_length_b   10.71369400
_cell_length_c   6.22178300
_cell_angle_alpha   90.00000000
_cell_angle_beta   90.00000000
_cell_angle_gamma   90.00000000
_symmetry_Int_Tables_number   1
_chemical_formula_structural   Tm17Mg(ZrIr6)2
_chemical_formula_sum   'Tm17 Mg1 Zr2 Ir12'
_cell_volume   714.15640588
_cell_formula_units_Z   1
loop_
 _symmetry_equiv_pos_site_id
 _symmetry_equiv_pos_as_xyz
  1  'x, y, z'
loop_
 _atom_site_type_symbol
 _atom_site_label
 _atom_site_symmetry_multiplicity
 _atom_site_fract_x
 _atom_site_fract_y
 _atom_site_fract_z
 _atom_site_occupancy
  Tm  Tm0  1  0.290127  0.087559  0.374692  1
  Tm  Tm1  1  0.290519  0.913859  0.873337  1
  Tm  Tm2  1  0.709481  0.086141  0.873337  1
  Tm  Tm3  1  0.709873  0.912441  0.374692  1
  Tm  Tm4  1  0.584409  0.785802  0.875762  1
  Tm  Tm5  1  0.587902  0.208384  0.375889  1
  Tm  Tm6  1  0.412098  0.791616  0.375889  1
  Tm  Tm7  1  0.415591  0.214198  0.875762  1
  Tm  Tm8  1  0.208384  0.412098  0.624111  1
  Tm  Tm9  1  0.214198  0.584409  0.124238  1
  Tm  Tm10  1  0.785802  0.415591  0.124238  1
  Tm  Tm11  1  0.791616  0.587902  0.624111  1
  Tm  Tm12  1  0.913859  0.709481  0.126663  1
  Tm  Tm13  1  0.912441  0.290127  0.625308  1
  Tm  Tm14  1  0.087559  0.709873  0.625308  1
  Tm  Tm15  1  0.086141  0.290519  0.126663  1
  Tm  Tm16  1  0.500000  0.500000  0.500000  1
  Mg  Mg17  1  0.500000  0.500000  0.000000  1
  Zr  Zr18  1  0.000000  0.000000  0.500000  1
  Zr  Zr19  1  0.000000  0.000000  0.000000  1
  Ir  Ir20  1  0.853488  0.146657  0.248494  1
  Ir  Ir21  1  0.853343  0.853488  0.751506  1
  Ir  Ir22  1  0.146657  0.146512  0.751506  1
  Ir  Ir23  1  0.146512  0.853343  0.248494  1
  Ir  Ir24  1  0.655783  0.344383  0.746993  1
  Ir  Ir25  1  0.655617  0.655783  0.253007  1
  Ir  Ir26  1  0.344383  0.344217  0.253007  1
  Ir  Ir27  1  0.344217  0.655617  0.746993  1
  Ir  Ir28  1  0.500000  0.000000  0.120813  1
  Ir  Ir29  1  0.500000  0.000000  0.623520  1
  Ir  Ir30  1  0.000000  0.500000  0.879187  1
  Ir  Ir31  1  0.000000  0.500000  0.376480  1
