# generated using pymatgen
data_Er3TmSc6(GaSi3)2
_symmetry_space_group_name_H-M   'P 1'
_cell_length_a   7.09928205
_cell_length_b   7.38277161
_cell_length_c   14.08981505
_cell_angle_alpha   89.98777359
_cell_angle_beta   89.85803976
_cell_angle_gamma   90.14768958
_symmetry_Int_Tables_number   1
_chemical_formula_structural   Er3TmSc6(GaSi3)2
_chemical_formula_sum   'Er6 Tm2 Sc12 Ga4 Si12'
_cell_volume   738.47597489
_cell_formula_units_Z   2
loop_
 _symmetry_equiv_pos_site_id
 _symmetry_equiv_pos_as_xyz
  1  'x, y, z'
loop_
 _atom_site_type_symbol
 _atom_site_label
 _atom_site_symmetry_multiplicity
 _atom_site_fract_x
 _atom_site_fract_y
 _atom_site_fract_z
 _atom_site_occupancy
  Er  Er0  1  0.013576  0.175344  0.097142  1
  Er  Er1  1  0.988099  0.824372  0.901917  1
  Er  Er2  1  0.487154  0.677443  0.901706  1
  Er  Er3  1  0.987817  0.826943  0.600012  1
  Er  Er4  1  0.510700  0.320907  0.097220  1
  Er  Er5  1  0.009745  0.175264  0.400729  1
  Tm  Tm6  1  0.510976  0.324035  0.400646  1
  Tm  Tm7  1  0.490363  0.676361  0.600323  1
  Sc  Sc8  1  0.162747  0.501628  0.751441  1
  Sc  Sc9  1  0.836671  0.497593  0.250086  1
  Sc  Sc10  1  0.336395  0.002933  0.248404  1
  Sc  Sc11  1  0.663292  0.997460  0.749933  1
  Sc  Sc12  1  0.333474  0.174522  0.627776  1
  Sc  Sc13  1  0.669212  0.826371  0.373688  1
  Sc  Sc14  1  0.170139  0.673632  0.373010  1
  Sc  Sc15  1  0.668635  0.826228  0.125579  1
  Sc  Sc16  1  0.828974  0.324745  0.626693  1
  Sc  Sc17  1  0.330572  0.175556  0.874579  1
  Sc  Sc18  1  0.829250  0.323371  0.874186  1
  Sc  Sc19  1  0.173152  0.675436  0.124537  1
  Ga  Ga20  1  0.162819  0.461895  0.539693  1
  Ga  Ga21  1  0.838145  0.537476  0.461343  1
  Ga  Ga22  1  0.338590  0.962385  0.461415  1
  Ga  Ga23  1  0.838799  0.537801  0.038645  1
  Si  Si24  1  0.032712  0.114631  0.751064  1
  Si  Si25  1  0.967487  0.885426  0.249327  1
  Si  Si26  1  0.467832  0.613106  0.248621  1
  Si  Si27  1  0.532666  0.386880  0.751032  1
  Si  Si28  1  0.285726  0.870177  0.750990  1
  Si  Si29  1  0.714908  0.129448  0.248805  1
  Si  Si30  1  0.214211  0.370500  0.248895  1
  Si  Si31  1  0.786228  0.630237  0.751295  1
  Si  Si32  1  0.659002  0.035675  0.539252  1
  Si  Si33  1  0.159087  0.464034  0.960878  1
  Si  Si34  1  0.657695  0.035501  0.961324  1
  Si  Si35  1  0.343149  0.964682  0.037816  1
