# generated using pymatgen
data_Fe(NiPt3)2
_symmetry_space_group_name_H-M   'P 1'
_cell_length_a   5.99218367
_cell_length_b   5.99218248
_cell_length_c   6.15300856
_cell_angle_alpha   95.94385093
_cell_angle_beta   95.94383314
_cell_angle_gamma   141.93706140
_symmetry_Int_Tables_number   1
_chemical_formula_structural   Fe(NiPt3)2
_chemical_formula_sum   'Fe1 Ni2 Pt6'
_cell_volume   129.15951017
_cell_formula_units_Z   1
loop_
 _symmetry_equiv_pos_site_id
 _symmetry_equiv_pos_as_xyz
  1  'x, y, z'
loop_
 _atom_site_type_symbol
 _atom_site_label
 _atom_site_symmetry_multiplicity
 _atom_site_fract_x
 _atom_site_fract_y
 _atom_site_fract_z
 _atom_site_occupancy
  Fe  Fe0  1  0.000000  0.000000  0.000000  1
  Ni  Ni1  1  0.334497  0.334497  0.668994  1
  Ni  Ni2  1  0.665503  0.665503  0.331006  1
  Pt  Pt3  1  0.657376  0.342624  0.000000  1
  Pt  Pt4  1  0.342624  0.657376  0.000000  1
  Pt  Pt5  1  0.009479  0.323735  0.333215  1
  Pt  Pt6  1  0.990521  0.676265  0.666785  1
  Pt  Pt7  1  0.676265  0.990521  0.666785  1
  Pt  Pt8  1  0.323735  0.009479  0.333215  1
