# generated using pymatgen
data_YHoNpO6
_symmetry_space_group_name_H-M   'P 1'
_cell_length_a   5.53087800
_cell_length_b   7.84188322
_cell_length_c   11.82646590
_cell_angle_alpha   73.93026540
_cell_angle_beta   90.00000000
_cell_angle_gamma   90.00000000
_symmetry_Int_Tables_number   1
_chemical_formula_structural   YHoNpO6
_chemical_formula_sum   'Y4 Ho4 Np4 O24'
_cell_volume   492.90038158
_cell_formula_units_Z   4
loop_
 _symmetry_equiv_pos_site_id
 _symmetry_equiv_pos_as_xyz
  1  'x, y, z'
loop_
 _atom_site_type_symbol
 _atom_site_label
 _atom_site_symmetry_multiplicity
 _atom_site_fract_x
 _atom_site_fract_y
 _atom_site_fract_z
 _atom_site_occupancy
  Y  Y0  1  0.743945  0.000000  0.750000  1
  Y  Y1  1  0.256055  0.000000  0.250000  1
  Y  Y2  1  0.693827  0.500000  0.750000  1
  Y  Y3  1  0.306173  0.500000  0.250000  1
  Ho  Ho4  1  0.186467  0.794400  0.579425  1
  Ho  Ho5  1  0.813533  0.794400  0.079425  1
  Ho  Ho6  1  0.186467  0.205600  0.920575  1
  Ho  Ho7  1  0.813533  0.205600  0.420575  1
  Np  Np8  1  0.255116  0.721912  0.886424  1
  Np  Np9  1  0.744884  0.721912  0.386424  1
  Np  Np10  1  0.255116  0.278088  0.613576  1
  Np  Np11  1  0.744884  0.278088  0.113576  1
  O  O12  1  0.043615  0.946057  0.896100  1
  O  O13  1  0.552724  0.848431  0.932322  1
  O  O14  1  0.956385  0.946057  0.396100  1
  O  O15  1  0.450532  0.799101  0.725842  1
  O  O16  1  0.447276  0.848431  0.432322  1
  O  O17  1  0.965715  0.711563  0.767832  1
  O  O18  1  0.549468  0.799101  0.225842  1
  O  O19  1  0.873067  0.630436  0.554774  1
  O  O20  1  0.384495  0.480730  0.884333  1
  O  O21  1  0.034285  0.711563  0.267832  1
  O  O22  1  0.384495  0.519270  0.615667  1
  O  O23  1  0.873067  0.369564  0.945226  1
  O  O24  1  0.126933  0.630436  0.054774  1
  O  O25  1  0.615505  0.480730  0.384333  1
  O  O26  1  0.965715  0.288437  0.732168  1
  O  O27  1  0.615505  0.519270  0.115667  1
  O  O28  1  0.126933  0.369564  0.445226  1
  O  O29  1  0.450532  0.200899  0.774158  1
  O  O30  1  0.034285  0.288437  0.232168  1
  O  O31  1  0.552724  0.151569  0.567678  1
  O  O32  1  0.549468  0.200899  0.274158  1
  O  O33  1  0.043615  0.053943  0.603900  1
  O  O34  1  0.447276  0.151569  0.067678  1
  O  O35  1  0.956385  0.053943  0.103900  1
