# generated using pymatgen
data_Dy5ZnIn4Ir
_symmetry_space_group_name_H-M   'P 1'
_cell_length_a   3.66183300
_cell_length_b   8.15144500
_cell_length_c   18.29783600
_cell_angle_alpha   90.00000000
_cell_angle_beta   90.00000000
_cell_angle_gamma   90.00000000
_symmetry_Int_Tables_number   1
_chemical_formula_structural   Dy5ZnIn4Ir
_chemical_formula_sum   'Dy10 Zn2 In8 Ir2'
_cell_volume   546.17632073
_cell_formula_units_Z   2
loop_
 _symmetry_equiv_pos_site_id
 _symmetry_equiv_pos_as_xyz
  1  'x, y, z'
loop_
 _atom_site_type_symbol
 _atom_site_label
 _atom_site_symmetry_multiplicity
 _atom_site_fract_x
 _atom_site_fract_y
 _atom_site_fract_z
 _atom_site_occupancy
  Dy  Dy0  1  0.500000  0.384772  0.585830  1
  Dy  Dy1  1  0.500000  0.876834  0.918993  1
  Dy  Dy2  1  0.500000  0.115228  0.085830  1
  Dy  Dy3  1  0.500000  0.737250  0.717883  1
  Dy  Dy4  1  0.500000  0.278484  0.777930  1
  Dy  Dy5  1  0.500000  0.500375  0.000330  1
  Dy  Dy6  1  0.500000  0.762750  0.217883  1
  Dy  Dy7  1  0.500000  0.221516  0.277930  1
  Dy  Dy8  1  0.500000  0.999625  0.500330  1
  Dy  Dy9  1  0.500000  0.623166  0.418993  1
  Zn  Zn10  1  0.000000  0.976285  0.800762  1
  Zn  Zn11  1  0.000000  0.523715  0.300762  1
  In  In12  1  0.000000  0.792536  0.068884  1
  In  In13  1  0.000000  0.923678  0.351717  1
  In  In14  1  0.000000  0.078992  0.649399  1
  In  In15  1  0.000000  0.576322  0.851717  1
  In  In16  1  0.000000  0.707464  0.568884  1
  In  In17  1  0.000000  0.205567  0.932472  1
  In  In18  1  0.000000  0.294433  0.432472  1
  In  In19  1  0.000000  0.421008  0.149399  1
  Ir  Ir20  1  0.000000  0.475400  0.695800  1
  Ir  Ir21  1  0.000000  0.024600  0.195800  1
