# generated using pymatgen
data_Er2Sc3(In2Rh)2
_symmetry_space_group_name_H-M   'P 1'
_cell_length_a   3.49379100
_cell_length_b   7.79470000
_cell_length_c   17.80837100
_cell_angle_alpha   90.00000000
_cell_angle_beta   90.00000000
_cell_angle_gamma   90.00000000
_symmetry_Int_Tables_number   1
_chemical_formula_structural   Er2Sc3(In2Rh)2
_chemical_formula_sum   'Er4 Sc6 In8 Rh4'
_cell_volume   484.97630608
_cell_formula_units_Z   2
loop_
 _symmetry_equiv_pos_site_id
 _symmetry_equiv_pos_as_xyz
  1  'x, y, z'
loop_
 _atom_site_type_symbol
 _atom_site_label
 _atom_site_symmetry_multiplicity
 _atom_site_fract_x
 _atom_site_fract_y
 _atom_site_fract_z
 _atom_site_occupancy
  Er  Er0  1  0.000000  0.746718  0.779855  1
  Er  Er1  1  0.000000  0.253282  0.220145  1
  Er  Er2  1  0.000000  0.246718  0.720145  1
  Er  Er3  1  0.000000  0.753282  0.279855  1
  Sc  Sc4  1  0.000000  0.000000  0.000000  1
  Sc  Sc5  1  0.000000  0.500000  0.500000  1
  Sc  Sc6  1  0.000000  0.877832  0.586083  1
  Sc  Sc7  1  0.000000  0.122168  0.413917  1
  Sc  Sc8  1  0.000000  0.377832  0.913917  1
  Sc  Sc9  1  0.000000  0.622168  0.086083  1
  In  In10  1  0.500000  0.798534  0.437548  1
  In  In11  1  0.500000  0.201466  0.562452  1
  In  In12  1  0.500000  0.298534  0.062452  1
  In  In13  1  0.500000  0.701466  0.937548  1
  In  In14  1  0.500000  0.929089  0.146103  1
  In  In15  1  0.500000  0.070911  0.853897  1
  In  In16  1  0.500000  0.429089  0.353897  1
  In  In17  1  0.500000  0.570911  0.646103  1
  Rh  Rh18  1  0.500000  0.961872  0.691814  1
  Rh  Rh19  1  0.500000  0.038128  0.308186  1
  Rh  Rh20  1  0.500000  0.461872  0.808186  1
  Rh  Rh21  1  0.500000  0.538128  0.191814  1
