# generated using pymatgen
data_Sc8In4PtAu7
_symmetry_space_group_name_H-M   'P 1'
_cell_length_a   7.75032096
_cell_length_b   7.75032096
_cell_length_c   6.83766696
_cell_angle_alpha   90.04272821
_cell_angle_beta   90.04272821
_cell_angle_gamma   90.13563334
_symmetry_Int_Tables_number   1
_chemical_formula_structural   Sc8In4PtAu7
_chemical_formula_sum   'Sc8 In4 Pt1 Au7'
_cell_volume   410.72000976
_cell_formula_units_Z   1
loop_
 _symmetry_equiv_pos_site_id
 _symmetry_equiv_pos_as_xyz
  1  'x, y, z'
loop_
 _atom_site_type_symbol
 _atom_site_label
 _atom_site_symmetry_multiplicity
 _atom_site_fract_x
 _atom_site_fract_y
 _atom_site_fract_z
 _atom_site_occupancy
  Sc  Sc0  1  0.160912  0.160912  0.005534  1
  Sc  Sc1  1  0.845872  0.845872  0.999415  1
  Sc  Sc2  1  0.648035  0.341880  0.494331  1
  Sc  Sc3  1  0.341880  0.648035  0.494331  1
  Sc  Sc4  1  0.671692  0.319883  0.004242  1
  Sc  Sc5  1  0.319883  0.671692  0.004242  1
  Sc  Sc6  1  0.821521  0.821521  0.500344  1
  Sc  Sc7  1  0.184277  0.184277  0.494409  1
  In  In8  1  0.498951  0.002461  0.249389  1
  In  In9  1  0.499916  0.997842  0.749865  1
  In  In10  1  0.002461  0.498951  0.249389  1
  In  In11  1  0.997842  0.499916  0.749865  1
  Pt  Pt12  1  0.370815  0.370815  0.231104  1
  Au  Au13  1  0.630640  0.630640  0.772498  1
  Au  Au14  1  0.632198  0.632198  0.226332  1
  Au  Au15  1  0.870294  0.132573  0.727587  1
  Au  Au16  1  0.870054  0.130803  0.272884  1
  Au  Au17  1  0.369379  0.369379  0.773767  1
  Au  Au18  1  0.130803  0.870054  0.272884  1
  Au  Au19  1  0.132573  0.870294  0.727587  1
