# generated using pymatgen
data_Sr2SiRhI
_symmetry_space_group_name_H-M   'P 1'
_cell_length_a   4.24049700
_cell_length_b   4.24049851
_cell_length_c   18.15384900
_cell_angle_alpha   90.00000000
_cell_angle_beta   90.00000000
_cell_angle_gamma   120.00001165
_symmetry_Int_Tables_number   1
_chemical_formula_structural   Sr2SiRhI
_chemical_formula_sum   'Sr4 Si2 Rh2 I2'
_cell_volume   282.70466457
_cell_formula_units_Z   2
loop_
 _symmetry_equiv_pos_site_id
 _symmetry_equiv_pos_as_xyz
  1  'x, y, z'
loop_
 _atom_site_type_symbol
 _atom_site_label
 _atom_site_symmetry_multiplicity
 _atom_site_fract_x
 _atom_site_fract_y
 _atom_site_fract_z
 _atom_site_occupancy
  Sr  Sr0  1  0.000000  0.000000  0.386949  1
  Sr  Sr1  1  0.000000  0.000000  0.886949  1
  Sr  Sr2  1  0.000000  0.000000  0.612797  1
  Sr  Sr3  1  0.000000  0.000000  0.112797  1
  Si  Si4  1  0.666667  0.333333  0.498809  1
  Si  Si5  1  0.333333  0.666667  0.998809  1
  Rh  Rh6  1  0.333333  0.666667  0.501242  1
  Rh  Rh7  1  0.666667  0.333333  0.001242  1
  I  I8  1  0.333333  0.666667  0.250202  1
  I  I9  1  0.666667  0.333333  0.750202  1
