# generated using pymatgen
data_Sc3Nb4ZnRu8
_symmetry_space_group_name_H-M   'P 1'
_cell_length_a   6.33180000
_cell_length_b   4.47323600
_cell_length_c   8.98317900
_cell_angle_alpha   90.00000000
_cell_angle_beta   90.00136113
_cell_angle_gamma   90.00000000
_symmetry_Int_Tables_number   1
_chemical_formula_structural   Sc3Nb4ZnRu8
_chemical_formula_sum   'Sc3 Nb4 Zn1 Ru8'
_cell_volume   254.43628943
_cell_formula_units_Z   1
loop_
 _symmetry_equiv_pos_site_id
 _symmetry_equiv_pos_as_xyz
  1  'x, y, z'
loop_
 _atom_site_type_symbol
 _atom_site_label
 _atom_site_symmetry_multiplicity
 _atom_site_fract_x
 _atom_site_fract_y
 _atom_site_fract_z
 _atom_site_occupancy
  Sc  Sc0  1  0.250011  0.750000  0.374829  1
  Sc  Sc1  1  0.750037  0.250001  0.624967  1
  Sc  Sc2  1  0.249974  0.750000  0.875210  1
  Nb  Nb3  1  0.250020  0.250001  0.124994  1
  Nb  Nb4  1  0.750008  0.750000  0.364610  1
  Nb  Nb5  1  0.249980  0.250001  0.625007  1
  Nb  Nb6  1  0.749988  0.750000  0.885428  1
  Zn  Zn7  1  0.750023  0.250001  0.124982  1
  Ru  Ru8  1  0.498953  0.750000  0.125039  1
  Ru  Ru9  1  0.001068  0.750000  0.125038  1
  Ru  Ru10  1  0.500513  0.250001  0.373919  1
  Ru  Ru11  1  0.999492  0.250001  0.373926  1
  Ru  Ru12  1  0.998407  0.750000  0.625021  1
  Ru  Ru13  1  0.501554  0.750000  0.625023  1
  Ru  Ru14  1  0.999428  0.250001  0.876001  1
  Ru  Ru15  1  0.500541  0.250001  0.876007  1
