# generated using pymatgen
data_Nd2InCuPd
_symmetry_space_group_name_H-M   'P 1'
_cell_length_a   7.87490600
_cell_length_b   7.87265800
_cell_length_c   3.81774000
_cell_angle_alpha   90.00000000
_cell_angle_beta   90.00000000
_cell_angle_gamma   90.00000000
_symmetry_Int_Tables_number   1
_chemical_formula_structural   Nd2InCuPd
_chemical_formula_sum   'Nd4 In2 Cu2 Pd2'
_cell_volume   236.68629541
_cell_formula_units_Z   2
loop_
 _symmetry_equiv_pos_site_id
 _symmetry_equiv_pos_as_xyz
  1  'x, y, z'
loop_
 _atom_site_type_symbol
 _atom_site_label
 _atom_site_symmetry_multiplicity
 _atom_site_fract_x
 _atom_site_fract_y
 _atom_site_fract_z
 _atom_site_occupancy
  Nd  Nd0  1  0.324431  0.821222  0.500000  1
  Nd  Nd1  1  0.824431  0.678778  0.500000  1
  Nd  Nd2  1  0.177914  0.325536  0.500000  1
  Nd  Nd3  1  0.677914  0.174464  0.500000  1
  In  In4  1  0.001258  0.003363  0.000000  1
  In  In5  1  0.501258  0.496637  0.000000  1
  Cu  Cu6  1  0.376873  0.122695  0.000000  1
  Cu  Cu7  1  0.876873  0.377305  0.000000  1
  Pd  Pd8  1  0.119524  0.618935  0.000000  1
  Pd  Pd9  1  0.619524  0.881065  0.000000  1
