# generated using pymatgen
data_TbDy7C10
_symmetry_space_group_name_H-M   'P 1'
_cell_length_a   3.68055400
_cell_length_b   6.59455072
_cell_length_c   11.96518892
_cell_angle_alpha   90.92847242
_cell_angle_beta   90.00000000
_cell_angle_gamma   90.00000000
_symmetry_Int_Tables_number   1
_chemical_formula_structural   TbDy7C10
_chemical_formula_sum   'Tb1 Dy7 C10'
_cell_volume   290.37614923
_cell_formula_units_Z   1
loop_
 _symmetry_equiv_pos_site_id
 _symmetry_equiv_pos_as_xyz
  1  'x, y, z'
loop_
 _atom_site_type_symbol
 _atom_site_label
 _atom_site_symmetry_multiplicity
 _atom_site_fract_x
 _atom_site_fract_y
 _atom_site_fract_z
 _atom_site_occupancy
  Tb  Tb0  1  0.500000  0.395416  0.302609  1
  Dy  Dy1  1  0.000000  0.254824  0.542265  1
  Dy  Dy2  1  0.000000  0.743742  0.458084  1
  Dy  Dy3  1  0.000000  0.757252  0.957166  1
  Dy  Dy4  1  0.000000  0.245003  0.043168  1
  Dy  Dy5  1  0.500000  0.108917  0.803986  1
  Dy  Dy6  1  0.500000  0.890870  0.195917  1
  Dy  Dy7  1  0.500000  0.604540  0.697169  1
  C  C8  1  0.500000  0.499113  0.500359  1
  C  C9  1  0.500000  0.001779  0.999968  1
  C  C10  1  0.000000  0.362515  0.734842  1
  C  C11  1  0.000000  0.637973  0.264722  1
  C  C12  1  0.000000  0.857849  0.763048  1
  C  C13  1  0.000000  0.142086  0.237774  1
  C  C14  1  0.000000  0.393950  0.845456  1
  C  C15  1  0.000000  0.610476  0.153783  1
  C  C16  1  0.000000  0.078804  0.342713  1
  C  C17  1  0.000000  0.914892  0.656973  1
