# generated using pymatgen
data_MgTa(TiPd6)2
_symmetry_space_group_name_H-M   'P 1'
_cell_length_a   5.60057500
_cell_length_b   5.60057505
_cell_length_c   9.08975500
_cell_angle_alpha   90.00000000
_cell_angle_beta   90.00000000
_cell_angle_gamma   120.00000558
_symmetry_Int_Tables_number   1
_chemical_formula_structural   MgTa(TiPd6)2
_chemical_formula_sum   'Mg1 Ta1 Ti2 Pd12'
_cell_volume   246.91531274
_cell_formula_units_Z   1
loop_
 _symmetry_equiv_pos_site_id
 _symmetry_equiv_pos_as_xyz
  1  'x, y, z'
loop_
 _atom_site_type_symbol
 _atom_site_label
 _atom_site_symmetry_multiplicity
 _atom_site_fract_x
 _atom_site_fract_y
 _atom_site_fract_z
 _atom_site_occupancy
  Mg  Mg0  1  0.333333  0.666667  0.250000  1
  Ta  Ta1  1  0.666667  0.333333  0.750000  1
  Ti  Ti2  1  0.000000  0.000000  0.492563  1
  Ti  Ti3  1  0.000000  0.000000  0.007437  1
  Pd  Pd4  1  0.501936  0.498064  0.503758  1
  Pd  Pd5  1  0.501936  0.003870  0.503758  1
  Pd  Pd6  1  0.996130  0.498064  0.503758  1
  Pd  Pd7  1  0.501936  0.498064  0.996242  1
  Pd  Pd8  1  0.501936  0.003870  0.996242  1
  Pd  Pd9  1  0.996130  0.498064  0.996242  1
  Pd  Pd10  1  0.833319  0.666639  0.250000  1
  Pd  Pd11  1  0.333361  0.166681  0.250000  1
  Pd  Pd12  1  0.833319  0.166681  0.250000  1
  Pd  Pd13  1  0.165661  0.331321  0.750000  1
  Pd  Pd14  1  0.668679  0.834339  0.750000  1
  Pd  Pd15  1  0.165661  0.834339  0.750000  1
