# generated using pymatgen
data_Er8TaTi11Si15As
_symmetry_space_group_name_H-M   'P 1'
_cell_length_a   7.02335238
_cell_length_b   7.01858179
_cell_length_c   12.91016309
_cell_angle_alpha   89.95613237
_cell_angle_beta   89.86790340
_cell_angle_gamma   90.01418599
_symmetry_Int_Tables_number   1
_chemical_formula_structural   Er8TaTi11Si15As
_chemical_formula_sum   'Er8 Ta1 Ti11 Si15 As1'
_cell_volume   636.39133470
_cell_formula_units_Z   1
loop_
 _symmetry_equiv_pos_site_id
 _symmetry_equiv_pos_as_xyz
  1  'x, y, z'
loop_
 _atom_site_type_symbol
 _atom_site_label
 _atom_site_symmetry_multiplicity
 _atom_site_fract_x
 _atom_site_fract_y
 _atom_site_fract_z
 _atom_site_occupancy
  Er  Er0  1  0.340807  0.001020  0.466135  1
  Er  Er1  1  0.498171  0.841281  0.717483  1
  Er  Er2  1  0.501072  0.158888  0.216578  1
  Er  Er3  1  0.838869  0.497349  0.282932  1
  Er  Er4  1  0.159277  0.500417  0.783492  1
  Er  Er5  1  0.661057  0.995933  0.967916  1
  Er  Er6  1  0.998809  0.343167  0.531549  1
  Er  Er7  1  0.998901  0.659234  0.033239  1
  Ta  Ta8  1  0.326871  0.327047  0.999922  1
  Ti  Ti9  1  0.172877  0.827247  0.249954  1
  Ti  Ti10  1  0.824562  0.173882  0.750149  1
  Ti  Ti11  1  0.672233  0.672450  0.500121  1
  Ti  Ti12  1  0.156135  0.009404  0.875440  1
  Ti  Ti13  1  0.491803  0.651267  0.124663  1
  Ti  Ti14  1  0.508221  0.348196  0.626294  1
  Ti  Ti15  1  0.654560  0.494704  0.876074  1
  Ti  Ti16  1  0.347134  0.507302  0.374609  1
  Ti  Ti17  1  0.846778  0.993299  0.375104  1
  Ti  Ti18  1  0.008191  0.152632  0.124491  1
  Ti  Ti19  1  0.990555  0.844148  0.623342  1
  Si  Si20  1  0.368973  0.703333  0.933221  1
  Si  Si21  1  0.629108  0.297543  0.433910  1
  Si  Si22  1  0.703483  0.368939  0.067112  1
  Si  Si23  1  0.297031  0.630682  0.566461  1
  Si  Si24  1  0.796738  0.868733  0.183823  1
  Si  Si25  1  0.130345  0.203187  0.316966  1
  Si  Si26  1  0.870488  0.797883  0.815892  1
  Si  Si27  1  0.292416  0.953198  0.064704  1
  Si  Si28  1  0.545692  0.791583  0.314519  1
  Si  Si29  1  0.464175  0.208966  0.818259  1
  Si  Si30  1  0.791855  0.546042  0.685324  1
  Si  Si31  1  0.206666  0.454521  0.186444  1
  Si  Si32  1  0.707663  0.045794  0.564242  1
  Si  Si33  1  0.954127  0.291811  0.935465  1
  Si  Si34  1  0.045581  0.709073  0.434703  1
  As  As35  1  0.198774  0.129846  0.679471  1
