# generated using pymatgen
data_Yb4P6N13
_symmetry_space_group_name_H-M   'P 1'
_cell_length_a   7.39964092
_cell_length_b   7.39964110
_cell_length_c   7.39964100
_cell_angle_alpha   109.47122856
_cell_angle_beta   109.47122907
_cell_angle_gamma   109.47120395
_symmetry_Int_Tables_number   1
_chemical_formula_structural   Yb4P6N13
_chemical_formula_sum   'Yb4 P6 N13'
_cell_volume   311.89618492
_cell_formula_units_Z   1
loop_
 _symmetry_equiv_pos_site_id
 _symmetry_equiv_pos_as_xyz
  1  'x, y, z'
loop_
 _atom_site_type_symbol
 _atom_site_label
 _atom_site_symmetry_multiplicity
 _atom_site_fract_x
 _atom_site_fract_y
 _atom_site_fract_z
 _atom_site_occupancy
  Yb  Yb0  1  0.321120  0.321120  0.321120  1
  Yb  Yb1  1  0.000000  0.678880  0.000000  1
  Yb  Yb2  1  0.678880  0.000000  0.000000  1
  Yb  Yb3  1  0.000000  0.000000  0.678880  1
  P  P4  1  0.500000  0.250000  0.750000  1
  P  P5  1  0.500000  0.750000  0.250000  1
  P  P6  1  0.750000  0.250000  0.500000  1
  P  P7  1  0.250000  0.500000  0.750000  1
  P  P8  1  0.750000  0.500000  0.250000  1
  P  P9  1  0.250000  0.750000  0.500000  1
  N  N10  1  0.000000  0.000000  0.000000  1
  N  N11  1  0.000000  0.712907  0.416938  1
  N  N12  1  0.287093  0.704030  0.287093  1
  N  N13  1  0.295970  0.583062  0.583062  1
  N  N14  1  0.583062  0.583062  0.295970  1
  N  N15  1  0.583062  0.295970  0.583062  1
  N  N16  1  0.712907  0.000000  0.416938  1
  N  N17  1  0.416938  0.000000  0.712907  1
  N  N18  1  0.712907  0.416938  0.000000  1
  N  N19  1  0.287093  0.287093  0.704030  1
  N  N20  1  0.704030  0.287093  0.287093  1
  N  N21  1  0.000000  0.416938  0.712907  1
  N  N22  1  0.416938  0.712907  0.000000  1
