# generated using pymatgen
data_CeGd5NbO12
_symmetry_space_group_name_H-M   'P 1'
_cell_length_a   6.56338786
_cell_length_b   6.60420953
_cell_length_c   6.59189694
_cell_angle_alpha   98.74586774
_cell_angle_beta   98.52817231
_cell_angle_gamma   98.86827929
_symmetry_Int_Tables_number   1
_chemical_formula_structural   CeGd5NbO12
_chemical_formula_sum   'Ce1 Gd5 Nb1 O12'
_cell_volume   274.68517169
_cell_formula_units_Z   1
loop_
 _symmetry_equiv_pos_site_id
 _symmetry_equiv_pos_as_xyz
  1  'x, y, z'
loop_
 _atom_site_type_symbol
 _atom_site_label
 _atom_site_symmetry_multiplicity
 _atom_site_fract_x
 _atom_site_fract_y
 _atom_site_fract_z
 _atom_site_occupancy
  Ce  Ce0  1  0.859426  0.393936  0.692745  1
  Gd  Gd1  1  0.607403  0.305112  0.141310  1
  Gd  Gd2  1  0.304002  0.135374  0.610233  1
  Gd  Gd3  1  0.692951  0.858032  0.389074  1
  Gd  Gd4  1  0.389953  0.699770  0.861799  1
  Gd  Gd5  1  0.142662  0.612457  0.304398  1
  Nb  Nb6  1  0.998383  0.003905  0.002157  1
  O  O7  1  0.928026  0.043005  0.698517  1
  O  O8  1  0.958562  0.301753  0.071548  1
  O  O9  1  0.594090  0.179296  0.438284  1
  O  O10  1  0.822865  0.563067  0.415981  1
  O  O11  1  0.302121  0.071477  0.958541  1
  O  O12  1  0.572316  0.411060  0.817533  1
  O  O13  1  0.436231  0.586696  0.175059  1
  O  O14  1  0.698400  0.927268  0.040521  1
  O  O15  1  0.170200  0.431945  0.592891  1
  O  O16  1  0.409301  0.820528  0.563636  1
  O  O17  1  0.039581  0.696179  0.925757  1
  O  O18  1  0.073527  0.959137  0.300015  1
