# generated using pymatgen
data_La6Cr3RuC12
_symmetry_space_group_name_H-M   'P 1'
_cell_length_a   8.43340000
_cell_length_b   8.43339981
_cell_length_c   5.28959700
_cell_angle_alpha   90.00000000
_cell_angle_beta   90.00000000
_cell_angle_gamma   119.99999289
_symmetry_Int_Tables_number   1
_chemical_formula_structural   La6Cr3RuC12
_chemical_formula_sum   'La6 Cr3 Ru1 C12'
_cell_volume   325.80566985
_cell_formula_units_Z   1
loop_
 _symmetry_equiv_pos_site_id
 _symmetry_equiv_pos_as_xyz
  1  'x, y, z'
loop_
 _atom_site_type_symbol
 _atom_site_label
 _atom_site_symmetry_multiplicity
 _atom_site_fract_x
 _atom_site_fract_y
 _atom_site_fract_z
 _atom_site_occupancy
  La  La0  1  0.613579  0.692798  0.750000  1
  La  La1  1  0.924132  0.615689  0.250000  1
  La  La2  1  0.691557  0.075868  0.250000  1
  La  La3  1  0.307202  0.920781  0.750000  1
  La  La4  1  0.079219  0.386421  0.750000  1
  La  La5  1  0.384311  0.308443  0.250000  1
  Cr  Cr6  1  0.000000  0.000000  0.495128  1
  Cr  Cr7  1  0.000000  0.000000  0.004872  1
  Cr  Cr8  1  0.333333  0.666667  0.250000  1
  Ru  Ru9  1  0.666667  0.333333  0.750000  1
  C  C10  1  0.950578  0.774296  0.750000  1
  C  C11  1  0.177982  0.949473  0.250000  1
  C  C12  1  0.771490  0.822018  0.250000  1
  C  C13  1  0.225704  0.176281  0.750000  1
  C  C14  1  0.823719  0.049422  0.750000  1
  C  C15  1  0.050527  0.228510  0.250000  1
  C  C16  1  0.865302  0.588836  0.750000  1
  C  C17  1  0.271943  0.852454  0.250000  1
  C  C18  1  0.580509  0.728057  0.250000  1
  C  C19  1  0.411164  0.276466  0.750000  1
  C  C20  1  0.147546  0.419491  0.250000  1
  C  C21  1  0.723534  0.134698  0.750000  1
