# generated using pymatgen
data_La5Pr7Fe2I17
_symmetry_space_group_name_H-M   'P 1'
_cell_length_a   10.07423673
_cell_length_b   12.26565917
_cell_length_c   12.13398977
_cell_angle_alpha   74.41002778
_cell_angle_beta   75.32608000
_cell_angle_gamma   65.44301037
_symmetry_Int_Tables_number   1
_chemical_formula_structural   La5Pr7Fe2I17
_chemical_formula_sum   'La5 Pr7 Fe2 I17'
_cell_volume   1296.29282403
_cell_formula_units_Z   1
loop_
 _symmetry_equiv_pos_site_id
 _symmetry_equiv_pos_as_xyz
  1  'x, y, z'
loop_
 _atom_site_type_symbol
 _atom_site_label
 _atom_site_symmetry_multiplicity
 _atom_site_fract_x
 _atom_site_fract_y
 _atom_site_fract_z
 _atom_site_occupancy
  La  La0  1  0.452193  0.328093  0.983725  1
  La  La1  1  0.582325  0.757466  0.279323  1
  La  La2  1  0.815931  0.191947  0.589811  1
  La  La3  1  0.172107  0.809997  0.423881  1
  La  La4  1  0.151331  0.715702  0.150819  1
  Pr  Pr5  1  0.455655  0.489143  0.321094  1
  Pr  Pr6  1  0.555962  0.672035  0.007100  1
  Pr  Pr7  1  0.272387  0.986654  0.106665  1
  Pr  Pr8  1  0.862550  0.286858  0.851636  1
  Pr  Pr9  1  0.405004  0.240362  0.716783  1
  Pr  Pr10  1  0.723198  0.018795  0.893961  1
  Pr  Pr11  1  0.548347  0.505053  0.677649  1
  Fe  Fe12  1  0.364904  0.738920  0.214369  1
  Fe  Fe13  1  0.633476  0.261330  0.787099  1
  I  I14  1  0.054223  0.101072  0.326756  1
  I  I15  1  0.465730  0.948244  0.842798  1
  I  I16  1  0.429062  0.808088  0.540646  1
  I  I17  1  0.567594  0.189269  0.460934  1
  I  I18  1  0.839367  0.713964  0.042249  1
  I  I19  1  0.227254  0.422412  0.235947  1
  I  I20  1  0.689723  0.374522  0.100766  1
  I  I21  1  0.530942  0.051525  0.158018  1
  I  I22  1  0.744238  0.470735  0.417347  1
  I  I23  1  0.885835  0.784841  0.367614  1
  I  I24  1  0.944109  0.896901  0.678942  1
  I  I25  1  0.160874  0.286629  0.954821  1
  I  I26  1  0.318500  0.632105  0.894877  1
  I  I27  1  0.998206  0.001696  0.002215  1
  I  I28  1  0.112553  0.213629  0.633334  1
  I  I29  1  0.779983  0.576578  0.758757  1
  I  I30  1  0.256440  0.525432  0.580063  1
