# generated using pymatgen
data_Tb4YbDy(CoSn6)2
_symmetry_space_group_name_H-M   'P 1'
_cell_length_a   8.47812118
_cell_length_b   8.47812168
_cell_length_c   13.14862813
_cell_angle_alpha   90.00345014
_cell_angle_beta   89.99655060
_cell_angle_gamma   148.53124786
_symmetry_Int_Tables_number   1
_chemical_formula_structural   Tb4YbDy(CoSn6)2
_chemical_formula_sum   'Tb4 Yb1 Dy1 Co2 Sn12'
_cell_volume   493.37604615
_cell_formula_units_Z   1
loop_
 _symmetry_equiv_pos_site_id
 _symmetry_equiv_pos_as_xyz
  1  'x, y, z'
loop_
 _atom_site_type_symbol
 _atom_site_label
 _atom_site_symmetry_multiplicity
 _atom_site_fract_x
 _atom_site_fract_y
 _atom_site_fract_z
 _atom_site_occupancy
  Tb  Tb0  1  0.898719  0.101281  0.094104  1
  Tb  Tb1  1  0.101304  0.898696  0.594671  1
  Tb  Tb2  1  0.900847  0.099153  0.752055  1
  Tb  Tb3  1  0.100576  0.899424  0.906627  1
  Yb  Yb4  1  0.899183  0.100817  0.403293  1
  Dy  Dy5  1  0.099716  0.900284  0.249268  1
  Co  Co6  1  0.298920  0.701080  0.250166  1
  Co  Co7  1  0.700098  0.299902  0.749654  1
  Sn  Sn8  1  0.757497  0.242503  0.571950  1
  Sn  Sn9  1  0.428623  0.571377  0.576414  1
  Sn  Sn10  1  0.572925  0.427075  0.423653  1
  Sn  Sn11  1  0.734020  0.265980  0.248915  1
  Sn  Sn12  1  0.265486  0.734514  0.750467  1
  Sn  Sn13  1  0.243373  0.756627  0.071505  1
  Sn  Sn14  1  0.243800  0.756200  0.428593  1
  Sn  Sn15  1  0.571887  0.428113  0.075681  1
  Sn  Sn16  1  0.454242  0.545758  0.248618  1
  Sn  Sn17  1  0.545771  0.454229  0.750683  1
  Sn  Sn18  1  0.755881  0.244119  0.928444  1
  Sn  Sn19  1  0.427134  0.572866  0.925238  1
