# generated using pymatgen
data_Tm12Th4Mg3HgRh4
_symmetry_space_group_name_H-M   'P 1'
_cell_length_a   9.68641705
_cell_length_b   9.68641687
_cell_length_c   9.68641652
_cell_angle_alpha   59.85566770
_cell_angle_beta   59.85566673
_cell_angle_gamma   59.85566480
_symmetry_Int_Tables_number   1
_chemical_formula_structural   Tm12Th4Mg3HgRh4
_chemical_formula_sum   'Tm12 Th4 Mg3 Hg1 Rh4'
_cell_volume   640.54501438
_cell_formula_units_Z   1
loop_
 _symmetry_equiv_pos_site_id
 _symmetry_equiv_pos_as_xyz
  1  'x, y, z'
loop_
 _atom_site_type_symbol
 _atom_site_label
 _atom_site_symmetry_multiplicity
 _atom_site_fract_x
 _atom_site_fract_y
 _atom_site_fract_z
 _atom_site_occupancy
  Tm  Tm0  1  0.062925  0.436838  0.436838  1
  Tm  Tm1  1  0.435238  0.063879  0.063879  1
  Tm  Tm2  1  0.436838  0.062925  0.436838  1
  Tm  Tm3  1  0.063879  0.435238  0.063879  1
  Tm  Tm4  1  0.436838  0.436838  0.062925  1
  Tm  Tm5  1  0.063879  0.063879  0.435238  1
  Tm  Tm6  1  0.182209  0.816559  0.816559  1
  Tm  Tm7  1  0.817242  0.183351  0.183351  1
  Tm  Tm8  1  0.816559  0.182209  0.816559  1
  Tm  Tm9  1  0.183351  0.817242  0.183351  1
  Tm  Tm10  1  0.816559  0.816559  0.182209  1
  Tm  Tm11  1  0.183351  0.183351  0.817242  1
  Th  Th12  1  0.598904  0.598904  0.598904  1
  Th  Th13  1  0.601904  0.601904  0.198011  1
  Th  Th14  1  0.601904  0.198011  0.601904  1
  Th  Th15  1  0.198011  0.601904  0.601904  1
  Mg  Mg16  1  0.830043  0.830043  0.509062  1
  Mg  Mg17  1  0.830043  0.509062  0.830043  1
  Mg  Mg18  1  0.509062  0.830043  0.830043  1
  Hg  Hg19  1  0.834251  0.834251  0.834251  1
  Rh  Rh20  1  0.393385  0.393385  0.393385  1
  Rh  Rh21  1  0.392267  0.392267  0.819087  1
  Rh  Rh22  1  0.392267  0.819087  0.392267  1
  Rh  Rh23  1  0.819087  0.392267  0.392267  1
