# generated using pymatgen
data_CePr5(ScBi5)2
_symmetry_space_group_name_H-M   'P 1'
_cell_length_a   9.72398896
_cell_length_b   9.71023330
_cell_length_c   6.57827000
_cell_angle_alpha   90.00000000
_cell_angle_beta   90.00000000
_cell_angle_gamma   119.95322012
_symmetry_Int_Tables_number   1
_chemical_formula_structural   CePr5(ScBi5)2
_chemical_formula_sum   'Ce1 Pr5 Sc2 Bi10'
_cell_volume   538.17184725
_cell_formula_units_Z   1
loop_
 _symmetry_equiv_pos_site_id
 _symmetry_equiv_pos_as_xyz
  1  'x, y, z'
loop_
 _atom_site_type_symbol
 _atom_site_label
 _atom_site_symmetry_multiplicity
 _atom_site_fract_x
 _atom_site_fract_y
 _atom_site_fract_z
 _atom_site_occupancy
  Ce  Ce0  1  0.000000  0.382321  0.750000  1
  Pr  Pr1  1  0.000000  0.619361  0.250000  1
  Pr  Pr2  1  0.382093  0.381637  0.250000  1
  Pr  Pr3  1  0.380902  0.999982  0.750000  1
  Pr  Pr4  1  0.619098  0.619080  0.750000  1
  Pr  Pr5  1  0.617907  0.999543  0.250000  1
  Sc  Sc6  1  0.000000  0.999443  0.000734  1
  Sc  Sc7  1  0.000000  0.999443  0.499266  1
  Bi  Bi8  1  0.000000  0.263899  0.250000  1
  Bi  Bi9  1  0.332308  0.665671  0.500057  1
  Bi  Bi10  1  0.667692  0.333362  0.999943  1
  Bi  Bi11  1  0.332308  0.665671  0.999943  1
  Bi  Bi12  1  0.261106  0.262509  0.750000  1
  Bi  Bi13  1  0.738894  0.001403  0.750000  1
  Bi  Bi14  1  0.000000  0.735980  0.750000  1
  Bi  Bi15  1  0.736855  0.737093  0.250000  1
  Bi  Bi16  1  0.263145  0.000238  0.250000  1
  Bi  Bi17  1  0.667692  0.333362  0.500057  1
