# generated using pymatgen
data_HfNb3Si4PtRh3
_symmetry_space_group_name_H-M   'P 1'
_cell_length_a   3.81041300
_cell_length_b   6.48828706
_cell_length_c   7.43138648
_cell_angle_alpha   89.85400020
_cell_angle_beta   90.00000000
_cell_angle_gamma   90.00000000
_symmetry_Int_Tables_number   1
_chemical_formula_structural   HfNb3Si4PtRh3
_chemical_formula_sum   'Hf1 Nb3 Si4 Pt1 Rh3'
_cell_volume   183.72596797
_cell_formula_units_Z   1
loop_
 _symmetry_equiv_pos_site_id
 _symmetry_equiv_pos_as_xyz
  1  'x, y, z'
loop_
 _atom_site_type_symbol
 _atom_site_label
 _atom_site_symmetry_multiplicity
 _atom_site_fract_x
 _atom_site_fract_y
 _atom_site_fract_z
 _atom_site_occupancy
  Hf  Hf0  1  0.750000  0.473040  0.326129  1
  Nb  Nb1  1  0.250000  0.025747  0.823978  1
  Nb  Nb2  1  0.750000  0.974448  0.172377  1
  Nb  Nb3  1  0.250000  0.524590  0.674838  1
  Si  Si4  1  0.250000  0.257382  0.119226  1
  Si  Si5  1  0.250000  0.775358  0.382869  1
  Si  Si6  1  0.750000  0.733157  0.869202  1
  Si  Si7  1  0.750000  0.229493  0.628605  1
  Pt  Pt8  1  0.250000  0.645528  0.066290  1
  Rh  Rh9  1  0.250000  0.149089  0.436255  1
  Rh  Rh10  1  0.750000  0.856163  0.560876  1
  Rh  Rh11  1  0.750000  0.356005  0.939354  1
