# generated using pymatgen
data_PrAl10RuRh
_symmetry_space_group_name_H-M   'P 1'
_cell_length_a   6.90178438
_cell_length_b   6.90178412
_cell_length_c   9.22399433
_cell_angle_alpha   90.07290587
_cell_angle_beta   89.92709264
_cell_angle_gamma   97.21601125
_symmetry_Int_Tables_number   1
_chemical_formula_structural   PrAl10RuRh
_chemical_formula_sum   'Pr2 Al20 Ru2 Rh2'
_cell_volume   435.90083088
_cell_formula_units_Z   2
loop_
 _symmetry_equiv_pos_site_id
 _symmetry_equiv_pos_as_xyz
  1  'x, y, z'
loop_
 _atom_site_type_symbol
 _atom_site_label
 _atom_site_symmetry_multiplicity
 _atom_site_fract_x
 _atom_site_fract_y
 _atom_site_fract_z
 _atom_site_occupancy
  Pr  Pr0  1  0.874573  0.125427  0.750292  1
  Pr  Pr1  1  0.125427  0.874573  0.249708  1
  Al  Al2  1  0.409620  0.141468  0.748558  1
  Al  Al3  1  0.141468  0.409620  0.251442  1
  Al  Al4  1  0.590380  0.858532  0.251442  1
  Al  Al5  1  0.858532  0.590380  0.748558  1
  Al  Al6  1  0.517281  0.775572  0.747624  1
  Al  Al7  1  0.775572  0.517281  0.252376  1
  Al  Al8  1  0.482719  0.224428  0.252376  1
  Al  Al9  1  0.224428  0.482719  0.747624  1
  Al  Al10  1  0.840640  0.159360  0.398501  1
  Al  Al11  1  0.159360  0.840640  0.601499  1
  Al  Al12  1  0.840437  0.159563  0.104275  1
  Al  Al13  1  0.159563  0.840437  0.895725  1
  Al  Al14  1  0.622521  0.377479  0.549576  1
  Al  Al15  1  0.377479  0.622521  0.450424  1
  Al  Al16  1  0.621238  0.378762  0.947882  1
  Al  Al17  1  0.378762  0.621238  0.052118  1
  Al  Al18  1  0.773147  0.773147  0.000000  1
  Al  Al19  1  0.774431  0.774431  0.500000  1
  Al  Al20  1  0.226853  0.226853  0.000000  1
  Al  Al21  1  0.225569  0.225569  0.500000  1
  Ru  Ru22  1  0.500000  0.000000  0.500000  1
  Ru  Ru23  1  0.000000  0.500000  0.500000  1
  Rh  Rh24  1  0.500000  0.000000  0.000000  1
  Rh  Rh25  1  0.000000  0.500000  0.000000  1
