# generated using pymatgen
data_EuY6IrBr12
_symmetry_space_group_name_H-M   'P 1'
_cell_length_a   9.23217771
_cell_length_b   9.35134156
_cell_length_c   9.32755917
_cell_angle_alpha   106.32890379
_cell_angle_beta   106.40409635
_cell_angle_gamma   106.54375618
_symmetry_Int_Tables_number   1
_chemical_formula_structural   EuY6IrBr12
_chemical_formula_sum   'Eu1 Y6 Ir1 Br12'
_cell_volume   680.87702716
_cell_formula_units_Z   1
loop_
 _symmetry_equiv_pos_site_id
 _symmetry_equiv_pos_as_xyz
  1  'x, y, z'
loop_
 _atom_site_type_symbol
 _atom_site_label
 _atom_site_symmetry_multiplicity
 _atom_site_fract_x
 _atom_site_fract_y
 _atom_site_fract_z
 _atom_site_occupancy
  Eu  Eu0  1  0.500000  0.500000  0.500000  1
  Y  Y1  1  0.102759  0.312906  0.021417  1
  Y  Y2  1  0.304946  0.021029  0.099719  1
  Y  Y3  1  0.020398  0.103386  0.313332  1
  Y  Y4  1  0.979603  0.896614  0.686669  1
  Y  Y5  1  0.695054  0.978972  0.900281  1
  Y  Y6  1  0.897241  0.687094  0.978583  1
  Ir  Ir7  1  0.000000  0.000000  0.000000  1
  Br  Br8  1  0.219005  0.678409  0.074251  1
  Br  Br9  1  0.450444  0.368422  0.145645  1
  Br  Br10  1  0.676346  0.072952  0.216870  1
  Br  Br11  1  0.926162  0.782176  0.324289  1
  Br  Br12  1  0.142892  0.449615  0.367718  1
  Br  Br13  1  0.368738  0.145266  0.448063  1
  Br  Br14  1  0.631262  0.854734  0.551938  1
  Br  Br15  1  0.857109  0.550385  0.632282  1
  Br  Br16  1  0.073839  0.217824  0.675712  1
  Br  Br17  1  0.323655  0.927049  0.783130  1
  Br  Br18  1  0.549556  0.631578  0.854356  1
  Br  Br19  1  0.780995  0.321591  0.925749  1
