# generated using pymatgen
data_RbPRu2S
_symmetry_space_group_name_H-M   'P 1'
_cell_length_a   7.28715015
_cell_length_b   7.28714968
_cell_length_c   7.28714925
_cell_angle_alpha   148.19088969
_cell_angle_beta   148.19088950
_cell_angle_gamma   45.60365576
_symmetry_Int_Tables_number   1
_chemical_formula_structural   RbPRu2S
_chemical_formula_sum   'Rb1 P1 Ru2 S1'
_cell_volume   107.15388424
_cell_formula_units_Z   1
loop_
 _symmetry_equiv_pos_site_id
 _symmetry_equiv_pos_as_xyz
  1  'x, y, z'
loop_
 _atom_site_type_symbol
 _atom_site_label
 _atom_site_symmetry_multiplicity
 _atom_site_fract_x
 _atom_site_fract_y
 _atom_site_fract_z
 _atom_site_occupancy
  Rb  Rb0  1  0.999328  0.999328  0.000000  1
  P  P1  1  0.660516  0.660516  0.000000  1
  Ru  Ru2  1  0.750806  0.250806  0.500000  1
  Ru  Ru3  1  0.250806  0.750806  0.500000  1
  S  S4  1  0.338543  0.338543  0.000000  1
