# generated using pymatgen
data_Er4AgRh
_symmetry_space_group_name_H-M   'P 1'
_cell_length_a   9.45332560
_cell_length_b   9.45332485
_cell_length_c   9.45332500
_cell_angle_alpha   59.99999596
_cell_angle_beta   59.99999859
_cell_angle_gamma   59.99999644
_symmetry_Int_Tables_number   1
_chemical_formula_structural   Er4AgRh
_chemical_formula_sum   'Er16 Ag4 Rh4'
_cell_volume   597.36360577
_cell_formula_units_Z   4
loop_
 _symmetry_equiv_pos_site_id
 _symmetry_equiv_pos_as_xyz
  1  'x, y, z'
loop_
 _atom_site_type_symbol
 _atom_site_label
 _atom_site_symmetry_multiplicity
 _atom_site_fract_x
 _atom_site_fract_y
 _atom_site_fract_z
 _atom_site_occupancy
  Er  Er0  1  0.188411  0.188411  0.811589  1
  Er  Er1  1  0.434985  0.065015  0.065015  1
  Er  Er2  1  0.434985  0.065015  0.434985  1
  Er  Er3  1  0.065015  0.434985  0.065015  1
  Er  Er4  1  0.647606  0.057182  0.647606  1
  Er  Er5  1  0.188411  0.811589  0.811589  1
  Er  Er6  1  0.065015  0.065015  0.434985  1
  Er  Er7  1  0.811589  0.188411  0.188411  1
  Er  Er8  1  0.811589  0.811589  0.188411  1
  Er  Er9  1  0.647606  0.647606  0.057182  1
  Er  Er10  1  0.647606  0.647606  0.647606  1
  Er  Er11  1  0.065015  0.434985  0.434985  1
  Er  Er12  1  0.057182  0.647606  0.647606  1
  Er  Er13  1  0.811589  0.188411  0.811589  1
  Er  Er14  1  0.434985  0.434985  0.065015  1
  Er  Er15  1  0.188411  0.811589  0.188411  1
  Ag  Ag16  1  0.417565  0.747306  0.417565  1
  Ag  Ag17  1  0.417565  0.417565  0.747306  1
  Ag  Ag18  1  0.747306  0.417565  0.417565  1
  Ag  Ag19  1  0.417565  0.417565  0.417565  1
  Rh  Rh20  1  0.857079  0.428762  0.857079  1
  Rh  Rh21  1  0.857079  0.857079  0.428762  1
  Rh  Rh22  1  0.428762  0.857079  0.857079  1
  Rh  Rh23  1  0.857079  0.857079  0.857079  1
