# generated using pymatgen
data_LuHg4Se2Br5
_symmetry_space_group_name_H-M   'P 1'
_cell_length_a   8.62703272
_cell_length_b   10.91050900
_cell_length_c   9.41425192
_cell_angle_alpha   90.00000000
_cell_angle_beta   113.69981070
_cell_angle_gamma   90.00000000
_symmetry_Int_Tables_number   1
_chemical_formula_structural   LuHg4Se2Br5
_chemical_formula_sum   'Lu2 Hg8 Se4 Br10'
_cell_volume   811.38761690
_cell_formula_units_Z   2
loop_
 _symmetry_equiv_pos_site_id
 _symmetry_equiv_pos_as_xyz
  1  'x, y, z'
loop_
 _atom_site_type_symbol
 _atom_site_label
 _atom_site_symmetry_multiplicity
 _atom_site_fract_x
 _atom_site_fract_y
 _atom_site_fract_z
 _atom_site_occupancy
  Lu  Lu0  1  0.501570  0.430108  0.503721  1
  Lu  Lu1  1  0.498430  0.930108  0.496279  1
  Hg  Hg2  1  0.926366  0.184895  0.332304  1
  Hg  Hg3  1  0.073634  0.684895  0.667696  1
  Hg  Hg4  1  0.954271  0.665408  0.362489  1
  Hg  Hg5  1  0.045729  0.165408  0.637511  1
  Hg  Hg6  1  0.495301  0.183146  0.987746  1
  Hg  Hg7  1  0.504699  0.683146  0.012254  1
  Hg  Hg8  1  0.801706  0.432683  0.010635  1
  Hg  Hg9  1  0.198294  0.932683  0.989365  1
  Se  Se10  1  0.804390  0.197463  0.026831  1
  Se  Se11  1  0.195610  0.697463  0.973169  1
  Se  Se12  1  0.185684  0.165376  0.943224  1
  Se  Se13  1  0.814316  0.665376  0.056776  1
  Br  Br14  1  0.834373  0.924881  0.683767  1
  Br  Br15  1  0.165627  0.424881  0.316233  1
  Br  Br16  1  0.841108  0.437485  0.701479  1
  Br  Br17  1  0.158892  0.937485  0.298521  1
  Br  Br18  1  0.413088  0.458112  0.754313  1
  Br  Br19  1  0.586912  0.958112  0.245687  1
  Br  Br20  1  0.591457  0.394585  0.261601  1
  Br  Br21  1  0.408543  0.894585  0.738399  1
  Br  Br22  1  0.495729  0.179458  0.555051  1
  Br  Br23  1  0.504271  0.679458  0.444949  1
