# generated using pymatgen
data_TmLuB6Rh
_symmetry_space_group_name_H-M   'P 1'
_cell_length_a   3.60167800
_cell_length_b   9.08754900
_cell_length_c   11.41373500
_cell_angle_alpha   90.00000000
_cell_angle_beta   90.00000000
_cell_angle_gamma   90.00000000
_symmetry_Int_Tables_number   1
_chemical_formula_structural   TmLuB6Rh
_chemical_formula_sum   'Tm4 Lu4 B24 Rh4'
_cell_volume   373.57640089
_cell_formula_units_Z   4
loop_
 _symmetry_equiv_pos_site_id
 _symmetry_equiv_pos_as_xyz
  1  'x, y, z'
loop_
 _atom_site_type_symbol
 _atom_site_label
 _atom_site_symmetry_multiplicity
 _atom_site_fract_x
 _atom_site_fract_y
 _atom_site_fract_z
 _atom_site_occupancy
  Tm  Tm0  1  0.500000  0.321500  0.413662  1
  Tm  Tm1  1  0.500000  0.678500  0.586338  1
  Tm  Tm2  1  0.500000  0.178500  0.913662  1
  Tm  Tm3  1  0.500000  0.821500  0.086338  1
  Lu  Lu4  1  0.500000  0.444555  0.126623  1
  Lu  Lu5  1  0.500000  0.555445  0.873377  1
  Lu  Lu6  1  0.500000  0.055445  0.626623  1
  Lu  Lu7  1  0.500000  0.944555  0.373377  1
  B  B8  1  0.000000  0.107491  0.470886  1
  B  B9  1  0.000000  0.892509  0.529114  1
  B  B10  1  0.000000  0.392509  0.970886  1
  B  B11  1  0.000000  0.607491  0.029114  1
  B  B12  1  0.000000  0.132804  0.316791  1
  B  B13  1  0.000000  0.867196  0.683209  1
  B  B14  1  0.000000  0.367196  0.816791  1
  B  B15  1  0.000000  0.632804  0.183209  1
  B  B16  1  0.000000  0.054149  0.064917  1
  B  B17  1  0.000000  0.945851  0.935083  1
  B  B18  1  0.000000  0.445851  0.564917  1
  B  B19  1  0.000000  0.554149  0.435083  1
  B  B20  1  0.000000  0.482306  0.286392  1
  B  B21  1  0.000000  0.517694  0.713608  1
  B  B22  1  0.000000  0.017694  0.786392  1
  B  B23  1  0.000000  0.982306  0.213608  1
  B  B24  1  0.000000  0.250598  0.079080  1
  B  B25  1  0.000000  0.749402  0.920920  1
  B  B26  1  0.000000  0.249402  0.579080  1
  B  B27  1  0.000000  0.750598  0.420920  1
  B  B28  1  0.000000  0.295234  0.236246  1
  B  B29  1  0.000000  0.704766  0.763754  1
  B  B30  1  0.000000  0.204766  0.736246  1
  B  B31  1  0.000000  0.795234  0.263754  1
  Rh  Rh32  1  0.500000  0.140232  0.179051  1
  Rh  Rh33  1  0.500000  0.859768  0.820949  1
  Rh  Rh34  1  0.500000  0.359768  0.679051  1
  Rh  Rh35  1  0.500000  0.640232  0.320949  1
