# generated using pymatgen
data_Er16InAg3Pt4
_symmetry_space_group_name_H-M   'P 1'
_cell_length_a   9.52783524
_cell_length_b   9.55989091
_cell_length_c   9.55989000
_cell_angle_alpha   60.00000315
_cell_angle_beta   59.88864638
_cell_angle_gamma   59.88865075
_symmetry_Int_Tables_number   1
_chemical_formula_structural   Er16InAg3Pt4
_chemical_formula_sum   'Er16 In1 Ag3 Pt4'
_cell_volume   614.68423892
_cell_formula_units_Z   1
loop_
 _symmetry_equiv_pos_site_id
 _symmetry_equiv_pos_as_xyz
  1  'x, y, z'
loop_
 _atom_site_type_symbol
 _atom_site_label
 _atom_site_symmetry_multiplicity
 _atom_site_fract_x
 _atom_site_fract_y
 _atom_site_fract_z
 _atom_site_occupancy
  Er  Er0  1  0.355340  0.353561  0.353561  1
  Er  Er1  1  0.355340  0.353561  0.937538  1
  Er  Er2  1  0.355340  0.937538  0.353561  1
  Er  Er3  1  0.933484  0.355506  0.355506  1
  Er  Er4  1  0.811191  0.188667  0.188667  1
  Er  Er5  1  0.188523  0.810310  0.810310  1
  Er  Er6  1  0.188523  0.810310  0.190857  1
  Er  Er7  1  0.811191  0.188667  0.811475  1
  Er  Er8  1  0.188523  0.190857  0.810310  1
  Er  Er9  1  0.811191  0.811475  0.188667  1
  Er  Er10  1  0.931487  0.565254  0.565254  1
  Er  Er11  1  0.564786  0.934772  0.934772  1
  Er  Er12  1  0.564786  0.934772  0.565670  1
  Er  Er13  1  0.931487  0.565254  0.938005  1
  Er  Er14  1  0.564786  0.565670  0.934772  1
  Er  Er15  1  0.931487  0.938005  0.565254  1
  In  In16  1  0.258223  0.580592  0.580592  1
  Ag  Ag17  1  0.584595  0.584344  0.584344  1
  Ag  Ag18  1  0.584595  0.584344  0.246717  1
  Ag  Ag19  1  0.584595  0.246717  0.584344  1
  Pt  Pt20  1  0.143747  0.144059  0.144059  1
  Pt  Pt21  1  0.143747  0.144059  0.568133  1
  Pt  Pt22  1  0.143747  0.568133  0.144059  1
  Pt  Pt23  1  0.569281  0.143573  0.143573  1
