# generated using pymatgen
data_Tb2Y6Re(TcB8)3
_symmetry_space_group_name_H-M   'P 1'
_cell_length_a   3.69289200
_cell_length_b   9.18659133
_cell_length_c   11.57690000
_cell_angle_alpha   89.97016860
_cell_angle_beta   90.00000000
_cell_angle_gamma   90.00000000
_symmetry_Int_Tables_number   1
_chemical_formula_structural   Tb2Y6Re(TcB8)3
_chemical_formula_sum   'Tb2 Y6 Re1 Tc3 B24'
_cell_volume   392.74731681
_cell_formula_units_Z   1
loop_
 _symmetry_equiv_pos_site_id
 _symmetry_equiv_pos_as_xyz
  1  'x, y, z'
loop_
 _atom_site_type_symbol
 _atom_site_label
 _atom_site_symmetry_multiplicity
 _atom_site_fract_x
 _atom_site_fract_y
 _atom_site_fract_z
 _atom_site_occupancy
  Tb  Tb0  1  0.000000  0.823972  0.085875  1
  Tb  Tb1  1  0.000000  0.176242  0.914135  1
  Y  Y2  1  0.000000  0.323663  0.414057  1
  Y  Y3  1  0.000000  0.676635  0.585638  1
  Y  Y4  1  0.000000  0.442385  0.130856  1
  Y  Y5  1  0.000000  0.558196  0.870062  1
  Y  Y6  1  0.000000  0.942367  0.369264  1
  Y  Y7  1  0.000000  0.056576  0.630240  1
  Re  Re8  1  0.000000  0.361743  0.679201  1
  Tc  Tc9  1  0.000000  0.138457  0.179360  1
  Tc  Tc10  1  0.000000  0.861600  0.820699  1
  Tc  Tc11  1  0.000000  0.638407  0.320612  1
  B  B12  1  0.500000  0.053395  0.067268  1
  B  B13  1  0.500000  0.946748  0.932691  1
  B  B14  1  0.500000  0.553266  0.432737  1
  B  B15  1  0.500000  0.446930  0.566959  1
  B  B16  1  0.500000  0.248446  0.081785  1
  B  B17  1  0.500000  0.751810  0.918278  1
  B  B18  1  0.500000  0.748350  0.418265  1
  B  B19  1  0.500000  0.251240  0.581562  1
  B  B20  1  0.500000  0.291375  0.234734  1
  B  B21  1  0.500000  0.708601  0.765437  1
  B  B22  1  0.500000  0.791326  0.265285  1
  B  B23  1  0.500000  0.208316  0.734565  1
  B  B24  1  0.500000  0.130596  0.314183  1
  B  B25  1  0.500000  0.869211  0.685812  1
  B  B26  1  0.500000  0.630621  0.185818  1
  B  B27  1  0.500000  0.369576  0.814317  1
  B  B28  1  0.500000  0.482155  0.288456  1
  B  B29  1  0.500000  0.518162  0.711768  1
  B  B30  1  0.500000  0.982235  0.211618  1
  B  B31  1  0.500000  0.017690  0.788271  1
  B  B32  1  0.500000  0.100336  0.471757  1
  B  B33  1  0.500000  0.899159  0.528020  1
  B  B34  1  0.500000  0.600336  0.028371  1
  B  B35  1  0.500000  0.399878  0.972045  1
