# generated using pymatgen
data_Ba5Ru2O9F
_symmetry_space_group_name_H-M   'P 1'
_cell_length_a   6.15806927
_cell_length_b   6.15806904
_cell_length_c   17.64808300
_cell_angle_alpha   90.00000000
_cell_angle_beta   90.00000000
_cell_angle_gamma   120.26783903
_symmetry_Int_Tables_number   1
_chemical_formula_structural   Ba5Ru2O9F
_chemical_formula_sum   'Ba10 Ru4 O18 F2'
_cell_volume   578.01462392
_cell_formula_units_Z   2
loop_
 _symmetry_equiv_pos_site_id
 _symmetry_equiv_pos_as_xyz
  1  'x, y, z'
loop_
 _atom_site_type_symbol
 _atom_site_label
 _atom_site_symmetry_multiplicity
 _atom_site_fract_x
 _atom_site_fract_y
 _atom_site_fract_z
 _atom_site_occupancy
  Ba  Ba0  1  0.168421  0.831579  0.012706  1
  Ba  Ba1  1  0.831579  0.168421  0.512706  1
  Ba  Ba2  1  0.832761  0.167239  0.746092  1
  Ba  Ba3  1  0.167239  0.832761  0.246092  1
  Ba  Ba4  1  0.497841  0.502159  0.354936  1
  Ba  Ba5  1  0.502159  0.497841  0.854936  1
  Ba  Ba6  1  0.498405  0.501595  0.637285  1
  Ba  Ba7  1  0.833240  0.166760  0.979459  1
  Ba  Ba8  1  0.501595  0.498405  0.137285  1
  Ba  Ba9  1  0.166760  0.833240  0.479459  1
  Ru  Ru10  1  0.171632  0.828368  0.670761  1
  Ru  Ru11  1  0.161100  0.838900  0.821534  1
  Ru  Ru12  1  0.828368  0.171632  0.170761  1
  Ru  Ru13  1  0.838900  0.161100  0.321534  1
  O  O14  1  0.464692  0.008905  0.883357  1
  O  O15  1  0.003994  0.996006  0.879459  1
  O  O16  1  0.681621  0.318379  0.249915  1
  O  O17  1  0.319461  0.138537  0.744280  1
  O  O18  1  0.008905  0.464692  0.383357  1
  O  O19  1  0.991095  0.535308  0.883357  1
  O  O20  1  0.032604  0.517983  0.611602  1
  O  O21  1  0.021805  0.978195  0.607464  1
  O  O22  1  0.517983  0.032604  0.111602  1
  O  O23  1  0.861463  0.680539  0.744280  1
  O  O24  1  0.680539  0.861463  0.244280  1
  O  O25  1  0.138537  0.319461  0.244280  1
  O  O26  1  0.996006  0.003994  0.379459  1
  O  O27  1  0.318379  0.681621  0.749915  1
  O  O28  1  0.482017  0.967396  0.611602  1
  O  O29  1  0.967396  0.482017  0.111602  1
  O  O30  1  0.535308  0.991095  0.383357  1
  O  O31  1  0.978195  0.021805  0.107464  1
  F  F32  1  0.437093  0.562907  0.996114  1
  F  F33  1  0.562907  0.437093  0.496114  1
