# generated using pymatgen
data_DyLu6Co6Sn22Hg
_symmetry_space_group_name_H-M   'P 1'
_cell_length_a   9.62053000
_cell_length_b   9.62052917
_cell_length_c   9.97445000
_cell_angle_alpha   90.00000000
_cell_angle_beta   90.00000000
_cell_angle_gamma   119.99999597
_symmetry_Int_Tables_number   1
_chemical_formula_structural   DyLu6Co6Sn22Hg
_chemical_formula_sum   'Dy1 Lu6 Co6 Sn22 Hg1'
_cell_volume   799.49833943
_cell_formula_units_Z   1
loop_
 _symmetry_equiv_pos_site_id
 _symmetry_equiv_pos_as_xyz
  1  'x, y, z'
loop_
 _atom_site_type_symbol
 _atom_site_label
 _atom_site_symmetry_multiplicity
 _atom_site_fract_x
 _atom_site_fract_y
 _atom_site_fract_z
 _atom_site_occupancy
  Dy  Dy0  1  0.000000  0.000000  0.000000  1
  Lu  Lu1  1  0.480115  0.519885  0.306402  1
  Lu  Lu2  1  0.519885  0.480115  0.693598  1
  Lu  Lu3  1  0.480115  0.960230  0.306402  1
  Lu  Lu4  1  0.519885  0.039770  0.693598  1
  Lu  Lu5  1  0.039770  0.519885  0.306402  1
  Lu  Lu6  1  0.960230  0.480115  0.693598  1
  Co  Co7  1  0.831192  0.168808  0.197966  1
  Co  Co8  1  0.168808  0.831192  0.802034  1
  Co  Co9  1  0.831192  0.662384  0.197966  1
  Co  Co10  1  0.168808  0.337616  0.802034  1
  Co  Co11  1  0.337616  0.168808  0.197966  1
  Co  Co12  1  0.662384  0.831192  0.802034  1
  Sn  Sn13  1  0.346763  0.000000  0.000000  1
  Sn  Sn14  1  0.653237  0.000000  0.000000  1
  Sn  Sn15  1  0.000000  0.346763  0.000000  1
  Sn  Sn16  1  0.000000  0.653237  0.000000  1
  Sn  Sn17  1  0.653237  0.653237  0.000000  1
  Sn  Sn18  1  0.346763  0.346763  0.000000  1
  Sn  Sn19  1  0.333333  0.666667  0.818410  1
  Sn  Sn20  1  0.666667  0.333333  0.181590  1
  Sn  Sn21  1  0.781918  0.218082  0.453987  1
  Sn  Sn22  1  0.218082  0.781918  0.546013  1
  Sn  Sn23  1  0.781918  0.563837  0.453987  1
  Sn  Sn24  1  0.218082  0.436163  0.546013  1
  Sn  Sn25  1  0.436163  0.218082  0.453987  1
  Sn  Sn26  1  0.563837  0.781918  0.546013  1
  Sn  Sn27  1  0.333333  0.666667  0.123535  1
  Sn  Sn28  1  0.666667  0.333333  0.876465  1
  Sn  Sn29  1  0.117667  0.882333  0.270937  1
  Sn  Sn30  1  0.882333  0.117667  0.729063  1
  Sn  Sn31  1  0.117667  0.235333  0.270937  1
  Sn  Sn32  1  0.882333  0.764667  0.729063  1
  Sn  Sn33  1  0.764667  0.882333  0.270937  1
  Sn  Sn34  1  0.235333  0.117667  0.729063  1
  Hg  Hg35  1  0.000000  0.000000  0.500000  1
