# generated using pymatgen
data_Hg5WO6
_symmetry_space_group_name_H-M   'P 1'
_cell_length_a   8.41928981
_cell_length_b   8.41929025
_cell_length_c   6.97801730
_cell_angle_alpha   85.28070590
_cell_angle_beta   85.28070370
_cell_angle_gamma   89.96128908
_symmetry_Int_Tables_number   1
_chemical_formula_structural   Hg5WO6
_chemical_formula_sum   'Hg10 W2 O12'
_cell_volume   491.27544878
_cell_formula_units_Z   2
loop_
 _symmetry_equiv_pos_site_id
 _symmetry_equiv_pos_as_xyz
  1  'x, y, z'
loop_
 _atom_site_type_symbol
 _atom_site_label
 _atom_site_symmetry_multiplicity
 _atom_site_fract_x
 _atom_site_fract_y
 _atom_site_fract_z
 _atom_site_occupancy
  Hg  Hg0  1  0.344549  0.182700  0.707612  1
  Hg  Hg1  1  0.817300  0.655451  0.792388  1
  Hg  Hg2  1  0.655451  0.817300  0.292388  1
  Hg  Hg3  1  0.182700  0.344549  0.207612  1
  Hg  Hg4  1  0.940482  0.383563  0.708279  1
  Hg  Hg5  1  0.383563  0.940482  0.208279  1
  Hg  Hg6  1  0.059518  0.616437  0.291721  1
  Hg  Hg7  1  0.616437  0.059518  0.791721  1
  Hg  Hg8  1  0.000000  0.000000  0.000000  1
  Hg  Hg9  1  0.000000  0.000000  0.500000  1
  W  W10  1  0.322762  0.677238  0.750000  1
  W  W11  1  0.677238  0.322762  0.250000  1
  O  O12  1  0.282544  0.464139  0.791220  1
  O  O13  1  0.535861  0.717456  0.708780  1
  O  O14  1  0.717456  0.535861  0.208780  1
  O  O15  1  0.464139  0.282544  0.291220  1
  O  O16  1  0.239372  0.773700  0.960589  1
  O  O17  1  0.226300  0.760628  0.539411  1
  O  O18  1  0.760628  0.226300  0.039411  1
  O  O19  1  0.773700  0.239372  0.460589  1
  O  O20  1  0.821236  0.909254  0.846653  1
  O  O21  1  0.090746  0.178764  0.653347  1
  O  O22  1  0.178764  0.090746  0.153347  1
  O  O23  1  0.909254  0.821236  0.346653  1
