# generated using pymatgen
data_Ti8Al14GeRu2Pt3Rh2
_symmetry_space_group_name_H-M   'P 1'
_cell_length_a   8.67847200
_cell_length_b   8.66266707
_cell_length_c   8.67847200
_cell_angle_alpha   120.01289619
_cell_angle_beta   119.98218572
_cell_angle_gamma   90.05655419
_symmetry_Int_Tables_number   1
_chemical_formula_structural   Ti8Al14GeRu2Pt3Rh2
_chemical_formula_sum   'Ti8 Al14 Ge1 Ru2 Pt3 Rh2'
_cell_volume   461.14829399
_cell_formula_units_Z   1
loop_
 _symmetry_equiv_pos_site_id
 _symmetry_equiv_pos_as_xyz
  1  'x, y, z'
loop_
 _atom_site_type_symbol
 _atom_site_label
 _atom_site_symmetry_multiplicity
 _atom_site_fract_x
 _atom_site_fract_y
 _atom_site_fract_z
 _atom_site_occupancy
  Ti  Ti0  1  0.793628  0.294951  0.080306  1
  Ti  Ti1  1  0.214646  0.294951  0.501324  1
  Ti  Ti2  1  0.206160  0.704525  0.498365  1
  Ti  Ti3  1  0.208488  0.710169  0.915050  1
  Ti  Ti4  1  0.795119  0.710169  0.501681  1
  Ti  Ti5  1  0.789937  0.293126  0.503189  1
  Ti  Ti6  1  0.380812  0.121949  0.741136  1
  Ti  Ti7  1  0.374588  0.634944  0.260356  1
  Al  Al8  1  0.155905  0.340052  0.184146  1
  Al  Al9  1  0.157156  0.977048  0.819891  1
  Al  Al10  1  0.153713  0.343032  0.814689  1
  Al  Al11  1  0.528342  0.343032  0.189318  1
  Al  Al12  1  0.841306  0.656628  0.815325  1
  Al  Al13  1  0.845231  0.029546  0.184315  1
  Al  Al14  1  0.843075  0.655919  0.180229  1
  Al  Al15  1  0.475690  0.655919  0.812845  1
  Al  Al16  1  0.378510  0.124736  0.265001  1
  Al  Al17  1  0.859736  0.124736  0.746226  1
  Al  Al18  1  0.619078  0.879871  0.260794  1
  Al  Al19  1  0.623430  0.362454  0.739026  1
  Al  Al20  1  0.622465  0.874919  0.737102  1
  Al  Al21  1  0.137817  0.874919  0.252453  1
  Ge  Ge22  1  0.998128  0.496033  0.497904  1
  Ru  Ru23  1  0.497788  0.499395  0.496988  1
  Ru  Ru24  1  0.002406  0.499395  0.001607  1
  Pt  Pt25  1  0.999271  0.998893  0.498813  1
  Pt  Pt26  1  0.500080  0.998893  0.999621  1
  Pt  Pt27  1  0.499007  0.501014  0.002007  1
  Rh  Rh28  1  0.999993  0.999479  0.999485  1
  Rh  Rh29  1  0.498493  0.999304  0.500811  1
