# generated using pymatgen
data_Ca6Ga5GeIr4
_symmetry_space_group_name_H-M   'P 1'
_cell_length_a   5.77857800
_cell_length_b   8.10757200
_cell_length_c   15.01061100
_cell_angle_alpha   90.00000000
_cell_angle_beta   90.00000000
_cell_angle_gamma   90.00000000
_symmetry_Int_Tables_number   1
_chemical_formula_structural   Ca6Ga5GeIr4
_chemical_formula_sum   'Ca12 Ga10 Ge2 Ir8'
_cell_volume   703.25068576
_cell_formula_units_Z   2
loop_
 _symmetry_equiv_pos_site_id
 _symmetry_equiv_pos_as_xyz
  1  'x, y, z'
loop_
 _atom_site_type_symbol
 _atom_site_label
 _atom_site_symmetry_multiplicity
 _atom_site_fract_x
 _atom_site_fract_y
 _atom_site_fract_z
 _atom_site_occupancy
  Ca  Ca0  1  0.891175  0.452943  0.108859  1
  Ca  Ca1  1  0.391175  0.047057  0.891141  1
  Ca  Ca2  1  0.612789  0.956228  0.390667  1
  Ca  Ca3  1  0.112789  0.543772  0.609333  1
  Ca  Ca4  1  0.112789  0.543772  0.890667  1
  Ca  Ca5  1  0.612789  0.956228  0.109333  1
  Ca  Ca6  1  0.391175  0.047057  0.608859  1
  Ca  Ca7  1  0.891175  0.452943  0.391141  1
  Ca  Ca8  1  0.376133  0.298115  0.250000  1
  Ca  Ca9  1  0.876133  0.201885  0.750000  1
  Ca  Ca10  1  0.113478  0.808012  0.250000  1
  Ca  Ca11  1  0.613478  0.691988  0.750000  1
  Ga  Ga12  1  0.575509  0.645011  0.250000  1
  Ga  Ga13  1  0.075509  0.854989  0.750000  1
  Ga  Ga14  1  0.381554  0.324353  0.038777  1
  Ga  Ga15  1  0.881554  0.175647  0.961223  1
  Ga  Ga16  1  0.124568  0.823931  0.461166  1
  Ga  Ga17  1  0.624568  0.676069  0.538834  1
  Ga  Ga18  1  0.624568  0.676069  0.961166  1
  Ga  Ga19  1  0.124568  0.823931  0.038834  1
  Ga  Ga20  1  0.881554  0.175647  0.538777  1
  Ga  Ga21  1  0.381554  0.324353  0.461223  1
  Ge  Ge22  1  0.903089  0.151298  0.250000  1
  Ge  Ge23  1  0.403089  0.348702  0.750000  1
  Ir  Ir24  1  0.111783  0.111365  0.101358  1
  Ir  Ir25  1  0.611783  0.388635  0.898642  1
  Ir  Ir26  1  0.394027  0.612350  0.399446  1
  Ir  Ir27  1  0.894027  0.887650  0.600554  1
  Ir  Ir28  1  0.894027  0.887650  0.899446  1
  Ir  Ir29  1  0.394027  0.612350  0.100554  1
  Ir  Ir30  1  0.611783  0.388635  0.601358  1
  Ir  Ir31  1  0.111783  0.111365  0.398642  1
