# generated using pymatgen
data_Li2GdHo(SiO4)2
_symmetry_space_group_name_H-M   'P 1'
_cell_length_a   6.25359431
_cell_length_b   5.46559379
_cell_length_c   10.97394357
_cell_angle_alpha   66.42087720
_cell_angle_beta   90.27604729
_cell_angle_gamma   90.21609776
_symmetry_Int_Tables_number   1
_chemical_formula_structural   Li2GdHo(SiO4)2
_chemical_formula_sum   'Li4 Gd2 Ho2 Si4 O16'
_cell_volume   343.76398656
_cell_formula_units_Z   2
loop_
 _symmetry_equiv_pos_site_id
 _symmetry_equiv_pos_as_xyz
  1  'x, y, z'
loop_
 _atom_site_type_symbol
 _atom_site_label
 _atom_site_symmetry_multiplicity
 _atom_site_fract_x
 _atom_site_fract_y
 _atom_site_fract_z
 _atom_site_occupancy
  Li  Li0  1  0.134178  0.918762  0.430319  1
  Li  Li1  1  0.633886  0.079403  0.070353  1
  Li  Li2  1  0.865822  0.081238  0.569681  1
  Li  Li3  1  0.366114  0.920597  0.929647  1
  Gd  Gd4  1  0.117396  0.445954  0.846674  1
  Gd  Gd5  1  0.882604  0.554046  0.153326  1
  Ho  Ho6  1  0.616100  0.554612  0.651249  1
  Ho  Ho7  1  0.383900  0.445388  0.348751  1
  Si  Si8  1  0.649052  0.903381  0.360748  1
  Si  Si9  1  0.350948  0.096619  0.639252  1
  Si  Si10  1  0.154474  0.093736  0.142545  1
  Si  Si11  1  0.845526  0.906264  0.857455  1
  O  O12  1  0.854341  0.231769  0.774209  1
  O  O13  1  0.637084  0.228862  0.278890  1
  O  O14  1  0.164683  0.185938  0.523494  1
  O  O15  1  0.833688  0.760539  0.751311  1
  O  O16  1  0.145659  0.768231  0.225791  1
  O  O17  1  0.571695  0.230206  0.553395  1
  O  O18  1  0.658468  0.759544  0.253727  1
  O  O19  1  0.428305  0.769794  0.446605  1
  O  O20  1  0.069884  0.779842  0.942290  1
  O  O21  1  0.661801  0.817331  0.973757  1
  O  O22  1  0.166312  0.239461  0.248689  1
  O  O23  1  0.930116  0.220158  0.057710  1
  O  O24  1  0.338199  0.182669  0.026243  1
  O  O25  1  0.341532  0.240456  0.746273  1
  O  O26  1  0.362916  0.771138  0.721110  1
  O  O27  1  0.835317  0.814062  0.476506  1
