# generated using pymatgen
data_Yb2(CoN)3
_symmetry_space_group_name_H-M   'P 1'
_cell_length_a   6.14626824
_cell_length_b   6.14626752
_cell_length_c   5.97268520
_cell_angle_alpha   87.80863882
_cell_angle_beta   87.80862073
_cell_angle_gamma   117.24303316
_symmetry_Int_Tables_number   1
_chemical_formula_structural   Yb2(CoN)3
_chemical_formula_sum   'Yb4 Co6 N6'
_cell_volume   200.05790379
_cell_formula_units_Z   2
loop_
 _symmetry_equiv_pos_site_id
 _symmetry_equiv_pos_as_xyz
  1  'x, y, z'
loop_
 _atom_site_type_symbol
 _atom_site_label
 _atom_site_symmetry_multiplicity
 _atom_site_fract_x
 _atom_site_fract_y
 _atom_site_fract_z
 _atom_site_occupancy
  Yb  Yb0  1  0.831635  0.677985  0.898671  1
  Yb  Yb1  1  0.322015  0.168365  0.601329  1
  Yb  Yb2  1  0.168365  0.322015  0.101329  1
  Yb  Yb3  1  0.677985  0.831635  0.398671  1
  Co  Co4  1  0.812962  0.187038  0.750000  1
  Co  Co5  1  0.187038  0.812962  0.250000  1
  Co  Co6  1  0.560062  0.167084  0.107466  1
  Co  Co7  1  0.439938  0.832916  0.892534  1
  Co  Co8  1  0.832916  0.439938  0.392534  1
  Co  Co9  1  0.167084  0.560062  0.607466  1
  N  N10  1  0.424164  0.575836  0.750000  1
  N  N11  1  0.575836  0.424164  0.250000  1
  N  N12  1  0.010253  0.745555  0.514358  1
  N  N13  1  0.745555  0.010253  0.014358  1
  N  N14  1  0.989747  0.254445  0.485642  1
  N  N15  1  0.254445  0.989747  0.985642  1
