# generated using pymatgen
data_Yb5BiIr2
_symmetry_space_group_name_H-M   'P 1'
_cell_length_a   9.06616148
_cell_length_b   9.06617709
_cell_length_c   9.07725428
_cell_angle_alpha   129.72461540
_cell_angle_beta   129.72459852
_cell_angle_gamma   73.74679613
_symmetry_Int_Tables_number   1
_chemical_formula_structural   Yb5BiIr2
_chemical_formula_sum   'Yb10 Bi2 Ir4'
_cell_volume   430.81362898
_cell_formula_units_Z   2
loop_
 _symmetry_equiv_pos_site_id
 _symmetry_equiv_pos_as_xyz
  1  'x, y, z'
loop_
 _atom_site_type_symbol
 _atom_site_label
 _atom_site_symmetry_multiplicity
 _atom_site_fract_x
 _atom_site_fract_y
 _atom_site_fract_z
 _atom_site_occupancy
  Yb  Yb0  1  0.000000  0.000000  0.000000  1
  Yb  Yb1  1  0.500000  0.500000  0.000000  1
  Yb  Yb2  1  0.793833  0.293833  0.836033  1
  Yb  Yb3  1  0.206167  0.706167  0.163967  1
  Yb  Yb4  1  0.457757  0.957757  0.163879  1
  Yb  Yb5  1  0.293770  0.457857  0.500003  1
  Yb  Yb6  1  0.042145  0.206229  0.499997  1
  Yb  Yb7  1  0.542243  0.042243  0.836121  1
  Yb  Yb8  1  0.706230  0.542143  0.499997  1
  Yb  Yb9  1  0.957855  0.793771  0.500003  1
  Bi  Bi10  1  0.250066  0.249934  0.000000  1
  Bi  Bi11  1  0.749934  0.750066  0.000000  1
  Ir  Ir12  1  0.126174  0.626173  0.752394  1
  Ir  Ir13  1  0.873826  0.373827  0.247606  1
  Ir  Ir14  1  0.625650  0.874350  0.500000  1
  Ir  Ir15  1  0.374350  0.125650  0.500000  1
