# generated using pymatgen
data_Ho3Sc2AlSb2
_symmetry_space_group_name_H-M   'P 1'
_cell_length_a   8.69494134
_cell_length_b   8.71837352
_cell_length_c   6.15689200
_cell_angle_alpha   90.00000000
_cell_angle_beta   90.00000000
_cell_angle_gamma   120.08918558
_symmetry_Int_Tables_number   1
_chemical_formula_structural   Ho3Sc2AlSb2
_chemical_formula_sum   'Ho6 Sc4 Al2 Sb4'
_cell_volume   403.83438635
_cell_formula_units_Z   2
loop_
 _symmetry_equiv_pos_site_id
 _symmetry_equiv_pos_as_xyz
  1  'x, y, z'
loop_
 _atom_site_type_symbol
 _atom_site_label
 _atom_site_symmetry_multiplicity
 _atom_site_fract_x
 _atom_site_fract_y
 _atom_site_fract_z
 _atom_site_occupancy
  Ho  Ho0  1  0.753742  0.998450  0.750000  1
  Ho  Ho1  1  0.753742  0.755291  0.250000  1
  Ho  Ho2  1  0.008746  0.245339  0.250000  1
  Ho  Ho3  1  0.008746  0.763407  0.750000  1
  Ho  Ho4  1  0.243593  0.233902  0.750000  1
  Ho  Ho5  1  0.243593  0.009690  0.250000  1
  Sc  Sc6  1  0.335569  0.667785  0.000000  1
  Sc  Sc7  1  0.656534  0.328266  0.500000  1
  Sc  Sc8  1  0.656534  0.328266  0.000000  1
  Sc  Sc9  1  0.335569  0.667785  0.500000  1
  Al  Al10  1  0.400540  0.997341  0.750000  1
  Al  Al11  1  0.400540  0.403199  0.250000  1
  Sb  Sb12  1  0.999331  0.604479  0.250000  1
  Sb  Sb13  1  0.999331  0.394852  0.750000  1
  Sb  Sb14  1  0.601946  0.600580  0.750000  1
  Sb  Sb15  1  0.601946  0.001366  0.250000  1
