# generated using pymatgen
data_Li12Dy11Er(WO6)8
_symmetry_space_group_name_H-M   'P 1'
_cell_length_a   10.68056345
_cell_length_b   10.68533319
_cell_length_c   10.68537000
_cell_angle_alpha   109.46871956
_cell_angle_beta   109.48183928
_cell_angle_gamma   109.48170389
_symmetry_Int_Tables_number   1
_chemical_formula_structural   Li12Dy11Er(WO6)8
_chemical_formula_sum   'Li12 Dy11 Er1 W8 O48'
_cell_volume   938.53433604
_cell_formula_units_Z   1
loop_
 _symmetry_equiv_pos_site_id
 _symmetry_equiv_pos_as_xyz
  1  'x, y, z'
loop_
 _atom_site_type_symbol
 _atom_site_label
 _atom_site_symmetry_multiplicity
 _atom_site_fract_x
 _atom_site_fract_y
 _atom_site_fract_z
 _atom_site_occupancy
  Li  Li0  1  0.250000  0.374974  0.124974  1
  Li  Li1  1  0.874933  0.249496  0.124924  1
  Li  Li2  1  0.374945  0.124945  0.249935  1
  Li  Li3  1  0.874937  0.625437  0.250008  1
  Li  Li4  1  0.625074  0.749994  0.374547  1
  Li  Li5  1  0.749999  0.124469  0.374469  1
  Li  Li6  1  0.250000  0.875028  0.625026  1
  Li  Li7  1  0.374947  0.249999  0.625016  1
  Li  Li8  1  0.125051  0.374987  0.750003  1
  Li  Li9  1  0.625061  0.875070  0.750494  1
  Li  Li10  1  0.750000  0.625527  0.875530  1
  Li  Li11  1  0.125051  0.750061  0.875052  1
  Dy  Dy12  1  0.375527  0.750276  0.125115  1
  Dy  Dy13  1  0.124472  0.874882  0.249722  1
  Dy  Dy14  1  0.625013  0.375022  0.250077  1
  Dy  Dy15  1  0.250001  0.625002  0.375002  1
  Dy  Dy16  1  0.124477  0.249592  0.374752  1
  Dy  Dy17  1  0.750000  0.375001  0.625001  1
  Dy  Dy18  1  0.874983  0.749923  0.624977  1
  Dy  Dy19  1  0.375521  0.625247  0.750407  1
  Dy  Dy20  1  0.874981  0.125061  0.750005  1
  Dy  Dy21  1  0.249999  0.125002  0.874999  1
  Dy  Dy22  1  0.625019  0.249998  0.874940  1
  Er  Er23  1  0.750002  0.875010  0.125004  1
  W  W24  1  0.999126  0.999696  0.999946  1
  W  W25  1  0.500864  0.000052  0.000295  1
  W  W26  1  0.500867  0.500807  0.000569  1
  W  W27  1  0.999974  0.500056  0.000034  1
  W  W28  1  0.999137  0.999435  0.499192  1
  W  W29  1  0.500034  0.999971  0.499948  1
  W  W30  1  0.500035  0.500063  0.500093  1
  W  W31  1  0.999971  0.499921  0.499946  1
  O  O32  1  0.119281  0.701075  0.027473  1
  O  O33  1  0.906909  0.826846  0.028264  1
  O  O34  1  0.673782  0.201212  0.081752  1
  O  O35  1  0.408309  0.381114  0.081759  1
  O  O36  1  0.673787  0.472573  0.092037  1
  O  O37  1  0.418882  0.119123  0.092180  1
  O  O38  1  0.917273  0.091043  0.119369  1
  O  O39  1  0.201127  0.527539  0.119395  1
  O  O40  1  0.582730  0.702103  0.173776  1
  O  O41  1  0.593095  0.971736  0.173158  1
  O  O42  1  0.027454  0.619424  0.200977  1
  O  O43  1  0.173156  0.081453  0.200757  1
  O  O44  1  0.380717  0.972525  0.298924  1
  O  O45  1  0.917273  0.826226  0.297898  1
  O  O46  1  0.027450  0.408026  0.326472  1
  O  O47  1  0.298874  0.418266  0.326411  1
  O  O48  1  0.906905  0.080062  0.378639  1
  O  O49  1  0.472549  0.799026  0.380577  1
  O  O50  1  0.880647  0.581637  0.408063  1
  O  O51  1  0.527423  0.326482  0.408093  1
  O  O52  1  0.619351  0.591933  0.418362  1
  O  O53  1  0.798949  0.326390  0.418304  1
  O  O54  1  0.298877  0.880609  0.472465  1
  O  O55  1  0.173156  0.091704  0.472401  1
  O  O56  1  0.826219  0.907970  0.527427  1
  O  O57  1  0.701049  0.119352  0.527438  1
  O  O58  1  0.380715  0.408191  0.581792  1
  O  O59  1  0.201125  0.673590  0.581732  1
  O  O60  1  0.472548  0.673522  0.591974  1
  O  O61  1  0.119282  0.418207  0.591808  1
  O  O62  1  0.091695  0.918246  0.618889  1
  O  O63  1  0.527425  0.200939  0.619331  1
  O  O64  1  0.701046  0.581694  0.673607  1
  O  O65  1  0.972575  0.591905  0.673516  1
  O  O66  1  0.619353  0.027418  0.700990  1
  O  O67  1  0.081115  0.173293  0.700238  1
  O  O68  1  0.826217  0.918248  0.798788  1
  O  O69  1  0.972573  0.380669  0.799055  1
  O  O70  1  0.408303  0.027192  0.826548  1
  O  O71  1  0.418881  0.299760  0.826708  1
  O  O72  1  0.081122  0.907825  0.880882  1
  O  O73  1  0.798949  0.472561  0.880646  1
  O  O74  1  0.326846  0.527599  0.908298  1
  O  O75  1  0.582726  0.880623  0.908950  1
  O  O76  1  0.326844  0.799245  0.918547  1
  O  O77  1  0.593092  0.621357  0.919934  1
  O  O78  1  0.091697  0.173453  0.972810  1
  O  O79  1  0.880649  0.299011  0.972584  1
