# generated using pymatgen
data_Y15HoCd4Ir3Pd
_symmetry_space_group_name_H-M   'P 1'
_cell_length_a   9.67342156
_cell_length_b   9.67342100
_cell_length_c   9.67341999
_cell_angle_alpha   60.10198226
_cell_angle_beta   60.10198480
_cell_angle_gamma   60.10198266
_symmetry_Int_Tables_number   1
_chemical_formula_structural   Y15HoCd4Ir3Pd
_chemical_formula_sum   'Y15 Ho1 Cd4 Ir3 Pd1'
_cell_volume   641.54574233
_cell_formula_units_Z   1
loop_
 _symmetry_equiv_pos_site_id
 _symmetry_equiv_pos_as_xyz
  1  'x, y, z'
loop_
 _atom_site_type_symbol
 _atom_site_label
 _atom_site_symmetry_multiplicity
 _atom_site_fract_x
 _atom_site_fract_y
 _atom_site_fract_z
 _atom_site_occupancy
  Y  Y0  1  0.353647  0.353647  0.947257  1
  Y  Y1  1  0.353647  0.947257  0.353647  1
  Y  Y2  1  0.947257  0.353647  0.353647  1
  Y  Y3  1  0.804341  0.190834  0.190834  1
  Y  Y4  1  0.188581  0.810312  0.810312  1
  Y  Y5  1  0.190834  0.804341  0.190834  1
  Y  Y6  1  0.810312  0.188581  0.810312  1
  Y  Y7  1  0.190834  0.190834  0.804341  1
  Y  Y8  1  0.810312  0.810312  0.188581  1
  Y  Y9  1  0.938656  0.562820  0.562820  1
  Y  Y10  1  0.564892  0.936882  0.936882  1
  Y  Y11  1  0.562820  0.938656  0.562820  1
  Y  Y12  1  0.936882  0.564892  0.936882  1
  Y  Y13  1  0.562820  0.562820  0.938656  1
  Y  Y14  1  0.936882  0.936882  0.564892  1
  Ho  Ho15  1  0.347314  0.347314  0.347314  1
  Cd  Cd16  1  0.580676  0.580676  0.580676  1
  Cd  Cd17  1  0.580648  0.580648  0.256623  1
  Cd  Cd18  1  0.580648  0.256623  0.580648  1
  Cd  Cd19  1  0.256623  0.580648  0.580648  1
  Ir  Ir20  1  0.142573  0.142573  0.573164  1
  Ir  Ir21  1  0.142573  0.573164  0.142573  1
  Ir  Ir22  1  0.573164  0.142573  0.142573  1
  Pd  Pd23  1  0.143067  0.143067  0.143067  1
