# generated using pymatgen
data_CaTb2(MgIr)3
_symmetry_space_group_name_H-M   'P 1'
_cell_length_a   7.15054900
_cell_length_b   7.26848602
_cell_length_c   4.16754300
_cell_angle_alpha   90.00000000
_cell_angle_beta   90.00000000
_cell_angle_gamma   119.46468621
_symmetry_Int_Tables_number   1
_chemical_formula_structural   CaTb2(MgIr)3
_chemical_formula_sum   'Ca1 Tb2 Mg3 Ir3'
_cell_volume   188.58691037
_cell_formula_units_Z   1
loop_
 _symmetry_equiv_pos_site_id
 _symmetry_equiv_pos_as_xyz
  1  'x, y, z'
loop_
 _atom_site_type_symbol
 _atom_site_label
 _atom_site_symmetry_multiplicity
 _atom_site_fract_x
 _atom_site_fract_y
 _atom_site_fract_z
 _atom_site_occupancy
  Ca  Ca0  1  0.413384  0.000000  0.500000  1
  Tb  Tb1  1  0.000546  0.410751  0.500000  1
  Tb  Tb2  1  0.589796  0.589249  0.500000  1
  Mg  Mg3  1  0.751435  0.000000  0.000000  1
  Mg  Mg4  1  0.243106  0.240291  0.000000  1
  Mg  Mg5  1  0.002816  0.759709  0.000000  1
  Ir  Ir6  1  0.678694  0.348434  0.000000  1
  Ir  Ir7  1  0.330260  0.651566  0.000000  1
  Ir  Ir8  1  0.989961  0.000000  0.500000  1
