# generated using pymatgen
data_Lu4NbOs7
_symmetry_space_group_name_H-M   'P 1'
_cell_length_a   5.37129000
_cell_length_b   5.28296115
_cell_length_c   8.89107000
_cell_angle_alpha   90.00000000
_cell_angle_beta   90.00000000
_cell_angle_gamma   120.55462493
_symmetry_Int_Tables_number   1
_chemical_formula_structural   Lu4NbOs7
_chemical_formula_sum   'Lu4 Nb1 Os7'
_cell_volume   217.26325229
_cell_formula_units_Z   1
loop_
 _symmetry_equiv_pos_site_id
 _symmetry_equiv_pos_as_xyz
  1  'x, y, z'
loop_
 _atom_site_type_symbol
 _atom_site_label
 _atom_site_symmetry_multiplicity
 _atom_site_fract_x
 _atom_site_fract_y
 _atom_site_fract_z
 _atom_site_occupancy
  Lu  Lu0  1  0.330769  0.661538  0.430393  1
  Lu  Lu1  1  0.668184  0.336367  0.560203  1
  Lu  Lu2  1  0.668184  0.336367  0.939797  1
  Lu  Lu3  1  0.330769  0.661538  0.069607  1
  Nb  Nb4  1  0.164901  0.329803  0.750000  1
  Os  Os5  1  0.177100  0.829859  0.750000  1
  Os  Os6  1  0.355479  0.176595  0.250000  1
  Os  Os7  1  0.840435  0.680870  0.250000  1
  Os  Os8  1  0.652757  0.829859  0.750000  1
  Os  Os9  1  0.995152  0.990304  0.003076  1
  Os  Os10  1  0.821117  0.176595  0.250000  1
  Os  Os11  1  0.995152  0.990304  0.496924  1
