# generated using pymatgen
data_Na5YBr8
_symmetry_space_group_name_H-M   'P 1'
_cell_length_a   7.45957642
_cell_length_b   7.45957698
_cell_length_c   8.60929600
_cell_angle_alpha   90.00000000
_cell_angle_beta   90.00000000
_cell_angle_gamma   109.11687274
_symmetry_Int_Tables_number   1
_chemical_formula_structural   Na5YBr8
_chemical_formula_sum   'Na5 Y1 Br8'
_cell_volume   452.64739846
_cell_formula_units_Z   1
loop_
 _symmetry_equiv_pos_site_id
 _symmetry_equiv_pos_as_xyz
  1  'x, y, z'
loop_
 _atom_site_type_symbol
 _atom_site_label
 _atom_site_symmetry_multiplicity
 _atom_site_fract_x
 _atom_site_fract_y
 _atom_site_fract_z
 _atom_site_occupancy
  Na  Na0  1  0.500000  0.000000  0.234853  1
  Na  Na1  1  0.000000  0.500000  0.765147  1
  Na  Na2  1  0.500000  0.000000  0.765147  1
  Na  Na3  1  0.000000  0.500000  0.234853  1
  Na  Na4  1  0.500000  0.500000  0.000000  1
  Y  Y5  1  0.500000  0.500000  0.500000  1
  Br  Br6  1  0.271848  0.271848  0.267166  1
  Br  Br7  1  0.728152  0.728152  0.267166  1
  Br  Br8  1  0.266530  0.733470  0.500000  1
  Br  Br9  1  0.271848  0.271848  0.732834  1
  Br  Br10  1  0.728152  0.728152  0.732834  1
  Br  Br11  1  0.257508  0.742492  0.000000  1
  Br  Br12  1  0.733470  0.266530  0.500000  1
  Br  Br13  1  0.742492  0.257508  0.000000  1
