# generated using pymatgen
data_La4NdSmOsI10
_symmetry_space_group_name_H-M   'P 1'
_cell_length_a   8.12193748
_cell_length_b   10.14508111
_cell_length_c   10.01246359
_cell_angle_alpha   107.04207385
_cell_angle_beta   96.95705104
_cell_angle_gamma   106.05810211
_symmetry_Int_Tables_number   1
_chemical_formula_structural   La4NdSmOsI10
_chemical_formula_sum   'La4 Nd1 Sm1 Os1 I10'
_cell_volume   739.41886682
_cell_formula_units_Z   1
loop_
 _symmetry_equiv_pos_site_id
 _symmetry_equiv_pos_as_xyz
  1  'x, y, z'
loop_
 _atom_site_type_symbol
 _atom_site_label
 _atom_site_symmetry_multiplicity
 _atom_site_fract_x
 _atom_site_fract_y
 _atom_site_fract_z
 _atom_site_occupancy
  La  La0  1  0.861417  0.134849  0.678353  1
  La  La1  1  0.138792  0.864671  0.321655  1
  La  La2  1  0.385140  0.956111  0.728753  1
  La  La3  1  0.614947  0.043196  0.270998  1
  Nd  Nd4  1  0.468640  0.293369  0.587849  1
  Sm  Sm5  1  0.530029  0.708235  0.412468  1
  Os  Os6  1  0.500313  0.998446  0.499520  1
  I  I7  1  0.416563  0.627809  0.676003  1
  I  I8  1  0.583914  0.373356  0.322734  1
  I  I9  1  0.296310  0.264001  0.850700  1
  I  I10  1  0.702799  0.735691  0.150494  1
  I  I11  1  0.851359  0.459302  0.771680  1
  I  I12  1  0.150742  0.541287  0.229218  1
  I  I13  1  0.050504  0.183589  0.410513  1
  I  I14  1  0.239831  0.913718  0.035793  1
  I  I15  1  0.760155  0.086305  0.964222  1
  I  I16  1  0.948543  0.816062  0.589046  1
