# generated using pymatgen
data_PaTcH6
_symmetry_space_group_name_H-M   'P 1'
_cell_length_a   4.54803559
_cell_length_b   4.54803738
_cell_length_c   4.54959090
_cell_angle_alpha   57.51806985
_cell_angle_beta   57.51807493
_cell_angle_gamma   57.52995712
_symmetry_Int_Tables_number   1
_chemical_formula_structural   PaTcH6
_chemical_formula_sum   'Pa1 Tc1 H6'
_cell_volume   62.75143000
_cell_formula_units_Z   1
loop_
 _symmetry_equiv_pos_site_id
 _symmetry_equiv_pos_as_xyz
  1  'x, y, z'
loop_
 _atom_site_type_symbol
 _atom_site_label
 _atom_site_symmetry_multiplicity
 _atom_site_fract_x
 _atom_site_fract_y
 _atom_site_fract_z
 _atom_site_occupancy
  Pa  Pa0  1  0.500000  0.500000  0.500000  1
  Tc  Tc1  1  0.000000  0.000000  0.000000  1
  H  H2  1  0.536385  0.105276  0.105243  1
  H  H3  1  0.105276  0.536385  0.105243  1
  H  H4  1  0.894956  0.894956  0.463317  1
  H  H5  1  0.105044  0.105044  0.536682  1
  H  H6  1  0.894724  0.463614  0.894757  1
  H  H7  1  0.463614  0.894724  0.894757  1
