# generated using pymatgen
data_SrNdSi7Ir12
_symmetry_space_group_name_H-M   'P 1'
_cell_length_a   9.82795400
_cell_length_b   9.82795415
_cell_length_c   3.92354100
_cell_angle_alpha   90.00000000
_cell_angle_beta   90.00000000
_cell_angle_gamma   119.99999951
_symmetry_Int_Tables_number   1
_chemical_formula_structural   SrNdSi7Ir12
_chemical_formula_sum   'Sr1 Nd1 Si7 Ir12'
_cell_volume   328.19734672
_cell_formula_units_Z   1
loop_
 _symmetry_equiv_pos_site_id
 _symmetry_equiv_pos_as_xyz
  1  'x, y, z'
loop_
 _atom_site_type_symbol
 _atom_site_label
 _atom_site_symmetry_multiplicity
 _atom_site_fract_x
 _atom_site_fract_y
 _atom_site_fract_z
 _atom_site_occupancy
  Sr  Sr0  1  0.666667  0.333333  0.250554  1
  Nd  Nd1  1  0.333333  0.666667  0.750051  1
  Si  Si2  1  0.000000  0.000000  0.499793  1
  Si  Si3  1  0.290290  0.888699  0.248861  1
  Si  Si4  1  0.598409  0.709710  0.248861  1
  Si  Si5  1  0.111301  0.401591  0.248861  1
  Si  Si6  1  0.711222  0.113276  0.750984  1
  Si  Si7  1  0.402054  0.288778  0.750984  1
  Si  Si8  1  0.886724  0.597946  0.750984  1
  Ir  Ir9  1  0.259441  0.116396  0.254459  1
  Ir  Ir10  1  0.856956  0.740559  0.254459  1
  Ir  Ir11  1  0.883604  0.143044  0.254459  1
  Ir  Ir12  1  0.740739  0.884990  0.745627  1
  Ir  Ir13  1  0.144250  0.259261  0.745627  1
  Ir  Ir14  1  0.115010  0.855750  0.745627  1
  Ir  Ir15  1  0.061925  0.620291  0.248490  1
  Ir  Ir16  1  0.558366  0.938075  0.248490  1
  Ir  Ir17  1  0.379709  0.441634  0.248490  1
  Ir  Ir18  1  0.943826  0.383482  0.751447  1
  Ir  Ir19  1  0.439655  0.056174  0.751447  1
  Ir  Ir20  1  0.616518  0.560345  0.751447  1
