# generated using pymatgen
data_Ta3NbGa3BMo
_symmetry_space_group_name_H-M   'P 1'
_cell_length_a   7.77369915
_cell_length_b   7.76379113
_cell_length_c   5.29145810
_cell_angle_alpha   90.01116813
_cell_angle_beta   89.97769221
_cell_angle_gamma   120.04222053
_symmetry_Int_Tables_number   1
_chemical_formula_structural   Ta3NbGa3BMo
_chemical_formula_sum   'Ta6 Nb2 Ga6 B2 Mo2'
_cell_volume   276.45382778
_cell_formula_units_Z   2
loop_
 _symmetry_equiv_pos_site_id
 _symmetry_equiv_pos_as_xyz
  1  'x, y, z'
loop_
 _atom_site_type_symbol
 _atom_site_label
 _atom_site_symmetry_multiplicity
 _atom_site_fract_x
 _atom_site_fract_y
 _atom_site_fract_z
 _atom_site_occupancy
  Ta  Ta0  1  0.000487  0.242815  0.254885  1
  Ta  Ta1  1  0.999513  0.757185  0.745115  1
  Ta  Ta2  1  0.757671  0.757185  0.254885  1
  Ta  Ta3  1  0.242329  0.242815  0.745115  1
  Ta  Ta4  1  0.667223  0.334446  0.500000  1
  Ta  Ta5  1  0.332777  0.665554  0.500000  1
  Nb  Nb6  1  0.243022  0.000000  0.254910  1
  Nb  Nb7  1  0.756978  0.000000  0.745090  1
  Ga  Ga8  1  0.597200  0.000000  0.240923  1
  Ga  Ga9  1  0.402800  0.000000  0.759077  1
  Ga  Ga10  1  0.000248  0.597577  0.240863  1
  Ga  Ga11  1  0.999752  0.402423  0.759137  1
  Ga  Ga12  1  0.402671  0.402423  0.240863  1
  Ga  Ga13  1  0.597329  0.597577  0.759137  1
  B  B14  1  0.000000  0.000000  0.000000  1
  B  B15  1  0.000000  0.000000  0.500000  1
  Mo  Mo16  1  0.332819  0.665638  0.000000  1
  Mo  Mo17  1  0.667181  0.334362  0.000000  1
