# generated using pymatgen
data_Tb8Dy2(IrRh)3
_symmetry_space_group_name_H-M   'P 1'
_cell_length_a   10.92373907
_cell_length_b   10.92371900
_cell_length_c   6.40129304
_cell_angle_alpha   90.00000000
_cell_angle_beta   89.98692912
_cell_angle_gamma   90.00000000
_symmetry_Int_Tables_number   1
_chemical_formula_structural   Tb8Dy2(IrRh)3
_chemical_formula_sum   'Tb16 Dy4 Ir6 Rh6'
_cell_volume   763.85255468
_cell_formula_units_Z   2
loop_
 _symmetry_equiv_pos_site_id
 _symmetry_equiv_pos_as_xyz
  1  'x, y, z'
loop_
 _atom_site_type_symbol
 _atom_site_label
 _atom_site_symmetry_multiplicity
 _atom_site_fract_x
 _atom_site_fract_y
 _atom_site_fract_z
 _atom_site_occupancy
  Tb  Tb0  1  0.290079  0.089046  0.379365  1
  Tb  Tb1  1  0.290079  0.910954  0.879365  1
  Tb  Tb2  1  0.708629  0.089934  0.878916  1
  Tb  Tb3  1  0.708629  0.910066  0.378916  1
  Tb  Tb4  1  0.587798  0.789938  0.879724  1
  Tb  Tb5  1  0.587798  0.210062  0.379724  1
  Tb  Tb6  1  0.410774  0.790275  0.379438  1
  Tb  Tb7  1  0.410774  0.209725  0.879438  1
  Tb  Tb8  1  0.209840  0.410806  0.620360  1
  Tb  Tb9  1  0.209840  0.589194  0.120360  1
  Tb  Tb10  1  0.790023  0.412208  0.120469  1
  Tb  Tb11  1  0.790023  0.587792  0.620469  1
  Tb  Tb12  1  0.911339  0.709268  0.121284  1
  Tb  Tb13  1  0.911339  0.290732  0.621284  1
  Tb  Tb14  1  0.090338  0.709292  0.620500  1
  Tb  Tb15  1  0.090338  0.290708  0.120500  1
  Dy  Dy16  1  0.000413  0.999889  0.500021  1
  Dy  Dy17  1  0.000413  0.000111  0.000021  1
  Dy  Dy18  1  0.500090  0.499828  0.999969  1
  Dy  Dy19  1  0.500090  0.500172  0.499969  1
  Ir  Ir20  1  0.152879  0.153461  0.750081  1
  Ir  Ir21  1  0.152879  0.846539  0.250081  1
  Ir  Ir22  1  0.654219  0.346018  0.749903  1
  Ir  Ir23  1  0.654219  0.653982  0.249903  1
  Ir  Ir24  1  0.346573  0.346360  0.250142  1
  Ir  Ir25  1  0.346573  0.653640  0.750142  1
  Rh  Rh26  1  0.846518  0.152973  0.249904  1
  Rh  Rh27  1  0.846518  0.847027  0.749904  1
  Rh  Rh28  1  0.500967  0.000020  0.124021  1
  Rh  Rh29  1  0.500967  0.999980  0.624021  1
  Rh  Rh30  1  0.999521  0.500176  0.875903  1
  Rh  Rh31  1  0.999521  0.499824  0.375903  1
