# generated using pymatgen
data_Dy8Sc11Si16Ag
_symmetry_space_group_name_H-M   'P 1'
_cell_length_a   7.03865309
_cell_length_b   7.39542214
_cell_length_c   14.01343800
_cell_angle_alpha   90.00000000
_cell_angle_beta   90.00000000
_cell_angle_gamma   89.91221402
_symmetry_Int_Tables_number   1
_chemical_formula_structural   Dy8Sc11Si16Ag
_chemical_formula_sum   'Dy8 Sc11 Si16 Ag1'
_cell_volume   729.45199592
_cell_formula_units_Z   1
loop_
 _symmetry_equiv_pos_site_id
 _symmetry_equiv_pos_as_xyz
  1  'x, y, z'
loop_
 _atom_site_type_symbol
 _atom_site_label
 _atom_site_symmetry_multiplicity
 _atom_site_fract_x
 _atom_site_fract_y
 _atom_site_fract_z
 _atom_site_occupancy
  Dy  Dy0  1  0.011383  0.175562  0.096673  1
  Dy  Dy1  1  0.990510  0.815543  0.900686  1
  Dy  Dy2  1  0.483631  0.673992  0.901131  1
  Dy  Dy3  1  0.990510  0.815543  0.599314  1
  Dy  Dy4  1  0.510937  0.323617  0.096628  1
  Dy  Dy5  1  0.011383  0.175562  0.403327  1
  Dy  Dy6  1  0.510937  0.323617  0.403372  1
  Dy  Dy7  1  0.483631  0.673992  0.598869  1
  Sc  Sc8  1  0.838457  0.497290  0.250000  1
  Sc  Sc9  1  0.339581  0.002730  0.250000  1
  Sc  Sc10  1  0.658419  0.997943  0.750000  1
  Sc  Sc11  1  0.326638  0.182677  0.626397  1
  Sc  Sc12  1  0.670931  0.823502  0.374900  1
  Sc  Sc13  1  0.170810  0.678037  0.374196  1
  Sc  Sc14  1  0.670931  0.823502  0.125100  1
  Sc  Sc15  1  0.835188  0.327118  0.626446  1
  Sc  Sc16  1  0.326638  0.182677  0.873603  1
  Sc  Sc17  1  0.835188  0.327118  0.873554  1
  Sc  Sc18  1  0.170810  0.678037  0.125804  1
  Si  Si19  1  0.028350  0.100584  0.750000  1
  Si  Si20  1  0.968887  0.886447  0.250000  1
  Si  Si21  1  0.467469  0.616973  0.250000  1
  Si  Si22  1  0.537372  0.384845  0.750000  1
  Si  Si23  1  0.289329  0.885458  0.750000  1
  Si  Si24  1  0.713492  0.127197  0.250000  1
  Si  Si25  1  0.212538  0.372551  0.250000  1
  Si  Si26  1  0.776406  0.628980  0.750000  1
  Si  Si27  1  0.160480  0.460073  0.531845  1
  Si  Si28  1  0.843167  0.535753  0.462038  1
  Si  Si29  1  0.344815  0.965357  0.462451  1
  Si  Si30  1  0.843167  0.535753  0.037962  1
  Si  Si31  1  0.657713  0.033732  0.540098  1
  Si  Si32  1  0.160480  0.460073  0.968155  1
  Si  Si33  1  0.657713  0.033732  0.959902  1
  Si  Si34  1  0.344815  0.965357  0.037549  1
  Ag  Ag35  1  0.157292  0.509072  0.750000  1
