# generated using pymatgen
data_LaHo3Er3CoI12
_symmetry_space_group_name_H-M   'P 1'
_cell_length_a   9.75680616
_cell_length_b   9.75680694
_cell_length_c   9.75680719
_cell_angle_alpha   106.22514401
_cell_angle_beta   106.22514441
_cell_angle_gamma   106.22515118
_symmetry_Int_Tables_number   1
_chemical_formula_structural   LaHo3Er3CoI12
_chemical_formula_sum   'La1 Ho3 Er3 Co1 I12'
_cell_volume   789.29457974
_cell_formula_units_Z   1
loop_
 _symmetry_equiv_pos_site_id
 _symmetry_equiv_pos_as_xyz
  1  'x, y, z'
loop_
 _atom_site_type_symbol
 _atom_site_label
 _atom_site_symmetry_multiplicity
 _atom_site_fract_x
 _atom_site_fract_y
 _atom_site_fract_z
 _atom_site_occupancy
  La  La0  1  0.996874  0.996874  0.996874  1
  Ho  Ho1  1  0.482290  0.410906  0.216452  1
  Ho  Ho2  1  0.216452  0.482290  0.410906  1
  Ho  Ho3  1  0.410906  0.216452  0.482290  1
  Er  Er4  1  0.516172  0.587181  0.780346  1
  Er  Er5  1  0.780346  0.516172  0.587181  1
  Er  Er6  1  0.587181  0.780346  0.516172  1
  Co  Co7  1  0.498778  0.498778  0.498778  1
  I  I8  1  0.277453  0.823643  0.427179  1
  I  I9  1  0.427179  0.277453  0.823643  1
  I  I10  1  0.823643  0.427179  0.277453  1
  I  I11  1  0.722467  0.175508  0.571695  1
  I  I12  1  0.571695  0.722467  0.175508  1
  I  I13  1  0.175508  0.571695  0.722467  1
  I  I14  1  0.046239  0.124489  0.352750  1
  I  I15  1  0.352750  0.046239  0.124489  1
  I  I16  1  0.124489  0.352750  0.046239  1
  I  I17  1  0.950475  0.872378  0.642094  1
  I  I18  1  0.642094  0.950475  0.872378  1
  I  I19  1  0.872378  0.642094  0.950475  1
