# generated using pymatgen
data_KRb2ErBr6
_symmetry_space_group_name_H-M   'P 1'
_cell_length_a   8.16592871
_cell_length_b   8.16592911
_cell_length_c   8.35221837
_cell_angle_alpha   118.75060692
_cell_angle_beta   118.75061153
_cell_angle_gamma   60.85860206
_symmetry_Int_Tables_number   1
_chemical_formula_structural   KRb2ErBr6
_chemical_formula_sum   'K1 Rb2 Er1 Br6'
_cell_volume   403.72763191
_cell_formula_units_Z   1
loop_
 _symmetry_equiv_pos_site_id
 _symmetry_equiv_pos_as_xyz
  1  'x, y, z'
loop_
 _atom_site_type_symbol
 _atom_site_label
 _atom_site_symmetry_multiplicity
 _atom_site_fract_x
 _atom_site_fract_y
 _atom_site_fract_z
 _atom_site_occupancy
  K  K0  1  0.500000  0.500000  0.500001  1
  Rb  Rb1  1  0.745806  0.745806  0.221596  1
  Rb  Rb2  1  0.254194  0.254194  0.778406  1
  Er  Er3  1  0.000000  0.000000  0.000000  1
  Br  Br4  1  0.702773  0.175650  0.164919  1
  Br  Br5  1  0.175650  0.702773  0.164919  1
  Br  Br6  1  0.224380  0.224380  0.329678  1
  Br  Br7  1  0.775620  0.775620  0.670322  1
  Br  Br8  1  0.824350  0.297228  0.835080  1
  Br  Br9  1  0.297228  0.824350  0.835080  1
