# generated using pymatgen
data_Tb12Re(Si4Ir)3
_symmetry_space_group_name_H-M   'P 1'
_cell_length_a   4.24719000
_cell_length_b   10.72942936
_cell_length_c   12.39442638
_cell_angle_alpha   90.07948157
_cell_angle_beta   90.00000000
_cell_angle_gamma   90.00000000
_symmetry_Int_Tables_number   1
_chemical_formula_structural   Tb12Re(Si4Ir)3
_chemical_formula_sum   'Tb12 Re1 Si12 Ir3'
_cell_volume   564.81253809
_cell_formula_units_Z   1
loop_
 _symmetry_equiv_pos_site_id
 _symmetry_equiv_pos_as_xyz
  1  'x, y, z'
loop_
 _atom_site_type_symbol
 _atom_site_label
 _atom_site_symmetry_multiplicity
 _atom_site_fract_x
 _atom_site_fract_y
 _atom_site_fract_z
 _atom_site_occupancy
  Tb  Tb0  1  0.250000  0.879470  0.020912  1
  Tb  Tb1  1  0.250000  0.619823  0.522010  1
  Tb  Tb2  1  0.750000  0.118238  0.979435  1
  Tb  Tb3  1  0.750000  0.379772  0.479337  1
  Tb  Tb4  1  0.250000  0.920911  0.603662  1
  Tb  Tb5  1  0.250000  0.580855  0.105777  1
  Tb  Tb6  1  0.750000  0.080324  0.394629  1
  Tb  Tb7  1  0.750000  0.419980  0.896366  1
  Tb  Tb8  1  0.250000  0.663521  0.799439  1
  Tb  Tb9  1  0.250000  0.840096  0.300851  1
  Tb  Tb10  1  0.750000  0.341166  0.197967  1
  Tb  Tb11  1  0.750000  0.158091  0.699224  1
  Re  Re12  1  0.250000  0.390254  0.680367  1
  Si  Si13  1  0.250000  0.008741  0.821424  1
  Si  Si14  1  0.250000  0.489885  0.321924  1
  Si  Si15  1  0.750000  0.990584  0.178796  1
  Si  Si16  1  0.750000  0.507866  0.680576  1
  Si  Si17  1  0.250000  0.247686  0.841192  1
  Si  Si18  1  0.250000  0.252465  0.340073  1
  Si  Si19  1  0.750000  0.752998  0.159230  1
  Si  Si20  1  0.750000  0.750089  0.657971  1
  Si  Si21  1  0.250000  0.202868  0.542945  1
  Si  Si22  1  0.250000  0.295782  0.043422  1
  Si  Si23  1  0.750000  0.798415  0.456389  1
  Si  Si24  1  0.750000  0.700411  0.956816  1
  Ir  Ir25  1  0.250000  0.109804  0.180578  1
  Ir  Ir26  1  0.750000  0.611308  0.318973  1
  Ir  Ir27  1  0.750000  0.888597  0.819714  1
