# generated using pymatgen
data_Er2Pa2TlInNi4
_symmetry_space_group_name_H-M   'P 1'
_cell_length_a   7.48547026
_cell_length_b   7.46215473
_cell_length_c   3.53827400
_cell_angle_alpha   90.00000000
_cell_angle_beta   90.00000000
_cell_angle_gamma   94.05528977
_symmetry_Int_Tables_number   1
_chemical_formula_structural   Er2Pa2TlInNi4
_chemical_formula_sum   'Er2 Pa2 Tl1 In1 Ni4'
_cell_volume   197.14514294
_cell_formula_units_Z   1
loop_
 _symmetry_equiv_pos_site_id
 _symmetry_equiv_pos_as_xyz
  1  'x, y, z'
loop_
 _atom_site_type_symbol
 _atom_site_label
 _atom_site_symmetry_multiplicity
 _atom_site_fract_x
 _atom_site_fract_y
 _atom_site_fract_z
 _atom_site_occupancy
  Er  Er0  1  0.168824  0.328532  0.500000  1
  Er  Er1  1  0.831176  0.671468  0.500000  1
  Pa  Pa2  1  0.675148  0.170334  0.500000  1
  Pa  Pa3  1  0.324852  0.829666  0.500000  1
  Tl  Tl4  1  0.500000  0.500000  0.000000  1
  In  In5  1  0.000000  0.000000  0.000000  1
  Ni  Ni6  1  0.128458  0.635689  0.000000  1
  Ni  Ni7  1  0.871542  0.364311  0.000000  1
  Ni  Ni8  1  0.619099  0.886362  0.000000  1
  Ni  Ni9  1  0.380901  0.113638  0.000000  1
