# generated using pymatgen
data_Cs2LiSn11O24
_symmetry_space_group_name_H-M   'P 1'
_cell_length_a   7.82155009
_cell_length_b   7.89496102
_cell_length_c   9.64902764
_cell_angle_alpha   101.90096995
_cell_angle_beta   101.99703757
_cell_angle_gamma   87.57434691
_symmetry_Int_Tables_number   1
_chemical_formula_structural   Cs2LiSn11O24
_chemical_formula_sum   'Cs2 Li1 Sn11 O24'
_cell_volume   570.29391328
_cell_formula_units_Z   1
loop_
 _symmetry_equiv_pos_site_id
 _symmetry_equiv_pos_as_xyz
  1  'x, y, z'
loop_
 _atom_site_type_symbol
 _atom_site_label
 _atom_site_symmetry_multiplicity
 _atom_site_fract_x
 _atom_site_fract_y
 _atom_site_fract_z
 _atom_site_occupancy
  Cs  Cs0  1  0.000761  0.998802  0.209625  1
  Cs  Cs1  1  0.015696  0.008928  0.799929  1
  Li  Li2  1  0.491790  0.218451  0.949967  1
  Sn  Sn3  1  0.490193  0.186585  0.617899  1
  Sn  Sn4  1  0.489856  0.184420  0.272171  1
  Sn  Sn5  1  0.183718  0.507543  0.112079  1
  Sn  Sn6  1  0.185248  0.514666  0.449497  1
  Sn  Sn7  1  0.185072  0.509179  0.785439  1
  Sn  Sn8  1  0.808641  0.479769  0.214129  1
  Sn  Sn9  1  0.814153  0.484683  0.549230  1
  Sn  Sn10  1  0.807170  0.485434  0.881467  1
  Sn  Sn11  1  0.511428  0.819740  0.721614  1
  Sn  Sn12  1  0.505493  0.817476  0.054455  1
  Sn  Sn13  1  0.519609  0.818990  0.389872  1
  O  O14  1  0.356932  0.040147  0.076429  1
  O  O15  1  0.371908  0.054502  0.404504  1
  O  O16  1  0.367318  0.045404  0.730338  1
  O  O17  1  0.291311  0.373047  0.277683  1
  O  O18  1  0.290215  0.380165  0.944869  1
  O  O19  1  0.295605  0.378206  0.611292  1
  O  O20  1  0.050394  0.629931  0.278158  1
  O  O21  1  0.053600  0.633711  0.615533  1
  O  O22  1  0.042454  0.638555  0.947780  1
  O  O23  1  0.620511  0.297963  0.485179  1
  O  O24  1  0.625687  0.298037  0.815260  1
  O  O25  1  0.626364  0.292688  0.156935  1
  O  O26  1  0.375499  0.703228  0.183790  1
  O  O27  1  0.380099  0.702297  0.511154  1
  O  O28  1  0.371087  0.706021  0.844568  1
  O  O29  1  0.943660  0.362207  0.049819  1
  O  O30  1  0.949360  0.365583  0.386545  1
  O  O31  1  0.945813  0.366083  0.716920  1
  O  O32  1  0.704079  0.627422  0.719048  1
  O  O33  1  0.700623  0.624791  0.055562  1
  O  O34  1  0.706318  0.623375  0.388665  1
  O  O35  1  0.639537  0.933237  0.930795  1
  O  O36  1  0.640714  0.943367  0.263920  1
  O  O37  1  0.642083  0.945363  0.597883  1
