# generated using pymatgen
data_SrCoSi2PbO7
_symmetry_space_group_name_H-M   'P 1'
_cell_length_a   5.29302192
_cell_length_b   8.11858461
_cell_length_c   8.13094800
_cell_angle_alpha   90.00000000
_cell_angle_beta   90.00000000
_cell_angle_gamma   90.32976128
_symmetry_Int_Tables_number   1
_chemical_formula_structural   SrCoSi2PbO7
_chemical_formula_sum   'Sr2 Co2 Si4 Pb2 O14'
_cell_volume   349.39606081
_cell_formula_units_Z   2
loop_
 _symmetry_equiv_pos_site_id
 _symmetry_equiv_pos_as_xyz
  1  'x, y, z'
loop_
 _atom_site_type_symbol
 _atom_site_label
 _atom_site_symmetry_multiplicity
 _atom_site_fract_x
 _atom_site_fract_y
 _atom_site_fract_z
 _atom_site_occupancy
  Sr  Sr0  1  0.009841  0.331472  0.159662  1
  Sr  Sr1  1  0.990159  0.168528  0.659662  1
  Co  Co2  1  0.500430  0.497470  0.499842  1
  Co  Co3  1  0.499570  0.002530  0.999842  1
  Si  Si4  1  0.551008  0.635236  0.141374  1
  Si  Si5  1  0.448361  0.143277  0.362301  1
  Si  Si6  1  0.448992  0.864764  0.641374  1
  Si  Si7  1  0.551639  0.356723  0.862301  1
  Pb  Pb8  1  0.996283  0.826726  0.316062  1
  Pb  Pb9  1  0.003717  0.673274  0.816062  1
  O  O10  1  0.643848  0.494347  0.005276  1
  O  O11  1  0.356152  0.005653  0.505276  1
  O  O12  1  0.244693  0.636257  0.153103  1
  O  O13  1  0.752477  0.157103  0.359191  1
  O  O14  1  0.755308  0.863743  0.653103  1
  O  O15  1  0.247524  0.342897  0.859191  1
  O  O16  1  0.689485  0.808503  0.082507  1
  O  O17  1  0.307027  0.081523  0.191808  1
  O  O18  1  0.297348  0.919403  0.810308  1
  O  O19  1  0.705040  0.189488  0.918565  1
  O  O20  1  0.294960  0.310512  0.418565  1
  O  O21  1  0.310515  0.691497  0.582507  1
  O  O22  1  0.692973  0.418477  0.691808  1
  O  O23  1  0.702652  0.580597  0.310308  1
