# generated using pymatgen
data_Na6Sr6AlGaP8
_symmetry_space_group_name_H-M   'P 1'
_cell_length_a   9.43320700
_cell_length_b   9.43320770
_cell_length_c   7.40868600
_cell_angle_alpha   90.00000000
_cell_angle_beta   90.00000000
_cell_angle_gamma   119.99999403
_symmetry_Int_Tables_number   1
_chemical_formula_structural   Na6Sr6AlGaP8
_chemical_formula_sum   'Na6 Sr6 Al1 Ga1 P8'
_cell_volume   570.94018038
_cell_formula_units_Z   1
loop_
 _symmetry_equiv_pos_site_id
 _symmetry_equiv_pos_as_xyz
  1  'x, y, z'
loop_
 _atom_site_type_symbol
 _atom_site_label
 _atom_site_symmetry_multiplicity
 _atom_site_fract_x
 _atom_site_fract_y
 _atom_site_fract_z
 _atom_site_occupancy
  Na  Na0  1  0.134439  0.865561  0.169964  1
  Na  Na1  1  0.269782  0.134892  0.669510  1
  Na  Na2  1  0.865108  0.730218  0.669510  1
  Na  Na3  1  0.134439  0.268877  0.169964  1
  Na  Na4  1  0.731123  0.865561  0.169964  1
  Na  Na5  1  0.865108  0.134892  0.669510  1
  Sr  Sr6  1  0.953817  0.476908  0.999387  1
  Sr  Sr7  1  0.523092  0.046183  0.999387  1
  Sr  Sr8  1  0.476259  0.952518  0.500069  1
  Sr  Sr9  1  0.047482  0.523741  0.500069  1
  Sr  Sr10  1  0.523092  0.476908  0.999387  1
  Sr  Sr11  1  0.476259  0.523741  0.500069  1
  Al  Al12  1  0.666667  0.333333  0.375736  1
  Ga  Ga13  1  0.333333  0.666667  0.874685  1
  P  P14  1  0.333333  0.666667  0.214258  1
  P  P15  1  0.808105  0.191895  0.280808  1
  P  P16  1  0.619051  0.809526  0.780263  1
  P  P17  1  0.190474  0.380949  0.780263  1
  P  P18  1  0.808105  0.616210  0.280808  1
  P  P19  1  0.666667  0.333333  0.711319  1
  P  P20  1  0.383790  0.191895  0.280808  1
  P  P21  1  0.190474  0.809526  0.780263  1
