# generated using pymatgen
data_RbCdPbF7
_symmetry_space_group_name_H-M   'P 1'
_cell_length_a   6.71538062
_cell_length_b   6.71537968
_cell_length_c   8.76512800
_cell_angle_alpha   90.00000000
_cell_angle_beta   90.00000000
_cell_angle_gamma   117.45956204
_symmetry_Int_Tables_number   1
_chemical_formula_structural   RbCdPbF7
_chemical_formula_sum   'Rb2 Cd2 Pb2 F14'
_cell_volume   350.74203345
_cell_formula_units_Z   2
loop_
 _symmetry_equiv_pos_site_id
 _symmetry_equiv_pos_as_xyz
  1  'x, y, z'
loop_
 _atom_site_type_symbol
 _atom_site_label
 _atom_site_symmetry_multiplicity
 _atom_site_fract_x
 _atom_site_fract_y
 _atom_site_fract_z
 _atom_site_occupancy
  Rb  Rb0  1  0.500000  0.500000  0.500000  1
  Rb  Rb1  1  0.500000  0.500000  0.000000  1
  Cd  Cd2  1  0.808217  0.191783  0.750000  1
  Cd  Cd3  1  0.191783  0.808217  0.250000  1
  Pb  Pb4  1  0.806816  0.193184  0.250000  1
  Pb  Pb5  1  0.193184  0.806816  0.750000  1
  F  F6  1  0.795954  0.204046  0.008946  1
  F  F7  1  0.160759  0.442984  0.250000  1
  F  F8  1  0.557016  0.839241  0.250000  1
  F  F9  1  0.532298  0.828718  0.750000  1
  F  F10  1  0.171282  0.467702  0.750000  1
  F  F11  1  0.795954  0.204046  0.491054  1
  F  F12  1  0.442984  0.160759  0.750000  1
  F  F13  1  0.828718  0.532298  0.250000  1
  F  F14  1  0.467702  0.171282  0.250000  1
  F  F15  1  0.993107  0.006893  0.250000  1
  F  F16  1  0.204046  0.795954  0.508946  1
  F  F17  1  0.204046  0.795954  0.991054  1
  F  F18  1  0.006893  0.993107  0.750000  1
  F  F19  1  0.839241  0.557016  0.750000  1
