# generated using pymatgen
data_Rb4Li2MgTiAs4
_symmetry_space_group_name_H-M   'P 1'
_cell_length_a   9.22576018
_cell_length_b   9.22576029
_cell_length_c   9.22576019
_cell_angle_alpha   138.68235049
_cell_angle_beta   138.26739376
_cell_angle_gamma   60.17713485
_symmetry_Int_Tables_number   1
_chemical_formula_structural   Rb4Li2MgTiAs4
_chemical_formula_sum   'Rb4 Li2 Mg1 Ti1 As4'
_cell_volume   341.52334185
_cell_formula_units_Z   1
loop_
 _symmetry_equiv_pos_site_id
 _symmetry_equiv_pos_as_xyz
  1  'x, y, z'
loop_
 _atom_site_type_symbol
 _atom_site_label
 _atom_site_symmetry_multiplicity
 _atom_site_fract_x
 _atom_site_fract_y
 _atom_site_fract_z
 _atom_site_occupancy
  Rb  Rb0  1  0.098563  0.313812  0.762604  1
  Rb  Rb1  1  0.448791  0.186188  0.284750  1
  Rb  Rb2  1  0.901437  0.664041  0.215250  1
  Rb  Rb3  1  0.551209  0.835959  0.737396  1
  Li  Li4  1  0.500000  0.750000  0.250000  1
  Li  Li5  1  0.500000  0.250000  0.750000  1
  Mg  Mg6  1  0.000000  0.250000  0.250000  1
  Ti  Ti7  1  0.000000  0.750000  0.750000  1
  As  As8  1  0.141291  0.893950  0.208594  1
  As  As9  1  0.858709  0.067303  0.752659  1
  As  As10  1  0.314644  0.606050  0.747341  1
  As  As11  1  0.685356  0.432697  0.291406  1
