# generated using pymatgen
data_PrNd3ScPt3O14
_symmetry_space_group_name_H-M   'P 1'
_cell_length_a   7.42633118
_cell_length_b   7.51329989
_cell_length_c   7.42633108
_cell_angle_alpha   60.32703006
_cell_angle_beta   59.95575581
_cell_angle_gamma   60.32703314
_symmetry_Int_Tables_number   1
_chemical_formula_structural   PrNd3ScPt3O14
_chemical_formula_sum   'Pr1 Nd3 Sc1 Pt3 O14'
_cell_volume   294.33822183
_cell_formula_units_Z   1
loop_
 _symmetry_equiv_pos_site_id
 _symmetry_equiv_pos_as_xyz
  1  'x, y, z'
loop_
 _atom_site_type_symbol
 _atom_site_label
 _atom_site_symmetry_multiplicity
 _atom_site_fract_x
 _atom_site_fract_y
 _atom_site_fract_z
 _atom_site_occupancy
  Pr  Pr0  1  0.625000  0.625000  0.625000  1
  Nd  Nd1  1  0.625000  0.625000  0.125000  1
  Nd  Nd2  1  0.625000  0.125000  0.625000  1
  Nd  Nd3  1  0.125000  0.625000  0.625000  1
  Sc  Sc4  1  0.125000  0.625000  0.125000  1
  Pt  Pt5  1  0.125000  0.125000  0.625000  1
  Pt  Pt6  1  0.625000  0.125000  0.125000  1
  Pt  Pt7  1  0.125000  0.125000  0.125000  1
  O  O8  1  0.501621  0.492340  0.501621  1
  O  O9  1  0.748379  0.757660  0.748379  1
  O  O10  1  0.456030  0.050329  0.456030  1
  O  O11  1  0.212441  0.795807  0.212441  1
  O  O12  1  0.470374  0.453807  0.038624  1
  O  O13  1  0.038624  0.453807  0.470374  1
  O  O14  1  0.456323  0.049493  0.037894  1
  O  O15  1  0.037894  0.049493  0.456323  1
  O  O16  1  0.037559  0.454193  0.037559  1
  O  O17  1  0.793677  0.200507  0.212106  1
  O  O18  1  0.211376  0.796193  0.779626  1
  O  O19  1  0.793970  0.199671  0.793970  1
  O  O20  1  0.212106  0.200507  0.793677  1
  O  O21  1  0.779626  0.796193  0.211376  1
