# generated using pymatgen
data_Yb4Np(UH8)3
_symmetry_space_group_name_H-M   'P 1'
_cell_length_a   6.60864300
_cell_length_b   6.69280900
_cell_length_c   6.60864300
_cell_angle_alpha   90.00000000
_cell_angle_beta   90.00000000
_cell_angle_gamma   90.00000000
_symmetry_Int_Tables_number   1
_chemical_formula_structural   Yb4Np(UH8)3
_chemical_formula_sum   'Yb4 Np1 U3 H24'
_cell_volume   292.30282652
_cell_formula_units_Z   1
loop_
 _symmetry_equiv_pos_site_id
 _symmetry_equiv_pos_as_xyz
  1  'x, y, z'
loop_
 _atom_site_type_symbol
 _atom_site_label
 _atom_site_symmetry_multiplicity
 _atom_site_fract_x
 _atom_site_fract_y
 _atom_site_fract_z
 _atom_site_occupancy
  Yb  Yb0  1  0.246934  0.998473  0.500000  1
  Yb  Yb1  1  0.753066  0.998473  0.500000  1
  Yb  Yb2  1  0.000000  0.501527  0.253066  1
  Yb  Yb3  1  0.000000  0.501527  0.746934  1
  Np  Np4  1  0.500000  0.750000  0.000000  1
  U  U5  1  0.000000  0.999491  0.000000  1
  U  U6  1  0.500000  0.500509  0.500000  1
  U  U7  1  0.500000  0.250000  0.000000  1
  H  H8  1  0.000000  0.150467  0.288100  1
  H  H9  1  0.500000  0.214553  0.661823  1
  H  H10  1  0.500000  0.785346  0.340045  1
  H  H11  1  0.788747  0.649584  0.500000  1
  H  H12  1  0.211253  0.649584  0.500000  1
  H  H13  1  0.352858  0.497395  0.810967  1
  H  H14  1  0.647142  0.497395  0.810967  1
  H  H15  1  0.310967  0.002605  0.147142  1
  H  H16  1  0.161823  0.285447  0.000000  1
  H  H17  1  0.840045  0.714654  0.000000  1
  H  H18  1  0.310967  0.002605  0.852858  1
  H  H19  1  0.838177  0.285447  0.000000  1
  H  H20  1  0.689033  0.002605  0.147142  1
  H  H21  1  0.689033  0.002605  0.852858  1
  H  H22  1  0.159955  0.714654  0.000000  1
  H  H23  1  0.000000  0.850416  0.711253  1
  H  H24  1  0.000000  0.150467  0.711900  1
  H  H25  1  0.000000  0.850416  0.288747  1
  H  H26  1  0.647142  0.497395  0.189033  1
  H  H27  1  0.352858  0.497395  0.189033  1
  H  H28  1  0.788100  0.349533  0.500000  1
  H  H29  1  0.211900  0.349533  0.500000  1
  H  H30  1  0.500000  0.785346  0.659955  1
  H  H31  1  0.500000  0.214553  0.338177  1
