# generated using pymatgen
data_YbDy5Ta4Al12Os7
_symmetry_space_group_name_H-M   'P 1'
_cell_length_a   9.02996840
_cell_length_b   9.03625618
_cell_length_c   9.03625605
_cell_angle_alpha   59.98182615
_cell_angle_beta   60.02302156
_cell_angle_gamma   60.02300956
_symmetry_Int_Tables_number   1
_chemical_formula_structural   YbDy5Ta4Al12Os7
_chemical_formula_sum   'Yb1 Dy5 Ta4 Al12 Os7'
_cell_volume   521.48229021
_cell_formula_units_Z   1
loop_
 _symmetry_equiv_pos_site_id
 _symmetry_equiv_pos_as_xyz
  1  'x, y, z'
loop_
 _atom_site_type_symbol
 _atom_site_label
 _atom_site_symmetry_multiplicity
 _atom_site_fract_x
 _atom_site_fract_y
 _atom_site_fract_z
 _atom_site_occupancy
  Yb  Yb0  1  0.296418  0.703582  0.703582  1
  Dy  Dy1  1  0.706365  0.706859  0.292569  1
  Dy  Dy2  1  0.294207  0.706859  0.292569  1
  Dy  Dy3  1  0.706138  0.293862  0.293862  1
  Dy  Dy4  1  0.294207  0.292569  0.706859  1
  Dy  Dy5  1  0.706365  0.292569  0.706859  1
  Ta  Ta6  1  0.879599  0.879195  0.361605  1
  Ta  Ta7  1  0.879599  0.361605  0.879195  1
  Ta  Ta8  1  0.360939  0.878091  0.878091  1
  Ta  Ta9  1  0.882879  0.878091  0.878091  1
  Al  Al10  1  0.120852  0.119005  0.639291  1
  Al  Al11  1  0.120852  0.639291  0.119005  1
  Al  Al12  1  0.639595  0.119798  0.119798  1
  Al  Al13  1  0.120809  0.119798  0.119798  1
  Al  Al14  1  0.666334  0.668354  0.998981  1
  Al  Al15  1  0.666334  0.998981  0.668354  1
  Al  Al16  1  0.998215  0.667606  0.667606  1
  Al  Al17  1  0.666576  0.667606  0.667606  1
  Al  Al18  1  0.329609  0.331317  0.009465  1
  Al  Al19  1  0.329609  0.009465  0.331317  1
  Al  Al20  1  0.007693  0.331239  0.331239  1
  Al  Al21  1  0.329831  0.331239  0.331239  1
  Os  Os22  1  0.000234  0.999766  0.999766  1
  Os  Os23  1  0.994400  0.996661  0.504194  1
  Os  Os24  1  0.504744  0.996661  0.504194  1
  Os  Os25  1  0.995020  0.504980  0.504980  1
  Os  Os26  1  0.504744  0.504194  0.996661  1
  Os  Os27  1  0.994400  0.504194  0.996661  1
  Os  Os28  1  0.503433  0.996567  0.996567  1
