# generated using pymatgen
data_Y4Al6RuRh
_symmetry_space_group_name_H-M   'P 1'
_cell_length_a   5.54852900
_cell_length_b   5.54852869
_cell_length_c   8.76583200
_cell_angle_alpha   90.00000000
_cell_angle_beta   90.00000000
_cell_angle_gamma   119.99999588
_symmetry_Int_Tables_number   1
_chemical_formula_structural   Y4Al6RuRh
_chemical_formula_sum   'Y4 Al6 Ru1 Rh1'
_cell_volume   233.71118052
_cell_formula_units_Z   1
loop_
 _symmetry_equiv_pos_site_id
 _symmetry_equiv_pos_as_xyz
  1  'x, y, z'
loop_
 _atom_site_type_symbol
 _atom_site_label
 _atom_site_symmetry_multiplicity
 _atom_site_fract_x
 _atom_site_fract_y
 _atom_site_fract_z
 _atom_site_occupancy
  Y  Y0  1  0.666666  0.333333  0.053161  1
  Y  Y1  1  0.666666  0.333333  0.444546  1
  Y  Y2  1  0.333334  0.666668  0.555453  1
  Y  Y3  1  0.333334  0.666668  0.946840  1
  Al  Al4  1  0.162290  0.324580  0.250023  1
  Al  Al5  1  0.162291  0.837709  0.250023  1
  Al  Al6  1  0.675419  0.837709  0.250023  1
  Al  Al7  1  0.324579  0.162289  0.749977  1
  Al  Al8  1  0.837710  0.162289  0.749977  1
  Al  Al9  1  0.837709  0.675420  0.749977  1
  Ru  Ru10  1  0.000000  0.000000  0.500000  1
  Rh  Rh11  1  0.000000  0.000000  0.000000  1
