# generated using pymatgen
data_TbYHo10(BCl3)4
_symmetry_space_group_name_H-M   'P 1'
_cell_length_a   9.41705558
_cell_length_b   9.42330779
_cell_length_c   9.42428534
_cell_angle_alpha   109.49760381
_cell_angle_beta   109.47331591
_cell_angle_gamma   109.47387797
_symmetry_Int_Tables_number   1
_chemical_formula_structural   TbYHo10(BCl3)4
_chemical_formula_sum   'Tb1 Y1 Ho10 B4 Cl12'
_cell_volume   643.54368656
_cell_formula_units_Z   1
loop_
 _symmetry_equiv_pos_site_id
 _symmetry_equiv_pos_as_xyz
  1  'x, y, z'
loop_
 _atom_site_type_symbol
 _atom_site_label
 _atom_site_symmetry_multiplicity
 _atom_site_fract_x
 _atom_site_fract_y
 _atom_site_fract_z
 _atom_site_occupancy
  Tb  Tb0  1  0.264797  0.014543  0.029653  1
  Y  Y1  1  0.234846  0.265325  0.749953  1
  Ho  Ho2  1  0.468017  0.484090  0.234275  1
  Ho  Ho3  1  0.749813  0.234180  0.265818  1
  Ho  Ho4  1  0.750173  0.015773  0.484498  1
  Ho  Ho5  1  0.234189  0.468451  0.484543  1
  Ho  Ho6  1  0.266074  0.750423  0.234246  1
  Ho  Ho7  1  0.031980  0.266176  0.016235  1
  Ho  Ho8  1  0.015761  0.031776  0.265781  1
  Ho  Ho9  1  0.484542  0.750209  0.016229  1
  Ho  Ho10  1  0.484404  0.234223  0.468329  1
  Ho  Ho11  1  0.015456  0.484216  0.749910  1
  B  B12  1  0.249969  0.250982  0.250601  1
  B  B13  1  0.500410  0.999835  0.250609  1
  B  B14  1  0.999676  0.250147  0.499438  1
  B  B15  1  0.250127  0.500609  0.001113  1
  Cl  Cl16  1  0.250230  0.753484  0.743567  1
  Cl  Cl17  1  0.511464  0.506930  0.754966  1
  Cl  Cl18  1  0.988494  0.743225  0.995610  1
  Cl  Cl19  1  0.745030  0.249934  0.755003  1
  Cl  Cl20  1  0.991461  0.988562  0.743597  1
  Cl  Cl21  1  0.250069  0.994030  0.504266  1
  Cl  Cl22  1  0.755109  0.510183  0.505110  1
  Cl  Cl23  1  0.508048  0.252326  0.996447  1
  Cl  Cl24  1  0.754843  0.745107  0.250139  1
  Cl  Cl25  1  0.745042  0.995223  0.990311  1
  Cl  Cl26  1  0.995253  0.505109  0.250155  1
  Cl  Cl27  1  0.504725  0.754927  0.509598  1
