# generated using pymatgen
data_Dy20Ir5Ru3Rh4
_symmetry_space_group_name_H-M   'P 1'
_cell_length_a   10.84039406
_cell_length_b   10.84065512
_cell_length_c   6.42324310
_cell_angle_alpha   90.01677243
_cell_angle_beta   90.01167385
_cell_angle_gamma   90.00320206
_symmetry_Int_Tables_number   1
_chemical_formula_structural   Dy20Ir5Ru3Rh4
_chemical_formula_sum   'Dy20 Ir5 Ru3 Rh4'
_cell_volume   754.84003945
_cell_formula_units_Z   1
loop_
 _symmetry_equiv_pos_site_id
 _symmetry_equiv_pos_as_xyz
  1  'x, y, z'
loop_
 _atom_site_type_symbol
 _atom_site_label
 _atom_site_symmetry_multiplicity
 _atom_site_fract_x
 _atom_site_fract_y
 _atom_site_fract_z
 _atom_site_occupancy
  Dy  Dy0  1  0.294081  0.086325  0.377550  1
  Dy  Dy1  1  0.293989  0.912360  0.879215  1
  Dy  Dy2  1  0.705534  0.087129  0.878399  1
  Dy  Dy3  1  0.705347  0.912464  0.377891  1
  Dy  Dy4  1  0.585592  0.793475  0.879224  1
  Dy  Dy5  1  0.585956  0.206476  0.378930  1
  Dy  Dy6  1  0.412898  0.793553  0.378638  1
  Dy  Dy7  1  0.414474  0.206305  0.879215  1
  Dy  Dy8  1  0.208545  0.413203  0.623040  1
  Dy  Dy9  1  0.208078  0.588126  0.118891  1
  Dy  Dy10  1  0.791782  0.413091  0.118521  1
  Dy  Dy11  1  0.791424  0.586892  0.623281  1
  Dy  Dy12  1  0.912541  0.707692  0.119953  1
  Dy  Dy13  1  0.911380  0.292451  0.624278  1
  Dy  Dy14  1  0.089008  0.708161  0.623319  1
  Dy  Dy15  1  0.088602  0.292922  0.119608  1
  Dy  Dy16  1  0.000232  0.999809  0.498872  1
  Dy  Dy17  1  0.000137  0.999784  0.999445  1
  Dy  Dy18  1  0.500051  0.500060  0.999131  1
  Dy  Dy19  1  0.499908  0.500050  0.498742  1
  Ir  Ir20  1  0.151376  0.847238  0.250516  1
  Ir  Ir21  1  0.653420  0.347248  0.749744  1
  Ir  Ir22  1  0.653860  0.652209  0.250610  1
  Ir  Ir23  1  0.346396  0.347688  0.250069  1
  Ir  Ir24  1  0.346833  0.652452  0.749881  1
  Ru  Ru25  1  0.500474  0.000360  0.124136  1
  Ru  Ru26  1  0.500381  0.000358  0.624000  1
  Ru  Ru27  1  0.999792  0.499453  0.876939  1
  Rh  Rh28  1  0.848670  0.152714  0.250415  1
  Rh  Rh29  1  0.847683  0.847399  0.749726  1
  Rh  Rh30  1  0.151852  0.153066  0.750055  1
  Rh  Rh31  1  0.999703  0.499486  0.377770  1
