# generated using pymatgen
data_La10Sn5PbO2
_symmetry_space_group_name_H-M   'P 1'
_cell_length_a   9.50411189
_cell_length_b   9.50411142
_cell_length_c   9.50411200
_cell_angle_alpha   125.85374353
_cell_angle_beta   125.85373402
_cell_angle_gamma   80.12865774
_symmetry_Int_Tables_number   1
_chemical_formula_structural   La10Sn5PbO2
_chemical_formula_sum   'La10 Sn5 Pb1 O2'
_cell_volume   544.38340848
_cell_formula_units_Z   1
loop_
 _symmetry_equiv_pos_site_id
 _symmetry_equiv_pos_as_xyz
  1  'x, y, z'
loop_
 _atom_site_type_symbol
 _atom_site_label
 _atom_site_symmetry_multiplicity
 _atom_site_fract_x
 _atom_site_fract_y
 _atom_site_fract_z
 _atom_site_occupancy
  La  La0  1  0.498930  0.306649  0.501765  1
  La  La1  1  0.804876  0.997176  0.498260  1
  La  La2  1  0.997115  0.498964  0.192274  1
  La  La3  1  0.306565  0.804895  0.807685  1
  La  La4  1  0.505332  0.697659  0.501753  1
  La  La5  1  0.195913  0.003589  0.498319  1
  La  La6  1  0.003492  0.505316  0.807645  1
  La  La7  1  0.697576  0.195933  0.192281  1
  La  La8  1  0.504061  0.504007  0.999901  1
  La  La9  1  0.998647  0.998644  0.999926  1
  Sn  Sn10  1  0.140882  0.361509  0.499985  1
  Sn  Sn11  1  0.861481  0.640855  0.499918  1
  Sn  Sn12  1  0.640909  0.140945  0.779352  1
  Sn  Sn13  1  0.361524  0.861416  0.220544  1
  Sn  Sn14  1  0.751420  0.751449  0.000152  1
  Pb  Pb15  1  0.251449  0.251338  0.000184  1
  O  O16  1  0.751369  0.251279  0.500068  1
  O  O17  1  0.251298  0.751213  0.499988  1
