# generated using pymatgen
data_Cr20Ge(MoC3)2
_symmetry_space_group_name_H-M   'P 1'
_cell_length_a   7.54510646
_cell_length_b   7.54510594
_cell_length_c   7.54510600
_cell_angle_alpha   59.99999974
_cell_angle_beta   60.00000201
_cell_angle_gamma   59.99999654
_symmetry_Int_Tables_number   1
_chemical_formula_structural   Cr20Ge(MoC3)2
_chemical_formula_sum   'Cr20 Ge1 Mo2 C6'
_cell_volume   303.72536042
_cell_formula_units_Z   1
loop_
 _symmetry_equiv_pos_site_id
 _symmetry_equiv_pos_as_xyz
  1  'x, y, z'
loop_
 _atom_site_type_symbol
 _atom_site_label
 _atom_site_symmetry_multiplicity
 _atom_site_fract_x
 _atom_site_fract_y
 _atom_site_fract_z
 _atom_site_occupancy
  Cr  Cr0  1  0.616656  0.616656  0.150030  1
  Cr  Cr1  1  0.616656  0.150030  0.616656  1
  Cr  Cr2  1  0.150030  0.616656  0.616656  1
  Cr  Cr3  1  0.616656  0.616656  0.616656  1
  Cr  Cr4  1  0.383344  0.383344  0.849970  1
  Cr  Cr5  1  0.383344  0.849970  0.383344  1
  Cr  Cr6  1  0.849970  0.383344  0.383344  1
  Cr  Cr7  1  0.383344  0.383344  0.383344  1
  Cr  Cr8  1  0.000000  0.000000  0.341334  1
  Cr  Cr9  1  0.658666  0.000000  0.341334  1
  Cr  Cr10  1  0.000000  0.658666  0.341334  1
  Cr  Cr11  1  0.658666  0.341334  0.000000  1
  Cr  Cr12  1  0.000000  0.341334  0.000000  1
  Cr  Cr13  1  0.000000  0.341334  0.658666  1
  Cr  Cr14  1  0.341334  0.658666  0.000000  1
  Cr  Cr15  1  0.341334  0.000000  0.658666  1
  Cr  Cr16  1  0.341334  0.000000  0.000000  1
  Cr  Cr17  1  0.000000  0.000000  0.658666  1
  Cr  Cr18  1  0.000000  0.658666  0.000000  1
  Cr  Cr19  1  0.658666  0.000000  0.000000  1
  Ge  Ge20  1  0.000000  0.000000  0.000000  1
  Mo  Mo21  1  0.750000  0.750000  0.750000  1
  Mo  Mo22  1  0.250000  0.250000  0.250000  1
  C  C23  1  0.720916  0.720916  0.279084  1
  C  C24  1  0.279084  0.720916  0.279084  1
  C  C25  1  0.720916  0.279084  0.279084  1
  C  C26  1  0.279084  0.279084  0.720916  1
  C  C27  1  0.720916  0.279084  0.720916  1
  C  C28  1  0.279084  0.720916  0.720916  1
