# generated using pymatgen
data_Sc12Si12RuAu3
_symmetry_space_group_name_H-M   'P 1'
_cell_length_a   4.05190900
_cell_length_b   10.41795266
_cell_length_c   11.78408874
_cell_angle_alpha   90.04069449
_cell_angle_beta   90.00000000
_cell_angle_gamma   90.00000000
_symmetry_Int_Tables_number   1
_chemical_formula_structural   Sc12Si12RuAu3
_chemical_formula_sum   'Sc12 Si12 Ru1 Au3'
_cell_volume   497.43685343
_cell_formula_units_Z   1
loop_
 _symmetry_equiv_pos_site_id
 _symmetry_equiv_pos_as_xyz
  1  'x, y, z'
loop_
 _atom_site_type_symbol
 _atom_site_label
 _atom_site_symmetry_multiplicity
 _atom_site_fract_x
 _atom_site_fract_y
 _atom_site_fract_z
 _atom_site_occupancy
  Sc  Sc0  1  0.250000  0.873792  0.017397  1
  Sc  Sc1  1  0.250000  0.626977  0.522669  1
  Sc  Sc2  1  0.750000  0.122032  0.975973  1
  Sc  Sc3  1  0.750000  0.372707  0.479310  1
  Sc  Sc4  1  0.250000  0.921192  0.602068  1
  Sc  Sc5  1  0.250000  0.578944  0.097344  1
  Sc  Sc6  1  0.750000  0.077567  0.401737  1
  Sc  Sc7  1  0.750000  0.421226  0.901653  1
  Sc  Sc8  1  0.250000  0.664067  0.799906  1
  Sc  Sc9  1  0.250000  0.839812  0.301159  1
  Sc  Sc10  1  0.750000  0.339000  0.198188  1
  Sc  Sc11  1  0.750000  0.154370  0.701886  1
  Si  Si12  1  0.250000  0.011986  0.824077  1
  Si  Si13  1  0.250000  0.474845  0.327052  1
  Si  Si14  1  0.750000  0.975052  0.175567  1
  Si  Si15  1  0.750000  0.527072  0.671356  1
  Si  Si16  1  0.250000  0.243087  0.848917  1
  Si  Si17  1  0.250000  0.251298  0.349180  1
  Si  Si18  1  0.750000  0.751950  0.149718  1
  Si  Si19  1  0.750000  0.754901  0.659961  1
  Si  Si20  1  0.250000  0.180688  0.542501  1
  Si  Si21  1  0.250000  0.319910  0.039494  1
  Si  Si22  1  0.750000  0.817862  0.461301  1
  Si  Si23  1  0.750000  0.695250  0.951757  1
  Ru  Ru24  1  0.750000  0.890873  0.822687  1
  Au  Au25  1  0.250000  0.386507  0.679088  1
  Au  Au26  1  0.250000  0.112889  0.177012  1
  Au  Au27  1  0.750000  0.614144  0.321043  1
