# generated using pymatgen
data_Ho8BOs3WC7
_symmetry_space_group_name_H-M   'P 1'
_cell_length_a   5.09659000
_cell_length_b   6.56104590
_cell_length_c   9.83796285
_cell_angle_alpha   89.81843266
_cell_angle_beta   90.00000000
_cell_angle_gamma   90.00000000
_symmetry_Int_Tables_number   1
_chemical_formula_structural   Ho8BOs3WC7
_chemical_formula_sum   'Ho8 B1 Os3 W1 C7'
_cell_volume   328.96960352
_cell_formula_units_Z   1
loop_
 _symmetry_equiv_pos_site_id
 _symmetry_equiv_pos_as_xyz
  1  'x, y, z'
loop_
 _atom_site_type_symbol
 _atom_site_label
 _atom_site_symmetry_multiplicity
 _atom_site_fract_x
 _atom_site_fract_y
 _atom_site_fract_z
 _atom_site_occupancy
  Ho  Ho0  1  0.250000  0.677026  0.554759  1
  Ho  Ho1  1  0.750000  0.318668  0.447409  1
  Ho  Ho2  1  0.750000  0.826400  0.053744  1
  Ho  Ho3  1  0.250000  0.179864  0.941973  1
  Ho  Ho4  1  0.250000  0.528862  0.212980  1
  Ho  Ho5  1  0.750000  0.466144  0.781130  1
  Ho  Ho6  1  0.750000  0.969404  0.716165  1
  Ho  Ho7  1  0.250000  0.028403  0.283591  1
  B  B8  1  0.750000  0.548458  0.242520  1
  Os  Os9  1  0.750000  0.275195  0.134630  1
  Os  Os10  1  0.750000  0.786581  0.369682  1
  Os  Os11  1  0.250000  0.222205  0.632460  1
  W  W12  1  0.250000  0.720761  0.866528  1
  C  C13  1  0.250000  0.452670  0.758953  1
  C  C14  1  0.750000  0.045638  0.259427  1
  C  C15  1  0.250000  0.957576  0.739424  1
  C  C16  1  0.250000  0.824768  0.054846  1
  C  C17  1  0.750000  0.176650  0.949280  1
  C  C18  1  0.750000  0.672549  0.551544  1
  C  C19  1  0.250000  0.322179  0.448954  1
