# generated using pymatgen
data_Pr16Tm4Si15Os
_symmetry_space_group_name_H-M   'P 1'
_cell_length_a   7.86824608
_cell_length_b   7.82489707
_cell_length_c   15.10933813
_cell_angle_alpha   90.15108468
_cell_angle_beta   89.85430791
_cell_angle_gamma   90.07989055
_symmetry_Int_Tables_number   1
_chemical_formula_structural   Pr16Tm4Si15Os
_chemical_formula_sum   'Pr16 Tm4 Si15 Os1'
_cell_volume   930.24785119
_cell_formula_units_Z   1
loop_
 _symmetry_equiv_pos_site_id
 _symmetry_equiv_pos_as_xyz
  1  'x, y, z'
loop_
 _atom_site_type_symbol
 _atom_site_label
 _atom_site_symmetry_multiplicity
 _atom_site_fract_x
 _atom_site_fract_y
 _atom_site_fract_z
 _atom_site_occupancy
  Pr  Pr0  1  0.372589  0.012173  0.450231  1
  Pr  Pr1  1  0.486426  0.879193  0.698861  1
  Pr  Pr2  1  0.511828  0.124242  0.198795  1
  Pr  Pr3  1  0.875504  0.487342  0.300565  1
  Pr  Pr4  1  0.127623  0.502554  0.797679  1
  Pr  Pr5  1  0.626047  0.988219  0.948439  1
  Pr  Pr6  1  0.007624  0.374212  0.552146  1
  Pr  Pr7  1  0.987790  0.625674  0.050891  1
  Pr  Pr8  1  0.133195  0.983892  0.872415  1
  Pr  Pr9  1  0.519998  0.630707  0.126995  1
  Pr  Pr10  1  0.470116  0.360252  0.630562  1
  Pr  Pr11  1  0.627862  0.517032  0.873126  1
  Pr  Pr12  1  0.374229  0.480816  0.372625  1
  Pr  Pr13  1  0.873290  0.022593  0.377415  1
  Pr  Pr14  1  0.980161  0.127041  0.123374  1
  Pr  Pr15  1  0.027974  0.882324  0.625076  1
  Tm  Tm16  1  0.309779  0.308516  0.999473  1
  Tm  Tm17  1  0.188348  0.810124  0.250386  1
  Tm  Tm18  1  0.825425  0.189912  0.747799  1
  Tm  Tm19  1  0.690852  0.687984  0.501943  1
  Si  Si20  1  0.330995  0.690016  0.953457  1
  Si  Si21  1  0.665674  0.307165  0.455157  1
  Si  Si22  1  0.693069  0.332156  0.047565  1
  Si  Si23  1  0.309287  0.669423  0.545219  1
  Si  Si24  1  0.810432  0.830434  0.205900  1
  Si  Si25  1  0.170129  0.192212  0.295274  1
  Si  Si26  1  0.830137  0.806342  0.796341  1
  Si  Si27  1  0.287509  0.923294  0.062051  1
  Si  Si28  1  0.578596  0.786300  0.314053  1
  Si  Si29  1  0.425770  0.209232  0.815561  1
  Si  Si30  1  0.777748  0.583057  0.686330  1
  Si  Si31  1  0.212429  0.424246  0.186460  1
  Si  Si32  1  0.706240  0.071489  0.561274  1
  Si  Si33  1  0.921419  0.286002  0.938221  1
  Si  Si34  1  0.079932  0.716973  0.437009  1
  Os  Os35  1  0.183972  0.176860  0.701332  1
