# generated using pymatgen
data_Na2HgPd3
_symmetry_space_group_name_H-M   'P 1'
_cell_length_a   5.54987400
_cell_length_b   5.54987411
_cell_length_c   8.96491700
_cell_angle_alpha   90.00000000
_cell_angle_beta   90.00000000
_cell_angle_gamma   119.99999934
_symmetry_Int_Tables_number   1
_chemical_formula_structural   Na2HgPd3
_chemical_formula_sum   'Na4 Hg2 Pd6'
_cell_volume   239.13501024
_cell_formula_units_Z   2
loop_
 _symmetry_equiv_pos_site_id
 _symmetry_equiv_pos_as_xyz
  1  'x, y, z'
loop_
 _atom_site_type_symbol
 _atom_site_label
 _atom_site_symmetry_multiplicity
 _atom_site_fract_x
 _atom_site_fract_y
 _atom_site_fract_z
 _atom_site_occupancy
  Na  Na0  1  0.333333  0.666666  0.068155  1
  Na  Na1  1  0.333333  0.666666  0.431845  1
  Na  Na2  1  0.666666  0.333333  0.568155  1
  Na  Na3  1  0.666666  0.333333  0.931845  1
  Hg  Hg4  1  0.000000  0.000000  0.000000  1
  Hg  Hg5  1  0.000000  0.000000  0.500000  1
  Pd  Pd6  1  0.341687  0.170844  0.250000  1
  Pd  Pd7  1  0.829156  0.170844  0.250000  1
  Pd  Pd8  1  0.829155  0.658312  0.250000  1
  Pd  Pd9  1  0.170844  0.341687  0.750000  1
  Pd  Pd10  1  0.170844  0.829156  0.750000  1
  Pd  Pd11  1  0.658313  0.829156  0.750000  1
