# generated using pymatgen
data_AlF19
_symmetry_space_group_name_H-M   'P 1'
_cell_length_a   7.06019204
_cell_length_b   8.16528786
_cell_length_c   8.67017971
_cell_angle_alpha   87.39548440
_cell_angle_beta   65.97383204
_cell_angle_gamma   64.38450303
_symmetry_Int_Tables_number   1
_chemical_formula_structural   AlF19
_chemical_formula_sum   'Al1 F19'
_cell_volume   406.44223030
_cell_formula_units_Z   1
loop_
 _symmetry_equiv_pos_site_id
 _symmetry_equiv_pos_as_xyz
  1  'x, y, z'
loop_
 _atom_site_type_symbol
 _atom_site_label
 _atom_site_symmetry_multiplicity
 _atom_site_fract_x
 _atom_site_fract_y
 _atom_site_fract_z
 _atom_site_occupancy
  Al  Al0  1  0.934046  0.000000  0.000000  1
  F  F1  1  0.412271  0.380948  0.080036  1
  F  F2  1  0.215534  0.946876  0.330911  1
  F  F3  1  0.334159  0.500000  0.500001  1
  F  F4  1  0.493323  0.053124  0.669087  1
  F  F5  1  0.873256  0.619053  0.919962  1
  F  F6  1  0.261344  0.494220  0.007572  1
  F  F7  1  0.745745  0.908472  0.140239  1
  F  F8  1  0.709235  0.166910  0.188349  1
  F  F9  1  0.168761  0.890403  0.063822  1
  F  F10  1  0.931068  0.323176  0.362289  1
  F  F11  1  0.252246  0.902252  0.480223  1
  F  F12  1  0.712121  0.500000  0.500001  1
  F  F13  1  0.132367  0.500000  0.500001  1
  F  F14  1  0.634721  0.097749  0.519777  1
  F  F15  1  0.616535  0.676824  0.637710  1
  F  F16  1  0.122987  0.109597  0.936178  1
  F  F17  1  0.064494  0.833091  0.811652  1
  F  F18  1  0.794454  0.091528  0.859763  1
  F  F19  1  0.763134  0.505782  0.992429  1
