# generated using pymatgen
data_BaGdAlZn3O7
_symmetry_space_group_name_H-M   'P 1'
_cell_length_a   6.41384000
_cell_length_b   6.41380370
_cell_length_c   10.38905500
_cell_angle_alpha   90.00002968
_cell_angle_beta   89.99991199
_cell_angle_gamma   120.00022229
_symmetry_Int_Tables_number   1
_chemical_formula_structural   BaGdAlZn3O7
_chemical_formula_sum   'Ba2 Gd2 Al2 Zn6 O14'
_cell_volume   370.11738936
_cell_formula_units_Z   2
loop_
 _symmetry_equiv_pos_site_id
 _symmetry_equiv_pos_as_xyz
  1  'x, y, z'
loop_
 _atom_site_type_symbol
 _atom_site_label
 _atom_site_symmetry_multiplicity
 _atom_site_fract_x
 _atom_site_fract_y
 _atom_site_fract_z
 _atom_site_occupancy
  Ba  Ba0  1  0.666681  0.333364  0.479233  1
  Ba  Ba1  1  0.333322  0.666638  0.979235  1
  Gd  Gd2  1  0.333335  0.666667  0.328888  1
  Gd  Gd3  1  0.666665  0.333335  0.828888  1
  Al  Al4  1  0.000000  0.999998  0.392633  1
  Al  Al5  1  0.000001  0.000001  0.892632  1
  Zn  Zn6  1  0.830948  0.168738  0.141486  1
  Zn  Zn7  1  0.337790  0.169042  0.141487  1
  Zn  Zn8  1  0.831257  0.662209  0.141488  1
  Zn  Zn9  1  0.169054  0.831262  0.641486  1
  Zn  Zn10  1  0.662211  0.830958  0.641487  1
  Zn  Zn11  1  0.168743  0.337790  0.641489  1
  O  O12  1  0.491700  0.983729  0.188160  1
  O  O13  1  0.492035  0.508290  0.188165  1
  O  O14  1  0.016258  0.507961  0.188165  1
  O  O15  1  0.000001  0.000000  0.218810  1
  O  O16  1  0.695861  0.847185  0.447492  1
  O  O17  1  0.152794  0.848656  0.447492  1
  O  O18  1  0.151333  0.304135  0.447495  1
  O  O19  1  0.508301  0.016270  0.688159  1
  O  O20  1  0.983741  0.492038  0.688165  1
  O  O21  1  0.507967  0.491709  0.688166  1
  O  O22  1  0.000000  0.000000  0.718813  1
  O  O23  1  0.847205  0.151343  0.947494  1
  O  O24  1  0.304138  0.152816  0.947494  1
  O  O25  1  0.848669  0.695865  0.947495  1
