# generated using pymatgen
data_Hf6Co2CuSi6Ni
_symmetry_space_group_name_H-M   'P 1'
_cell_length_a   5.31647941
_cell_length_b   5.31647834
_cell_length_c   12.92091029
_cell_angle_alpha   89.39771974
_cell_angle_beta   90.60228095
_cell_angle_gamma   137.58656442
_symmetry_Int_Tables_number   1
_chemical_formula_structural   Hf6Co2CuSi6Ni
_chemical_formula_sum   'Hf6 Co2 Cu1 Si6 Ni1'
_cell_volume   246.30877790
_cell_formula_units_Z   1
loop_
 _symmetry_equiv_pos_site_id
 _symmetry_equiv_pos_as_xyz
  1  'x, y, z'
loop_
 _atom_site_type_symbol
 _atom_site_label
 _atom_site_symmetry_multiplicity
 _atom_site_fract_x
 _atom_site_fract_y
 _atom_site_fract_z
 _atom_site_occupancy
  Hf  Hf0  1  0.133889  0.866111  0.248696  1
  Hf  Hf1  1  0.866176  0.133824  0.750691  1
  Hf  Hf2  1  0.572654  0.427346  0.620879  1
  Hf  Hf3  1  0.426964  0.573036  0.381806  1
  Hf  Hf4  1  0.427082  0.572918  0.115011  1
  Hf  Hf5  1  0.574291  0.425709  0.883430  1
  Co  Co6  1  0.278567  0.721433  0.920599  1
  Co  Co7  1  0.721719  0.278281  0.079270  1
  Cu  Cu8  1  0.717512  0.282488  0.406305  1
  Si  Si9  1  0.838861  0.161139  0.243142  1
  Si  Si10  1  0.164360  0.835640  0.754389  1
  Si  Si11  1  0.888553  0.111447  0.542507  1
  Si  Si12  1  0.108003  0.891997  0.462254  1
  Si  Si13  1  0.111374  0.888626  0.042572  1
  Si  Si14  1  0.889279  0.110721  0.957011  1
  Ni  Ni15  1  0.280715  0.719285  0.591440  1
