# generated using pymatgen
data_Ho3Fe2Co9B4
_symmetry_space_group_name_H-M   'P 1'
_cell_length_a   5.04988524
_cell_length_b   5.05007246
_cell_length_c   9.72589200
_cell_angle_alpha   89.99997137
_cell_angle_beta   90.00018654
_cell_angle_gamma   120.03439703
_symmetry_Int_Tables_number   1
_chemical_formula_structural   Ho3Fe2Co9B4
_chemical_formula_sum   'Ho3 Fe2 Co9 B4'
_cell_volume   214.72794050
_cell_formula_units_Z   1
loop_
 _symmetry_equiv_pos_site_id
 _symmetry_equiv_pos_as_xyz
  1  'x, y, z'
loop_
 _atom_site_type_symbol
 _atom_site_label
 _atom_site_symmetry_multiplicity
 _atom_site_fract_x
 _atom_site_fract_y
 _atom_site_fract_z
 _atom_site_occupancy
  Ho  Ho0  1  0.999981  0.000000  0.000039  1
  Ho  Ho1  1  0.999995  0.999999  0.341753  1
  Ho  Ho2  1  0.000005  0.000001  0.658255  1
  Fe  Fe3  1  0.333343  0.666665  0.999991  1
  Fe  Fe4  1  0.666618  0.333335  0.999991  1
  Co  Co5  1  0.499999  0.000001  0.499993  1
  Co  Co6  1  0.499999  0.500001  0.500003  1
  Co  Co7  1  0.999997  0.499999  0.499996  1
  Co  Co8  1  0.500015  0.000045  0.202281  1
  Co  Co9  1  0.500012  0.499981  0.202263  1
  Co  Co10  1  0.999944  0.499975  0.202266  1
  Co  Co11  1  0.500025  0.000043  0.797745  1
  Co  Co12  1  0.500025  0.499979  0.797711  1
  Co  Co13  1  0.999958  0.499978  0.797736  1
  B  B14  1  0.333290  0.666705  0.349536  1
  B  B15  1  0.666692  0.333294  0.349533  1
  B  B16  1  0.666712  0.333334  0.650455  1
  B  B17  1  0.333290  0.666665  0.650452  1
