# generated using pymatgen
data_Ta3Ti3Co15Si7Pt
_symmetry_space_group_name_H-M   'P 1'
_cell_length_a   7.92175466
_cell_length_b   7.92191242
_cell_length_c   7.92789479
_cell_angle_alpha   59.87984047
_cell_angle_beta   59.88963553
_cell_angle_gamma   59.87490532
_symmetry_Int_Tables_number   1
_chemical_formula_structural   Ta3Ti3Co15Si7Pt
_chemical_formula_sum   'Ta3 Ti3 Co15 Si7 Pt1'
_cell_volume   350.85255584
_cell_formula_units_Z   1
loop_
 _symmetry_equiv_pos_site_id
 _symmetry_equiv_pos_as_xyz
  1  'x, y, z'
loop_
 _atom_site_type_symbol
 _atom_site_label
 _atom_site_symmetry_multiplicity
 _atom_site_fract_x
 _atom_site_fract_y
 _atom_site_fract_z
 _atom_site_occupancy
  Ta  Ta0  1  0.798975  0.198794  0.798696  1
  Ta  Ta1  1  0.798528  0.797973  0.199511  1
  Ta  Ta2  1  0.197376  0.197025  0.806897  1
  Ti  Ti3  1  0.200741  0.796785  0.797228  1
  Ti  Ti4  1  0.198355  0.804920  0.199110  1
  Ti  Ti5  1  0.805343  0.197881  0.199223  1
  Co  Co6  1  0.496962  0.835135  0.834907  1
  Co  Co7  1  0.621868  0.621590  0.142126  1
  Co  Co8  1  0.162622  0.162175  0.506623  1
  Co  Co9  1  0.834782  0.835462  0.496520  1
  Co  Co10  1  0.165657  0.166225  0.166528  1
  Co  Co11  1  0.833436  0.833593  0.832771  1
  Co  Co12  1  0.381153  0.380536  0.857515  1
  Co  Co13  1  0.834399  0.497472  0.835047  1
  Co  Co14  1  0.620404  0.619660  0.620143  1
  Co  Co15  1  0.380855  0.858260  0.380738  1
  Co  Co16  1  0.142560  0.620341  0.621701  1
  Co  Co17  1  0.620531  0.143298  0.621428  1
  Co  Co18  1  0.161971  0.507191  0.161894  1
  Co  Co19  1  0.857560  0.380864  0.381467  1
  Co  Co20  1  0.506132  0.162495  0.162574  1
  Si  Si21  1  0.001186  0.998567  0.497789  1
  Si  Si22  1  0.501004  0.988722  0.502423  1
  Si  Si23  1  0.505293  0.506711  0.505395  1
  Si  Si24  1  0.000090  0.499130  0.999883  1
  Si  Si25  1  0.499864  0.503540  0.989241  1
  Si  Si26  1  0.497645  0.998590  0.001357  1
  Si  Si27  1  0.990334  0.502782  0.500372  1
  Pt  Pt28  1  0.384375  0.384280  0.380895  1
