# generated using pymatgen
data_CaV2(OF4)2
_symmetry_space_group_name_H-M   'P 1'
_cell_length_a   5.10496930
_cell_length_b   5.32473803
_cell_length_c   7.53861153
_cell_angle_alpha   73.87209883
_cell_angle_beta   73.78256975
_cell_angle_gamma   87.74853821
_symmetry_Int_Tables_number   1
_chemical_formula_structural   CaV2(OF4)2
_chemical_formula_sum   'Ca1 V2 O2 F8'
_cell_volume   188.85839806
_cell_formula_units_Z   1
loop_
 _symmetry_equiv_pos_site_id
 _symmetry_equiv_pos_as_xyz
  1  'x, y, z'
loop_
 _atom_site_type_symbol
 _atom_site_label
 _atom_site_symmetry_multiplicity
 _atom_site_fract_x
 _atom_site_fract_y
 _atom_site_fract_z
 _atom_site_occupancy
  Ca  Ca0  1  0.000000  0.000000  0.000000  1
  V  V1  1  0.648197  0.648172  0.754164  1
  V  V2  1  0.351803  0.351828  0.245836  1
  O  O3  1  0.643437  0.702777  0.536676  1
  O  O4  1  0.356563  0.297223  0.463324  1
  F  F5  1  0.433756  0.912207  0.829928  1
  F  F6  1  0.566244  0.087793  0.170072  1
  F  F7  1  0.944795  0.842707  0.743859  1
  F  F8  1  0.055205  0.157293  0.256141  1
  F  F9  1  0.856440  0.355564  0.787211  1
  F  F10  1  0.143560  0.644436  0.212789  1
  F  F11  1  0.343760  0.422937  0.901070  1
  F  F12  1  0.656240  0.577063  0.098930  1
