# generated using pymatgen
data_Tb2Dy3Ir2
_symmetry_space_group_name_H-M   'P 1'
_cell_length_a   6.49139512
_cell_length_b   7.22238923
_cell_length_c   8.60484103
_cell_angle_alpha   96.72338141
_cell_angle_beta   112.16000153
_cell_angle_gamma   89.99999828
_symmetry_Int_Tables_number   1
_chemical_formula_structural   Tb2Dy3Ir2
_chemical_formula_sum   'Tb4 Dy6 Ir4'
_cell_volume   370.62742030
_cell_formula_units_Z   2
loop_
 _symmetry_equiv_pos_site_id
 _symmetry_equiv_pos_as_xyz
  1  'x, y, z'
loop_
 _atom_site_type_symbol
 _atom_site_label
 _atom_site_symmetry_multiplicity
 _atom_site_fract_x
 _atom_site_fract_y
 _atom_site_fract_z
 _atom_site_occupancy
  Tb  Tb0  1  0.791880  0.083087  0.814683  1
  Tb  Tb1  1  0.977196  0.416913  0.185317  1
  Tb  Tb2  1  0.208120  0.916913  0.185317  1
  Tb  Tb3  1  0.022804  0.583087  0.814683  1
  Dy  Dy4  1  0.209833  0.184540  0.560927  1
  Dy  Dy5  1  0.648906  0.315460  0.439073  1
  Dy  Dy6  1  0.790167  0.815460  0.439073  1
  Dy  Dy7  1  0.351094  0.684540  0.560927  1
  Dy  Dy8  1  0.428409  0.250000  0.000000  1
  Dy  Dy9  1  0.571591  0.750000  0.000000  1
  Ir  Ir10  1  0.600051  0.425724  0.777400  1
  Ir  Ir11  1  0.822651  0.074276  0.222600  1
  Ir  Ir12  1  0.399949  0.574276  0.222600  1
  Ir  Ir13  1  0.177349  0.925724  0.777400  1
