# generated using pymatgen
data_CeDyLu2(ReB6)2
_symmetry_space_group_name_H-M   'P 1'
_cell_length_a   3.67074800
_cell_length_b   9.12564761
_cell_length_c   11.51709200
_cell_angle_alpha   90.10370037
_cell_angle_beta   90.00000000
_cell_angle_gamma   90.00000000
_symmetry_Int_Tables_number   1
_chemical_formula_structural   CeDyLu2(ReB6)2
_chemical_formula_sum   'Ce2 Dy2 Lu4 Re4 B24'
_cell_volume   385.79837158
_cell_formula_units_Z   2
loop_
 _symmetry_equiv_pos_site_id
 _symmetry_equiv_pos_as_xyz
  1  'x, y, z'
loop_
 _atom_site_type_symbol
 _atom_site_label
 _atom_site_symmetry_multiplicity
 _atom_site_fract_x
 _atom_site_fract_y
 _atom_site_fract_z
 _atom_site_occupancy
  Ce  Ce0  1  0.000000  0.321669  0.413878  1
  Ce  Ce1  1  0.000000  0.678331  0.586122  1
  Dy  Dy2  1  0.000000  0.823530  0.085445  1
  Dy  Dy3  1  0.000000  0.176470  0.914555  1
  Lu  Lu4  1  0.000000  0.943886  0.370395  1
  Lu  Lu5  1  0.000000  0.056114  0.629605  1
  Lu  Lu6  1  0.000000  0.443197  0.128378  1
  Lu  Lu7  1  0.000000  0.556803  0.871622  1
  Re  Re8  1  0.000000  0.638499  0.320534  1
  Re  Re9  1  0.000000  0.361501  0.679466  1
  Re  Re10  1  0.000000  0.140135  0.180668  1
  Re  Re11  1  0.000000  0.859865  0.819332  1
  B  B12  1  0.500000  0.554698  0.430864  1
  B  B13  1  0.500000  0.445302  0.569136  1
  B  B14  1  0.500000  0.053987  0.066876  1
  B  B15  1  0.500000  0.946013  0.933124  1
  B  B16  1  0.500000  0.751124  0.416781  1
  B  B17  1  0.500000  0.248876  0.583219  1
  B  B18  1  0.500000  0.250309  0.080797  1
  B  B19  1  0.500000  0.749691  0.919203  1
  B  B20  1  0.500000  0.793027  0.264395  1
  B  B21  1  0.500000  0.206973  0.735605  1
  B  B22  1  0.500000  0.292155  0.233292  1
  B  B23  1  0.500000  0.707845  0.766708  1
  B  B24  1  0.500000  0.630428  0.183976  1
  B  B25  1  0.500000  0.369572  0.816024  1
  B  B26  1  0.500000  0.130097  0.313897  1
  B  B27  1  0.500000  0.869903  0.686103  1
  B  B28  1  0.500000  0.982200  0.211864  1
  B  B29  1  0.500000  0.017800  0.788136  1
  B  B30  1  0.500000  0.482992  0.285675  1
  B  B31  1  0.500000  0.517008  0.714325  1
  B  B32  1  0.500000  0.599314  0.027511  1
  B  B33  1  0.500000  0.400686  0.972489  1
  B  B34  1  0.500000  0.099888  0.472340  1
  B  B35  1  0.500000  0.900112  0.527660  1
