# generated using pymatgen
data_Na4Pd7PtSe12
_symmetry_space_group_name_H-M   'P 1'
_cell_length_a   7.45307100
_cell_length_b   7.45307227
_cell_length_c   11.77555900
_cell_angle_alpha   90.00000000
_cell_angle_beta   90.00000000
_cell_angle_gamma   119.99999880
_symmetry_Int_Tables_number   1
_chemical_formula_structural   Na4Pd7PtSe12
_chemical_formula_sum   'Na4 Pd7 Pt1 Se12'
_cell_volume   566.47762508
_cell_formula_units_Z   1
loop_
 _symmetry_equiv_pos_site_id
 _symmetry_equiv_pos_as_xyz
  1  'x, y, z'
loop_
 _atom_site_type_symbol
 _atom_site_label
 _atom_site_symmetry_multiplicity
 _atom_site_fract_x
 _atom_site_fract_y
 _atom_site_fract_z
 _atom_site_occupancy
  Na  Na0  1  0.333333  0.666667  0.311070  1
  Na  Na1  1  0.666667  0.333333  0.810051  1
  Na  Na2  1  0.000000  0.000000  0.693785  1
  Na  Na3  1  0.000000  0.000000  0.194807  1
  Pd  Pd4  1  0.834235  0.165765  0.006099  1
  Pd  Pd5  1  0.668307  0.834154  0.506599  1
  Pd  Pd6  1  0.165846  0.331693  0.506599  1
  Pd  Pd7  1  0.834235  0.668468  0.006099  1
  Pd  Pd8  1  0.331532  0.165765  0.006099  1
  Pd  Pd9  1  0.165846  0.834154  0.506599  1
  Pd  Pd10  1  0.666667  0.333333  0.499040  1
  Pt  Pt11  1  0.333333  0.666667  0.998867  1
  Se  Se12  1  0.498810  0.501190  0.612192  1
  Se  Se13  1  0.998518  0.499258  0.111987  1
  Se  Se14  1  0.500742  0.001482  0.111987  1
  Se  Se15  1  0.498810  0.997620  0.612192  1
  Se  Se16  1  0.160495  0.839505  0.895394  1
  Se  Se17  1  0.319617  0.159808  0.395723  1
  Se  Se18  1  0.840192  0.680383  0.395723  1
  Se  Se19  1  0.160495  0.320991  0.895394  1
  Se  Se20  1  0.679009  0.839505  0.895394  1
  Se  Se21  1  0.840192  0.159808  0.395723  1
  Se  Se22  1  0.500742  0.499258  0.111987  1
  Se  Se23  1  0.002380  0.501190  0.612192  1
