# generated using pymatgen
data_LiEr16In(HgRh2)2
_symmetry_space_group_name_H-M   'P 1'
_cell_length_a   9.57205062
_cell_length_b   9.51133257
_cell_length_c   9.51133255
_cell_angle_alpha   59.81872783
_cell_angle_beta   59.96049118
_cell_angle_gamma   59.96050198
_symmetry_Int_Tables_number   1
_chemical_formula_structural   LiEr16In(HgRh2)2
_chemical_formula_sum   'Li1 Er16 In1 Hg2 Rh4'
_cell_volume   611.10432481
_cell_formula_units_Z   1
loop_
 _symmetry_equiv_pos_site_id
 _symmetry_equiv_pos_as_xyz
  1  'x, y, z'
loop_
 _atom_site_type_symbol
 _atom_site_label
 _atom_site_symmetry_multiplicity
 _atom_site_fract_x
 _atom_site_fract_y
 _atom_site_fract_z
 _atom_site_occupancy
  Li  Li0  1  0.707238  0.433155  0.433155  1
  Er  Er1  1  0.190980  0.189163  0.809612  1
  Er  Er2  1  0.437464  0.062610  0.062610  1
  Er  Er3  1  0.436765  0.059746  0.433362  1
  Er  Er4  1  0.064105  0.436646  0.059967  1
  Er  Er5  1  0.646519  0.048211  0.651354  1
  Er  Er6  1  0.191381  0.809895  0.809895  1
  Er  Er7  1  0.064105  0.059967  0.436646  1
  Er  Er8  1  0.813280  0.186928  0.186928  1
  Er  Er9  1  0.815156  0.812780  0.187094  1
  Er  Er10  1  0.646519  0.651354  0.048211  1
  Er  Er11  1  0.650536  0.652641  0.652641  1
  Er  Er12  1  0.065839  0.435188  0.435188  1
  Er  Er13  1  0.057699  0.646832  0.646832  1
  Er  Er14  1  0.815156  0.187094  0.812780  1
  Er  Er15  1  0.436765  0.433362  0.059746  1
  Er  Er16  1  0.190980  0.809612  0.189163  1
  In  In17  1  0.419949  0.418621  0.418621  1
  Hg  Hg18  1  0.420757  0.755189  0.413112  1
  Hg  Hg19  1  0.420757  0.413112  0.755189  1
  Rh  Rh20  1  0.859890  0.428618  0.856294  1
  Rh  Rh21  1  0.859890  0.856294  0.428618  1
  Rh  Rh22  1  0.427164  0.857588  0.857588  1
  Rh  Rh23  1  0.861103  0.855395  0.855395  1
