# generated using pymatgen
data_CrSnPO5
_symmetry_space_group_name_H-M   'P 1'
_cell_length_a   6.50810011
_cell_length_b   6.93563330
_cell_length_c   10.62108455
_cell_angle_alpha   83.29507170
_cell_angle_beta   74.18051012
_cell_angle_gamma   112.82774393
_symmetry_Int_Tables_number   1
_chemical_formula_structural   CrSnPO5
_chemical_formula_sum   'Cr4 Sn4 P4 O20'
_cell_volume   411.52519230
_cell_formula_units_Z   4
loop_
 _symmetry_equiv_pos_site_id
 _symmetry_equiv_pos_as_xyz
  1  'x, y, z'
loop_
 _atom_site_type_symbol
 _atom_site_label
 _atom_site_symmetry_multiplicity
 _atom_site_fract_x
 _atom_site_fract_y
 _atom_site_fract_z
 _atom_site_occupancy
  Cr  Cr0  1  0.446890  0.322795  0.920615  1
  Cr  Cr1  1  0.553054  0.677070  0.079484  1
  Cr  Cr2  1  0.946799  0.822626  0.420879  1
  Cr  Cr3  1  0.053176  0.177334  0.579099  1
  Sn  Sn4  1  0.014171  0.253719  0.202105  1
  Sn  Sn5  1  0.514356  0.753828  0.702148  1
  Sn  Sn6  1  0.485644  0.246178  0.297846  1
  Sn  Sn7  1  0.985841  0.746294  0.797878  1
  P  P8  1  0.394848  0.690034  0.412235  1
  P  P9  1  0.894848  0.190059  0.912271  1
  P  P10  1  0.105165  0.809956  0.087721  1
  P  P11  1  0.605149  0.309974  0.587766  1
  O  O12  1  0.393544  0.350629  0.111305  1
  O  O13  1  0.893630  0.850671  0.611304  1
  O  O14  1  0.106374  0.149339  0.388696  1
  O  O15  1  0.606482  0.649391  0.888686  1
  O  O16  1  0.619839  0.822506  0.447782  1
  O  O17  1  0.119822  0.322501  0.947873  1
  O  O18  1  0.880195  0.677520  0.052121  1
  O  O19  1  0.380159  0.177496  0.552217  1
  O  O20  1  0.785123  0.499232  0.464527  1
  O  O21  1  0.285169  0.999259  0.964525  1
  O  O22  1  0.714817  0.000763  0.035472  1
  O  O23  1  0.214878  0.500776  0.535474  1
  O  O24  1  0.282091  0.844469  0.383153  1
  O  O25  1  0.782142  0.344572  0.883220  1
  O  O26  1  0.217882  0.655457  0.116758  1
  O  O27  1  0.717909  0.155535  0.616846  1
  O  O28  1  0.473500  0.608685  0.285462  1
  O  O29  1  0.973569  0.108795  0.785470  1
  O  O30  1  0.026433  0.891209  0.214526  1
  O  O31  1  0.526502  0.391323  0.714536  1
