# generated using pymatgen
data_Yb5ZnHgPd
_symmetry_space_group_name_H-M   'P 1'
_cell_length_a   9.08952775
_cell_length_b   9.08952783
_cell_length_c   9.08952900
_cell_angle_alpha   129.72432974
_cell_angle_beta   129.66319322
_cell_angle_gamma   73.89682669
_symmetry_Int_Tables_number   1
_chemical_formula_structural   Yb5ZnHgPd
_chemical_formula_sum   'Yb10 Zn2 Hg2 Pd2'
_cell_volume   433.69457497
_cell_formula_units_Z   2
loop_
 _symmetry_equiv_pos_site_id
 _symmetry_equiv_pos_as_xyz
  1  'x, y, z'
loop_
 _atom_site_type_symbol
 _atom_site_label
 _atom_site_symmetry_multiplicity
 _atom_site_fract_x
 _atom_site_fract_y
 _atom_site_fract_z
 _atom_site_occupancy
  Yb  Yb0  1  0.004497  0.008405  0.012902  1
  Yb  Yb1  1  0.504497  0.491595  0.996092  1
  Yb  Yb2  1  0.810032  0.314857  0.843638  1
  Yb  Yb3  1  0.310032  0.466394  0.495174  1
  Yb  Yb4  1  0.972059  0.806844  0.494244  1
  Yb  Yb5  1  0.687400  0.522184  0.494244  1
  Yb  Yb6  1  0.028779  0.185143  0.495174  1
  Yb  Yb7  1  0.528779  0.033606  0.843638  1
  Yb  Yb8  1  0.187400  0.693156  0.165216  1
  Yb  Yb9  1  0.472059  0.977816  0.165216  1
  Zn  Zn10  1  0.619628  0.879299  0.498926  1
  Zn  Zn11  1  0.119628  0.620701  0.740327  1
  Hg  Hg12  1  0.247601  0.250000  0.997601  1
  Hg  Hg13  1  0.747601  0.750000  0.997601  1
  Pd  Pd14  1  0.880004  0.379430  0.259434  1
  Pd  Pd15  1  0.380004  0.120570  0.500574  1
