# generated using pymatgen
data_Nd2Ho4CoCl10
_symmetry_space_group_name_H-M   'P 1'
_cell_length_a   7.10880313
_cell_length_b   8.89164068
_cell_length_c   8.91208257
_cell_angle_alpha   108.71062098
_cell_angle_beta   95.56904461
_cell_angle_gamma   107.34141082
_symmetry_Int_Tables_number   1
_chemical_formula_structural   Nd2Ho4CoCl10
_chemical_formula_sum   'Nd2 Ho4 Co1 Cl10'
_cell_volume   497.60159271
_cell_formula_units_Z   1
loop_
 _symmetry_equiv_pos_site_id
 _symmetry_equiv_pos_as_xyz
  1  'x, y, z'
loop_
 _atom_site_type_symbol
 _atom_site_label
 _atom_site_symmetry_multiplicity
 _atom_site_fract_x
 _atom_site_fract_y
 _atom_site_fract_z
 _atom_site_occupancy
  Nd  Nd0  1  0.633873  0.052567  0.758194  1
  Nd  Nd1  1  0.366127  0.947433  0.241806  1
  Ho  Ho2  1  0.865769  0.143467  0.185547  1
  Ho  Ho3  1  0.134231  0.856533  0.814453  1
  Ho  Ho4  1  0.522819  0.693946  0.897048  1
  Ho  Ho5  1  0.477181  0.306054  0.102952  1
  Co  Co6  1  0.500000  0.000000  0.000000  1
  Cl  Cl7  1  0.757351  0.084486  0.448399  1
  Cl  Cl8  1  0.242649  0.915514  0.551601  1
  Cl  Cl9  1  0.942164  0.826920  0.072031  1
  Cl  Cl10  1  0.057836  0.173080  0.927969  1
  Cl  Cl11  1  0.286166  0.262035  0.344025  1
  Cl  Cl12  1  0.713834  0.737965  0.655975  1
  Cl  Cl13  1  0.586212  0.377924  0.841878  1
  Cl  Cl14  1  0.413788  0.622076  0.158122  1
  Cl  Cl15  1  0.853812  0.454019  0.275880  1
  Cl  Cl16  1  0.146188  0.545981  0.724120  1
