# generated using pymatgen
data_LaPrWO6
_symmetry_space_group_name_H-M   'P 1'
_cell_length_a   5.51818000
_cell_length_b   9.51278300
_cell_length_c   10.40054400
_cell_angle_alpha   90.00000000
_cell_angle_beta   90.00000000
_cell_angle_gamma   90.00000000
_symmetry_Int_Tables_number   1
_chemical_formula_structural   LaPrWO6
_chemical_formula_sum   'La4 Pr4 W4 O24'
_cell_volume   545.95834483
_cell_formula_units_Z   4
loop_
 _symmetry_equiv_pos_site_id
 _symmetry_equiv_pos_as_xyz
  1  'x, y, z'
loop_
 _atom_site_type_symbol
 _atom_site_label
 _atom_site_symmetry_multiplicity
 _atom_site_fract_x
 _atom_site_fract_y
 _atom_site_fract_z
 _atom_site_occupancy
  La  La0  1  0.030530  0.219215  0.136316  1
  La  La1  1  0.469470  0.780785  0.636316  1
  La  La2  1  0.969470  0.719215  0.363684  1
  La  La3  1  0.530530  0.280785  0.863684  1
  Pr  Pr4  1  0.023151  0.103650  0.540331  1
  Pr  Pr5  1  0.476849  0.896350  0.040331  1
  Pr  Pr6  1  0.976849  0.603650  0.959669  1
  Pr  Pr7  1  0.523151  0.396350  0.459669  1
  W  W8  1  0.539834  0.004355  0.355340  1
  W  W9  1  0.960166  0.995645  0.855340  1
  W  W10  1  0.460166  0.504355  0.144660  1
  W  W11  1  0.039834  0.495645  0.644660  1
  O  O12  1  0.423317  0.151493  0.473469  1
  O  O13  1  0.076683  0.848507  0.973469  1
  O  O14  1  0.576683  0.651493  0.026531  1
  O  O15  1  0.923317  0.348507  0.526531  1
  O  O16  1  0.721336  0.389780  0.064666  1
  O  O17  1  0.778664  0.610220  0.564666  1
  O  O18  1  0.278664  0.889780  0.435334  1
  O  O19  1  0.221336  0.110220  0.935334  1
  O  O20  1  0.252936  0.413316  0.008386  1
  O  O21  1  0.247064  0.586684  0.508386  1
  O  O22  1  0.747064  0.913316  0.491614  1
  O  O23  1  0.752936  0.086684  0.991614  1
  O  O24  1  0.194665  0.635512  0.174548  1
  O  O25  1  0.305335  0.364488  0.674548  1
  O  O26  1  0.805335  0.135512  0.325452  1
  O  O27  1  0.694665  0.864488  0.825452  1
  O  O28  1  0.334017  0.051256  0.214442  1
  O  O29  1  0.165983  0.948744  0.714442  1
  O  O30  1  0.665983  0.551256  0.285558  1
  O  O31  1  0.834017  0.448744  0.785558  1
  O  O32  1  0.319217  0.364466  0.256833  1
  O  O33  1  0.180783  0.635534  0.756833  1
  O  O34  1  0.680783  0.864466  0.243167  1
  O  O35  1  0.819217  0.135534  0.743167  1
