# generated using pymatgen
data_Zr3BeMo(AsRu)2
_symmetry_space_group_name_H-M   'P 1'
_cell_length_a   7.70308347
_cell_length_b   7.70308290
_cell_length_c   7.70308520
_cell_angle_alpha   126.85194687
_cell_angle_beta   124.54625564
_cell_angle_gamma   80.39698563
_symmetry_Int_Tables_number   1
_chemical_formula_structural   Zr3BeMo(AsRu)2
_chemical_formula_sum   'Zr6 Be2 Mo2 As4 Ru4'
_cell_volume   290.65988993
_cell_formula_units_Z   2
loop_
 _symmetry_equiv_pos_site_id
 _symmetry_equiv_pos_as_xyz
  1  'x, y, z'
loop_
 _atom_site_type_symbol
 _atom_site_label
 _atom_site_symmetry_multiplicity
 _atom_site_fract_x
 _atom_site_fract_y
 _atom_site_fract_z
 _atom_site_occupancy
  Zr  Zr0  1  0.447661  0.652930  0.705269  1
  Zr  Zr1  1  0.552339  0.257607  0.205269  1
  Zr  Zr2  1  0.749911  0.860413  0.610502  1
  Zr  Zr3  1  0.250089  0.860591  0.110502  1
  Zr  Zr4  1  0.052670  0.257622  0.704952  1
  Zr  Zr5  1  0.947330  0.652281  0.204952  1
  Be  Be6  1  0.250506  0.244426  0.493921  1
  Be  Be7  1  0.749494  0.243413  0.993921  1
  Mo  Mo8  1  0.500000  0.488955  0.988955  1
  Mo  Mo9  1  0.000000  0.488955  0.488955  1
  As  As10  1  0.332873  0.586766  0.253719  1
  As  As11  1  0.667127  0.920846  0.253892  1
  As  As12  1  0.166955  0.920846  0.753719  1
  As  As13  1  0.833045  0.586766  0.753892  1
  Ru  Ru14  1  0.118420  0.253494  0.133518  1
  Ru  Ru15  1  0.881580  0.015097  0.135073  1
  Ru  Ru16  1  0.380023  0.015097  0.633518  1
  Ru  Ru17  1  0.619977  0.253494  0.635073  1
