# generated using pymatgen
data_U2Mn3Co9As7
_symmetry_space_group_name_H-M   'P 1'
_cell_length_a   3.77686700
_cell_length_b   9.42998849
_cell_length_c   9.42998900
_cell_angle_alpha   120.00000110
_cell_angle_beta   90.00000000
_cell_angle_gamma   90.00000000
_symmetry_Int_Tables_number   1
_chemical_formula_structural   U2Mn3Co9As7
_chemical_formula_sum   'U2 Mn3 Co9 As7'
_cell_volume   290.86044712
_cell_formula_units_Z   1
loop_
 _symmetry_equiv_pos_site_id
 _symmetry_equiv_pos_as_xyz
  1  'x, y, z'
loop_
 _atom_site_type_symbol
 _atom_site_label
 _atom_site_symmetry_multiplicity
 _atom_site_fract_x
 _atom_site_fract_y
 _atom_site_fract_z
 _atom_site_occupancy
  U  U0  1  0.000000  0.666667  0.333333  1
  U  U1  1  0.500000  0.333333  0.666667  1
  Mn  Mn2  1  0.500000  0.781817  0.895012  1
  Mn  Mn3  1  0.500000  0.113195  0.218183  1
  Mn  Mn4  1  0.500000  0.104988  0.886805  1
  Co  Co5  1  0.000000  0.566846  0.940463  1
  Co  Co6  1  0.000000  0.373617  0.433154  1
  Co  Co7  1  0.000000  0.059537  0.626383  1
  Co  Co8  1  0.000000  0.879393  0.158514  1
  Co  Co9  1  0.000000  0.279121  0.120607  1
  Co  Co10  1  0.000000  0.841486  0.720879  1
  Co  Co11  1  0.500000  0.947076  0.382326  1
  Co  Co12  1  0.500000  0.435249  0.052924  1
  Co  Co13  1  0.500000  0.617674  0.564751  1
  As  As14  1  0.000000  0.000000  0.000000  1
  As  As15  1  0.500000  0.708497  0.114572  1
  As  As16  1  0.500000  0.406076  0.291503  1
  As  As17  1  0.500000  0.885428  0.593924  1
  As  As18  1  0.000000  0.587473  0.702012  1
  As  As19  1  0.000000  0.114540  0.412527  1
  As  As20  1  0.000000  0.297988  0.885460  1
