# generated using pymatgen
data_Rb6Zn4Sn5S17
_symmetry_space_group_name_H-M   'P 1'
_cell_length_a   11.20756244
_cell_length_b   11.20756239
_cell_length_c   11.18726404
_cell_angle_alpha   78.41663772
_cell_angle_beta   78.41663623
_cell_angle_gamma   126.42025590
_symmetry_Int_Tables_number   1
_chemical_formula_structural   Rb6Zn4Sn5S17
_chemical_formula_sum   'Rb6 Zn4 Sn5 S17'
_cell_volume   1012.35434554
_cell_formula_units_Z   1
loop_
 _symmetry_equiv_pos_site_id
 _symmetry_equiv_pos_as_xyz
  1  'x, y, z'
loop_
 _atom_site_type_symbol
 _atom_site_label
 _atom_site_symmetry_multiplicity
 _atom_site_fract_x
 _atom_site_fract_y
 _atom_site_fract_z
 _atom_site_occupancy
  Rb  Rb0  1  0.250118  0.749882  0.500000  1
  Rb  Rb1  1  0.580179  0.419821  0.000000  1
  Rb  Rb2  1  0.507905  0.992727  0.984605  1
  Rb  Rb3  1  0.007273  0.492095  0.015395  1
  Rb  Rb4  1  0.991357  0.008643  0.500000  1
  Rb  Rb5  1  0.506570  0.493430  0.500000  1
  Zn  Zn6  1  0.020819  0.383973  0.364049  1
  Zn  Zn7  1  0.750189  0.385884  0.634277  1
  Zn  Zn8  1  0.616027  0.979181  0.635951  1
  Zn  Zn9  1  0.614116  0.249811  0.365723  1
  Sn  Sn10  1  0.998391  0.001609  0.000000  1
  Sn  Sn11  1  0.970150  0.692319  0.276912  1
  Sn  Sn12  1  0.966716  0.246290  0.723496  1
  Sn  Sn13  1  0.753710  0.033284  0.276504  1
  Sn  Sn14  1  0.307681  0.029850  0.723088  1
  S  S15  1  0.163565  0.657693  0.226908  1
  S  S16  1  0.880692  0.389880  0.777352  1
  S  S17  1  0.883189  0.658412  0.505241  1
  S  S18  1  0.162737  0.391638  0.496324  1
  S  S19  1  0.608362  0.837263  0.503676  1
  S  S20  1  0.341588  0.116811  0.494759  1
  S  S21  1  0.610120  0.119308  0.222648  1
  S  S22  1  0.342307  0.836435  0.773092  1
  S  S23  1  0.132951  0.989023  0.144261  1
  S  S24  1  0.132456  0.278264  0.855345  1
  S  S25  1  0.721736  0.867544  0.144655  1
  S  S26  1  0.010977  0.867049  0.855739  1
  S  S27  1  0.742719  0.518971  0.223467  1
  S  S28  1  0.744755  0.966846  0.776134  1
  S  S29  1  0.033154  0.255245  0.223866  1
  S  S30  1  0.481029  0.257281  0.776533  1
  S  S31  1  0.750262  0.249738  0.500000  1
