# generated using pymatgen
data_Ho2MnVCo2(PIr)6
_symmetry_space_group_name_H-M   'P 1'
_cell_length_a   3.86758800
_cell_length_b   10.68025000
_cell_length_c   12.35678600
_cell_angle_alpha   90.00000000
_cell_angle_beta   90.00000000
_cell_angle_gamma   90.00000000
_symmetry_Int_Tables_number   1
_chemical_formula_structural   Ho2MnVCo2(PIr)6
_chemical_formula_sum   'Ho4 Mn2 V2 Co4 P12 Ir12'
_cell_volume   510.41937119
_cell_formula_units_Z   2
loop_
 _symmetry_equiv_pos_site_id
 _symmetry_equiv_pos_as_xyz
  1  'x, y, z'
loop_
 _atom_site_type_symbol
 _atom_site_label
 _atom_site_symmetry_multiplicity
 _atom_site_fract_x
 _atom_site_fract_y
 _atom_site_fract_z
 _atom_site_occupancy
  Ho  Ho0  1  0.250000  0.584226  0.708274  1
  Ho  Ho1  1  0.250000  0.915774  0.208274  1
  Ho  Ho2  1  0.750000  0.418633  0.291093  1
  Ho  Ho3  1  0.750000  0.081367  0.791093  1
  Mn  Mn4  1  0.750000  0.284498  0.019860  1
  Mn  Mn5  1  0.750000  0.215502  0.519860  1
  V  V6  1  0.250000  0.708038  0.983702  1
  V  V7  1  0.250000  0.791962  0.483702  1
  Co  Co8  1  0.250000  0.464957  0.935327  1
  Co  Co9  1  0.250000  0.035043  0.435327  1
  Co  Co10  1  0.750000  0.533479  0.062116  1
  Co  Co11  1  0.750000  0.966521  0.562116  1
  P  P12  1  0.250000  0.421777  0.105755  1
  P  P13  1  0.250000  0.078223  0.605755  1
  P  P14  1  0.750000  0.577463  0.892666  1
  P  P15  1  0.750000  0.922537  0.392666  1
  P  P16  1  0.250000  0.269539  0.873066  1
  P  P17  1  0.250000  0.230461  0.373066  1
  P  P18  1  0.750000  0.728279  0.126622  1
  P  P19  1  0.750000  0.771721  0.626622  1
  P  P20  1  0.250000  0.600205  0.389308  1
  P  P21  1  0.250000  0.899795  0.889308  1
  P  P22  1  0.750000  0.399716  0.611316  1
  P  P23  1  0.750000  0.100284  0.111316  1
  Ir  Ir24  1  0.250000  0.404226  0.482706  1
  Ir  Ir25  1  0.250000  0.095774  0.982706  1
  Ir  Ir26  1  0.750000  0.594842  0.518840  1
  Ir  Ir27  1  0.750000  0.905158  0.018840  1
  Ir  Ir28  1  0.250000  0.229616  0.179909  1
  Ir  Ir29  1  0.250000  0.270384  0.679909  1
  Ir  Ir30  1  0.750000  0.769881  0.819028  1
  Ir  Ir31  1  0.750000  0.730119  0.319028  1
  Ir  Ir32  1  0.250000  0.889207  0.695887  1
  Ir  Ir33  1  0.250000  0.610793  0.195887  1
  Ir  Ir34  1  0.750000  0.113226  0.304527  1
  Ir  Ir35  1  0.750000  0.386774  0.804527  1
