# generated using pymatgen
data_La4ScMo3O14
_symmetry_space_group_name_H-M   'P 1'
_cell_length_a   7.60231740
_cell_length_b   7.60231832
_cell_length_c   7.54895470
_cell_angle_alpha   59.76587743
_cell_angle_beta   59.76588178
_cell_angle_gamma   60.00000139
_symmetry_Int_Tables_number   1
_chemical_formula_structural   La4ScMo3O14
_chemical_formula_sum   'La4 Sc1 Mo3 O14'
_cell_volume   307.40995335
_cell_formula_units_Z   1
loop_
 _symmetry_equiv_pos_site_id
 _symmetry_equiv_pos_as_xyz
  1  'x, y, z'
loop_
 _atom_site_type_symbol
 _atom_site_label
 _atom_site_symmetry_multiplicity
 _atom_site_fract_x
 _atom_site_fract_y
 _atom_site_fract_z
 _atom_site_occupancy
  La  La0  1  0.125000  0.625000  0.125000  1
  La  La1  1  0.125000  0.125000  0.625000  1
  La  La2  1  0.625000  0.125000  0.125000  1
  La  La3  1  0.125000  0.125000  0.125000  1
  Sc  Sc4  1  0.625000  0.625000  0.125000  1
  Mo  Mo5  1  0.625000  0.625000  0.625000  1
  Mo  Mo6  1  0.125000  0.625000  0.625000  1
  Mo  Mo7  1  0.625000  0.125000  0.625000  1
  O  O8  1  0.296806  0.709617  0.696771  1
  O  O9  1  0.542093  0.964787  0.951028  1
  O  O10  1  0.707907  0.707907  0.298972  1
  O  O11  1  0.296806  0.296806  0.696771  1
  O  O12  1  0.999857  0.999857  0.000430  1
  O  O13  1  0.285213  0.707907  0.298972  1
  O  O14  1  0.709617  0.296806  0.696771  1
  O  O15  1  0.964787  0.542093  0.951028  1
  O  O16  1  0.542093  0.542093  0.951028  1
  O  O17  1  0.953194  0.953194  0.553229  1
  O  O18  1  0.250143  0.250143  0.249570  1
  O  O19  1  0.540383  0.953194  0.553229  1
  O  O20  1  0.707907  0.285213  0.298972  1
  O  O21  1  0.953194  0.540383  0.553229  1
