# generated using pymatgen
data_Tm6Al24Os5Pt3
_symmetry_space_group_name_H-M   'P 1'
_cell_length_a   8.79520113
_cell_length_b   8.81112467
_cell_length_c   9.48943986
_cell_angle_alpha   89.98791643
_cell_angle_beta   89.63442877
_cell_angle_gamma   119.61207525
_symmetry_Int_Tables_number   1
_chemical_formula_structural   Tm6Al24Os5Pt3
_chemical_formula_sum   'Tm6 Al24 Os5 Pt3'
_cell_volume   639.32347942
_cell_formula_units_Z   1
loop_
 _symmetry_equiv_pos_site_id
 _symmetry_equiv_pos_as_xyz
  1  'x, y, z'
loop_
 _atom_site_type_symbol
 _atom_site_label
 _atom_site_symmetry_multiplicity
 _atom_site_fract_x
 _atom_site_fract_y
 _atom_site_fract_z
 _atom_site_occupancy
  Tm  Tm0  1  0.188098  0.384917  0.252242  1
  Tm  Tm1  1  0.811902  0.615083  0.747758  1
  Tm  Tm2  1  0.613798  0.814480  0.252080  1
  Tm  Tm3  1  0.386202  0.185520  0.747920  1
  Tm  Tm4  1  0.197081  0.809734  0.251241  1
  Tm  Tm5  1  0.802919  0.190266  0.748759  1
  Al  Al6  1  0.336110  0.670736  0.031231  1
  Al  Al7  1  0.663890  0.329264  0.968769  1
  Al  Al8  1  0.668980  0.331574  0.527316  1
  Al  Al9  1  0.331020  0.668426  0.472684  1
  Al  Al10  1  0.158257  0.324585  0.578016  1
  Al  Al11  1  0.841743  0.675415  0.421984  1
  Al  Al12  1  0.674200  0.840213  0.577124  1
  Al  Al13  1  0.837099  0.676979  0.079752  1
  Al  Al14  1  0.325800  0.159787  0.422876  1
  Al  Al15  1  0.162901  0.323021  0.920248  1
  Al  Al16  1  0.164211  0.835623  0.575854  1
  Al  Al17  1  0.325636  0.159640  0.076889  1
  Al  Al18  1  0.835789  0.164377  0.424146  1
  Al  Al19  1  0.674364  0.840360  0.923111  1
  Al  Al20  1  0.832015  0.159516  0.076599  1
  Al  Al21  1  0.167985  0.840484  0.923401  1
  Al  Al22  1  0.561050  0.124409  0.249247  1
  Al  Al23  1  0.438950  0.875591  0.750753  1
  Al  Al24  1  0.874883  0.438886  0.252618  1
  Al  Al25  1  0.125117  0.561114  0.747382  1
  Al  Al26  1  0.562350  0.438268  0.249155  1
  Al  Al27  1  0.437650  0.561732  0.750845  1
  Al  Al28  1  0.999930  0.002505  0.250137  1
  Al  Al29  1  0.000070  0.997495  0.749863  1
  Os  Os30  1  0.500000  0.000000  0.000000  1
  Os  Os31  1  0.500000  0.000000  0.500000  1
  Os  Os32  1  0.000000  0.500000  0.500000  1
  Os  Os33  1  0.000000  0.000000  0.000000  1
  Os  Os34  1  0.000000  0.000000  0.500000  1
  Pt  Pt35  1  0.000000  0.500000  0.000000  1
  Pt  Pt36  1  0.500000  0.500000  0.000000  1
  Pt  Pt37  1  0.500000  0.500000  0.500000  1
