# generated using pymatgen
data_Zr4TaNb3As4
_symmetry_space_group_name_H-M   'P 1'
_cell_length_a   7.11262607
_cell_length_b   3.64128900
_cell_length_c   8.57954109
_cell_angle_alpha   90.00000000
_cell_angle_beta   90.01613081
_cell_angle_gamma   90.00000000
_symmetry_Int_Tables_number   1
_chemical_formula_structural   Zr4TaNb3As4
_chemical_formula_sum   'Zr4 Ta1 Nb3 As4'
_cell_volume   222.20261597
_cell_formula_units_Z   1
loop_
 _symmetry_equiv_pos_site_id
 _symmetry_equiv_pos_as_xyz
  1  'x, y, z'
loop_
 _atom_site_type_symbol
 _atom_site_label
 _atom_site_symmetry_multiplicity
 _atom_site_fract_x
 _atom_site_fract_y
 _atom_site_fract_z
 _atom_site_occupancy
  Zr  Zr0  1  0.459593  0.250001  0.166529  1
  Zr  Zr1  1  0.959533  0.250001  0.333319  1
  Zr  Zr2  1  0.040387  0.750000  0.667333  1
  Zr  Zr3  1  0.540608  0.750000  0.833120  1
  Ta  Ta4  1  0.866347  0.250001  0.940370  1
  Nb  Nb5  1  0.133720  0.750000  0.059172  1
  Nb  Nb6  1  0.633677  0.750000  0.441064  1
  Nb  Nb7  1  0.366247  0.250001  0.559201  1
  As  As8  1  0.755124  0.750000  0.142744  1
  As  As9  1  0.255071  0.750000  0.357143  1
  As  As10  1  0.745157  0.250001  0.643079  1
  As  As11  1  0.244537  0.250001  0.856927  1
