# generated using pymatgen
data_Hf8Tc3Os4Rh
_symmetry_space_group_name_H-M   'P 1'
_cell_length_a   6.51848000
_cell_length_b   6.52089000
_cell_length_c   6.50033600
_cell_angle_alpha   90.00075682
_cell_angle_beta   90.00125867
_cell_angle_gamma   90.00263643
_symmetry_Int_Tables_number   1
_chemical_formula_structural   Hf8Tc3Os4Rh
_chemical_formula_sum   'Hf8 Tc3 Os4 Rh1'
_cell_volume   276.30517373
_cell_formula_units_Z   1
loop_
 _symmetry_equiv_pos_site_id
 _symmetry_equiv_pos_as_xyz
  1  'x, y, z'
loop_
 _atom_site_type_symbol
 _atom_site_label
 _atom_site_symmetry_multiplicity
 _atom_site_fract_x
 _atom_site_fract_y
 _atom_site_fract_z
 _atom_site_occupancy
  Hf  Hf0  1  0.501392  0.001590  0.251331  1
  Hf  Hf1  1  0.501413  0.498372  0.251307  1
  Hf  Hf2  1  0.998182  0.001644  0.251285  1
  Hf  Hf3  1  0.998197  0.498417  0.251276  1
  Hf  Hf4  1  0.998589  0.001591  0.748708  1
  Hf  Hf5  1  0.998604  0.498385  0.748683  1
  Hf  Hf6  1  0.501805  0.001614  0.748698  1
  Hf  Hf7  1  0.501818  0.498387  0.748690  1
  Tc  Tc8  1  0.750042  0.250000  0.499912  1
  Tc  Tc9  1  0.249942  0.749999  0.500087  1
  Tc  Tc10  1  0.749949  0.250000  0.999915  1
  Os  Os11  1  0.249981  0.249999  0.000146  1
  Os  Os12  1  0.749994  0.750000  0.499855  1
  Os  Os13  1  0.250015  0.250001  0.500136  1
  Os  Os14  1  0.749993  0.749998  0.999851  1
  Rh  Rh15  1  0.250084  0.750001  0.000121  1
