# generated using pymatgen
data_TbPr(Si7Ir3)2
_symmetry_space_group_name_H-M   'P 1'
_cell_length_a   8.09356753
_cell_length_b   8.09356745
_cell_length_c   8.09356817
_cell_angle_alpha   56.52181698
_cell_angle_beta   56.52182067
_cell_angle_gamma   56.52182044
_symmetry_Int_Tables_number   1
_chemical_formula_structural   TbPr(Si7Ir3)2
_chemical_formula_sum   'Tb1 Pr1 Si14 Ir6'
_cell_volume   344.75544317
_cell_formula_units_Z   1
loop_
 _symmetry_equiv_pos_site_id
 _symmetry_equiv_pos_as_xyz
  1  'x, y, z'
loop_
 _atom_site_type_symbol
 _atom_site_label
 _atom_site_symmetry_multiplicity
 _atom_site_fract_x
 _atom_site_fract_y
 _atom_site_fract_z
 _atom_site_occupancy
  Tb  Tb0  1  0.000000  0.000000  0.000000  1
  Pr  Pr1  1  0.500000  0.500000  0.500000  1
  Si  Si2  1  0.749367  0.749367  0.749367  1
  Si  Si3  1  0.250633  0.250633  0.250633  1
  Si  Si4  1  0.851902  0.061928  0.673499  1
  Si  Si5  1  0.673499  0.851902  0.061928  1
  Si  Si6  1  0.061928  0.673499  0.851902  1
  Si  Si7  1  0.651014  0.828049  0.434790  1
  Si  Si8  1  0.434790  0.651014  0.828049  1
  Si  Si9  1  0.828049  0.434790  0.651014  1
  Si  Si10  1  0.171951  0.565210  0.348986  1
  Si  Si11  1  0.565210  0.348986  0.171951  1
  Si  Si12  1  0.348986  0.171951  0.565210  1
  Si  Si13  1  0.938072  0.326501  0.148098  1
  Si  Si14  1  0.326501  0.148098  0.938072  1
  Si  Si15  1  0.148098  0.938072  0.326501  1
  Ir  Ir16  1  0.067313  0.429559  0.752135  1
  Ir  Ir17  1  0.247865  0.932687  0.570441  1
  Ir  Ir18  1  0.570441  0.247865  0.932687  1
  Ir  Ir19  1  0.932687  0.570441  0.247865  1
  Ir  Ir20  1  0.429559  0.752135  0.067313  1
  Ir  Ir21  1  0.752135  0.067313  0.429559  1
