# generated using pymatgen
data_Cr(CoB2)2
_symmetry_space_group_name_H-M   'P 1'
_cell_length_a   2.96896392
_cell_length_b   2.93762875
_cell_length_c   6.50840087
_cell_angle_alpha   103.04285233
_cell_angle_beta   103.18446651
_cell_angle_gamma   89.99999893
_symmetry_Int_Tables_number   1
_chemical_formula_structural   Cr(CoB2)2
_chemical_formula_sum   'Cr1 Co2 B4'
_cell_volume   53.76296884
_cell_formula_units_Z   1
loop_
 _symmetry_equiv_pos_site_id
 _symmetry_equiv_pos_as_xyz
  1  'x, y, z'
loop_
 _atom_site_type_symbol
 _atom_site_label
 _atom_site_symmetry_multiplicity
 _atom_site_fract_x
 _atom_site_fract_y
 _atom_site_fract_z
 _atom_site_occupancy
  Cr  Cr0  1  0.500000  0.000000  0.000000  1
  Co  Co1  1  0.184106  0.184106  0.368210  1
  Co  Co2  1  0.815895  0.815893  0.631791  1
  B  B3  1  0.070566  0.570565  0.141131  1
  B  B4  1  0.648542  0.648541  0.297083  1
  B  B5  1  0.351457  0.351458  0.702916  1
  B  B6  1  0.929434  0.429434  0.858870  1
