# generated using pymatgen
data_Ba4ZrFe2WO12
_symmetry_space_group_name_H-M   'P 1'
_cell_length_a   10.14007619
_cell_length_b   10.14007672
_cell_length_c   10.14007772
_cell_angle_alpha   33.52323854
_cell_angle_beta   33.52323377
_cell_angle_gamma   33.52324052
_symmetry_Int_Tables_number   1
_chemical_formula_structural   Ba4ZrFe2WO12
_chemical_formula_sum   'Ba4 Zr1 Fe2 W1 O12'
_cell_volume   283.23918913
_cell_formula_units_Z   1
loop_
 _symmetry_equiv_pos_site_id
 _symmetry_equiv_pos_as_xyz
  1  'x, y, z'
loop_
 _atom_site_type_symbol
 _atom_site_label
 _atom_site_symmetry_multiplicity
 _atom_site_fract_x
 _atom_site_fract_y
 _atom_site_fract_z
 _atom_site_occupancy
  Ba  Ba0  1  0.624284  0.624284  0.624284  1
  Ba  Ba1  1  0.125400  0.125400  0.125400  1
  Ba  Ba2  1  0.874600  0.874600  0.874600  1
  Ba  Ba3  1  0.375716  0.375716  0.375716  1
  Zr  Zr4  1  0.500000  0.500000  0.500000  1
  Fe  Fe5  1  0.247173  0.247173  0.247173  1
  Fe  Fe6  1  0.752827  0.752827  0.752827  1
  W  W7  1  0.000000  0.000000  0.000000  1
  O  O8  1  0.120593  0.120593  0.641259  1
  O  O9  1  0.625327  0.625327  0.118265  1
  O  O10  1  0.374673  0.881735  0.374673  1
  O  O11  1  0.879407  0.358741  0.879407  1
  O  O12  1  0.641259  0.120593  0.120593  1
  O  O13  1  0.118265  0.625327  0.625327  1
  O  O14  1  0.374673  0.374673  0.881735  1
  O  O15  1  0.879407  0.879407  0.358741  1
  O  O16  1  0.120593  0.641259  0.120593  1
  O  O17  1  0.625327  0.118265  0.625327  1
  O  O18  1  0.881735  0.374673  0.374673  1
  O  O19  1  0.358741  0.879407  0.879407  1
