# generated using pymatgen
data_Li5Sb2Au
_symmetry_space_group_name_H-M   'P 1'
_cell_length_a   4.73533800
_cell_length_b   4.95507104
_cell_length_c   6.08825911
_cell_angle_alpha   90.48538190
_cell_angle_beta   90.00000000
_cell_angle_gamma   90.00000000
_symmetry_Int_Tables_number   1
_chemical_formula_structural   Li5Sb2Au
_chemical_formula_sum   'Li5 Sb2 Au1'
_cell_volume   142.84939739
_cell_formula_units_Z   1
loop_
 _symmetry_equiv_pos_site_id
 _symmetry_equiv_pos_as_xyz
  1  'x, y, z'
loop_
 _atom_site_type_symbol
 _atom_site_label
 _atom_site_symmetry_multiplicity
 _atom_site_fract_x
 _atom_site_fract_y
 _atom_site_fract_z
 _atom_site_occupancy
  Li  Li0  1  0.500000  0.338075  0.975446  1
  Li  Li1  1  0.000000  0.658370  0.522520  1
  Li  Li2  1  0.000000  0.193631  0.246067  1
  Li  Li3  1  0.500000  0.815330  0.250701  1
  Li  Li4  1  0.000000  0.167417  0.747836  1
  Sb  Sb5  1  0.000000  0.691252  0.013418  1
  Sb  Sb6  1  0.500000  0.296578  0.482609  1
  Au  Au7  1  0.500000  0.839346  0.761402  1
