# generated using pymatgen
data_Y4Sc4Ir3Au
_symmetry_space_group_name_H-M   'P 1'
_cell_length_a   4.41605500
_cell_length_b   7.10943000
_cell_length_c   8.64681281
_cell_angle_alpha   90.91186102
_cell_angle_beta   90.00000000
_cell_angle_gamma   90.00000000
_symmetry_Int_Tables_number   1
_chemical_formula_structural   Y4Sc4Ir3Au
_chemical_formula_sum   'Y4 Sc4 Ir3 Au1'
_cell_volume   271.43778974
_cell_formula_units_Z   1
loop_
 _symmetry_equiv_pos_site_id
 _symmetry_equiv_pos_as_xyz
  1  'x, y, z'
loop_
 _atom_site_type_symbol
 _atom_site_label
 _atom_site_symmetry_multiplicity
 _atom_site_fract_x
 _atom_site_fract_y
 _atom_site_fract_z
 _atom_site_occupancy
  Y  Y0  1  0.250000  0.013146  0.331533  1
  Y  Y1  1  0.250000  0.532813  0.180895  1
  Y  Y2  1  0.750000  0.983051  0.670564  1
  Y  Y3  1  0.750000  0.483415  0.819734  1
  Sc  Sc4  1  0.250000  0.134864  0.921898  1
  Sc  Sc5  1  0.250000  0.641831  0.568656  1
  Sc  Sc6  1  0.750000  0.853690  0.062203  1
  Sc  Sc7  1  0.750000  0.358911  0.436251  1
  Ir  Ir8  1  0.250000  0.262754  0.605938  1
  Ir  Ir9  1  0.250000  0.755932  0.899309  1
  Ir  Ir10  1  0.750000  0.737387  0.393467  1
  Au  Au11  1  0.750000  0.242206  0.109551  1
