# generated using pymatgen
data_La6Hg7Ir
_symmetry_space_group_name_H-M   'P 1'
_cell_length_a   8.54273846
_cell_length_b   8.54273912
_cell_length_c   8.54273855
_cell_angle_alpha   113.24971404
_cell_angle_beta   113.24972153
_cell_angle_gamma   113.24972294
_symmetry_Int_Tables_number   1
_chemical_formula_structural   La6Hg7Ir
_chemical_formula_sum   'La6 Hg7 Ir1'
_cell_volume   398.96282464
_cell_formula_units_Z   1
loop_
 _symmetry_equiv_pos_site_id
 _symmetry_equiv_pos_as_xyz
  1  'x, y, z'
loop_
 _atom_site_type_symbol
 _atom_site_label
 _atom_site_symmetry_multiplicity
 _atom_site_fract_x
 _atom_site_fract_y
 _atom_site_fract_z
 _atom_site_occupancy
  La  La0  1  0.993699  0.634748  0.752596  1
  La  La1  1  0.752596  0.993699  0.634748  1
  La  La2  1  0.634748  0.752596  0.993699  1
  La  La3  1  0.006301  0.365252  0.247404  1
  La  La4  1  0.247404  0.006301  0.365252  1
  La  La5  1  0.365252  0.247404  0.006301  1
  Hg  Hg6  1  0.500000  0.500000  0.500000  1
  Hg  Hg7  1  0.894674  0.733325  0.401816  1
  Hg  Hg8  1  0.401816  0.894674  0.733325  1
  Hg  Hg9  1  0.733325  0.401816  0.894674  1
  Hg  Hg10  1  0.105326  0.266675  0.598184  1
  Hg  Hg11  1  0.598184  0.105326  0.266675  1
  Hg  Hg12  1  0.266675  0.598184  0.105326  1
  Ir  Ir13  1  0.000000  0.000000  0.000000  1
