# generated using pymatgen
data_KNd(NbBr3)6
_symmetry_space_group_name_H-M   'P 1'
_cell_length_a   10.85202356
_cell_length_b   10.85202291
_cell_length_c   10.85202261
_cell_angle_alpha   55.31737630
_cell_angle_beta   55.31737938
_cell_angle_gamma   55.31738029
_symmetry_Int_Tables_number   1
_chemical_formula_structural   KNd(NbBr3)6
_chemical_formula_sum   'K1 Nd1 Nb6 Br18'
_cell_volume   805.35804265
_cell_formula_units_Z   1
loop_
 _symmetry_equiv_pos_site_id
 _symmetry_equiv_pos_as_xyz
  1  'x, y, z'
loop_
 _atom_site_type_symbol
 _atom_site_label
 _atom_site_symmetry_multiplicity
 _atom_site_fract_x
 _atom_site_fract_y
 _atom_site_fract_z
 _atom_site_occupancy
  K  K0  1  0.221225  0.221225  0.221225  1
  Nd  Nd1  1  0.498330  0.498330  0.498330  1
  Nb  Nb2  1  0.808348  0.141666  0.918479  1
  Nb  Nb3  1  0.918479  0.808348  0.141666  1
  Nb  Nb4  1  0.141666  0.918479  0.808348  1
  Nb  Nb5  1  0.192527  0.858679  0.080894  1
  Nb  Nb6  1  0.080894  0.192527  0.858679  1
  Nb  Nb7  1  0.858679  0.080894  0.192527  1
  Br  Br8  1  0.862428  0.409853  0.729028  1
  Br  Br9  1  0.729028  0.862428  0.409853  1
  Br  Br10  1  0.409853  0.729028  0.862428  1
  Br  Br11  1  0.137165  0.589848  0.273041  1
  Br  Br12  1  0.273041  0.137165  0.589848  1
  Br  Br13  1  0.589848  0.273041  0.137165  1
  Br  Br14  1  0.529639  0.338503  0.814364  1
  Br  Br15  1  0.814364  0.529639  0.338503  1
  Br  Br16  1  0.338503  0.814364  0.529639  1
  Br  Br17  1  0.465613  0.663057  0.189031  1
  Br  Br18  1  0.189031  0.465613  0.663057  1
  Br  Br19  1  0.663057  0.189031  0.465613  1
  Br  Br20  1  0.665284  0.936907  0.072834  1
  Br  Br21  1  0.072834  0.665284  0.936907  1
  Br  Br22  1  0.936907  0.072834  0.665284  1
  Br  Br23  1  0.336401  0.062586  0.925408  1
  Br  Br24  1  0.925408  0.336401  0.062586  1
  Br  Br25  1  0.062586  0.925408  0.336401  1
