# generated using pymatgen
data_Sb12IrRuPt2
_symmetry_space_group_name_H-M   'P 1'
_cell_length_a   8.21009015
_cell_length_b   8.21244779
_cell_length_c   8.18901447
_cell_angle_alpha   109.42666632
_cell_angle_beta   109.45636429
_cell_angle_gamma   109.65459925
_symmetry_Int_Tables_number   1
_chemical_formula_structural   Sb12IrRuPt2
_chemical_formula_sum   'Sb12 Ir1 Ru1 Pt2'
_cell_volume   424.38746504
_cell_formula_units_Z   1
loop_
 _symmetry_equiv_pos_site_id
 _symmetry_equiv_pos_as_xyz
  1  'x, y, z'
loop_
 _atom_site_type_symbol
 _atom_site_label
 _atom_site_symmetry_multiplicity
 _atom_site_fract_x
 _atom_site_fract_y
 _atom_site_fract_z
 _atom_site_occupancy
  Sb  Sb0  1  0.847029  0.654782  0.502029  1
  Sb  Sb1  1  0.846646  0.338228  0.181226  1
  Sb  Sb2  1  0.153354  0.661772  0.818774  1
  Sb  Sb3  1  0.334961  0.494178  0.149288  1
  Sb  Sb4  1  0.152971  0.345218  0.497971  1
  Sb  Sb5  1  0.655391  0.811571  0.150430  1
  Sb  Sb6  1  0.185590  0.840776  0.335295  1
  Sb  Sb7  1  0.665039  0.505822  0.850712  1
  Sb  Sb8  1  0.814410  0.159224  0.664705  1
  Sb  Sb9  1  0.344609  0.188429  0.849570  1
  Sb  Sb10  1  0.504492  0.849349  0.660864  1
  Sb  Sb11  1  0.495508  0.150651  0.339136  1
  Ir  Ir12  1  0.500000  0.000000  0.000000  1
  Ru  Ru13  1  0.000000  0.500000  0.000000  1
  Pt  Pt14  1  0.000000  0.000000  0.500000  1
  Pt  Pt15  1  0.500000  0.500000  0.500000  1
