# generated using pymatgen
data_Ca12Al3Ga5Pt8
_symmetry_space_group_name_H-M   'P 1'
_cell_length_a   5.82244500
_cell_length_b   7.82005929
_cell_length_c   13.80174300
_cell_angle_alpha   89.95614927
_cell_angle_beta   90.00000000
_cell_angle_gamma   90.00000000
_symmetry_Int_Tables_number   1
_chemical_formula_structural   Ca12Al3Ga5Pt8
_chemical_formula_sum   'Ca12 Al3 Ga5 Pt8'
_cell_volume   628.41891657
_cell_formula_units_Z   1
loop_
 _symmetry_equiv_pos_site_id
 _symmetry_equiv_pos_as_xyz
  1  'x, y, z'
loop_
 _atom_site_type_symbol
 _atom_site_label
 _atom_site_symmetry_multiplicity
 _atom_site_fract_x
 _atom_site_fract_y
 _atom_site_fract_z
 _atom_site_occupancy
  Ca  Ca0  1  0.138656  0.605752  0.099042  1
  Ca  Ca1  1  0.138656  0.894248  0.900958  1
  Ca  Ca2  1  0.859516  0.106563  0.401293  1
  Ca  Ca3  1  0.859516  0.393437  0.598707  1
  Ca  Ca4  1  0.861673  0.394210  0.900688  1
  Ca  Ca5  1  0.861673  0.105790  0.099312  1
  Ca  Ca6  1  0.139514  0.894634  0.598852  1
  Ca  Ca7  1  0.139514  0.605366  0.401148  1
  Ca  Ca8  1  0.371308  0.259492  0.250475  1
  Ca  Ca9  1  0.371308  0.240508  0.749525  1
  Ca  Ca10  1  0.628923  0.759570  0.250590  1
  Ca  Ca11  1  0.628923  0.740430  0.749410  1
  Al  Al12  1  0.393611  0.250000  0.000000  1
  Al  Al13  1  0.608214  0.750000  0.500000  1
  Al  Al14  1  0.606277  0.750000  0.000000  1
  Ga  Ga15  1  0.383059  0.250000  0.500000  1
  Ga  Ga16  1  0.861806  0.407693  0.249787  1
  Ga  Ga17  1  0.861806  0.092307  0.750213  1
  Ga  Ga18  1  0.138561  0.906966  0.249988  1
  Ga  Ga19  1  0.138561  0.593034  0.750012  1
  Pt  Pt20  1  0.637815  0.470950  0.093221  1
  Pt  Pt21  1  0.637815  0.029050  0.906779  1
  Pt  Pt22  1  0.362502  0.967154  0.405480  1
  Pt  Pt23  1  0.362502  0.532846  0.594520  1
  Pt  Pt24  1  0.362585  0.528975  0.906585  1
  Pt  Pt25  1  0.362585  0.971025  0.093415  1
  Pt  Pt26  1  0.641561  0.027486  0.593902  1
  Pt  Pt27  1  0.641561  0.472514  0.406098  1
