# generated using pymatgen
data_Ba3Te22
_symmetry_space_group_name_H-M   'P 1'
_cell_length_a   9.96699274
_cell_length_b   9.49986981
_cell_length_c   11.87497613
_cell_angle_alpha   113.87123420
_cell_angle_beta   115.01924141
_cell_angle_gamma   89.29629699
_symmetry_Int_Tables_number   1
_chemical_formula_structural   Ba3Te22
_chemical_formula_sum   'Ba3 Te22'
_cell_volume   914.43691881
_cell_formula_units_Z   1
loop_
 _symmetry_equiv_pos_site_id
 _symmetry_equiv_pos_as_xyz
  1  'x, y, z'
loop_
 _atom_site_type_symbol
 _atom_site_label
 _atom_site_symmetry_multiplicity
 _atom_site_fract_x
 _atom_site_fract_y
 _atom_site_fract_z
 _atom_site_occupancy
  Ba  Ba0  1  0.818403  0.822025  0.638974  1
  Ba  Ba1  1  0.499983  0.500735  0.000279  1
  Ba  Ba2  1  0.185235  0.178972  0.356312  1
  Te  Te3  1  0.884820  0.805522  0.004566  1
  Te  Te4  1  0.103676  0.536902  0.778107  1
  Te  Te5  1  0.253581  0.111309  0.780879  1
  Te  Te6  1  0.011927  0.201194  0.595028  1
  Te  Te7  1  0.322757  0.757367  0.221068  1
  Te  Te8  1  0.987576  0.800982  0.403907  1
  Te  Te9  1  0.676456  0.242496  0.779611  1
  Te  Te10  1  0.473192  0.329186  0.219291  1
  Te  Te11  1  0.784604  0.104995  0.000804  1
  Te  Te12  1  0.528304  0.671798  0.781770  1
  Te  Te13  1  0.744522  0.890738  0.218826  1
  Te  Te14  1  0.896890  0.464292  0.221962  1
  Te  Te15  1  0.397645  0.010673  0.602198  1
  Te  Te16  1  0.599591  0.990617  0.398207  1
  Te  Te17  1  0.206344  0.592094  0.601678  1
  Te  Te18  1  0.215451  0.896183  0.000279  1
  Te  Te19  1  0.587045  0.396711  0.597201  1
  Te  Te20  1  0.998782  0.499456  0.998576  1
  Te  Te21  1  0.796090  0.409969  0.399567  1
  Te  Te22  1  0.118598  0.199462  0.003594  1
  Te  Te23  1  0.499636  0.000560  0.999828  1
  Te  Te24  1  0.414934  0.604240  0.404536  1
