# generated using pymatgen
data_Y4Th(TcB3)2
_symmetry_space_group_name_H-M   'P 1'
_cell_length_a   5.54585167
_cell_length_b   5.54584985
_cell_length_c   8.58291725
_cell_angle_alpha   71.15101293
_cell_angle_beta   71.15100696
_cell_angle_gamma   59.99999348
_symmetry_Int_Tables_number   1
_chemical_formula_structural   Y4Th(TcB3)2
_chemical_formula_sum   'Y4 Th1 Tc2 B6'
_cell_volume   212.10973445
_cell_formula_units_Z   1
loop_
 _symmetry_equiv_pos_site_id
 _symmetry_equiv_pos_as_xyz
  1  'x, y, z'
loop_
 _atom_site_type_symbol
 _atom_site_label
 _atom_site_symmetry_multiplicity
 _atom_site_fract_x
 _atom_site_fract_y
 _atom_site_fract_z
 _atom_site_occupancy
  Y  Y0  1  0.752459  0.752459  0.742626  1
  Y  Y1  1  0.247541  0.247541  0.257374  1
  Y  Y2  1  0.580931  0.580931  0.257206  1
  Y  Y3  1  0.419069  0.419069  0.742794  1
  Th  Th4  1  0.000000  0.000000  0.000000  1
  Tc  Tc5  1  0.889092  0.889092  0.332723  1
  Tc  Tc6  1  0.110908  0.110908  0.667277  1
  B  B7  1  0.500000  0.171118  0.500000  1
  B  B8  1  0.828882  0.500000  0.500000  1
  B  B9  1  0.171118  0.828882  0.500000  1
  B  B10  1  0.171118  0.500000  0.500000  1
  B  B11  1  0.828882  0.171118  0.500000  1
  B  B12  1  0.500000  0.828882  0.500000  1
