# generated using pymatgen
data_Tb16In4NiIr3
_symmetry_space_group_name_H-M   'P 1'
_cell_length_a   9.67615961
_cell_length_b   9.67558511
_cell_length_c   9.67550251
_cell_angle_alpha   60.46892611
_cell_angle_beta   60.47844916
_cell_angle_gamma   60.47951691
_symmetry_Int_Tables_number   1
_chemical_formula_structural   Tb16In4NiIr3
_chemical_formula_sum   'Tb16 In4 Ni1 Ir3'
_cell_volume   647.41525172
_cell_formula_units_Z   1
loop_
 _symmetry_equiv_pos_site_id
 _symmetry_equiv_pos_as_xyz
  1  'x, y, z'
loop_
 _atom_site_type_symbol
 _atom_site_label
 _atom_site_symmetry_multiplicity
 _atom_site_fract_x
 _atom_site_fract_y
 _atom_site_fract_z
 _atom_site_occupancy
  Tb  Tb0  1  0.097632  0.704722  0.097708  1
  Tb  Tb1  1  0.939577  0.939588  0.561075  1
  Tb  Tb2  1  0.939578  0.561075  0.939586  1
  Tb  Tb3  1  0.309617  0.690602  0.309598  1
  Tb  Tb4  1  0.940760  0.559761  0.559763  1
  Tb  Tb5  1  0.309617  0.309600  0.690603  1
  Tb  Tb6  1  0.099461  0.099392  0.099380  1
  Tb  Tb7  1  0.559750  0.559748  0.940784  1
  Tb  Tb8  1  0.097640  0.097711  0.704722  1
  Tb  Tb9  1  0.688732  0.312568  0.688751  1
  Tb  Tb10  1  0.688732  0.688748  0.312567  1
  Tb  Tb11  1  0.690605  0.309593  0.309592  1
  Tb  Tb12  1  0.312567  0.688759  0.688760  1
  Tb  Tb13  1  0.559748  0.940782  0.559751  1
  Tb  Tb14  1  0.704734  0.097623  0.097628  1
  Tb  Tb15  1  0.561089  0.939568  0.939567  1
  In  In16  1  0.332604  0.332590  0.332590  1
  In  In17  1  0.000574  0.333723  0.333726  1
  In  In18  1  0.333735  0.000609  0.333685  1
  In  In19  1  0.333732  0.333687  0.000610  1
  Ni  Ni20  1  0.891262  0.891283  0.891282  1
  Ir  Ir21  1  0.891669  0.891695  0.324901  1
  Ir  Ir22  1  0.324916  0.891671  0.891672  1
  Ir  Ir23  1  0.891668  0.324903  0.891696  1
