# generated using pymatgen
data_Tm10In8Ir2PtRh
_symmetry_space_group_name_H-M   'P 1'
_cell_length_a   3.57716000
_cell_length_b   8.02108727
_cell_length_c   18.12032497
_cell_angle_alpha   89.91928256
_cell_angle_beta   90.00000000
_cell_angle_gamma   90.00000000
_symmetry_Int_Tables_number   1
_chemical_formula_structural   Tm10In8Ir2PtRh
_chemical_formula_sum   'Tm10 In8 Ir2 Pt1 Rh1'
_cell_volume   519.92075960
_cell_formula_units_Z   1
loop_
 _symmetry_equiv_pos_site_id
 _symmetry_equiv_pos_as_xyz
  1  'x, y, z'
loop_
 _atom_site_type_symbol
 _atom_site_label
 _atom_site_symmetry_multiplicity
 _atom_site_fract_x
 _atom_site_fract_y
 _atom_site_fract_z
 _atom_site_occupancy
  Tm  Tm0  1  0.000000  0.115478  0.412982  1
  Tm  Tm1  1  0.000000  0.883176  0.587574  1
  Tm  Tm2  1  0.000000  0.383528  0.912349  1
  Tm  Tm3  1  0.000000  0.617512  0.086083  1
  Tm  Tm4  1  0.000000  0.238435  0.221654  1
  Tm  Tm5  1  0.000000  0.758324  0.778422  1
  Tm  Tm6  1  0.000000  0.254213  0.721295  1
  Tm  Tm7  1  0.000000  0.749466  0.279166  1
  Tm  Tm8  1  0.000000  0.999561  0.999958  1
  Tm  Tm9  1  0.000000  0.500362  0.500079  1
  In  In10  1  0.500000  0.424094  0.352047  1
  In  In11  1  0.500000  0.572564  0.649784  1
  In  In12  1  0.500000  0.073918  0.850961  1
  In  In13  1  0.500000  0.928467  0.148396  1
  In  In14  1  0.500000  0.292053  0.065366  1
  In  In15  1  0.500000  0.706855  0.932692  1
  In  In16  1  0.500000  0.207274  0.567160  1
  In  In17  1  0.500000  0.792078  0.432542  1
  Ir  Ir18  1  0.500000  0.023768  0.303845  1
  Ir  Ir19  1  0.500000  0.977851  0.696297  1
  Pt  Pt20  1  0.500000  0.524179  0.196137  1
  Rh  Rh21  1  0.500000  0.476844  0.805213  1
