# generated using pymatgen
data_Na4(CO3)3
_symmetry_space_group_name_H-M   'P 1'
_cell_length_a   6.67319686
_cell_length_b   8.44415826
_cell_length_c   8.44416162
_cell_angle_alpha   75.51160231
_cell_angle_beta   107.31355943
_cell_angle_gamma   107.31345883
_symmetry_Int_Tables_number   1
_chemical_formula_structural   Na4(CO3)3
_chemical_formula_sum   'Na8 C6 O18'
_cell_volume   426.81009287
_cell_formula_units_Z   2
loop_
 _symmetry_equiv_pos_site_id
 _symmetry_equiv_pos_as_xyz
  1  'x, y, z'
loop_
 _atom_site_type_symbol
 _atom_site_label
 _atom_site_symmetry_multiplicity
 _atom_site_fract_x
 _atom_site_fract_y
 _atom_site_fract_z
 _atom_site_occupancy
  Na  Na0  1  0.909695  0.455698  0.454105  1
  Na  Na1  1  0.909721  0.954116  0.955719  1
  Na  Na2  1  0.573232  0.036772  0.536779  1
  Na  Na3  1  0.575824  0.537790  0.037783  1
  Na  Na4  1  0.155381  0.611038  0.111090  1
  Na  Na5  1  0.720216  0.326485  0.826493  1
  Na  Na6  1  0.151959  0.109512  0.609460  1
  Na  Na7  1  0.720859  0.827263  0.327256  1
  C  C8  1  0.191394  0.845584  0.345595  1
  C  C9  1  0.192068  0.346119  0.846106  1
  C  C10  1  0.428623  0.414736  0.415839  1
  C  C11  1  0.428592  0.915843  0.914734  1
  C  C12  1  0.830808  0.214592  0.214175  1
  C  C13  1  0.830815  0.714184  0.714605  1
  O  O14  1  0.016880  0.758571  0.258590  1
  O  O15  1  0.018072  0.258970  0.758939  1
  O  O16  1  0.241493  0.420200  0.421032  1
  O  O17  1  0.241475  0.921058  0.920222  1
  O  O18  1  0.841259  0.120779  0.120910  1
  O  O19  1  0.841275  0.620919  0.620788  1
  O  O20  1  0.179043  0.939151  0.439141  1
  O  O21  1  0.179673  0.439634  0.939643  1
  O  O22  1  0.378259  0.838965  0.338985  1
  O  O23  1  0.379515  0.340278  0.840263  1
  O  O24  1  0.524270  0.304030  0.520599  1
  O  O25  1  0.524314  0.804689  0.018507  1
  O  O26  1  0.823055  0.155024  0.369425  1
  O  O27  1  0.825293  0.654268  0.870199  1
  O  O28  1  0.524231  0.020594  0.804019  1
  O  O29  1  0.524357  0.518516  0.304699  1
  O  O30  1  0.823059  0.869432  0.655035  1
  O  O31  1  0.825287  0.370187  0.154264  1
