# generated using pymatgen
data_TiBe8CrTc2
_symmetry_space_group_name_H-M   'P 1'
_cell_length_a   4.35382800
_cell_length_b   4.35382880
_cell_length_c   7.14165000
_cell_angle_alpha   90.00000000
_cell_angle_beta   90.00000000
_cell_angle_gamma   120.00000911
_symmetry_Int_Tables_number   1
_chemical_formula_structural   TiBe8CrTc2
_chemical_formula_sum   'Ti1 Be8 Cr1 Tc2'
_cell_volume   117.23890951
_cell_formula_units_Z   1
loop_
 _symmetry_equiv_pos_site_id
 _symmetry_equiv_pos_as_xyz
  1  'x, y, z'
loop_
 _atom_site_type_symbol
 _atom_site_label
 _atom_site_symmetry_multiplicity
 _atom_site_fract_x
 _atom_site_fract_y
 _atom_site_fract_z
 _atom_site_occupancy
  Ti  Ti0  1  0.333333  0.666667  0.063571  1
  Be  Be1  1  0.168566  0.337131  0.746578  1
  Be  Be2  1  0.168566  0.831434  0.746578  1
  Be  Be3  1  0.340302  0.170151  0.254437  1
  Be  Be4  1  0.829849  0.659698  0.254437  1
  Be  Be5  1  0.000000  0.000000  0.998698  1
  Be  Be6  1  0.662869  0.831434  0.746578  1
  Be  Be7  1  0.829849  0.170151  0.254437  1
  Be  Be8  1  0.000000  0.000000  0.499399  1
  Cr  Cr9  1  0.666667  0.333333  0.564349  1
  Tc  Tc10  1  0.333333  0.666667  0.442347  1
  Tc  Tc11  1  0.666667  0.333333  0.928592  1
