# generated using pymatgen
data_Sb6OsPt
_symmetry_space_group_name_H-M   'P 1'
_cell_length_a   8.17239603
_cell_length_b   8.17239585
_cell_length_c   8.18171275
_cell_angle_alpha   109.50690015
_cell_angle_beta   109.39972903
_cell_angle_gamma   109.46090676
_symmetry_Int_Tables_number   1
_chemical_formula_structural   Sb6OsPt
_chemical_formula_sum   'Sb12 Os2 Pt2'
_cell_volume   420.88924473
_cell_formula_units_Z   2
loop_
 _symmetry_equiv_pos_site_id
 _symmetry_equiv_pos_as_xyz
  1  'x, y, z'
loop_
 _atom_site_type_symbol
 _atom_site_label
 _atom_site_symmetry_multiplicity
 _atom_site_fract_x
 _atom_site_fract_y
 _atom_site_fract_z
 _atom_site_occupancy
  Sb  Sb0  1  0.158299  0.813359  0.663693  1
  Sb  Sb1  1  0.841701  0.186641  0.336307  1
  Sb  Sb2  1  0.850334  0.505393  0.663693  1
  Sb  Sb3  1  0.149666  0.494607  0.336307  1
  Sb  Sb4  1  0.812908  0.655561  0.149663  1
  Sb  Sb5  1  0.187092  0.344439  0.850337  1
  Sb  Sb6  1  0.505898  0.663245  0.850337  1
  Sb  Sb7  1  0.494102  0.336755  0.149663  1
  Sb  Sb8  1  0.667193  0.155694  0.822887  1
  Sb  Sb9  1  0.332807  0.844306  0.177113  1
  Sb  Sb10  1  0.652741  0.847960  0.500701  1
  Sb  Sb11  1  0.347259  0.152040  0.499299  1
  Os  Os12  1  0.500000  0.000000  0.000000  1
  Os  Os13  1  0.000000  0.500000  0.000000  1
  Pt  Pt14  1  0.000000  0.000000  0.500000  1
  Pt  Pt15  1  0.500000  0.500000  0.500000  1
