# generated using pymatgen
data_Y13Th3(CdNi)4
_symmetry_space_group_name_H-M   'P 1'
_cell_length_a   9.64988111
_cell_length_b   9.67208353
_cell_length_c   9.67208300
_cell_angle_alpha   59.99999841
_cell_angle_beta   59.92385940
_cell_angle_gamma   59.92386156
_symmetry_Int_Tables_number   1
_chemical_formula_structural   Y13Th3(CdNi)4
_chemical_formula_sum   'Y13 Th3 Cd4 Ni4'
_cell_volume   637.59697246
_cell_formula_units_Z   1
loop_
 _symmetry_equiv_pos_site_id
 _symmetry_equiv_pos_as_xyz
  1  'x, y, z'
loop_
 _atom_site_type_symbol
 _atom_site_label
 _atom_site_symmetry_multiplicity
 _atom_site_fract_x
 _atom_site_fract_y
 _atom_site_fract_z
 _atom_site_occupancy
  Y  Y0  1  0.196536  0.601155  0.601155  1
  Y  Y1  1  0.061969  0.438449  0.438449  1
  Y  Y2  1  0.439615  0.062080  0.062080  1
  Y  Y3  1  0.439615  0.062080  0.436225  1
  Y  Y4  1  0.061969  0.438449  0.061133  1
  Y  Y5  1  0.439615  0.436225  0.062080  1
  Y  Y6  1  0.061969  0.061133  0.438449  1
  Y  Y7  1  0.187030  0.815455  0.815455  1
  Y  Y8  1  0.813825  0.185561  0.185561  1
  Y  Y9  1  0.813825  0.185561  0.815053  1
  Y  Y10  1  0.187030  0.815455  0.182059  1
  Y  Y11  1  0.813825  0.815053  0.185561  1
  Y  Y12  1  0.187030  0.182059  0.815455  1
  Th  Th13  1  0.593459  0.598894  0.598894  1
  Th  Th14  1  0.593459  0.598894  0.208752  1
  Th  Th15  1  0.593459  0.208752  0.598894  1
  Cd  Cd16  1  0.833362  0.831570  0.831570  1
  Cd  Cd17  1  0.833362  0.831570  0.503497  1
  Cd  Cd18  1  0.833362  0.503497  0.831570  1
  Cd  Cd19  1  0.504041  0.831986  0.831986  1
  Ni  Ni20  1  0.398682  0.391328  0.391328  1
  Ni  Ni21  1  0.398682  0.391328  0.818663  1
  Ni  Ni22  1  0.398682  0.818663  0.391328  1
  Ni  Ni23  1  0.815595  0.394802  0.394802  1
