# generated using pymatgen
data_Ti3Tc3As2P
_symmetry_space_group_name_H-M   'P 1'
_cell_length_a   3.40729400
_cell_length_b   6.72142908
_cell_length_c   6.72142937
_cell_angle_alpha   60.02846407
_cell_angle_beta   90.00000000
_cell_angle_gamma   90.00000000
_symmetry_Int_Tables_number   1
_chemical_formula_structural   Ti3Tc3As2P
_chemical_formula_sum   'Ti3 Tc3 As2 P1'
_cell_volume   133.34845693
_cell_formula_units_Z   1
loop_
 _symmetry_equiv_pos_site_id
 _symmetry_equiv_pos_as_xyz
  1  'x, y, z'
loop_
 _atom_site_type_symbol
 _atom_site_label
 _atom_site_symmetry_multiplicity
 _atom_site_fract_x
 _atom_site_fract_y
 _atom_site_fract_z
 _atom_site_occupancy
  Ti  Ti0  1  0.500000  0.602401  0.397599  1
  Ti  Ti1  1  0.500000  0.397576  0.999910  1
  Ti  Ti2  1  0.500000  0.000090  0.602424  1
  Tc  Tc3  1  0.000000  0.245617  0.754383  1
  Tc  Tc4  1  0.000000  0.754105  0.999821  1
  Tc  Tc5  1  0.000000  0.000179  0.245895  1
  As  As6  1  0.000000  0.333492  0.333256  1
  As  As7  1  0.000000  0.666744  0.666508  1
  P  P8  1  0.500000  0.999696  0.000304  1
