# generated using pymatgen
data_Ac3Dy3(Si3Pt2)4
_symmetry_space_group_name_H-M   'P 1'
_cell_length_a   4.35077400
_cell_length_b   8.77090770
_cell_length_c   13.24533600
_cell_angle_alpha   80.23719315
_cell_angle_beta   90.00000000
_cell_angle_gamma   90.00000000
_symmetry_Int_Tables_number   1
_chemical_formula_structural   Ac3Dy3(Si3Pt2)4
_chemical_formula_sum   'Ac3 Dy3 Si12 Pt8'
_cell_volume   498.12539776
_cell_formula_units_Z   1
loop_
 _symmetry_equiv_pos_site_id
 _symmetry_equiv_pos_as_xyz
  1  'x, y, z'
loop_
 _atom_site_type_symbol
 _atom_site_label
 _atom_site_symmetry_multiplicity
 _atom_site_fract_x
 _atom_site_fract_y
 _atom_site_fract_z
 _atom_site_occupancy
  Ac  Ac0  1  0.750000  0.419192  0.812671  1
  Ac  Ac1  1  0.750000  0.925451  0.813954  1
  Ac  Ac2  1  0.250000  0.074463  0.188210  1
  Dy  Dy3  1  0.250000  0.764944  0.439352  1
  Dy  Dy4  1  0.250000  0.584445  0.185924  1
  Dy  Dy5  1  0.750000  0.236026  0.556989  1
  Si  Si6  1  0.750000  0.589104  0.565414  1
  Si  Si7  1  0.750000  0.125358  0.006238  1
  Si  Si8  1  0.750000  0.872990  0.569194  1
  Si  Si9  1  0.250000  0.697417  0.711244  1
  Si  Si10  1  0.750000  0.308437  0.287410  1
  Si  Si11  1  0.750000  0.797841  0.279942  1
  Si  Si12  1  0.250000  0.870919  0.000370  1
  Si  Si13  1  0.250000  0.195838  0.717284  1
  Si  Si14  1  0.250000  0.379034  0.005026  1
  Si  Si15  1  0.250000  0.124134  0.430395  1
  Si  Si16  1  0.750000  0.621758  0.003416  1
  Si  Si17  1  0.250000  0.410985  0.425876  1
  Pt  Pt18  1  0.750000  0.357142  0.099561  1
  Pt  Pt19  1  0.250000  0.970349  0.616016  1
  Pt  Pt20  1  0.750000  0.844555  0.091415  1
  Pt  Pt21  1  0.750000  0.030955  0.380307  1
  Pt  Pt22  1  0.250000  0.647217  0.907302  1
  Pt  Pt23  1  0.250000  0.149298  0.914969  1
  Pt  Pt24  1  0.750000  0.530051  0.376369  1
  Pt  Pt25  1  0.250000  0.472096  0.615152  1
