# generated using pymatgen
data_Sn7Pb5O16
_symmetry_space_group_name_H-M   'P 1'
_cell_length_a   6.43239600
_cell_length_b   8.54951095
_cell_length_c   9.13261501
_cell_angle_alpha   89.54900125
_cell_angle_beta   90.00000000
_cell_angle_gamma   90.00000000
_symmetry_Int_Tables_number   1
_chemical_formula_structural   Sn7Pb5O16
_chemical_formula_sum   'Sn7 Pb5 O16'
_cell_volume   502.22201021
_cell_formula_units_Z   1
loop_
 _symmetry_equiv_pos_site_id
 _symmetry_equiv_pos_as_xyz
  1  'x, y, z'
loop_
 _atom_site_type_symbol
 _atom_site_label
 _atom_site_symmetry_multiplicity
 _atom_site_fract_x
 _atom_site_fract_y
 _atom_site_fract_z
 _atom_site_occupancy
  Sn  Sn0  1  0.500000  0.361213  0.324131  1
  Sn  Sn1  1  0.500000  0.636366  0.677055  1
  Sn  Sn2  1  0.500000  0.860645  0.176773  1
  Sn  Sn3  1  0.750133  0.999960  0.499299  1
  Sn  Sn4  1  0.249920  0.502193  0.000627  1
  Sn  Sn5  1  0.249867  0.999960  0.499299  1
  Sn  Sn6  1  0.750080  0.502193  0.000627  1
  Pb  Pb7  1  0.500000  0.129383  0.833590  1
  Pb  Pb8  1  0.000000  0.653644  0.349558  1
  Pb  Pb9  1  0.000000  0.346474  0.650777  1
  Pb  Pb10  1  0.000000  0.152951  0.151001  1
  Pb  Pb11  1  0.000000  0.848157  0.845413  1
  O  O12  1  0.500000  0.105880  0.381028  1
  O  O13  1  0.500000  0.893148  0.618159  1
  O  O14  1  0.500000  0.608199  0.120729  1
  O  O15  1  0.500000  0.401678  0.883956  1
  O  O16  1  0.000000  0.129661  0.406436  1
  O  O17  1  0.000000  0.865809  0.587088  1
  O  O18  1  0.000000  0.632271  0.089988  1
  O  O19  1  0.000000  0.371123  0.910477  1
  O  O20  1  0.743972  0.334627  0.168379  1
  O  O21  1  0.744686  0.667838  0.831128  1
  O  O22  1  0.255614  0.835783  0.330485  1
  O  O23  1  0.246312  0.161299  0.667003  1
  O  O24  1  0.744386  0.835783  0.330485  1
  O  O25  1  0.753688  0.161299  0.667003  1
  O  O26  1  0.256028  0.334627  0.168379  1
  O  O27  1  0.255314  0.667838  0.831128  1
