# generated using pymatgen
data_Ce6Al24Co2Os5Pd
_symmetry_space_group_name_H-M   'P 1'
_cell_length_a   8.87399186
_cell_length_b   8.87399286
_cell_length_c   9.47881454
_cell_angle_alpha   89.81474032
_cell_angle_beta   90.18526016
_cell_angle_gamma   119.73221770
_symmetry_Int_Tables_number   1
_chemical_formula_structural   Ce6Al24Co2Os5Pd
_chemical_formula_sum   'Ce6 Al24 Co2 Os5 Pd1'
_cell_volume   648.16457254
_cell_formula_units_Z   1
loop_
 _symmetry_equiv_pos_site_id
 _symmetry_equiv_pos_as_xyz
  1  'x, y, z'
loop_
 _atom_site_type_symbol
 _atom_site_label
 _atom_site_symmetry_multiplicity
 _atom_site_fract_x
 _atom_site_fract_y
 _atom_site_fract_z
 _atom_site_occupancy
  Ce  Ce0  1  0.190285  0.389192  0.252737  1
  Ce  Ce1  1  0.809715  0.610808  0.747263  1
  Ce  Ce2  1  0.610808  0.809715  0.252737  1
  Ce  Ce3  1  0.389192  0.190285  0.747263  1
  Ce  Ce4  1  0.195776  0.804224  0.252636  1
  Ce  Ce5  1  0.804224  0.195776  0.747364  1
  Al  Al6  1  0.331907  0.668093  0.021310  1
  Al  Al7  1  0.668093  0.331907  0.978690  1
  Al  Al8  1  0.666354  0.333646  0.516174  1
  Al  Al9  1  0.333646  0.666354  0.483826  1
  Al  Al10  1  0.160768  0.320114  0.576978  1
  Al  Al11  1  0.839232  0.679886  0.423022  1
  Al  Al12  1  0.679886  0.839232  0.576978  1
  Al  Al13  1  0.845350  0.682212  0.077359  1
  Al  Al14  1  0.320114  0.160768  0.423022  1
  Al  Al15  1  0.154650  0.317788  0.922641  1
  Al  Al16  1  0.160635  0.839365  0.576678  1
  Al  Al17  1  0.317788  0.154650  0.077359  1
  Al  Al18  1  0.839365  0.160635  0.423322  1
  Al  Al19  1  0.682212  0.845350  0.922641  1
  Al  Al20  1  0.838904  0.161096  0.076903  1
  Al  Al21  1  0.161096  0.838904  0.923097  1
  Al  Al22  1  0.561955  0.126213  0.249288  1
  Al  Al23  1  0.438045  0.873787  0.750712  1
  Al  Al24  1  0.873787  0.438045  0.249288  1
  Al  Al25  1  0.126213  0.561955  0.750712  1
  Al  Al26  1  0.561714  0.438286  0.251614  1
  Al  Al27  1  0.438286  0.561714  0.748386  1
  Al  Al28  1  0.999359  0.000641  0.250543  1
  Al  Al29  1  0.000641  0.999359  0.749457  1
  Co  Co30  1  0.000000  0.000000  0.000000  1
  Co  Co31  1  0.000000  0.000000  0.500000  1
  Os  Os32  1  0.500000  0.000000  0.000000  1
  Os  Os33  1  0.000000  0.500000  0.000000  1
  Os  Os34  1  0.500000  0.000000  0.500000  1
  Os  Os35  1  0.000000  0.500000  0.500000  1
  Os  Os36  1  0.500000  0.500000  0.500000  1
  Pd  Pd37  1  0.500000  0.500000  0.000000  1
