# generated using pymatgen
data_GdLu7(BCl6)2
_symmetry_space_group_name_H-M   'P 1'
_cell_length_a   3.77600100
_cell_length_b   12.40737542
_cell_length_c   12.85494100
_cell_angle_alpha   90.39202419
_cell_angle_beta   90.00000000
_cell_angle_gamma   90.00000000
_symmetry_Int_Tables_number   1
_chemical_formula_structural   GdLu7(BCl6)2
_chemical_formula_sum   'Gd1 Lu7 B2 Cl12'
_cell_volume   602.24325669
_cell_formula_units_Z   1
loop_
 _symmetry_equiv_pos_site_id
 _symmetry_equiv_pos_as_xyz
  1  'x, y, z'
loop_
 _atom_site_type_symbol
 _atom_site_label
 _atom_site_symmetry_multiplicity
 _atom_site_fract_x
 _atom_site_fract_y
 _atom_site_fract_z
 _atom_site_occupancy
  Gd  Gd0  1  0.500000  0.128350  0.848946  1
  Lu  Lu1  1  0.000000  0.103994  0.083123  1
  Lu  Lu2  1  0.000000  0.895576  0.917339  1
  Lu  Lu3  1  0.000000  0.605408  0.416524  1
  Lu  Lu4  1  0.000000  0.396602  0.581880  1
  Lu  Lu5  1  0.500000  0.874393  0.147721  1
  Lu  Lu6  1  0.500000  0.626307  0.648162  1
  Lu  Lu7  1  0.500000  0.374112  0.351665  1
  B  B8  1  0.500000  0.998196  0.002114  1
  B  B9  1  0.500000  0.500947  0.499333  1
  Cl  Cl10  1  0.500000  0.272011  0.677904  1
  Cl  Cl11  1  0.500000  0.731551  0.317255  1
  Cl  Cl12  1  0.500000  0.767068  0.817992  1
  Cl  Cl13  1  0.500000  0.230943  0.184214  1
  Cl  Cl14  1  0.000000  0.263040  0.938182  1
  Cl  Cl15  1  0.000000  0.742635  0.071297  1
  Cl  Cl16  1  0.000000  0.477054  0.242665  1
  Cl  Cl17  1  0.000000  0.522629  0.757147  1
  Cl  Cl18  1  0.000000  0.977361  0.257891  1
  Cl  Cl19  1  0.000000  0.011742  0.738612  1
  Cl  Cl20  1  0.000000  0.243019  0.428462  1
  Cl  Cl21  1  0.000000  0.757059  0.571573  1
