# generated using pymatgen
data_YbCe3B4SbIr9
_symmetry_space_group_name_H-M   'P 1'
_cell_length_a   10.88212721
_cell_length_b   10.88212687
_cell_length_c   10.88212715
_cell_angle_alpha   29.84658490
_cell_angle_beta   29.84658873
_cell_angle_gamma   29.84659211
_symmetry_Int_Tables_number   1
_chemical_formula_structural   YbCe3B4SbIr9
_chemical_formula_sum   'Yb1 Ce3 B4 Sb1 Ir9'
_cell_volume   282.66302845
_cell_formula_units_Z   1
loop_
 _symmetry_equiv_pos_site_id
 _symmetry_equiv_pos_as_xyz
  1  'x, y, z'
loop_
 _atom_site_type_symbol
 _atom_site_label
 _atom_site_symmetry_multiplicity
 _atom_site_fract_x
 _atom_site_fract_y
 _atom_site_fract_z
 _atom_site_occupancy
  Yb  Yb0  1  0.149413  0.149413  0.149413  1
  Ce  Ce1  1  0.949791  0.949791  0.949791  1
  Ce  Ce2  1  0.852232  0.852232  0.852232  1
  Ce  Ce3  1  0.050123  0.050123  0.050123  1
  B  B4  1  0.616688  0.616688  0.616688  1
  B  B5  1  0.716867  0.716867  0.716867  1
  B  B6  1  0.383310  0.383310  0.383310  1
  B  B7  1  0.283085  0.283085  0.283085  1
  Sb  Sb8  1  0.499319  0.499319  0.499319  1
  Ir  Ir9  1  0.403614  0.905730  0.403614  1
  Ir  Ir10  1  0.905730  0.403614  0.403614  1
  Ir  Ir11  1  0.499895  0.499895  0.000049  1
  Ir  Ir12  1  0.499895  0.000049  0.499895  1
  Ir  Ir13  1  0.000049  0.499895  0.499895  1
  Ir  Ir14  1  0.596197  0.093981  0.596197  1
  Ir  Ir15  1  0.596197  0.596197  0.093981  1
  Ir  Ir16  1  0.093981  0.596197  0.596197  1
  Ir  Ir17  1  0.403614  0.403614  0.905730  1
