# generated using pymatgen
data_Dy2YIn3Rh2Au
_symmetry_space_group_name_H-M   'P 1'
_cell_length_a   7.77437214
_cell_length_b   7.76280258
_cell_length_c   3.81100000
_cell_angle_alpha   90.00000000
_cell_angle_beta   90.00000000
_cell_angle_gamma   119.98720950
_symmetry_Int_Tables_number   1
_chemical_formula_structural   Dy2YIn3Rh2Au
_chemical_formula_sum   'Dy2 Y1 In3 Rh2 Au1'
_cell_volume   199.20920725
_cell_formula_units_Z   1
loop_
 _symmetry_equiv_pos_site_id
 _symmetry_equiv_pos_as_xyz
  1  'x, y, z'
loop_
 _atom_site_type_symbol
 _atom_site_label
 _atom_site_symmetry_multiplicity
 _atom_site_fract_x
 _atom_site_fract_y
 _atom_site_fract_z
 _atom_site_occupancy
  Dy  Dy0  1  0.586614  0.980350  0.500000  1
  Dy  Dy1  1  0.393778  0.413261  0.500000  1
  Y  Y2  1  0.018862  0.606082  0.500000  1
  In  In3  1  0.002413  0.258638  0.000000  1
  In  In4  1  0.256238  0.997602  0.000000  1
  In  In5  1  0.741357  0.743841  0.000000  1
  Rh  Rh6  1  0.999928  0.000653  0.500000  1
  Rh  Rh7  1  0.335013  0.666888  0.000000  1
  Au  Au8  1  0.665798  0.332685  0.000000  1
