# generated using pymatgen
data_Ce4CdNi4Pb
_symmetry_space_group_name_H-M   'P 1'
_cell_length_a   7.60155700
_cell_length_b   7.60155700
_cell_length_c   3.62147600
_cell_angle_alpha   90.00000000
_cell_angle_beta   90.00000000
_cell_angle_gamma   90.00000000
_symmetry_Int_Tables_number   1
_chemical_formula_structural   Ce4CdNi4Pb
_chemical_formula_sum   'Ce4 Cd1 Ni4 Pb1'
_cell_volume   209.26216984
_cell_formula_units_Z   1
loop_
 _symmetry_equiv_pos_site_id
 _symmetry_equiv_pos_as_xyz
  1  'x, y, z'
loop_
 _atom_site_type_symbol
 _atom_site_label
 _atom_site_symmetry_multiplicity
 _atom_site_fract_x
 _atom_site_fract_y
 _atom_site_fract_z
 _atom_site_occupancy
  Ce  Ce0  1  0.670089  0.173576  0.000000  1
  Ce  Ce1  1  0.173576  0.329911  0.000000  1
  Ce  Ce2  1  0.826423  0.670089  0.000000  1
  Ce  Ce3  1  0.329911  0.826423  0.000000  1
  Cd  Cd4  1  0.500000  0.500000  0.500001  1
  Ni  Ni5  1  0.376861  0.124335  0.500001  1
  Ni  Ni6  1  0.875665  0.376861  0.500001  1
  Ni  Ni7  1  0.124335  0.623139  0.500001  1
  Ni  Ni8  1  0.623139  0.875665  0.500001  1
  Pb  Pb9  1  0.000000  0.000000  0.500001  1
