# generated using pymatgen
data_K3(CoO2)2
_symmetry_space_group_name_H-M   'P 1'
_cell_length_a   6.18683200
_cell_length_b   10.39497700
_cell_length_c   9.83703500
_cell_angle_alpha   90.00000000
_cell_angle_beta   90.00000000
_cell_angle_gamma   90.00000000
_symmetry_Int_Tables_number   1
_chemical_formula_structural   K3(CoO2)2
_chemical_formula_sum   'K12 Co8 O16'
_cell_volume   632.63916220
_cell_formula_units_Z   4
loop_
 _symmetry_equiv_pos_site_id
 _symmetry_equiv_pos_as_xyz
  1  'x, y, z'
loop_
 _atom_site_type_symbol
 _atom_site_label
 _atom_site_symmetry_multiplicity
 _atom_site_fract_x
 _atom_site_fract_y
 _atom_site_fract_z
 _atom_site_occupancy
  K  K0  1  0.627113  0.154936  0.414048  1
  K  K1  1  0.872887  0.845064  0.414048  1
  K  K2  1  0.627113  0.345064  0.085952  1
  K  K3  1  0.872887  0.654936  0.085952  1
  K  K4  1  0.372887  0.845064  0.585952  1
  K  K5  1  0.127113  0.154936  0.585952  1
  K  K6  1  0.372887  0.654936  0.914048  1
  K  K7  1  0.127113  0.345064  0.914048  1
  K  K8  1  0.750000  0.500000  0.402882  1
  K  K9  1  0.750000  0.000000  0.097118  1
  K  K10  1  0.250000  0.500000  0.597118  1
  K  K11  1  0.250000  0.000000  0.902882  1
  Co  Co12  1  0.750000  0.500000  0.728678  1
  Co  Co13  1  0.750000  0.000000  0.771322  1
  Co  Co14  1  0.250000  0.500000  0.271322  1
  Co  Co15  1  0.250000  0.000000  0.228678  1
  Co  Co16  1  0.676595  0.250000  0.750000  1
  Co  Co17  1  0.823405  0.750000  0.750000  1
  Co  Co18  1  0.323405  0.750000  0.250000  1
  Co  Co19  1  0.176595  0.250000  0.250000  1
  O  O20  1  0.876125  0.358705  0.638606  1
  O  O21  1  0.623875  0.641295  0.638606  1
  O  O22  1  0.876125  0.141295  0.861394  1
  O  O23  1  0.623875  0.858705  0.861394  1
  O  O24  1  0.123875  0.641295  0.361394  1
  O  O25  1  0.376125  0.358705  0.361394  1
  O  O26  1  0.123875  0.858705  0.138606  1
  O  O27  1  0.376125  0.141295  0.138606  1
  O  O28  1  0.527420  0.405616  0.819955  1
  O  O29  1  0.972580  0.594384  0.819955  1
  O  O30  1  0.527420  0.094384  0.680045  1
  O  O31  1  0.972580  0.905616  0.680045  1
  O  O32  1  0.472580  0.594384  0.180045  1
  O  O33  1  0.027420  0.405616  0.180045  1
  O  O34  1  0.472580  0.905616  0.319955  1
  O  O35  1  0.027420  0.094384  0.319955  1
