# generated using pymatgen
data_Pm4Fe3CoO12
_symmetry_space_group_name_H-M   'P 1'
_cell_length_a   5.42204253
_cell_length_b   5.64602434
_cell_length_c   7.75812277
_cell_angle_alpha   89.71247618
_cell_angle_beta   90.13789717
_cell_angle_gamma   89.95237138
_symmetry_Int_Tables_number   1
_chemical_formula_structural   Pm4Fe3CoO12
_chemical_formula_sum   'Pm4 Fe3 Co1 O12'
_cell_volume   237.49552616
_cell_formula_units_Z   1
loop_
 _symmetry_equiv_pos_site_id
 _symmetry_equiv_pos_as_xyz
  1  'x, y, z'
loop_
 _atom_site_type_symbol
 _atom_site_label
 _atom_site_symmetry_multiplicity
 _atom_site_fract_x
 _atom_site_fract_y
 _atom_site_fract_z
 _atom_site_occupancy
  Pm  Pm0  1  0.983293  0.057993  0.246590  1
  Pm  Pm1  1  0.513440  0.562425  0.246156  1
  Pm  Pm2  1  0.486561  0.437575  0.753844  1
  Pm  Pm3  1  0.016706  0.942007  0.753410  1
  Fe  Fe4  1  0.000000  0.499999  0.000000  1
  Fe  Fe5  1  0.500000  0.000000  0.500000  1
  Fe  Fe6  1  0.000000  0.499999  0.500000  1
  Co  Co7  1  0.500000  0.000000  0.000000  1
  O  O8  1  0.698281  0.291880  0.048351  1
  O  O9  1  0.792261  0.799588  0.048396  1
  O  O10  1  0.092356  0.472869  0.248068  1
  O  O11  1  0.405387  0.973147  0.244365  1
  O  O12  1  0.699014  0.299253  0.450514  1
  O  O13  1  0.799985  0.799897  0.449575  1
  O  O14  1  0.200016  0.200103  0.550426  1
  O  O15  1  0.300987  0.700747  0.549487  1
  O  O16  1  0.594614  0.026853  0.755635  1
  O  O17  1  0.907645  0.527131  0.751932  1
  O  O18  1  0.207740  0.200412  0.951605  1
  O  O19  1  0.301720  0.708120  0.951650  1
