# generated using pymatgen
data_Ba7Sr5Y4(Ga4O15)2
_symmetry_space_group_name_H-M   'P 1'
_cell_length_a   5.98397973
_cell_length_b   7.99275372
_cell_length_c   18.34767058
_cell_angle_alpha   88.76069879
_cell_angle_beta   89.94245096
_cell_angle_gamma   89.88440891
_symmetry_Int_Tables_number   1
_chemical_formula_structural   Ba7Sr5Y4(Ga4O15)2
_chemical_formula_sum   'Ba7 Sr5 Y4 Ga8 O30'
_cell_volume   877.33366509
_cell_formula_units_Z   1
loop_
 _symmetry_equiv_pos_site_id
 _symmetry_equiv_pos_as_xyz
  1  'x, y, z'
loop_
 _atom_site_type_symbol
 _atom_site_label
 _atom_site_symmetry_multiplicity
 _atom_site_fract_x
 _atom_site_fract_y
 _atom_site_fract_z
 _atom_site_occupancy
  Ba  Ba0  1  0.243773  0.499065  0.577187  1
  Ba  Ba1  1  0.753987  0.966164  0.093657  1
  Ba  Ba2  1  0.246474  0.035309  0.908543  1
  Ba  Ba3  1  0.747840  0.029617  0.406088  1
  Ba  Ba4  1  0.245868  0.970503  0.595300  1
  Ba  Ba5  1  0.665242  0.499470  0.751501  1
  Ba  Ba6  1  0.338513  0.497733  0.250207  1
  Sr  Sr7  1  0.760602  0.498716  0.078290  1
  Sr  Sr8  1  0.236297  0.502039  0.923922  1
  Sr  Sr9  1  0.763476  0.496608  0.421906  1
  Sr  Sr10  1  0.740250  0.006113  0.749258  1
  Sr  Sr11  1  0.291455  0.998138  0.247955  1
  Y  Y12  1  0.744202  0.752131  0.909944  1
  Y  Y13  1  0.254065  0.249146  0.090848  1
  Y  Y14  1  0.746249  0.244757  0.588937  1
  Y  Y15  1  0.254228  0.754068  0.407372  1
  Ga  Ga16  1  0.742331  0.753498  0.557446  1
  Ga  Ga17  1  0.252688  0.246409  0.437510  1
  Ga  Ga18  1  0.742563  0.251682  0.940904  1
  Ga  Ga19  1  0.257127  0.749499  0.059565  1
  Ga  Ga20  1  0.781991  0.766107  0.265103  1
  Ga  Ga21  1  0.224276  0.233883  0.736949  1
  Ga  Ga22  1  0.782037  0.229955  0.234520  1
  Ga  Ga23  1  0.216431  0.768007  0.769465  1
  O  O24  1  0.221358  0.002794  0.756943  1
  O  O25  1  0.721754  0.998008  0.249166  1
  O  O26  1  0.532484  0.738738  0.010366  1
  O  O27  1  0.470051  0.262668  0.991712  1
  O  O28  1  0.519044  0.250260  0.492321  1
  O  O29  1  0.471690  0.765170  0.505866  1
  O  O30  1  0.764127  0.947588  0.612954  1
  O  O31  1  0.252184  0.049427  0.383992  1
  O  O32  1  0.745349  0.052211  0.887895  1
  O  O33  1  0.255109  0.951000  0.110572  1
  O  O34  1  0.033016  0.771948  0.986340  1
  O  O35  1  0.967031  0.229313  0.013991  1
  O  O36  1  0.020181  0.222680  0.507661  1
  O  O37  1  0.969415  0.765449  0.485270  1
  O  O38  1  0.323080  0.686005  0.684472  1
  O  O39  1  0.694222  0.322528  0.319921  1
  O  O40  1  0.311386  0.330566  0.820964  1
  O  O41  1  0.689520  0.673640  0.180355  1
  O  O42  1  0.418720  0.733557  0.846841  1
  O  O43  1  0.576423  0.268993  0.157292  1
  O  O44  1  0.445680  0.248032  0.663715  1
  O  O45  1  0.579367  0.726738  0.342851  1
  O  O46  1  0.921030  0.746210  0.799776  1
  O  O47  1  0.073271  0.243412  0.200720  1
  O  O48  1  0.945379  0.261838  0.694169  1
  O  O49  1  0.075439  0.753810  0.297131  1
  O  O50  1  0.763408  0.529206  0.588694  1
  O  O51  1  0.210014  0.468751  0.405245  1
  O  O52  1  0.796232  0.469589  0.906181  1
  O  O53  1  0.202071  0.531251  0.094245  1
