# generated using pymatgen
data_Sm5HfMg2(Co4P3)4
_symmetry_space_group_name_H-M   'P 1'
_cell_length_a   12.27149597
_cell_length_b   12.32536234
_cell_length_c   3.76335400
_cell_angle_alpha   90.00000000
_cell_angle_beta   90.00000000
_cell_angle_gamma   120.14531697
_symmetry_Int_Tables_number   1
_chemical_formula_structural   Sm5HfMg2(Co4P3)4
_chemical_formula_sum   'Sm5 Hf1 Mg2 Co16 P12'
_cell_volume   492.22662627
_cell_formula_units_Z   1
loop_
 _symmetry_equiv_pos_site_id
 _symmetry_equiv_pos_as_xyz
  1  'x, y, z'
loop_
 _atom_site_type_symbol
 _atom_site_label
 _atom_site_symmetry_multiplicity
 _atom_site_fract_x
 _atom_site_fract_y
 _atom_site_fract_z
 _atom_site_occupancy
  Sm  Sm0  1  0.814143  0.812704  0.500000  1
  Sm  Sm1  1  0.000000  0.184136  0.500000  1
  Sm  Sm2  1  0.332223  0.665786  0.000000  1
  Sm  Sm3  1  0.667777  0.333562  0.000000  1
  Sm  Sm4  1  0.185857  0.998560  0.500000  1
  Hf  Hf5  1  0.000000  0.561867  0.000000  1
  Mg  Mg6  1  0.440447  0.439581  0.000000  1
  Mg  Mg7  1  0.559553  0.999134  0.000000  1
  Co  Co8  1  0.623281  0.822851  0.000000  1
  Co  Co9  1  0.376719  0.199570  0.000000  1
  Co  Co10  1  0.000000  0.721150  0.500000  1
  Co  Co11  1  0.281820  0.281590  0.500000  1
  Co  Co12  1  0.876756  0.355376  0.500000  1
  Co  Co13  1  0.718180  0.999770  0.500000  1
  Co  Co14  1  0.820188  0.625956  0.000000  1
  Co  Co15  1  0.179812  0.805768  0.000000  1
  Co  Co16  1  0.357830  0.874386  0.500000  1
  Co  Co17  1  0.123244  0.478621  0.500000  1
  Co  Co18  1  0.642170  0.516557  0.500000  1
  Co  Co19  1  0.000000  0.002784  0.000000  1
  Co  Co20  1  0.519846  0.643225  0.500000  1
  Co  Co21  1  0.480154  0.123379  0.500000  1
  Co  Co22  1  0.199453  0.375981  0.000000  1
  Co  Co23  1  0.800547  0.176528  0.000000  1
  P  P24  1  0.000000  0.355767  0.000000  1
  P  P25  1  0.829231  0.523948  0.500000  1
  P  P26  1  0.693044  0.170325  0.500000  1
  P  P27  1  0.182427  0.182119  0.000000  1
  P  P28  1  0.637715  0.640124  0.000000  1
  P  P29  1  0.817573  0.999692  0.000000  1
  P  P30  1  0.522126  0.828055  0.500000  1
  P  P31  1  0.170769  0.694716  0.500000  1
  P  P32  1  0.362285  0.002409  0.000000  1
  P  P33  1  0.477874  0.305930  0.500000  1
  P  P34  1  0.000000  0.820811  0.000000  1
  P  P35  1  0.306956  0.477280  0.500000  1
