# generated using pymatgen
data_Y20Ir7Os3Pd2
_symmetry_space_group_name_H-M   'P 1'
_cell_length_a   10.95495008
_cell_length_b   10.95386905
_cell_length_c   6.46058224
_cell_angle_alpha   90.01004460
_cell_angle_beta   89.92975264
_cell_angle_gamma   89.99467855
_symmetry_Int_Tables_number   1
_chemical_formula_structural   Y20Ir7Os3Pd2
_chemical_formula_sum   'Y20 Ir7 Os3 Pd2'
_cell_volume   775.26338227
_cell_formula_units_Z   1
loop_
 _symmetry_equiv_pos_site_id
 _symmetry_equiv_pos_as_xyz
  1  'x, y, z'
loop_
 _atom_site_type_symbol
 _atom_site_label
 _atom_site_symmetry_multiplicity
 _atom_site_fract_x
 _atom_site_fract_y
 _atom_site_fract_z
 _atom_site_occupancy
  Y  Y0  1  0.293618  0.086011  0.378473  1
  Y  Y1  1  0.293734  0.914640  0.878875  1
  Y  Y2  1  0.699905  0.089186  0.872654  1
  Y  Y3  1  0.700023  0.910052  0.372309  1
  Y  Y4  1  0.579529  0.792538  0.879375  1
  Y  Y5  1  0.580058  0.207614  0.378974  1
  Y  Y6  1  0.410658  0.793572  0.379178  1
  Y  Y7  1  0.411389  0.206302  0.879895  1
  Y  Y8  1  0.209886  0.411628  0.621561  1
  Y  Y9  1  0.208605  0.588555  0.117450  1
  Y  Y10  1  0.792252  0.418363  0.119963  1
  Y  Y11  1  0.791387  0.581566  0.624176  1
  Y  Y12  1  0.915988  0.705095  0.128005  1
  Y  Y13  1  0.916184  0.293864  0.632829  1
  Y  Y14  1  0.093703  0.704695  0.622422  1
  Y  Y15  1  0.093835  0.296369  0.119068  1
  Y  Y16  1  0.003851  0.998635  0.498744  1
  Y  Y17  1  0.003939  0.001465  0.998836  1
  Y  Y18  1  0.499966  0.498929  0.997829  1
  Y  Y19  1  0.500153  0.501143  0.497616  1
  Ir  Ir20  1  0.150377  0.153262  0.748996  1
  Ir  Ir21  1  0.149574  0.846397  0.248969  1
  Ir  Ir22  1  0.654739  0.347744  0.748771  1
  Ir  Ir23  1  0.655474  0.651496  0.248775  1
  Ir  Ir24  1  0.347666  0.348430  0.250333  1
  Ir  Ir25  1  0.348080  0.652392  0.750052  1
  Ir  Ir26  1  0.000650  0.499201  0.376758  1
  Os  Os27  1  0.500511  0.000189  0.127722  1
  Os  Os28  1  0.500521  0.999813  0.627108  1
  Os  Os29  1  0.000707  0.500495  0.873373  1
  Pd  Pd30  1  0.846773  0.153661  0.250394  1
  Pd  Pd31  1  0.846268  0.846700  0.750517  1
