# generated using pymatgen
data_CaNd2Be2(PPd5)4
_symmetry_space_group_name_H-M   'P 1'
_cell_length_a   8.69413830
_cell_length_b   8.63188686
_cell_length_c   8.63188605
_cell_angle_alpha   60.47769717
_cell_angle_beta   59.76115031
_cell_angle_gamma   59.76115226
_symmetry_Int_Tables_number   1
_chemical_formula_structural   CaNd2Be2(PPd5)4
_chemical_formula_sum   'Ca1 Nd2 Be2 P4 Pd20'
_cell_volume   458.01265615
_cell_formula_units_Z   1
loop_
 _symmetry_equiv_pos_site_id
 _symmetry_equiv_pos_as_xyz
  1  'x, y, z'
loop_
 _atom_site_type_symbol
 _atom_site_label
 _atom_site_symmetry_multiplicity
 _atom_site_fract_x
 _atom_site_fract_y
 _atom_site_fract_z
 _atom_site_occupancy
  Ca  Ca0  1  0.000000  0.000000  0.000000  1
  Nd  Nd1  1  0.250000  0.250000  0.250000  1
  Nd  Nd2  1  0.750000  0.750000  0.750000  1
  Be  Be3  1  0.733328  0.266672  0.266672  1
  Be  Be4  1  0.266672  0.733328  0.733328  1
  P  P5  1  0.264695  0.735305  0.264695  1
  P  P6  1  0.735305  0.264695  0.735305  1
  P  P7  1  0.264695  0.264695  0.735305  1
  P  P8  1  0.735305  0.735305  0.264695  1
  Pd  Pd9  1  0.388692  0.384087  0.384087  1
  Pd  Pd10  1  0.611308  0.615913  0.615913  1
  Pd  Pd11  1  0.384087  0.388692  0.843138  1
  Pd  Pd12  1  0.384087  0.843138  0.388692  1
  Pd  Pd13  1  0.615913  0.611308  0.156862  1
  Pd  Pd14  1  0.615913  0.156862  0.611308  1
  Pd  Pd15  1  0.843138  0.384087  0.384087  1
  Pd  Pd16  1  0.156862  0.615913  0.615913  1
  Pd  Pd17  1  0.344920  0.000000  0.000000  1
  Pd  Pd18  1  0.655080  0.000000  0.000000  1
  Pd  Pd19  1  0.000000  0.344920  0.655080  1
  Pd  Pd20  1  0.000000  0.655080  0.344920  1
  Pd  Pd21  1  0.997225  0.344094  0.002775  1
  Pd  Pd22  1  0.655906  0.002775  0.344094  1
  Pd  Pd23  1  0.002775  0.655906  0.997225  1
  Pd  Pd24  1  0.344094  0.997225  0.655906  1
  Pd  Pd25  1  0.997225  0.002775  0.344094  1
  Pd  Pd26  1  0.002775  0.997225  0.655906  1
  Pd  Pd27  1  0.655906  0.344094  0.002775  1
  Pd  Pd28  1  0.344094  0.655906  0.997225  1
