# generated using pymatgen
data_Er4Al19Rh5
_symmetry_space_group_name_H-M   'P 1'
_cell_length_a   7.57110491
_cell_length_b   7.57110549
_cell_length_c   9.43483026
_cell_angle_alpha   89.87651009
_cell_angle_beta   89.87649837
_cell_angle_gamma   119.18077409
_symmetry_Int_Tables_number   1
_chemical_formula_structural   Er4Al19Rh5
_chemical_formula_sum   'Er4 Al19 Rh5'
_cell_volume   472.17784589
_cell_formula_units_Z   1
loop_
 _symmetry_equiv_pos_site_id
 _symmetry_equiv_pos_as_xyz
  1  'x, y, z'
loop_
 _atom_site_type_symbol
 _atom_site_label
 _atom_site_symmetry_multiplicity
 _atom_site_fract_x
 _atom_site_fract_y
 _atom_site_fract_z
 _atom_site_occupancy
  Er  Er0  1  0.994526  0.680126  0.747469  1
  Er  Er1  1  0.005474  0.319874  0.252531  1
  Er  Er2  1  0.680126  0.994526  0.747469  1
  Er  Er3  1  0.319874  0.005474  0.252531  1
  Al  Al4  1  0.138676  0.138676  0.760901  1
  Al  Al5  1  0.861324  0.861324  0.239099  1
  Al  Al6  1  0.003291  0.349103  0.582798  1
  Al  Al7  1  0.996709  0.650897  0.417202  1
  Al  Al8  1  0.001875  0.663227  0.070964  1
  Al  Al9  1  0.336773  0.998125  0.929036  1
  Al  Al10  1  0.998125  0.336773  0.929036  1
  Al  Al11  1  0.663227  0.001875  0.070964  1
  Al  Al12  1  0.650897  0.996709  0.417202  1
  Al  Al13  1  0.349103  0.003291  0.582798  1
  Al  Al14  1  0.332062  0.332062  0.049743  1
  Al  Al15  1  0.667938  0.667938  0.950257  1
  Al  Al16  1  0.654249  0.654249  0.561526  1
  Al  Al17  1  0.345751  0.345751  0.438474  1
  Al  Al18  1  0.338563  0.553962  0.753015  1
  Al  Al19  1  0.661437  0.446038  0.246985  1
  Al  Al20  1  0.553962  0.338563  0.753015  1
  Al  Al21  1  0.446038  0.661437  0.246985  1
  Al  Al22  1  0.000000  0.000000  0.500000  1
  Rh  Rh23  1  0.672254  0.327746  0.500000  1
  Rh  Rh24  1  0.327746  0.672254  0.500000  1
  Rh  Rh25  1  0.328348  0.671652  0.000000  1
  Rh  Rh26  1  0.671652  0.328348  0.000000  1
  Rh  Rh27  1  0.000000  0.000000  0.000000  1
