# generated using pymatgen
data_Yb3As6Ru2Rh7
_symmetry_space_group_name_H-M   'P 1'
_cell_length_a   4.02475800
_cell_length_b   11.53593400
_cell_length_c   12.96996500
_cell_angle_alpha   90.00000000
_cell_angle_beta   90.00000000
_cell_angle_gamma   90.00000000
_symmetry_Int_Tables_number   1
_chemical_formula_structural   Yb3As6Ru2Rh7
_chemical_formula_sum   'Yb6 As12 Ru4 Rh14'
_cell_volume   602.18694920
_cell_formula_units_Z   2
loop_
 _symmetry_equiv_pos_site_id
 _symmetry_equiv_pos_as_xyz
  1  'x, y, z'
loop_
 _atom_site_type_symbol
 _atom_site_label
 _atom_site_symmetry_multiplicity
 _atom_site_fract_x
 _atom_site_fract_y
 _atom_site_fract_z
 _atom_site_occupancy
  Yb  Yb0  1  0.000000  0.500000  0.527513  1
  Yb  Yb1  1  0.500000  0.000000  0.472977  1
  Yb  Yb2  1  0.500000  0.822226  0.206142  1
  Yb  Yb3  1  0.500000  0.177774  0.206142  1
  Yb  Yb4  1  0.000000  0.678444  0.794094  1
  Yb  Yb5  1  0.000000  0.321556  0.794094  1
  As  As6  1  0.500000  0.311121  0.617289  1
  As  As7  1  0.500000  0.688879  0.617289  1
  As  As8  1  0.000000  0.190771  0.381463  1
  As  As9  1  0.000000  0.809229  0.381463  1
  As  As10  1  0.500000  0.500000  0.879358  1
  As  As11  1  0.000000  0.000000  0.121171  1
  As  As12  1  0.500000  0.845732  0.890753  1
  As  As13  1  0.500000  0.154268  0.890753  1
  As  As14  1  0.000000  0.654400  0.108997  1
  As  As15  1  0.000000  0.345600  0.108997  1
  As  As16  1  0.500000  0.500000  0.350418  1
  As  As17  1  0.000000  0.000000  0.650670  1
  Ru  Ru18  1  0.000000  0.500000  0.987472  1
  Ru  Ru19  1  0.500000  0.000000  0.012688  1
  Ru  Ru20  1  0.500000  0.299549  0.430682  1
  Ru  Ru21  1  0.500000  0.700451  0.430682  1
  Rh  Rh22  1  0.000000  0.201864  0.570459  1
  Rh  Rh23  1  0.000000  0.798136  0.570459  1
  Rh  Rh24  1  0.500000  0.876156  0.707741  1
  Rh  Rh25  1  0.500000  0.123844  0.707741  1
  Rh  Rh26  1  0.000000  0.623233  0.291444  1
  Rh  Rh27  1  0.000000  0.376767  0.291444  1
  Rh  Rh28  1  0.500000  0.331154  0.991644  1
  Rh  Rh29  1  0.500000  0.668846  0.991644  1
  Rh  Rh30  1  0.000000  0.168621  0.008216  1
  Rh  Rh31  1  0.000000  0.831379  0.008216  1
  Rh  Rh32  1  0.500000  0.500000  0.159985  1
  Rh  Rh33  1  0.000000  0.000000  0.839218  1
  Rh  Rh34  1  0.500000  0.500000  0.695434  1
  Rh  Rh35  1  0.000000  0.000000  0.305250  1
