# generated using pymatgen
data_Sm4ErTm3(ReB6)4
_symmetry_space_group_name_H-M   'P 1'
_cell_length_a   3.69266800
_cell_length_b   9.18639901
_cell_length_c   11.61470600
_cell_angle_alpha   90.00151921
_cell_angle_beta   90.00000000
_cell_angle_gamma   90.00000000
_symmetry_Int_Tables_number   1
_chemical_formula_structural   Sm4ErTm3(ReB6)4
_chemical_formula_sum   'Sm4 Er1 Tm3 Re4 B24'
_cell_volume   393.99779261
_cell_formula_units_Z   1
loop_
 _symmetry_equiv_pos_site_id
 _symmetry_equiv_pos_as_xyz
  1  'x, y, z'
loop_
 _atom_site_type_symbol
 _atom_site_label
 _atom_site_symmetry_multiplicity
 _atom_site_fract_x
 _atom_site_fract_y
 _atom_site_fract_z
 _atom_site_occupancy
  Sm  Sm0  1  0.000000  0.322829  0.414249  1
  Sm  Sm1  1  0.000000  0.677012  0.585821  1
  Sm  Sm2  1  0.000000  0.822789  0.085636  1
  Sm  Sm3  1  0.000000  0.177306  0.914168  1
  Er  Er4  1  0.000000  0.942999  0.369826  1
  Tm  Tm5  1  0.000000  0.057084  0.630594  1
  Tm  Tm6  1  0.000000  0.443070  0.130225  1
  Tm  Tm7  1  0.000000  0.557034  0.869692  1
  Re  Re8  1  0.000000  0.638977  0.319145  1
  Re  Re9  1  0.000000  0.360496  0.680819  1
  Re  Re10  1  0.000000  0.139551  0.180440  1
  Re  Re11  1  0.000000  0.860722  0.819354  1
  B  B12  1  0.500000  0.554147  0.431271  1
  B  B13  1  0.500000  0.445484  0.568831  1
  B  B14  1  0.500000  0.054514  0.068601  1
  B  B15  1  0.500000  0.945615  0.931238  1
  B  B16  1  0.500000  0.749915  0.416605  1
  B  B17  1  0.500000  0.249593  0.583496  1
  B  B18  1  0.500000  0.250580  0.083260  1
  B  B19  1  0.500000  0.749570  0.916619  1
  B  B20  1  0.500000  0.791773  0.265445  1
  B  B21  1  0.500000  0.207913  0.734546  1
  B  B22  1  0.500000  0.292285  0.234332  1
  B  B23  1  0.500000  0.707876  0.765574  1
  B  B24  1  0.500000  0.629386  0.185292  1
  B  B25  1  0.500000  0.370541  0.814659  1
  B  B26  1  0.500000  0.129857  0.314379  1
  B  B27  1  0.500000  0.870499  0.685462  1
  B  B28  1  0.500000  0.983028  0.212855  1
  B  B29  1  0.500000  0.017220  0.786949  1
  B  B30  1  0.500000  0.482651  0.286805  1
  B  B31  1  0.500000  0.517197  0.713138  1
  B  B32  1  0.500000  0.596601  0.026639  1
  B  B33  1  0.500000  0.403501  0.973247  1
  B  B34  1  0.500000  0.097027  0.473637  1
  B  B35  1  0.500000  0.903357  0.527152  1
