# generated using pymatgen
data_Sm8Lu11ScGa11Si5
_symmetry_space_group_name_H-M   'P 1'
_cell_length_a   7.43271439
_cell_length_b   7.76601330
_cell_length_c   14.85703534
_cell_angle_alpha   90.02611842
_cell_angle_beta   89.89642435
_cell_angle_gamma   90.16647257
_symmetry_Int_Tables_number   1
_chemical_formula_structural   Sm8Lu11ScGa11Si5
_chemical_formula_sum   'Sm8 Lu11 Sc1 Ga11 Si5'
_cell_volume   857.58098768
_cell_formula_units_Z   1
loop_
 _symmetry_equiv_pos_site_id
 _symmetry_equiv_pos_as_xyz
  1  'x, y, z'
loop_
 _atom_site_type_symbol
 _atom_site_label
 _atom_site_symmetry_multiplicity
 _atom_site_fract_x
 _atom_site_fract_y
 _atom_site_fract_z
 _atom_site_occupancy
  Sm  Sm0  1  0.014981  0.177018  0.095932  1
  Sm  Sm1  1  0.988469  0.818819  0.905653  1
  Sm  Sm2  1  0.486024  0.680647  0.904350  1
  Sm  Sm3  1  0.987243  0.821279  0.596775  1
  Sm  Sm4  1  0.511905  0.320863  0.096318  1
  Sm  Sm5  1  0.012370  0.178587  0.402485  1
  Sm  Sm6  1  0.512263  0.321332  0.402214  1
  Sm  Sm7  1  0.487737  0.678947  0.596805  1
  Lu  Lu8  1  0.164085  0.510488  0.749700  1
  Lu  Lu9  1  0.837839  0.491241  0.248992  1
  Lu  Lu10  1  0.335415  0.009175  0.248373  1
  Lu  Lu11  1  0.663085  0.989547  0.749660  1
  Lu  Lu12  1  0.327911  0.172152  0.621867  1
  Lu  Lu13  1  0.671273  0.827710  0.377411  1
  Lu  Lu14  1  0.171387  0.672435  0.377560  1
  Lu  Lu15  1  0.669742  0.826187  0.121928  1
  Lu  Lu16  1  0.827878  0.327657  0.622045  1
  Lu  Lu17  1  0.326930  0.172794  0.879959  1
  Lu  Lu18  1  0.827690  0.329011  0.878967  1
  Sc  Sc19  1  0.174747  0.673896  0.121291  1
  Ga  Ga20  1  0.033738  0.111575  0.751593  1
  Ga  Ga21  1  0.966558  0.885037  0.248037  1
  Ga  Ga22  1  0.462779  0.612322  0.247121  1
  Ga  Ga23  1  0.534212  0.388444  0.750699  1
  Ga  Ga24  1  0.158723  0.466190  0.540735  1
  Ga  Ga25  1  0.840574  0.533693  0.458852  1
  Ga  Ga26  1  0.340441  0.966625  0.458650  1
  Ga  Ga27  1  0.845673  0.535081  0.043108  1
  Ga  Ga28  1  0.659113  0.033392  0.540630  1
  Ga  Ga29  1  0.159614  0.469123  0.962042  1
  Ga  Ga30  1  0.657866  0.033295  0.960095  1
  Si  Si31  1  0.281009  0.877612  0.751155  1
  Si  Si32  1  0.719233  0.122198  0.248536  1
  Si  Si33  1  0.218268  0.379080  0.247876  1
  Si  Si34  1  0.780818  0.622500  0.750748  1
  Si  Si35  1  0.342408  0.964048  0.041835  1
