# generated using pymatgen
data_Y2Co2Os
_symmetry_space_group_name_H-M   'P 1'
_cell_length_a   5.49800927
_cell_length_b   5.49801005
_cell_length_c   7.14114100
_cell_angle_alpha   90.00000000
_cell_angle_beta   90.00000000
_cell_angle_gamma   121.69626032
_symmetry_Int_Tables_number   1
_chemical_formula_structural   Y2Co2Os
_chemical_formula_sum   'Y4 Co4 Os2'
_cell_volume   183.66620929
_cell_formula_units_Z   2
loop_
 _symmetry_equiv_pos_site_id
 _symmetry_equiv_pos_as_xyz
  1  'x, y, z'
loop_
 _atom_site_type_symbol
 _atom_site_label
 _atom_site_symmetry_multiplicity
 _atom_site_fract_x
 _atom_site_fract_y
 _atom_site_fract_z
 _atom_site_occupancy
  Y  Y0  1  0.336371  0.663631  0.099330  1
  Y  Y1  1  0.836371  0.163631  0.400671  1
  Y  Y2  1  0.163631  0.836371  0.599329  1
  Y  Y3  1  0.663631  0.336371  0.900670  1
  Co  Co4  1  0.335638  0.164361  0.250000  1
  Co  Co5  1  0.835638  0.664362  0.250000  1
  Co  Co6  1  0.164361  0.335638  0.750000  1
  Co  Co7  1  0.664362  0.835638  0.750000  1
  Os  Os8  1  0.000000  0.000000  0.000000  1
  Os  Os9  1  0.500001  0.500001  0.499999  1
