# generated using pymatgen
data_TbErAl2IrPd
_symmetry_space_group_name_H-M   'P 1'
_cell_length_a   4.34076700
_cell_length_b   6.85126500
_cell_length_c   7.89566200
_cell_angle_alpha   90.00000000
_cell_angle_beta   90.00000000
_cell_angle_gamma   90.00000000
_symmetry_Int_Tables_number   1
_chemical_formula_structural   TbErAl2IrPd
_chemical_formula_sum   'Tb2 Er2 Al4 Ir2 Pd2'
_cell_volume   234.81497465
_cell_formula_units_Z   2
loop_
 _symmetry_equiv_pos_site_id
 _symmetry_equiv_pos_as_xyz
  1  'x, y, z'
loop_
 _atom_site_type_symbol
 _atom_site_label
 _atom_site_symmetry_multiplicity
 _atom_site_fract_x
 _atom_site_fract_y
 _atom_site_fract_z
 _atom_site_occupancy
  Tb  Tb0  1  0.250000  0.034675  0.323357  1
  Tb  Tb1  1  0.250000  0.534675  0.176643  1
  Er  Er2  1  0.750000  0.972771  0.682790  1
  Er  Er3  1  0.750000  0.472771  0.817210  1
  Al  Al4  1  0.250000  0.138512  0.934067  1
  Al  Al5  1  0.250000  0.638512  0.565933  1
  Al  Al6  1  0.750000  0.856645  0.056288  1
  Al  Al7  1  0.750000  0.356645  0.443712  1
  Ir  Ir8  1  0.250000  0.267145  0.621231  1
  Ir  Ir9  1  0.250000  0.767145  0.878769  1
  Pd  Pd10  1  0.750000  0.730253  0.379003  1
  Pd  Pd11  1  0.750000  0.230253  0.120997  1
