# generated using pymatgen
data_Er2Zn(BIr2)3
_symmetry_space_group_name_H-M   'P 1'
_cell_length_a   5.52161611
_cell_length_b   5.52148295
_cell_length_c   13.22063200
_cell_angle_alpha   90.00000000
_cell_angle_beta   90.00000000
_cell_angle_gamma   119.98812024
_symmetry_Int_Tables_number   1
_chemical_formula_structural   Er2Zn(BIr2)3
_chemical_formula_sum   'Er4 Zn2 B6 Ir12'
_cell_volume   349.10556305
_cell_formula_units_Z   2
loop_
 _symmetry_equiv_pos_site_id
 _symmetry_equiv_pos_as_xyz
  1  'x, y, z'
loop_
 _atom_site_type_symbol
 _atom_site_label
 _atom_site_symmetry_multiplicity
 _atom_site_fract_x
 _atom_site_fract_y
 _atom_site_fract_z
 _atom_site_occupancy
  Er  Er0  1  0.000000  0.000000  0.000000  1
  Er  Er1  1  0.000000  0.000000  0.500000  1
  Er  Er2  1  0.000000  0.000000  0.741134  1
  Er  Er3  1  0.000000  0.000000  0.258866  1
  Zn  Zn4  1  0.666747  0.333363  0.000000  1
  Zn  Zn5  1  0.333253  0.666637  0.000000  1
  B  B6  1  0.666647  0.333313  0.500000  1
  B  B7  1  0.333353  0.666687  0.500000  1
  B  B8  1  0.666634  0.333289  0.733777  1
  B  B9  1  0.333366  0.666711  0.733777  1
  B  B10  1  0.333366  0.666711  0.266223  1
  B  B11  1  0.666634  0.333289  0.266223  1
  Ir  Ir12  1  0.500000  0.500000  0.840032  1
  Ir  Ir13  1  0.500000  0.000000  0.839923  1
  Ir  Ir14  1  0.000000  0.500000  0.839936  1
  Ir  Ir15  1  0.500000  0.500000  0.159968  1
  Ir  Ir16  1  0.500000  0.000000  0.160077  1
  Ir  Ir17  1  0.000000  0.500000  0.160064  1
  Ir  Ir18  1  0.500000  0.500000  0.613797  1
  Ir  Ir19  1  0.500000  0.000000  0.613818  1
  Ir  Ir20  1  0.000000  0.500000  0.613824  1
  Ir  Ir21  1  0.500000  0.500000  0.386203  1
  Ir  Ir22  1  0.500000  0.000000  0.386182  1
  Ir  Ir23  1  0.000000  0.500000  0.386176  1
