# generated using pymatgen
data_TbMgCdPt3
_symmetry_space_group_name_H-M   'P 1'
_cell_length_a   5.27456383
_cell_length_b   5.27456389
_cell_length_c   5.27456463
_cell_angle_alpha   63.36798916
_cell_angle_beta   63.36799124
_cell_angle_gamma   63.36798409
_symmetry_Int_Tables_number   1
_chemical_formula_structural   TbMgCdPt3
_chemical_formula_sum   'Tb1 Mg1 Cd1 Pt3'
_cell_volume   111.49969942
_cell_formula_units_Z   1
loop_
 _symmetry_equiv_pos_site_id
 _symmetry_equiv_pos_as_xyz
  1  'x, y, z'
loop_
 _atom_site_type_symbol
 _atom_site_label
 _atom_site_symmetry_multiplicity
 _atom_site_fract_x
 _atom_site_fract_y
 _atom_site_fract_z
 _atom_site_occupancy
  Tb  Tb0  1  0.241884  0.241884  0.241884  1
  Mg  Mg1  1  0.628624  0.628624  0.628624  1
  Cd  Cd2  1  0.997057  0.997057  0.997057  1
  Pt  Pt3  1  0.627368  0.627368  0.127698  1
  Pt  Pt4  1  0.627368  0.127698  0.627368  1
  Pt  Pt5  1  0.127698  0.627368  0.627368  1
