# generated using pymatgen
data_TbY(ScPt)2
_symmetry_space_group_name_H-M   'P 1'
_cell_length_a   4.61377900
_cell_length_b   6.99828000
_cell_length_c   8.42595300
_cell_angle_alpha   90.00000000
_cell_angle_beta   90.00000000
_cell_angle_gamma   90.00000000
_symmetry_Int_Tables_number   1
_chemical_formula_structural   TbY(ScPt)2
_chemical_formula_sum   'Tb2 Y2 Sc4 Pt4'
_cell_volume   272.06152921
_cell_formula_units_Z   2
loop_
 _symmetry_equiv_pos_site_id
 _symmetry_equiv_pos_as_xyz
  1  'x, y, z'
loop_
 _atom_site_type_symbol
 _atom_site_label
 _atom_site_symmetry_multiplicity
 _atom_site_fract_x
 _atom_site_fract_y
 _atom_site_fract_z
 _atom_site_occupancy
  Tb  Tb0  1  0.250000  0.984992  0.323764  1
  Tb  Tb1  1  0.250000  0.484992  0.176236  1
  Y  Y2  1  0.750000  0.015069  0.677166  1
  Y  Y3  1  0.750000  0.515069  0.822834  1
  Sc  Sc4  1  0.250000  0.858811  0.926466  1
  Sc  Sc5  1  0.250000  0.358811  0.573534  1
  Sc  Sc6  1  0.750000  0.141023  0.073173  1
  Sc  Sc7  1  0.750000  0.641023  0.426827  1
  Pt  Pt8  1  0.250000  0.243057  0.903714  1
  Pt  Pt9  1  0.250000  0.743057  0.596286  1
  Pt  Pt10  1  0.750000  0.757048  0.096862  1
  Pt  Pt11  1  0.750000  0.257048  0.403138  1
