# generated using pymatgen
data_Tb3Dy9Si11Ag
_symmetry_space_group_name_H-M   'P 1'
_cell_length_a   3.86340100
_cell_length_b   5.72160795
_cell_length_c   23.81861800
_cell_angle_alpha   82.74925326
_cell_angle_beta   90.00000000
_cell_angle_gamma   90.00000000
_symmetry_Int_Tables_number   1
_chemical_formula_structural   Tb3Dy9Si11Ag
_chemical_formula_sum   'Tb3 Dy9 Si11 Ag1'
_cell_volume   522.29703783
_cell_formula_units_Z   1
loop_
 _symmetry_equiv_pos_site_id
 _symmetry_equiv_pos_as_xyz
  1  'x, y, z'
loop_
 _atom_site_type_symbol
 _atom_site_label
 _atom_site_symmetry_multiplicity
 _atom_site_fract_x
 _atom_site_fract_y
 _atom_site_fract_z
 _atom_site_occupancy
  Tb  Tb0  1  0.750000  0.350751  0.559453  1
  Tb  Tb1  1  0.750000  0.994372  0.726561  1
  Tb  Tb2  1  0.750000  0.170162  0.892745  1
  Dy  Dy3  1  0.750000  0.361497  0.057258  1
  Dy  Dy4  1  0.250000  0.660583  0.939158  1
  Dy  Dy5  1  0.750000  0.529325  0.227775  1
  Dy  Dy6  1  0.250000  0.469202  0.773195  1
  Dy  Dy7  1  0.750000  0.166951  0.393772  1
  Dy  Dy8  1  0.250000  0.825976  0.606370  1
  Dy  Dy9  1  0.250000  0.642577  0.440290  1
  Dy  Dy10  1  0.250000  0.993950  0.275587  1
  Dy  Dy11  1  0.250000  0.845053  0.105970  1
  Si  Si12  1  0.750000  0.875556  0.011496  1
  Si  Si13  1  0.250000  0.147545  0.986733  1
  Si  Si14  1  0.750000  0.028081  0.182827  1
  Si  Si15  1  0.250000  0.955000  0.820846  1
  Si  Si16  1  0.750000  0.703753  0.346952  1
  Si  Si17  1  0.250000  0.289487  0.653846  1
  Si  Si18  1  0.750000  0.862518  0.512243  1
  Si  Si19  1  0.250000  0.130876  0.487042  1
  Si  Si20  1  0.750000  0.531905  0.678916  1
  Si  Si21  1  0.250000  0.459590  0.321977  1
  Si  Si22  1  0.750000  0.683543  0.845512  1
  Ag  Ag23  1  0.250000  0.321750  0.153473  1
