# generated using pymatgen
data_Cs5Rb(CuSe2)2
_symmetry_space_group_name_H-M   'P 1'
_cell_length_a   8.46321273
_cell_length_b   8.42980458
_cell_length_c   8.46321299
_cell_angle_alpha   71.54000693
_cell_angle_beta   70.77545596
_cell_angle_gamma   71.54000222
_symmetry_Int_Tables_number   1
_chemical_formula_structural   Cs5Rb(CuSe2)2
_chemical_formula_sum   'Cs5 Rb1 Cu2 Se4'
_cell_volume   525.36325126
_cell_formula_units_Z   1
loop_
 _symmetry_equiv_pos_site_id
 _symmetry_equiv_pos_as_xyz
  1  'x, y, z'
loop_
 _atom_site_type_symbol
 _atom_site_label
 _atom_site_symmetry_multiplicity
 _atom_site_fract_x
 _atom_site_fract_y
 _atom_site_fract_z
 _atom_site_occupancy
  Cs  Cs0  1  0.466192  0.749999  0.033808  1
  Cs  Cs1  1  0.966149  0.534794  0.249197  1
  Cs  Cs2  1  0.749912  0.034233  0.465269  1
  Cs  Cs3  1  0.250803  0.965205  0.533850  1
  Cs  Cs4  1  0.034730  0.465767  0.750088  1
  Rb  Rb5  1  0.535360  0.250000  0.964639  1
  Cu  Cu6  1  0.998912  0.005452  0.999518  1
  Cu  Cu7  1  0.500482  0.494548  0.501088  1
  Se  Se8  1  0.126986  0.122578  0.118635  1
  Se  Se9  1  0.381365  0.377422  0.373014  1
  Se  Se10  1  0.618388  0.612045  0.629282  1
  Se  Se11  1  0.870718  0.887955  0.881612  1
