# generated using pymatgen
data_Tb4UCo5
_symmetry_space_group_name_H-M   'P 1'
_cell_length_a   5.66472404
_cell_length_b   5.66472367
_cell_length_c   7.05781103
_cell_angle_alpha   93.12190232
_cell_angle_beta   86.87809446
_cell_angle_gamma   122.64899133
_symmetry_Int_Tables_number   1
_chemical_formula_structural   Tb4UCo5
_chemical_formula_sum   'Tb4 U1 Co5'
_cell_volume   190.32544523
_cell_formula_units_Z   1
loop_
 _symmetry_equiv_pos_site_id
 _symmetry_equiv_pos_as_xyz
  1  'x, y, z'
loop_
 _atom_site_type_symbol
 _atom_site_label
 _atom_site_symmetry_multiplicity
 _atom_site_fract_x
 _atom_site_fract_y
 _atom_site_fract_z
 _atom_site_occupancy
  Tb  Tb0  1  0.166942  0.833060  0.114794  1
  Tb  Tb1  1  0.664112  0.335889  0.413194  1
  Tb  Tb2  1  0.335889  0.664112  0.586805  1
  Tb  Tb3  1  0.833060  0.166942  0.885206  1
  U  U4  1  0.500001  0.500001  0.000000  1
  Co  Co5  1  0.162615  0.333168  0.242986  1
  Co  Co6  1  0.666832  0.837384  0.242986  1
  Co  Co7  1  0.000000  0.000000  0.499999  1
  Co  Co8  1  0.333168  0.162615  0.757014  1
  Co  Co9  1  0.837384  0.666832  0.757014  1
