# generated using pymatgen
data_Tm5Sc(Ni3As2)6
_symmetry_space_group_name_H-M   'P 1'
_cell_length_a   3.85564900
_cell_length_b   10.83424281
_cell_length_c   12.67268996
_cell_angle_alpha   90.04437694
_cell_angle_beta   90.00000000
_cell_angle_gamma   90.00000000
_symmetry_Int_Tables_number   1
_chemical_formula_structural   Tm5Sc(Ni3As2)6
_chemical_formula_sum   'Tm5 Sc1 Ni18 As12'
_cell_volume   529.37659330
_cell_formula_units_Z   1
loop_
 _symmetry_equiv_pos_site_id
 _symmetry_equiv_pos_as_xyz
  1  'x, y, z'
loop_
 _atom_site_type_symbol
 _atom_site_label
 _atom_site_symmetry_multiplicity
 _atom_site_fract_x
 _atom_site_fract_y
 _atom_site_fract_z
 _atom_site_occupancy
  Tm  Tm0  1  0.000000  0.499858  0.524098  1
  Tm  Tm1  1  0.500000  0.999091  0.475049  1
  Tm  Tm2  1  0.500000  0.180727  0.206624  1
  Tm  Tm3  1  0.000000  0.682507  0.792291  1
  Tm  Tm4  1  0.000000  0.317833  0.794027  1
  Sc  Sc5  1  0.500000  0.818097  0.206619  1
  Ni  Ni6  1  0.500000  0.499782  0.157405  1
  Ni  Ni7  1  0.000000  0.000666  0.842597  1
  Ni  Ni8  1  0.500000  0.500509  0.699783  1
  Ni  Ni9  1  0.000000  0.999324  0.300627  1
  Ni  Ni10  1  0.000000  0.502743  0.985264  1
  Ni  Ni11  1  0.500000  0.998785  0.018072  1
  Ni  Ni12  1  0.500000  0.332999  0.997241  1
  Ni  Ni13  1  0.500000  0.668939  0.999331  1
  Ni  Ni14  1  0.000000  0.165645  0.004530  1
  Ni  Ni15  1  0.000000  0.833130  0.001712  1
  Ni  Ni16  1  0.500000  0.303102  0.427082  1
  Ni  Ni17  1  0.500000  0.697043  0.425139  1
  Ni  Ni18  1  0.000000  0.196573  0.572974  1
  Ni  Ni19  1  0.000000  0.803256  0.570595  1
  Ni  Ni20  1  0.500000  0.878471  0.706282  1
  Ni  Ni21  1  0.500000  0.121074  0.707652  1
  Ni  Ni22  1  0.000000  0.621764  0.292333  1
  Ni  Ni23  1  0.000000  0.378085  0.292894  1
  As  As24  1  0.500000  0.501297  0.877131  1
  As  As25  1  0.000000  0.996306  0.125143  1
  As  As26  1  0.500000  0.499600  0.346367  1
  As  As27  1  0.000000  0.999676  0.652718  1
  As  As28  1  0.500000  0.315523  0.614366  1
  As  As29  1  0.500000  0.684450  0.612563  1
  As  As30  1  0.000000  0.183786  0.386070  1
  As  As31  1  0.000000  0.814912  0.383094  1
  As  As32  1  0.500000  0.846468  0.888734  1
  As  As33  1  0.500000  0.153279  0.890380  1
  As  As34  1  0.000000  0.658373  0.112598  1
  As  As35  1  0.000000  0.346328  0.110613  1
