# generated using pymatgen
data_Ho12Th4Cd4IrRu3
_symmetry_space_group_name_H-M   'P 1'
_cell_length_a   9.68195322
_cell_length_b   9.68506717
_cell_length_c   9.68506600
_cell_angle_alpha   59.99999716
_cell_angle_beta   59.98935736
_cell_angle_gamma   59.98936028
_symmetry_Int_Tables_number   1
_chemical_formula_structural   Ho12Th4Cd4IrRu3
_chemical_formula_sum   'Ho12 Th4 Cd4 Ir1 Ru3'
_cell_volume   642.07139686
_cell_formula_units_Z   1
loop_
 _symmetry_equiv_pos_site_id
 _symmetry_equiv_pos_as_xyz
  1  'x, y, z'
loop_
 _atom_site_type_symbol
 _atom_site_label
 _atom_site_symmetry_multiplicity
 _atom_site_fract_x
 _atom_site_fract_y
 _atom_site_fract_z
 _atom_site_occupancy
  Ho  Ho0  1  0.063704  0.437889  0.437889  1
  Ho  Ho1  1  0.437376  0.062616  0.062616  1
  Ho  Ho2  1  0.437376  0.062616  0.437392  1
  Ho  Ho3  1  0.063704  0.437889  0.060518  1
  Ho  Ho4  1  0.437376  0.437392  0.062616  1
  Ho  Ho5  1  0.063704  0.060518  0.437889  1
  Ho  Ho6  1  0.184395  0.814857  0.814857  1
  Ho  Ho7  1  0.813067  0.185940  0.185940  1
  Ho  Ho8  1  0.813067  0.185940  0.815052  1
  Ho  Ho9  1  0.184395  0.814857  0.185892  1
  Ho  Ho10  1  0.813067  0.815052  0.185940  1
  Ho  Ho11  1  0.184395  0.185892  0.814857  1
  Th  Th12  1  0.596437  0.600058  0.600058  1
  Th  Th13  1  0.596437  0.600058  0.203449  1
  Th  Th14  1  0.596437  0.203449  0.600058  1
  Th  Th15  1  0.206220  0.597927  0.597927  1
  Cd  Cd16  1  0.831571  0.831692  0.831692  1
  Cd  Cd17  1  0.831571  0.831692  0.505046  1
  Cd  Cd18  1  0.831571  0.505046  0.831692  1
  Cd  Cd19  1  0.504107  0.831964  0.831964  1
  Ir  Ir20  1  0.823842  0.392053  0.392053  1
  Ru  Ru21  1  0.395395  0.393127  0.393127  1
  Ru  Ru22  1  0.395395  0.393127  0.818352  1
  Ru  Ru23  1  0.395395  0.818352  0.393127  1
