# generated using pymatgen
data_Nd3YBe8(B5O11)4
_symmetry_space_group_name_H-M   'P 1'
_cell_length_a   4.38771289
_cell_length_b   6.79195005
_cell_length_c   26.08992959
_cell_angle_alpha   90.02739756
_cell_angle_beta   90.16818117
_cell_angle_gamma   89.82523477
_symmetry_Int_Tables_number   1
_chemical_formula_structural   Nd3YBe8(B5O11)4
_chemical_formula_sum   'Nd3 Y1 Be8 B20 O44'
_cell_volume   777.50224784
_cell_formula_units_Z   1
loop_
 _symmetry_equiv_pos_site_id
 _symmetry_equiv_pos_as_xyz
  1  'x, y, z'
loop_
 _atom_site_type_symbol
 _atom_site_label
 _atom_site_symmetry_multiplicity
 _atom_site_fract_x
 _atom_site_fract_y
 _atom_site_fract_z
 _atom_site_occupancy
  Nd  Nd0  1  0.857379  0.370898  0.919477  1
  Nd  Nd1  1  0.142936  0.869795  0.080920  1
  Nd  Nd2  1  0.361387  0.868820  0.579893  1
  Y  Y3  1  0.631732  0.365547  0.419417  1
  Be  Be4  1  0.164879  0.453708  0.789095  1
  Be  Be5  1  0.834660  0.954210  0.211444  1
  Be  Be6  1  0.663167  0.953987  0.710087  1
  Be  Be7  1  0.337548  0.454096  0.291115  1
  Be  Be8  1  0.660471  0.230507  0.791299  1
  Be  Be9  1  0.339322  0.730817  0.209546  1
  Be  Be10  1  0.158427  0.730087  0.707682  1
  Be  Be11  1  0.839541  0.231402  0.292901  1
  B  B12  1  0.376342  0.039242  0.867176  1
  B  B13  1  0.624055  0.539369  0.133438  1
  B  B14  1  0.873976  0.538158  0.630998  1
  B  B15  1  0.124050  0.039841  0.368447  1
  B  B16  1  0.154413  0.711391  0.868187  1
  B  B17  1  0.846251  0.211009  0.132224  1
  B  B18  1  0.651983  0.211217  0.630492  1
  B  B19  1  0.350216  0.710246  0.370400  1
  B  B20  1  0.039584  0.937006  0.940930  1
  B  B21  1  0.960057  0.436521  0.059511  1
  B  B22  1  0.536850  0.432988  0.556382  1
  B  B23  1  0.467765  0.940085  0.441492  1
  B  B24  1  0.549449  0.953971  0.994807  1
  B  B25  1  0.450364  0.453609  0.005575  1
  B  B26  1  0.044074  0.451037  0.501957  1
  B  B27  1  0.956413  0.958000  0.494873  1
  B  B28  1  0.173781  0.089347  0.751396  1
  B  B29  1  0.826520  0.590640  0.249728  1
  B  B30  1  0.673735  0.589433  0.747634  1
  B  B31  1  0.325167  0.090721  0.252602  1
  O  O32  1  0.355915  0.847772  0.847432  1
  O  O33  1  0.645231  0.348035  0.153110  1
  O  O34  1  0.852216  0.348227  0.651439  1
  O  O35  1  0.146809  0.846860  0.349324  1
  O  O36  1  0.641710  0.922770  0.043737  1
  O  O37  1  0.358303  0.422981  0.956636  1
  O  O38  1  0.130246  0.422467  0.452605  1
  O  O39  1  0.863599  0.922760  0.543422  1
  O  O40  1  0.006388  0.746523  0.914640  1
  O  O41  1  0.993752  0.245795  0.085698  1
  O  O42  1  0.507569  0.243747  0.583429  1
  O  O43  1  0.500188  0.746970  0.416578  1
  O  O44  1  0.235632  0.923339  0.987273  1
  O  O45  1  0.764519  0.423346  0.013103  1
  O  O46  1  0.729282  0.419687  0.509561  1
  O  O47  1  0.270899  0.929852  0.487628  1
  O  O48  1  0.166912  0.085028  0.905716  1
  O  O49  1  0.832507  0.584837  0.094763  1
  O  O50  1  0.667195  0.581637  0.591533  1
  O  O51  1  0.341669  0.087920  0.405748  1
  O  O52  1  0.096289  0.531704  0.847255  1
  O  O53  1  0.904484  0.031263  0.153165  1
  O  O54  1  0.591827  0.032980  0.651993  1
  O  O55  1  0.411860  0.529030  0.349920  1
  O  O56  1  0.574896  0.178453  0.850981  1
  O  O57  1  0.424789  0.678613  0.149768  1
  O  O58  1  0.070965  0.678091  0.647595  1
  O  O59  1  0.920063  0.178483  0.352899  1
  O  O60  1  0.735997  0.014439  0.954898  1
  O  O61  1  0.263301  0.513530  0.045571  1
  O  O62  1  0.231961  0.508222  0.542260  1
  O  O63  1  0.769334  0.020041  0.455022  1
  O  O64  1  0.024569  0.226953  0.781605  1
  O  O65  1  0.974952  0.727207  0.219224  1
  O  O66  1  0.523283  0.726802  0.717332  1
  O  O67  1  0.475546  0.227888  0.282754  1
  O  O68  1  0.487033  0.088478  0.751432  1
  O  O69  1  0.513040  0.590329  0.249921  1
  O  O70  1  0.987032  0.588507  0.747647  1
  O  O71  1  0.011786  0.089716  0.252816  1
  O  O72  1  0.023034  0.953174  0.721790  1
  O  O73  1  0.977660  0.454463  0.279393  1
  O  O74  1  0.524254  0.453548  0.777292  1
  O  O75  1  0.475009  0.954267  0.222967  1
