# generated using pymatgen
data_Ti2GaCo4Si
_symmetry_space_group_name_H-M   'P 1'
_cell_length_a   7.09464260
_cell_length_b   7.09464226
_cell_length_c   7.09464300
_cell_angle_alpha   33.56312777
_cell_angle_beta   33.56313340
_cell_angle_gamma   33.56313348
_symmetry_Int_Tables_number   1
_chemical_formula_structural   Ti2GaCo4Si
_chemical_formula_sum   'Ti2 Ga1 Co4 Si1'
_cell_volume   97.22140252
_cell_formula_units_Z   1
loop_
 _symmetry_equiv_pos_site_id
 _symmetry_equiv_pos_as_xyz
  1  'x, y, z'
loop_
 _atom_site_type_symbol
 _atom_site_label
 _atom_site_symmetry_multiplicity
 _atom_site_fract_x
 _atom_site_fract_y
 _atom_site_fract_z
 _atom_site_occupancy
  Ti  Ti0  1  0.250207  0.250207  0.250207  1
  Ti  Ti1  1  0.749793  0.749793  0.749793  1
  Ga  Ga2  1  0.000000  0.000000  0.000000  1
  Co  Co3  1  0.872145  0.872145  0.872145  1
  Co  Co4  1  0.378515  0.378515  0.378515  1
  Co  Co5  1  0.127855  0.127855  0.127855  1
  Co  Co6  1  0.621485  0.621485  0.621485  1
  Si  Si7  1  0.500000  0.500000  0.500000  1
