# generated using pymatgen
data_TbNdNb2(SnPt)4
_symmetry_space_group_name_H-M   'P 1'
_cell_length_a   6.51627989
_cell_length_b   4.57035700
_cell_length_c   9.19223448
_cell_angle_alpha   89.99865071
_cell_angle_beta   89.93752535
_cell_angle_gamma   90.00298624
_symmetry_Int_Tables_number   1
_chemical_formula_structural   TbNdNb2(SnPt)4
_chemical_formula_sum   'Tb1 Nd1 Nb2 Sn4 Pt4'
_cell_volume   273.76044025
_cell_formula_units_Z   1
loop_
 _symmetry_equiv_pos_site_id
 _symmetry_equiv_pos_as_xyz
  1  'x, y, z'
loop_
 _atom_site_type_symbol
 _atom_site_label
 _atom_site_symmetry_multiplicity
 _atom_site_fract_x
 _atom_site_fract_y
 _atom_site_fract_z
 _atom_site_occupancy
  Tb  Tb0  1  0.003562  0.999989  0.375976  1
  Nd  Nd1  1  0.502952  0.499981  0.623887  1
  Nb  Nb2  1  0.496552  0.499980  0.122644  1
  Nb  Nb3  1  0.997669  0.999975  0.877601  1
  Sn  Sn4  1  0.983196  0.500003  0.123628  1
  Sn  Sn5  1  0.510141  0.999977  0.366963  1
  Sn  Sn6  1  0.011046  0.499984  0.629652  1
  Sn  Sn7  1  0.484833  0.999999  0.879671  1
  Pt  Pt8  1  0.736437  0.000033  0.111040  1
  Pt  Pt9  1  0.265127  0.500017  0.351931  1
  Pt  Pt10  1  0.774614  0.000025  0.645550  1
  Pt  Pt11  1  0.233867  0.500032  0.891449  1
