# generated using pymatgen
data_Lu4Mn3AlOs4
_symmetry_space_group_name_H-M   'P 1'
_cell_length_a   5.27529839
_cell_length_b   5.29417423
_cell_length_c   8.53448700
_cell_angle_alpha   90.00000000
_cell_angle_beta   90.00000000
_cell_angle_gamma   120.47833729
_symmetry_Int_Tables_number   1
_chemical_formula_structural   Lu4Mn3AlOs4
_chemical_formula_sum   'Lu4 Mn3 Al1 Os4'
_cell_volume   205.41859272
_cell_formula_units_Z   1
loop_
 _symmetry_equiv_pos_site_id
 _symmetry_equiv_pos_as_xyz
  1  'x, y, z'
loop_
 _atom_site_type_symbol
 _atom_site_label
 _atom_site_symmetry_multiplicity
 _atom_site_fract_x
 _atom_site_fract_y
 _atom_site_fract_z
 _atom_site_occupancy
  Lu  Lu0  1  0.336236  0.667848  0.438689  1
  Lu  Lu1  1  0.670675  0.336884  0.565840  1
  Lu  Lu2  1  0.670675  0.336884  0.934160  1
  Lu  Lu3  1  0.336236  0.667848  0.061311  1
  Mn  Mn4  1  0.167775  0.333536  0.750000  1
  Mn  Mn5  1  0.989817  0.990359  0.997798  1
  Mn  Mn6  1  0.989817  0.990359  0.502202  1
  Al  Al7  1  0.333218  0.167987  0.250000  1
  Os  Os8  1  0.175253  0.834008  0.750000  1
  Os  Os9  1  0.834608  0.661525  0.250000  1
  Os  Os10  1  0.660501  0.835120  0.750000  1
  Os  Os11  1  0.835187  0.177645  0.250000  1
