# generated using pymatgen
data_DyHo3Tm4(ReC2)4
_symmetry_space_group_name_H-M   'P 1'
_cell_length_a   5.06118300
_cell_length_b   6.55545844
_cell_length_c   9.78765865
_cell_angle_alpha   90.04187788
_cell_angle_beta   90.00000000
_cell_angle_gamma   90.00000000
_symmetry_Int_Tables_number   1
_chemical_formula_structural   DyHo3Tm4(ReC2)4
_chemical_formula_sum   'Dy1 Ho3 Tm4 Re4 C8'
_cell_volume   324.73852051
_cell_formula_units_Z   1
loop_
 _symmetry_equiv_pos_site_id
 _symmetry_equiv_pos_as_xyz
  1  'x, y, z'
loop_
 _atom_site_type_symbol
 _atom_site_label
 _atom_site_symmetry_multiplicity
 _atom_site_fract_x
 _atom_site_fract_y
 _atom_site_fract_z
 _atom_site_occupancy
  Dy  Dy0  1  0.750000  0.033337  0.715718  1
  Ho  Ho1  1  0.250000  0.466533  0.215933  1
  Ho  Ho2  1  0.250000  0.966502  0.284104  1
  Ho  Ho3  1  0.750000  0.533433  0.784132  1
  Tm  Tm4  1  0.250000  0.822812  0.942532  1
  Tm  Tm5  1  0.250000  0.322972  0.557460  1
  Tm  Tm6  1  0.750000  0.177127  0.057605  1
  Tm  Tm7  1  0.750000  0.677156  0.442374  1
  Re  Re8  1  0.250000  0.279291  0.867520  1
  Re  Re9  1  0.250000  0.779018  0.632592  1
  Re  Re10  1  0.750000  0.720682  0.132658  1
  Re  Re11  1  0.750000  0.220932  0.367320  1
  C  C12  1  0.250000  0.046864  0.740469  1
  C  C13  1  0.250000  0.546823  0.759682  1
  C  C14  1  0.750000  0.953093  0.259671  1
  C  C15  1  0.750000  0.453099  0.240319  1
  C  C16  1  0.250000  0.673162  0.448784  1
  C  C17  1  0.250000  0.173233  0.051162  1
  C  C18  1  0.750000  0.327391  0.550904  1
  C  C19  1  0.750000  0.826542  0.949059  1
