# generated using pymatgen
data_Nd2Nb3Co9P7
_symmetry_space_group_name_H-M   'P 1'
_cell_length_a   3.72206600
_cell_length_b   9.28233309
_cell_length_c   9.28233300
_cell_angle_alpha   120.00000324
_cell_angle_beta   90.00000000
_cell_angle_gamma   90.00000000
_symmetry_Int_Tables_number   1
_chemical_formula_structural   Nd2Nb3Co9P7
_chemical_formula_sum   'Nd2 Nb3 Co9 P7'
_cell_volume   277.73395621
_cell_formula_units_Z   1
loop_
 _symmetry_equiv_pos_site_id
 _symmetry_equiv_pos_as_xyz
  1  'x, y, z'
loop_
 _atom_site_type_symbol
 _atom_site_label
 _atom_site_symmetry_multiplicity
 _atom_site_fract_x
 _atom_site_fract_y
 _atom_site_fract_z
 _atom_site_occupancy
  Nd  Nd0  1  0.000000  0.666667  0.333333  1
  Nd  Nd1  1  0.500000  0.333333  0.666667  1
  Nb  Nb2  1  0.500000  0.776560  0.896769  1
  Nb  Nb3  1  0.500000  0.120208  0.223440  1
  Nb  Nb4  1  0.500000  0.103231  0.879792  1
  Co  Co5  1  0.000000  0.569632  0.940263  1
  Co  Co6  1  0.000000  0.370632  0.430368  1
  Co  Co7  1  0.000000  0.059737  0.629368  1
  Co  Co8  1  0.000000  0.877569  0.159684  1
  Co  Co9  1  0.000000  0.282115  0.122431  1
  Co  Co10  1  0.000000  0.840316  0.717885  1
  Co  Co11  1  0.500000  0.948284  0.386938  1
  Co  Co12  1  0.500000  0.438653  0.051716  1
  Co  Co13  1  0.500000  0.613062  0.561347  1
  P  P14  1  0.000000  0.000000  0.000000  1
  P  P15  1  0.500000  0.709478  0.119358  1
  P  P16  1  0.500000  0.409881  0.290522  1
  P  P17  1  0.500000  0.880642  0.590119  1
  P  P18  1  0.000000  0.585910  0.689805  1
  P  P19  1  0.000000  0.103896  0.414090  1
  P  P20  1  0.000000  0.310195  0.896104  1
