# generated using pymatgen
data_Ce3Ga4Se
_symmetry_space_group_name_H-M   'P 1'
_cell_length_a   8.04457275
_cell_length_b   8.04457216
_cell_length_c   8.04457200
_cell_angle_alpha   119.89171390
_cell_angle_beta   119.89171149
_cell_angle_gamma   90.18765894
_symmetry_Int_Tables_number   1
_chemical_formula_structural   Ce3Ga4Se
_chemical_formula_sum   'Ce6 Ga8 Se2'
_cell_volume   368.72418395
_cell_formula_units_Z   2
loop_
 _symmetry_equiv_pos_site_id
 _symmetry_equiv_pos_as_xyz
  1  'x, y, z'
loop_
 _atom_site_type_symbol
 _atom_site_label
 _atom_site_symmetry_multiplicity
 _atom_site_fract_x
 _atom_site_fract_y
 _atom_site_fract_z
 _atom_site_occupancy
  Ce  Ce0  1  0.661831  0.161831  0.823660  1
  Ce  Ce1  1  0.161831  0.338169  0.500000  1
  Ce  Ce2  1  0.838169  0.661831  0.500000  1
  Ce  Ce3  1  0.750000  0.750000  0.000000  1
  Ce  Ce4  1  0.338169  0.838169  0.176340  1
  Ce  Ce5  1  0.250000  0.250000  0.000000  1
  Ga  Ga6  1  0.948455  0.448455  0.786764  1
  Ga  Ga7  1  0.838308  0.051545  0.500000  1
  Ga  Ga8  1  0.338308  0.838308  0.786764  1
  Ga  Ga9  1  0.448455  0.661692  0.500000  1
  Ga  Ga10  1  0.551545  0.338308  0.500000  1
  Ga  Ga11  1  0.051545  0.551545  0.213236  1
  Ga  Ga12  1  0.161692  0.948455  0.500000  1
  Ga  Ga13  1  0.661692  0.161692  0.213236  1
  Se  Se14  1  0.500000  0.500000  0.000000  1
  Se  Se15  1  0.000000  0.000000  0.000000  1
