# generated using pymatgen
data_Hf(PS4)2
_symmetry_space_group_name_H-M   'P 1'
_cell_length_a   11.78180600
_cell_length_b   11.78180616
_cell_length_c   10.82198200
_cell_angle_alpha   90.00000000
_cell_angle_beta   90.00000000
_cell_angle_gamma   118.96429862
_symmetry_Int_Tables_number   1
_chemical_formula_structural   Hf(PS4)2
_chemical_formula_sum   'Hf4 P8 S32'
_cell_volume   1314.31571016
_cell_formula_units_Z   4
loop_
 _symmetry_equiv_pos_site_id
 _symmetry_equiv_pos_as_xyz
  1  'x, y, z'
loop_
 _atom_site_type_symbol
 _atom_site_label
 _atom_site_symmetry_multiplicity
 _atom_site_fract_x
 _atom_site_fract_y
 _atom_site_fract_z
 _atom_site_occupancy
  Hf  Hf0  1  0.419248  0.580752  0.500000  1
  Hf  Hf1  1  0.580752  0.419248  0.500000  1
  Hf  Hf2  1  0.919248  0.080752  0.000000  1
  Hf  Hf3  1  0.080752  0.919248  0.000000  1
  P  P4  1  0.498140  0.877984  0.511637  1
  P  P5  1  0.998140  0.377984  0.988363  1
  P  P6  1  0.122016  0.501860  0.488363  1
  P  P7  1  0.622016  0.001860  0.011637  1
  P  P8  1  0.877984  0.498140  0.511637  1
  P  P9  1  0.377984  0.998140  0.988363  1
  P  P10  1  0.001860  0.622016  0.011637  1
  P  P11  1  0.501860  0.122016  0.488363  1
  S  S12  1  0.065947  0.631301  0.573412  1
  S  S13  1  0.805849  0.572597  0.389497  1
  S  S14  1  0.194151  0.427403  0.610503  1
  S  S15  1  0.249616  0.592141  0.351452  1
  S  S16  1  0.407859  0.750384  0.648548  1
  S  S17  1  0.092141  0.749616  0.148548  1
  S  S18  1  0.250384  0.907859  0.851452  1
  S  S19  1  0.517197  0.517197  0.311186  1
  S  S20  1  0.631301  0.065947  0.573412  1
  S  S21  1  0.694151  0.927403  0.889497  1
  S  S22  1  0.362169  0.362169  0.396623  1
  S  S23  1  0.368699  0.934053  0.426588  1
  S  S24  1  0.565947  0.131301  0.926588  1
  S  S25  1  0.482803  0.482803  0.688814  1
  S  S26  1  0.927403  0.694151  0.889497  1
  S  S27  1  0.427403  0.194151  0.610503  1
  S  S28  1  0.137831  0.137831  0.896623  1
  S  S29  1  0.749616  0.092141  0.148548  1
  S  S30  1  0.017197  0.017197  0.188814  1
  S  S31  1  0.637831  0.637831  0.603377  1
  S  S32  1  0.934053  0.368699  0.426588  1
  S  S33  1  0.305849  0.072597  0.110503  1
  S  S34  1  0.572597  0.805849  0.389497  1
  S  S35  1  0.982803  0.982803  0.811186  1
  S  S36  1  0.072597  0.305849  0.110503  1
  S  S37  1  0.434053  0.868699  0.073412  1
  S  S38  1  0.862169  0.862169  0.103377  1
  S  S39  1  0.592141  0.249616  0.351452  1
  S  S40  1  0.907859  0.250384  0.851452  1
  S  S41  1  0.750384  0.407859  0.648548  1
  S  S42  1  0.131301  0.565947  0.926588  1
  S  S43  1  0.868699  0.434053  0.073412  1
