# generated using pymatgen
data_Li4B2PdPt5
_symmetry_space_group_name_H-M   'P 1'
_cell_length_a   6.81052531
_cell_length_b   6.86627972
_cell_length_c   6.80464950
_cell_angle_alpha   90.00124830
_cell_angle_beta   90.11182516
_cell_angle_gamma   89.75986788
_symmetry_Int_Tables_number   1
_chemical_formula_structural   Li4B2PdPt5
_chemical_formula_sum   'Li8 B4 Pd2 Pt10'
_cell_volume   318.20223177
_cell_formula_units_Z   2
loop_
 _symmetry_equiv_pos_site_id
 _symmetry_equiv_pos_as_xyz
  1  'x, y, z'
loop_
 _atom_site_type_symbol
 _atom_site_label
 _atom_site_symmetry_multiplicity
 _atom_site_fract_x
 _atom_site_fract_y
 _atom_site_fract_z
 _atom_site_occupancy
  Li  Li0  1  0.303107  0.302620  0.295253  1
  Li  Li1  1  0.045633  0.450415  0.549529  1
  Li  Li2  1  0.567225  0.054203  0.436534  1
  Li  Li3  1  0.444168  0.559517  0.060289  1
  Li  Li4  1  0.188574  0.690463  0.814099  1
  Li  Li5  1  0.948336  0.945876  0.955655  1
  Li  Li6  1  0.807438  0.191570  0.689634  1
  Li  Li7  1  0.705695  0.795957  0.203777  1
  B  B8  1  0.879778  0.378457  0.134079  1
  B  B9  1  0.361071  0.124448  0.894167  1
  B  B10  1  0.636214  0.636896  0.606526  1
  B  B11  1  0.105721  0.872071  0.355044  1
  Pd  Pd12  1  0.215883  0.056312  0.612397  1
  Pd  Pd13  1  0.453156  0.376625  0.708647  1
  Pt  Pt14  1  0.070253  0.618501  0.179869  1
  Pt  Pt15  1  0.936174  0.129731  0.318717  1
  Pt  Pt16  1  0.324291  0.937373  0.137503  1
  Pt  Pt17  1  0.672944  0.438711  0.370358  1
  Pt  Pt18  1  0.546856  0.879693  0.796673  1
  Pt  Pt19  1  0.632971  0.193035  0.044183  1
  Pt  Pt20  1  0.358426  0.689858  0.462710  1
  Pt  Pt21  1  0.888282  0.816113  0.575819  1
  Pt  Pt22  1  0.112472  0.303616  0.923385  1
  Pt  Pt23  1  0.795331  0.557939  0.875153  1
