# generated using pymatgen
data_YHo5MnFeB14
_symmetry_space_group_name_H-M   'P 1'
_cell_length_a   7.99822202
_cell_length_b   7.99822213
_cell_length_c   9.26721000
_cell_angle_alpha   90.00000000
_cell_angle_beta   90.00000000
_cell_angle_gamma   155.28504476
_symmetry_Int_Tables_number   1
_chemical_formula_structural   YHo5MnFeB14
_chemical_formula_sum   'Y1 Ho5 Mn1 Fe1 B14'
_cell_volume   247.86799181
_cell_formula_units_Z   1
loop_
 _symmetry_equiv_pos_site_id
 _symmetry_equiv_pos_as_xyz
  1  'x, y, z'
loop_
 _atom_site_type_symbol
 _atom_site_label
 _atom_site_symmetry_multiplicity
 _atom_site_fract_x
 _atom_site_fract_y
 _atom_site_fract_z
 _atom_site_occupancy
  Y  Y0  1  0.757372  0.242628  0.750000  1
  Ho  Ho1  1  0.895407  0.104593  0.438652  1
  Ho  Ho2  1  0.104537  0.895463  0.559355  1
  Ho  Ho3  1  0.895407  0.104593  0.061348  1
  Ho  Ho4  1  0.104537  0.895463  0.940645  1
  Ho  Ho5  1  0.241605  0.758395  0.250000  1
  Mn  Mn6  1  0.053198  0.946802  0.250000  1
  Fe  Fe7  1  0.946102  0.053898  0.750000  1
  B  B8  1  0.727782  0.272218  0.467042  1
  B  B9  1  0.272755  0.727245  0.533076  1
  B  B10  1  0.727782  0.272218  0.032958  1
  B  B11  1  0.272755  0.727245  0.966924  1
  B  B12  1  0.630282  0.369718  0.153048  1
  B  B13  1  0.370341  0.629659  0.847087  1
  B  B14  1  0.630282  0.369718  0.346952  1
  B  B15  1  0.370341  0.629659  0.652913  1
  B  B16  1  0.521363  0.478637  0.098222  1
  B  B17  1  0.478685  0.521315  0.901924  1
  B  B18  1  0.521363  0.478637  0.401778  1
  B  B19  1  0.478685  0.521315  0.598076  1
  B  B20  1  0.458825  0.541175  0.250000  1
  B  B21  1  0.540592  0.459408  0.750000  1
