# generated using pymatgen
data_LiHo8(Si4Ir)3
_symmetry_space_group_name_H-M   'P 1'
_cell_length_a   8.18163500
_cell_length_b   8.18162413
_cell_length_c   7.88666600
_cell_angle_alpha   90.00002101
_cell_angle_beta   90.00001401
_cell_angle_gamma   119.99993477
_symmetry_Int_Tables_number   1
_chemical_formula_structural   LiHo8(Si4Ir)3
_chemical_formula_sum   'Li1 Ho8 Si12 Ir3'
_cell_volume   457.19765136
_cell_formula_units_Z   1
loop_
 _symmetry_equiv_pos_site_id
 _symmetry_equiv_pos_as_xyz
  1  'x, y, z'
loop_
 _atom_site_type_symbol
 _atom_site_label
 _atom_site_symmetry_multiplicity
 _atom_site_fract_x
 _atom_site_fract_y
 _atom_site_fract_z
 _atom_site_occupancy
  Li  Li0  1  0.333328  0.666661  0.450304  1
  Ho  Ho1  1  0.513256  0.026559  0.246836  1
  Ho  Ho2  1  0.493226  0.986496  0.752073  1
  Ho  Ho3  1  0.973438  0.486739  0.246842  1
  Ho  Ho4  1  0.013506  0.506789  0.752084  1
  Ho  Ho5  1  0.513295  0.486728  0.246872  1
  Ho  Ho6  1  0.493236  0.506763  0.752108  1
  Ho  Ho7  1  0.000002  0.999993  0.255034  1
  Ho  Ho8  1  0.000005  0.999989  0.749850  1
  Si  Si9  1  0.166845  0.333681  0.006035  1
  Si  Si10  1  0.834006  0.668004  0.996495  1
  Si  Si11  1  0.666322  0.833156  0.006034  1
  Si  Si12  1  0.832706  0.665394  0.500515  1
  Si  Si13  1  0.331997  0.165994  0.996500  1
  Si  Si14  1  0.164982  0.329950  0.503279  1
  Si  Si15  1  0.166832  0.833168  0.006032  1
  Si  Si16  1  0.334607  0.167295  0.500515  1
  Si  Si17  1  0.833999  0.166000  0.996501  1
  Si  Si18  1  0.670048  0.835015  0.503278  1
  Si  Si19  1  0.832701  0.167299  0.500516  1
  Si  Si20  1  0.164981  0.835016  0.503277  1
  Ir  Ir21  1  0.333334  0.666668  0.021092  1
  Ir  Ir22  1  0.666672  0.333324  0.967324  1
  Ir  Ir23  1  0.666673  0.333324  0.540608  1
