# generated using pymatgen
data_Gd8Nb11Si16Pt
_symmetry_space_group_name_H-M   'P 1'
_cell_length_a   6.84088700
_cell_length_b   7.10460263
_cell_length_c   13.44776200
_cell_angle_alpha   90.00000000
_cell_angle_beta   90.00000000
_cell_angle_gamma   90.68290232
_symmetry_Int_Tables_number   1
_chemical_formula_structural   Gd8Nb11Si16Pt
_chemical_formula_sum   'Gd8 Nb11 Si16 Pt1'
_cell_volume   653.53879769
_cell_formula_units_Z   1
loop_
 _symmetry_equiv_pos_site_id
 _symmetry_equiv_pos_as_xyz
  1  'x, y, z'
loop_
 _atom_site_type_symbol
 _atom_site_label
 _atom_site_symmetry_multiplicity
 _atom_site_fract_x
 _atom_site_fract_y
 _atom_site_fract_z
 _atom_site_occupancy
  Gd  Gd0  1  0.501559  0.670586  0.594785  1
  Gd  Gd1  1  0.004110  0.828764  0.905443  1
  Gd  Gd2  1  0.495060  0.328852  0.095300  1
  Gd  Gd3  1  0.997954  0.170246  0.402432  1
  Gd  Gd4  1  0.495060  0.328852  0.404700  1
  Gd  Gd5  1  0.997954  0.170246  0.097568  1
  Gd  Gd6  1  0.501559  0.670586  0.905215  1
  Gd  Gd7  1  0.004110  0.828764  0.594557  1
  Nb  Nb8  1  0.671803  0.174986  0.628288  1
  Nb  Nb9  1  0.158245  0.324604  0.872160  1
  Nb  Nb10  1  0.337134  0.825787  0.126283  1
  Nb  Nb11  1  0.835986  0.674019  0.374875  1
  Nb  Nb12  1  0.337134  0.825787  0.373717  1
  Nb  Nb13  1  0.835986  0.674019  0.125125  1
  Nb  Nb14  1  0.671803  0.174986  0.871712  1
  Nb  Nb15  1  0.158245  0.324604  0.627840  1
  Nb  Nb16  1  0.339703  0.002474  0.750000  1
  Nb  Nb17  1  0.161767  0.510179  0.250000  1
  Nb  Nb18  1  0.662584  0.991469  0.250000  1
  Si  Si19  1  0.662598  0.962183  0.459215  1
  Si  Si20  1  0.162078  0.538414  0.040474  1
  Si  Si21  1  0.341505  0.038578  0.956591  1
  Si  Si22  1  0.837910  0.458039  0.536675  1
  Si  Si23  1  0.341505  0.038578  0.543409  1
  Si  Si24  1  0.837910  0.458039  0.963325  1
  Si  Si25  1  0.662598  0.962183  0.040785  1
  Si  Si26  1  0.162078  0.538414  0.459526  1
  Si  Si27  1  0.462307  0.372059  0.750000  1
  Si  Si28  1  0.964172  0.115607  0.750000  1
  Si  Si29  1  0.539027  0.622457  0.250000  1
  Si  Si30  1  0.039625  0.876803  0.250000  1
  Si  Si31  1  0.703652  0.875226  0.750000  1
  Si  Si32  1  0.199533  0.619456  0.750000  1
  Si  Si33  1  0.297116  0.125091  0.250000  1
  Si  Si34  1  0.793402  0.374656  0.250000  1
  Pt  Pt35  1  0.825225  0.524408  0.750000  1
