# generated using pymatgen
data_Na2Hf3Ni9As7
_symmetry_space_group_name_H-M   'P 1'
_cell_length_a   9.74874200
_cell_length_b   9.74874144
_cell_length_c   3.83709200
_cell_angle_alpha   90.00000000
_cell_angle_beta   90.00000000
_cell_angle_gamma   120.00000870
_symmetry_Int_Tables_number   1
_chemical_formula_structural   Na2Hf3Ni9As7
_chemical_formula_sum   'Na2 Hf3 Ni9 As7'
_cell_volume   315.81295020
_cell_formula_units_Z   1
loop_
 _symmetry_equiv_pos_site_id
 _symmetry_equiv_pos_as_xyz
  1  'x, y, z'
loop_
 _atom_site_type_symbol
 _atom_site_label
 _atom_site_symmetry_multiplicity
 _atom_site_fract_x
 _atom_site_fract_y
 _atom_site_fract_z
 _atom_site_occupancy
  Na  Na0  1  0.333333  0.666667  0.000000  1
  Na  Na1  1  0.666667  0.333333  0.500000  1
  Hf  Hf2  1  0.231614  0.123652  0.500000  1
  Hf  Hf3  1  0.876348  0.107962  0.500000  1
  Hf  Hf4  1  0.892038  0.768386  0.500000  1
  Ni  Ni5  1  0.125304  0.282177  0.000000  1
  Ni  Ni6  1  0.717823  0.843127  0.000000  1
  Ni  Ni7  1  0.156873  0.874696  0.000000  1
  Ni  Ni8  1  0.419368  0.357739  0.000000  1
  Ni  Ni9  1  0.642261  0.061630  0.000000  1
  Ni  Ni10  1  0.938370  0.580632  0.000000  1
  Ni  Ni11  1  0.053658  0.436290  0.500000  1
  Ni  Ni12  1  0.563710  0.617368  0.500000  1
  Ni  Ni13  1  0.382632  0.946342  0.500000  1
  As  As14  1  0.293171  0.424322  0.500000  1
  As  As15  1  0.575678  0.868848  0.500000  1
  As  As16  1  0.131152  0.706829  0.500000  1
  As  As17  1  0.426455  0.109451  0.000000  1
  As  As18  1  0.890549  0.317004  0.000000  1
  As  As19  1  0.682996  0.573545  0.000000  1
  As  As20  1  0.000000  0.000000  0.000000  1
