# generated using pymatgen
data_Ti19Si16Rh
_symmetry_space_group_name_H-M   'P 1'
_cell_length_a   6.68687074
_cell_length_b   6.68687074
_cell_length_c   12.14852356
_cell_angle_alpha   89.77558825
_cell_angle_beta   90.22441175
_cell_angle_gamma   89.89381811
_symmetry_Int_Tables_number   1
_chemical_formula_structural   Ti19Si16Rh
_chemical_formula_sum   'Ti19 Si16 Rh1'
_cell_volume   543.20271978
_cell_formula_units_Z   1
loop_
 _symmetry_equiv_pos_site_id
 _symmetry_equiv_pos_as_xyz
  1  'x, y, z'
loop_
 _atom_site_type_symbol
 _atom_site_label
 _atom_site_symmetry_multiplicity
 _atom_site_fract_x
 _atom_site_fract_y
 _atom_site_fract_z
 _atom_site_occupancy
  Ti  Ti0  1  0.996131  0.147246  0.623919  1
  Ti  Ti1  1  0.354111  0.500006  0.869742  1
  Ti  Ti2  1  0.648602  0.504082  0.371174  1
  Ti  Ti3  1  0.500006  0.354111  0.130258  1
  Ti  Ti4  1  0.504082  0.648602  0.628826  1
  Ti  Ti5  1  0.003543  0.848655  0.120763  1
  Ti  Ti6  1  0.147246  0.996131  0.376081  1
  Ti  Ti7  1  0.848655  0.003543  0.879237  1
  Ti  Ti8  1  0.000820  0.347398  0.219758  1
  Ti  Ti9  1  0.154455  0.501889  0.468008  1
  Ti  Ti10  1  0.840892  0.500914  0.969378  1
  Ti  Ti11  1  0.501889  0.154455  0.531992  1
  Ti  Ti12  1  0.500914  0.840892  0.030622  1
  Ti  Ti13  1  0.997998  0.655331  0.719787  1
  Ti  Ti14  1  0.347398  0.000820  0.780242  1
  Ti  Ti15  1  0.655331  0.997998  0.280213  1
  Ti  Ti16  1  0.327232  0.672000  0.247674  1
  Ti  Ti17  1  0.672000  0.327232  0.752326  1
  Ti  Ti18  1  0.828253  0.828253  0.500000  1
  Si  Si19  1  0.048359  0.298726  0.816513  1
  Si  Si20  1  0.200198  0.541475  0.061481  1
  Si  Si21  1  0.800940  0.454110  0.564260  1
  Si  Si22  1  0.541475  0.200198  0.938519  1
  Si  Si23  1  0.454110  0.800940  0.435740  1
  Si  Si24  1  0.955331  0.698619  0.314049  1
  Si  Si25  1  0.298726  0.048359  0.183487  1
  Si  Si26  1  0.698619  0.955331  0.685951  1
  Si  Si27  1  0.294135  0.356668  0.673114  1
  Si  Si28  1  0.140848  0.792488  0.921917  1
  Si  Si29  1  0.857446  0.205558  0.423373  1
  Si  Si30  1  0.792488  0.140848  0.078083  1
  Si  Si31  1  0.205558  0.857446  0.576627  1
  Si  Si32  1  0.705678  0.645015  0.173329  1
  Si  Si33  1  0.356668  0.294135  0.326886  1
  Si  Si34  1  0.645015  0.705678  0.826671  1
  Rh  Rh35  1  0.174849  0.174849  0.000000  1
