# generated using pymatgen
data_Rb4As3PPt4
_symmetry_space_group_name_H-M   'P 1'
_cell_length_a   6.81361699
_cell_length_b   6.81361732
_cell_length_c   6.81361748
_cell_angle_alpha   89.77748619
_cell_angle_beta   90.22251308
_cell_angle_gamma   90.22250790
_symmetry_Int_Tables_number   1
_chemical_formula_structural   Rb4As3PPt4
_chemical_formula_sum   'Rb4 As3 P1 Pt4'
_cell_volume   316.31763462
_cell_formula_units_Z   1
loop_
 _symmetry_equiv_pos_site_id
 _symmetry_equiv_pos_as_xyz
  1  'x, y, z'
loop_
 _atom_site_type_symbol
 _atom_site_label
 _atom_site_symmetry_multiplicity
 _atom_site_fract_x
 _atom_site_fract_y
 _atom_site_fract_z
 _atom_site_occupancy
  Rb  Rb0  1  0.876502  0.880300  0.873825  1
  Rb  Rb1  1  0.626175  0.123498  0.380300  1
  Rb  Rb2  1  0.119700  0.373825  0.623498  1
  Rb  Rb3  1  0.378286  0.621714  0.121714  1
  As  As4  1  0.594100  0.598103  0.591776  1
  As  As5  1  0.908224  0.405900  0.098103  1
  As  As6  1  0.401897  0.091776  0.905900  1
  P  P7  1  0.099732  0.900268  0.400268  1
  Pt  Pt8  1  0.144292  0.135168  0.159732  1
  Pt  Pt9  1  0.340268  0.855708  0.635168  1
  Pt  Pt10  1  0.864832  0.659732  0.355708  1
  Pt  Pt11  1  0.645992  0.354008  0.854008  1
