# generated using pymatgen
data_Sm2In4(TeO6)3
_symmetry_space_group_name_H-M   'P 1'
_cell_length_a   9.09603719
_cell_length_b   9.09603761
_cell_length_c   5.12244220
_cell_angle_alpha   89.77566507
_cell_angle_beta   90.22433075
_cell_angle_gamma   119.86934337
_symmetry_Int_Tables_number   1
_chemical_formula_structural   Sm2In4(TeO6)3
_chemical_formula_sum   'Sm2 In4 Te3 O18'
_cell_volume   367.51748787
_cell_formula_units_Z   1
loop_
 _symmetry_equiv_pos_site_id
 _symmetry_equiv_pos_as_xyz
  1  'x, y, z'
loop_
 _atom_site_type_symbol
 _atom_site_label
 _atom_site_symmetry_multiplicity
 _atom_site_fract_x
 _atom_site_fract_y
 _atom_site_fract_z
 _atom_site_occupancy
  Sm  Sm0  1  0.619952  0.001576  0.000340  1
  Sm  Sm1  1  0.001576  0.619952  0.999660  1
  In  In2  1  0.371663  0.371663  0.000000  1
  In  In3  1  0.288291  0.999112  0.502898  1
  In  In4  1  0.999112  0.288291  0.497102  1
  In  In5  1  0.712141  0.712141  0.500000  1
  Te  Te6  1  0.004690  0.004690  0.000000  1
  Te  Te7  1  0.334300  0.661022  0.505104  1
  Te  Te8  1  0.661022  0.334300  0.494896  1
  O  O9  1  0.091170  0.888055  0.786369  1
  O  O10  1  0.120601  0.210151  0.787298  1
  O  O11  1  0.801371  0.916089  0.783770  1
  O  O12  1  0.210151  0.120601  0.212702  1
  O  O13  1  0.916089  0.801371  0.216230  1
  O  O14  1  0.888055  0.091170  0.213631  1
  O  O15  1  0.461497  0.588029  0.731628  1
  O  O16  1  0.398743  0.858622  0.724379  1
  O  O17  1  0.129700  0.532063  0.707521  1
  O  O18  1  0.858622  0.398743  0.275621  1
  O  O19  1  0.532063  0.129700  0.292479  1
  O  O20  1  0.588029  0.461497  0.268372  1
  O  O21  1  0.231164  0.764459  0.288298  1
  O  O22  1  0.237844  0.459697  0.277654  1
  O  O23  1  0.542261  0.775739  0.302081  1
  O  O24  1  0.459697  0.237844  0.722346  1
  O  O25  1  0.775739  0.542261  0.697919  1
  O  O26  1  0.764459  0.231164  0.711702  1
