# generated using pymatgen
data_Dy7Er3(Sn3P)2
_symmetry_space_group_name_H-M   'P 1'
_cell_length_a   9.05578300
_cell_length_b   9.05578350
_cell_length_c   6.66395900
_cell_angle_alpha   90.00000000
_cell_angle_beta   90.00000000
_cell_angle_gamma   119.99999451
_symmetry_Int_Tables_number   1
_chemical_formula_structural   Dy7Er3(Sn3P)2
_chemical_formula_sum   'Dy7 Er3 Sn6 P2'
_cell_volume   473.27657630
_cell_formula_units_Z   1
loop_
 _symmetry_equiv_pos_site_id
 _symmetry_equiv_pos_as_xyz
  1  'x, y, z'
loop_
 _atom_site_type_symbol
 _atom_site_label
 _atom_site_symmetry_multiplicity
 _atom_site_fract_x
 _atom_site_fract_y
 _atom_site_fract_z
 _atom_site_occupancy
  Dy  Dy0  1  0.666667  0.333333  0.000000  1
  Dy  Dy1  1  0.757897  0.757951  0.749975  1
  Dy  Dy2  1  0.242049  0.999947  0.749975  1
  Dy  Dy3  1  0.000053  0.242103  0.749975  1
  Dy  Dy4  1  0.242049  0.242103  0.250025  1
  Dy  Dy5  1  0.757897  0.999947  0.250025  1
  Dy  Dy6  1  0.000053  0.757951  0.250025  1
  Er  Er7  1  0.333333  0.666667  0.000000  1
  Er  Er8  1  0.333333  0.666667  0.500000  1
  Er  Er9  1  0.666667  0.333333  0.500000  1
  Sn  Sn10  1  0.398763  0.398889  0.749912  1
  Sn  Sn11  1  0.601111  0.999874  0.749912  1
  Sn  Sn12  1  0.000126  0.601237  0.749912  1
  Sn  Sn13  1  0.601111  0.601237  0.250088  1
  Sn  Sn14  1  0.398763  0.999874  0.250088  1
  Sn  Sn15  1  0.000126  0.398889  0.250088  1
  P  P16  1  0.000000  0.000000  0.000000  1
  P  P17  1  0.000000  0.000000  0.500000  1
