# generated using pymatgen
data_Dy8Y2(BiPb)3
_symmetry_space_group_name_H-M   'P 1'
_cell_length_a   9.14421505
_cell_length_b   9.14421416
_cell_length_c   6.48255600
_cell_angle_alpha   90.00000000
_cell_angle_beta   90.00000000
_cell_angle_gamma   120.01229620
_symmetry_Int_Tables_number   1
_chemical_formula_structural   Dy8Y2(BiPb)3
_chemical_formula_sum   'Dy8 Y2 Bi3 Pb3'
_cell_volume   469.37062301
_cell_formula_units_Z   1
loop_
 _symmetry_equiv_pos_site_id
 _symmetry_equiv_pos_as_xyz
  1  'x, y, z'
loop_
 _atom_site_type_symbol
 _atom_site_label
 _atom_site_symmetry_multiplicity
 _atom_site_fract_x
 _atom_site_fract_y
 _atom_site_fract_z
 _atom_site_occupancy
  Dy  Dy0  1  0.666665  0.333364  0.002765  1
  Dy  Dy1  1  0.333364  0.666665  0.002765  1
  Dy  Dy2  1  0.333364  0.666665  0.497235  1
  Dy  Dy3  1  0.666665  0.333364  0.497235  1
  Dy  Dy4  1  0.761648  0.761648  0.750000  1
  Dy  Dy5  1  0.238729  0.238729  0.250000  1
  Dy  Dy6  1  0.761279  0.999902  0.250000  1
  Dy  Dy7  1  0.999902  0.761279  0.250000  1
  Y  Y8  1  0.238347  0.999964  0.750000  1
  Y  Y9  1  0.999964  0.238347  0.750000  1
  Bi  Bi10  1  0.393504  0.393504  0.750000  1
  Bi  Bi11  1  0.606577  0.999934  0.750000  1
  Bi  Bi12  1  0.999934  0.606577  0.750000  1
  Pb  Pb13  1  0.606660  0.606660  0.250000  1
  Pb  Pb14  1  0.393381  0.000018  0.250000  1
  Pb  Pb15  1  0.000018  0.393381  0.250000  1
