# generated using pymatgen
data_Dy13Th3(InIr)4
_symmetry_space_group_name_H-M   'P 1'
_cell_length_a   9.73075430
_cell_length_b   9.73131020
_cell_length_c   9.73130900
_cell_angle_alpha   60.00000067
_cell_angle_beta   59.99811088
_cell_angle_gamma   59.99811232
_symmetry_Int_Tables_number   1
_chemical_formula_structural   Dy13Th3(InIr)4
_chemical_formula_sum   'Dy13 Th3 In4 Ir4'
_cell_volume   651.57092108
_cell_formula_units_Z   1
loop_
 _symmetry_equiv_pos_site_id
 _symmetry_equiv_pos_as_xyz
  1  'x, y, z'
loop_
 _atom_site_type_symbol
 _atom_site_label
 _atom_site_symmetry_multiplicity
 _atom_site_fract_x
 _atom_site_fract_y
 _atom_site_fract_z
 _atom_site_occupancy
  Dy  Dy0  1  0.198424  0.600525  0.600525  1
  Dy  Dy1  1  0.061856  0.439520  0.439520  1
  Dy  Dy2  1  0.438920  0.061391  0.061391  1
  Dy  Dy3  1  0.438920  0.061391  0.438297  1
  Dy  Dy4  1  0.061856  0.439520  0.059102  1
  Dy  Dy5  1  0.438920  0.438297  0.061391  1
  Dy  Dy6  1  0.061856  0.059102  0.439520  1
  Dy  Dy7  1  0.188724  0.811230  0.811230  1
  Dy  Dy8  1  0.812931  0.187911  0.187911  1
  Dy  Dy9  1  0.812931  0.187911  0.811247  1
  Dy  Dy10  1  0.188724  0.811230  0.188814  1
  Dy  Dy11  1  0.812931  0.811247  0.187911  1
  Dy  Dy12  1  0.188724  0.188814  0.811230  1
  Th  Th13  1  0.596783  0.598978  0.598978  1
  Th  Th14  1  0.596783  0.598978  0.205260  1
  Th  Th15  1  0.596783  0.205260  0.598978  1
  In  In16  1  0.835068  0.833505  0.833505  1
  In  In17  1  0.835068  0.833505  0.497922  1
  In  In18  1  0.835068  0.497922  0.833505  1
  In  In19  1  0.496739  0.834420  0.834420  1
  Ir  Ir20  1  0.393494  0.391973  0.391973  1
  Ir  Ir21  1  0.393494  0.391973  0.822561  1
  Ir  Ir22  1  0.393494  0.822561  0.391973  1
  Ir  Ir23  1  0.821508  0.392831  0.392831  1
