# generated using pymatgen
data_Hf6ZrNb3Si8
_symmetry_space_group_name_H-M   'P 1'
_cell_length_a   6.97855387
_cell_length_b   6.97883872
_cell_length_c   12.80094801
_cell_angle_alpha   90.23839818
_cell_angle_beta   89.95852943
_cell_angle_gamma   89.96067983
_symmetry_Int_Tables_number   1
_chemical_formula_structural   Hf6ZrNb3Si8
_chemical_formula_sum   'Hf12 Zr2 Nb6 Si16'
_cell_volume   623.42864725
_cell_formula_units_Z   2
loop_
 _symmetry_equiv_pos_site_id
 _symmetry_equiv_pos_as_xyz
  1  'x, y, z'
loop_
 _atom_site_type_symbol
 _atom_site_label
 _atom_site_symmetry_multiplicity
 _atom_site_fract_x
 _atom_site_fract_y
 _atom_site_fract_z
 _atom_site_occupancy
  Hf  Hf0  1  0.003199  0.147129  0.126665  1
  Hf  Hf1  1  0.998380  0.852766  0.626131  1
  Hf  Hf2  1  0.645484  0.496860  0.876760  1
  Hf  Hf3  1  0.503111  0.352145  0.623611  1
  Hf  Hf4  1  0.498980  0.646606  0.123982  1
  Hf  Hf5  1  0.144844  0.003004  0.873955  1
  Hf  Hf6  1  0.998810  0.654889  0.033387  1
  Hf  Hf7  1  0.999965  0.344979  0.528915  1
  Hf  Hf8  1  0.655204  0.000290  0.969849  1
  Hf  Hf9  1  0.153178  0.499631  0.781168  1
  Hf  Hf10  1  0.846384  0.498378  0.282695  1
  Hf  Hf11  1  0.502516  0.154352  0.219979  1
  Zr  Zr12  1  0.498389  0.845070  0.716386  1
  Zr  Zr13  1  0.347235  0.002896  0.466930  1
  Nb  Nb14  1  0.354427  0.505125  0.375014  1
  Nb  Nb15  1  0.854094  0.996063  0.374144  1
  Nb  Nb16  1  0.674283  0.671465  0.498456  1
  Nb  Nb17  1  0.826932  0.174349  0.749795  1
  Nb  Nb18  1  0.174213  0.827605  0.250976  1
  Nb  Nb19  1  0.327503  0.325663  0.001453  1
  Si  Si20  1  0.047821  0.699086  0.434302  1
  Si  Si21  1  0.953996  0.303635  0.936299  1
  Si  Si22  1  0.702141  0.048462  0.562393  1
  Si  Si23  1  0.199237  0.453492  0.187143  1
  Si  Si24  1  0.802677  0.546320  0.684712  1
  Si  Si25  1  0.453490  0.197265  0.814993  1
  Si  Si26  1  0.549524  0.799741  0.314938  1
  Si  Si27  1  0.303016  0.953297  0.065489  1
  Si  Si28  1  0.853576  0.795482  0.822231  1
  Si  Si29  1  0.140033  0.209061  0.324477  1
  Si  Si30  1  0.795260  0.856639  0.179241  1
  Si  Si31  1  0.293890  0.641777  0.569272  1
  Si  Si32  1  0.703344  0.353351  0.072872  1
  Si  Si33  1  0.641177  0.292757  0.424988  1
  Si  Si34  1  0.351907  0.702893  0.928910  1
  Si  Si35  1  0.201781  0.147477  0.677489  1
