# generated using pymatgen
data_Ho12ZnSi4Sn
_symmetry_space_group_name_H-M   'P 1'
_cell_length_a   8.44166798
_cell_length_b   8.44166883
_cell_length_c   8.44166858
_cell_angle_alpha   112.17563861
_cell_angle_beta   111.55771535
_cell_angle_gamma   104.78037688
_symmetry_Int_Tables_number   1
_chemical_formula_structural   Ho12ZnSi4Sn
_chemical_formula_sum   'Ho12 Zn1 Si4 Sn1'
_cell_volume   460.76999548
_cell_formula_units_Z   1
loop_
 _symmetry_equiv_pos_site_id
 _symmetry_equiv_pos_as_xyz
  1  'x, y, z'
loop_
 _atom_site_type_symbol
 _atom_site_label
 _atom_site_symmetry_multiplicity
 _atom_site_fract_x
 _atom_site_fract_y
 _atom_site_fract_z
 _atom_site_occupancy
  Ho  Ho0  1  0.432241  0.233905  0.198335  1
  Ho  Ho1  1  0.567759  0.766095  0.801665  1
  Ho  Ho2  1  0.035570  0.233905  0.801665  1
  Ho  Ho3  1  0.964430  0.766095  0.198335  1
  Ho  Ho4  1  0.180785  0.271327  0.452112  1
  Ho  Ho5  1  0.819215  0.728673  0.547888  1
  Ho  Ho6  1  0.180785  0.728673  0.909460  1
  Ho  Ho7  1  0.819215  0.271327  0.090540  1
  Ho  Ho8  1  0.319668  0.618561  0.298894  1
  Ho  Ho9  1  0.680332  0.381439  0.701106  1
  Ho  Ho10  1  0.319668  0.020774  0.701106  1
  Ho  Ho11  1  0.680332  0.979226  0.298894  1
  Zn  Zn12  1  0.000000  0.000000  0.000000  1
  Si  Si13  1  0.366131  0.000000  0.366131  1
  Si  Si14  1  0.633869  0.000000  0.633869  1
  Si  Si15  1  0.115792  0.615792  0.500000  1
  Si  Si16  1  0.884208  0.384208  0.500000  1
  Sn  Sn17  1  0.500000  0.500000  0.000000  1
