# generated using pymatgen
data_Li2PrHoPb2
_symmetry_space_group_name_H-M   'P 1'
_cell_length_a   4.82007200
_cell_length_b   4.82007267
_cell_length_c   7.52241600
_cell_angle_alpha   90.00000000
_cell_angle_beta   90.00000000
_cell_angle_gamma   120.00000911
_symmetry_Int_Tables_number   1
_chemical_formula_structural   Li2PrHoPb2
_chemical_formula_sum   'Li2 Pr1 Ho1 Pb2'
_cell_volume   151.35439990
_cell_formula_units_Z   1
loop_
 _symmetry_equiv_pos_site_id
 _symmetry_equiv_pos_as_xyz
  1  'x, y, z'
loop_
 _atom_site_type_symbol
 _atom_site_label
 _atom_site_symmetry_multiplicity
 _atom_site_fract_x
 _atom_site_fract_y
 _atom_site_fract_z
 _atom_site_occupancy
  Li  Li0  1  0.666667  0.333333  0.279838  1
  Li  Li1  1  0.333333  0.666667  0.720162  1
  Pr  Pr2  1  0.000000  0.000000  0.000000  1
  Ho  Ho3  1  0.000000  0.000000  0.500000  1
  Pb  Pb4  1  0.666667  0.333333  0.736191  1
  Pb  Pb5  1  0.333333  0.666667  0.263809  1
