# generated using pymatgen
data_Ho9TmSn5Bi
_symmetry_space_group_name_H-M   'P 1'
_cell_length_a   8.96152701
_cell_length_b   8.95528604
_cell_length_c   6.47809402
_cell_angle_alpha   89.99020142
_cell_angle_beta   90.00462530
_cell_angle_gamma   120.02210647
_symmetry_Int_Tables_number   1
_chemical_formula_structural   Ho9TmSn5Bi
_chemical_formula_sum   'Ho9 Tm1 Sn5 Bi1'
_cell_volume   450.13477592
_cell_formula_units_Z   1
loop_
 _symmetry_equiv_pos_site_id
 _symmetry_equiv_pos_as_xyz
  1  'x, y, z'
loop_
 _atom_site_type_symbol
 _atom_site_label
 _atom_site_symmetry_multiplicity
 _atom_site_fract_x
 _atom_site_fract_y
 _atom_site_fract_z
 _atom_site_occupancy
  Ho  Ho0  1  0.994517  0.757593  0.749922  1
  Ho  Ho1  1  0.000469  0.239142  0.250073  1
  Ho  Ho2  1  0.761261  0.760908  0.250109  1
  Ho  Ho3  1  0.764865  0.999971  0.749932  1
  Ho  Ho4  1  0.236902  0.242458  0.749939  1
  Ho  Ho5  1  0.237668  0.999976  0.250076  1
  Ho  Ho6  1  0.669978  0.337450  0.001727  1
  Ho  Ho7  1  0.669958  0.337412  0.498302  1
  Ho  Ho8  1  0.332551  0.662579  0.001724  1
  Tm  Tm9  1  0.332520  0.662390  0.498155  1
  Sn  Sn10  1  0.395387  0.394372  0.250324  1
  Sn  Sn11  1  0.001780  0.606001  0.250342  1
  Sn  Sn12  1  0.999975  0.396162  0.749658  1
  Sn  Sn13  1  0.603444  0.604266  0.749662  1
  Sn  Sn14  1  0.604992  0.999645  0.250306  1
  Bi  Bi15  1  0.393733  0.999677  0.749749  1
