# generated using pymatgen
data_TbDyYGaC3
_symmetry_space_group_name_H-M   'P 1'
_cell_length_a   3.58747000
_cell_length_b   7.09303907
_cell_length_c   9.88491212
_cell_angle_alpha   89.94774387
_cell_angle_beta   90.00000000
_cell_angle_gamma   90.00000000
_symmetry_Int_Tables_number   1
_chemical_formula_structural   TbDyYGaC3
_chemical_formula_sum   'Tb2 Dy2 Y2 Ga2 C6'
_cell_volume   251.53201043
_cell_formula_units_Z   2
loop_
 _symmetry_equiv_pos_site_id
 _symmetry_equiv_pos_as_xyz
  1  'x, y, z'
loop_
 _atom_site_type_symbol
 _atom_site_label
 _atom_site_symmetry_multiplicity
 _atom_site_fract_x
 _atom_site_fract_y
 _atom_site_fract_z
 _atom_site_occupancy
  Tb  Tb0  1  0.000000  0.749882  0.458847  1
  Tb  Tb1  1  0.000000  0.250118  0.541153  1
  Dy  Dy2  1  0.500000  0.512409  0.196502  1
  Dy  Dy3  1  0.500000  0.487591  0.803498  1
  Y  Y4  1  0.500000  0.989241  0.196032  1
  Y  Y5  1  0.500000  0.010759  0.803968  1
  Ga  Ga6  1  0.000000  0.750134  0.000380  1
  Ga  Ga7  1  0.000000  0.249866  0.999620  1
  C  C8  1  0.500000  0.508827  0.566754  1
  C  C9  1  0.500000  0.491173  0.433246  1
  C  C10  1  0.500000  0.990967  0.566717  1
  C  C11  1  0.500000  0.009033  0.433283  1
  C  C12  1  0.000000  0.749015  0.208314  1
  C  C13  1  0.000000  0.250985  0.791686  1
