# generated using pymatgen
data_Y3Cd2In3Ru
_symmetry_space_group_name_H-M   'P 1'
_cell_length_a   8.24649200
_cell_length_b   8.24649274
_cell_length_c   3.68207500
_cell_angle_alpha   90.00000000
_cell_angle_beta   90.00000000
_cell_angle_gamma   119.99998899
_symmetry_Int_Tables_number   1
_chemical_formula_structural   Y3Cd2In3Ru
_chemical_formula_sum   'Y3 Cd2 In3 Ru1'
_cell_volume   216.85120181
_cell_formula_units_Z   1
loop_
 _symmetry_equiv_pos_site_id
 _symmetry_equiv_pos_as_xyz
  1  'x, y, z'
loop_
 _atom_site_type_symbol
 _atom_site_label
 _atom_site_symmetry_multiplicity
 _atom_site_fract_x
 _atom_site_fract_y
 _atom_site_fract_z
 _atom_site_occupancy
  Y  Y0  1  0.589292  0.629983  0.000000  1
  Y  Y1  1  0.370017  0.959309  0.000000  1
  Y  Y2  1  0.040691  0.410708  0.000000  1
  Cd  Cd3  1  0.000000  0.000000  0.000000  1
  Cd  Cd4  1  0.666667  0.333333  0.500000  1
  In  In5  1  0.997656  0.708996  0.500000  1
  In  In6  1  0.291004  0.288660  0.500000  1
  In  In7  1  0.711340  0.002344  0.500000  1
  Ru  Ru8  1  0.333333  0.666667  0.500000  1
