# generated using pymatgen
data_Er3Mg3TlAgPb
_symmetry_space_group_name_H-M   'P 1'
_cell_length_a   7.56659700
_cell_length_b   7.56659656
_cell_length_c   4.49505200
_cell_angle_alpha   90.00000000
_cell_angle_beta   90.00000000
_cell_angle_gamma   119.99999756
_symmetry_Int_Tables_number   1
_chemical_formula_structural   Er3Mg3TlAgPb
_chemical_formula_sum   'Er3 Mg3 Tl1 Ag1 Pb1'
_cell_volume   222.87766279
_cell_formula_units_Z   1
loop_
 _symmetry_equiv_pos_site_id
 _symmetry_equiv_pos_as_xyz
  1  'x, y, z'
loop_
 _atom_site_type_symbol
 _atom_site_label
 _atom_site_symmetry_multiplicity
 _atom_site_fract_x
 _atom_site_fract_y
 _atom_site_fract_z
 _atom_site_occupancy
  Er  Er0  1  0.415430  0.411033  0.500000  1
  Er  Er1  1  0.588967  0.004397  0.500000  1
  Er  Er2  1  0.995603  0.584570  0.500000  1
  Mg  Mg3  1  0.765926  0.762323  0.000000  1
  Mg  Mg4  1  0.237677  0.003604  0.000000  1
  Mg  Mg5  1  0.996396  0.234074  0.000000  1
  Tl  Tl6  1  0.666667  0.333333  0.000000  1
  Ag  Ag7  1  0.000000  0.000000  0.500000  1
  Pb  Pb8  1  0.333333  0.666667  0.000000  1
