# generated using pymatgen
data_La2(NiIr)5
_symmetry_space_group_name_H-M   'P 1'
_cell_length_a   4.06016300
_cell_length_b   5.28605400
_cell_length_c   9.02773000
_cell_angle_alpha   90.00000000
_cell_angle_beta   90.00000000
_cell_angle_gamma   90.00000000
_symmetry_Int_Tables_number   1
_chemical_formula_structural   La2(NiIr)5
_chemical_formula_sum   'La2 Ni5 Ir5'
_cell_volume   193.75531574
_cell_formula_units_Z   1
loop_
 _symmetry_equiv_pos_site_id
 _symmetry_equiv_pos_as_xyz
  1  'x, y, z'
loop_
 _atom_site_type_symbol
 _atom_site_label
 _atom_site_symmetry_multiplicity
 _atom_site_fract_x
 _atom_site_fract_y
 _atom_site_fract_z
 _atom_site_occupancy
  La  La0  1  0.000000  0.500000  0.000000  1
  La  La1  1  0.000000  0.000000  0.500000  1
  Ni  Ni2  1  0.000000  0.500000  0.342384  1
  Ni  Ni3  1  0.000000  0.000000  0.831546  1
  Ni  Ni4  1  0.000000  0.000000  0.168454  1
  Ni  Ni5  1  0.000000  0.500000  0.657616  1
  Ni  Ni6  1  0.500000  0.500000  0.500000  1
  Ir  Ir7  1  0.500000  0.000000  0.000000  1
  Ir  Ir8  1  0.500000  0.745485  0.252835  1
  Ir  Ir9  1  0.500000  0.254515  0.747165  1
  Ir  Ir10  1  0.500000  0.254515  0.252835  1
  Ir  Ir11  1  0.500000  0.745485  0.747165  1
