# generated using pymatgen
data_YLuNi12AsP6
_symmetry_space_group_name_H-M   'P 1'
_cell_length_a   9.10501400
_cell_length_b   9.10501413
_cell_length_c   3.65505000
_cell_angle_alpha   90.00000000
_cell_angle_beta   90.00000000
_cell_angle_gamma   120.00000679
_symmetry_Int_Tables_number   1
_chemical_formula_structural   YLuNi12AsP6
_chemical_formula_sum   'Y1 Lu1 Ni12 As1 P6'
_cell_volume   262.41289132
_cell_formula_units_Z   1
loop_
 _symmetry_equiv_pos_site_id
 _symmetry_equiv_pos_as_xyz
  1  'x, y, z'
loop_
 _atom_site_type_symbol
 _atom_site_label
 _atom_site_symmetry_multiplicity
 _atom_site_fract_x
 _atom_site_fract_y
 _atom_site_fract_z
 _atom_site_occupancy
  Y  Y0  1  0.333333  0.666667  0.500000  1
  Lu  Lu1  1  0.666667  0.333333  0.000000  1
  Ni  Ni2  1  0.061772  0.625139  0.000000  1
  Ni  Ni3  1  0.563369  0.938228  0.000000  1
  Ni  Ni4  1  0.374861  0.436631  0.000000  1
  Ni  Ni5  1  0.286504  0.128927  0.000000  1
  Ni  Ni6  1  0.842424  0.713496  0.000000  1
  Ni  Ni7  1  0.871073  0.157576  0.000000  1
  Ni  Ni8  1  0.435321  0.053803  0.500000  1
  Ni  Ni9  1  0.618483  0.564679  0.500000  1
  Ni  Ni10  1  0.946197  0.381517  0.500000  1
  Ni  Ni11  1  0.107797  0.864752  0.500000  1
  Ni  Ni12  1  0.756955  0.892203  0.500000  1
  Ni  Ni13  1  0.135248  0.243045  0.500000  1
  As  As14  1  0.000000  0.000000  0.000000  1
  P  P15  1  0.293467  0.887221  0.000000  1
  P  P16  1  0.593754  0.706533  0.000000  1
  P  P17  1  0.112779  0.406246  0.000000  1
  P  P18  1  0.409523  0.296486  0.500000  1
  P  P19  1  0.886964  0.590477  0.500000  1
  P  P20  1  0.703514  0.113036  0.500000  1
