# generated using pymatgen
data_Pr4U4Re(TcB8)3
_symmetry_space_group_name_H-M   'P 1'
_cell_length_a   3.70998000
_cell_length_b   9.41026190
_cell_length_c   11.54769611
_cell_angle_alpha   90.01719326
_cell_angle_beta   90.00000000
_cell_angle_gamma   90.00000000
_symmetry_Int_Tables_number   1
_chemical_formula_structural   Pr4U4Re(TcB8)3
_chemical_formula_sum   'Pr4 U4 Re1 Tc3 B24'
_cell_volume   403.15180238
_cell_formula_units_Z   1
loop_
 _symmetry_equiv_pos_site_id
 _symmetry_equiv_pos_as_xyz
  1  'x, y, z'
loop_
 _atom_site_type_symbol
 _atom_site_label
 _atom_site_symmetry_multiplicity
 _atom_site_fract_x
 _atom_site_fract_y
 _atom_site_fract_z
 _atom_site_occupancy
  Pr  Pr0  1  0.000000  0.337861  0.408459  1
  Pr  Pr1  1  0.000000  0.662087  0.591435  1
  Pr  Pr2  1  0.000000  0.837792  0.091644  1
  Pr  Pr3  1  0.000000  0.162568  0.908432  1
  U  U4  1  0.000000  0.957602  0.396559  1
  U  U5  1  0.000000  0.042178  0.603223  1
  U  U6  1  0.000000  0.457604  0.103428  1
  U  U7  1  0.000000  0.542303  0.896887  1
  Re  Re8  1  0.000000  0.851482  0.816441  1
  Tc  Tc9  1  0.000000  0.648408  0.316402  1
  Tc  Tc10  1  0.000000  0.351606  0.683584  1
  Tc  Tc11  1  0.000000  0.148421  0.183458  1
  B  B12  1  0.500000  0.556877  0.426784  1
  B  B13  1  0.500000  0.442995  0.573141  1
  B  B14  1  0.500000  0.056912  0.073111  1
  B  B15  1  0.500000  0.943333  0.927100  1
  B  B16  1  0.500000  0.746017  0.420415  1
  B  B17  1  0.500000  0.253881  0.579483  1
  B  B18  1  0.500000  0.246146  0.079579  1
  B  B19  1  0.500000  0.753903  0.920577  1
  B  B20  1  0.500000  0.802592  0.275224  1
  B  B21  1  0.500000  0.197348  0.724737  1
  B  B22  1  0.500000  0.302647  0.224784  1
  B  B23  1  0.500000  0.697325  0.775180  1
  B  B24  1  0.500000  0.644172  0.187883  1
  B  B25  1  0.500000  0.355804  0.812163  1
  B  B26  1  0.500000  0.144246  0.312091  1
  B  B27  1  0.500000  0.855720  0.687803  1
  B  B28  1  0.500000  0.993473  0.221299  1
  B  B29  1  0.500000  0.006724  0.778714  1
  B  B30  1  0.500000  0.493397  0.278691  1
  B  B31  1  0.500000  0.506483  0.721346  1
  B  B32  1  0.500000  0.635508  0.037027  1
  B  B33  1  0.500000  0.364339  0.963202  1
  B  B34  1  0.500000  0.135912  0.462973  1
  B  B35  1  0.500000  0.864332  0.536744  1
