# generated using pymatgen
data_HoZr9(Sn3S)2
_symmetry_space_group_name_H-M   'P 1'
_cell_length_a   8.63395940
_cell_length_b   8.63396038
_cell_length_c   6.04226400
_cell_angle_alpha   90.00000000
_cell_angle_beta   90.00000000
_cell_angle_gamma   119.84999253
_symmetry_Int_Tables_number   1
_chemical_formula_structural   HoZr9(Sn3S)2
_chemical_formula_sum   'Ho1 Zr9 Sn6 S2'
_cell_volume   390.66532680
_cell_formula_units_Z   1
loop_
 _symmetry_equiv_pos_site_id
 _symmetry_equiv_pos_as_xyz
  1  'x, y, z'
loop_
 _atom_site_type_symbol
 _atom_site_label
 _atom_site_symmetry_multiplicity
 _atom_site_fract_x
 _atom_site_fract_y
 _atom_site_fract_z
 _atom_site_occupancy
  Ho  Ho0  1  0.747130  0.747130  0.750000  1
  Zr  Zr1  1  0.666576  0.332260  0.000303  1
  Zr  Zr2  1  0.332260  0.666576  0.000303  1
  Zr  Zr3  1  0.332260  0.666576  0.499697  1
  Zr  Zr4  1  0.666576  0.332260  0.499697  1
  Zr  Zr5  1  0.251472  0.999585  0.750000  1
  Zr  Zr6  1  0.999585  0.251472  0.750000  1
  Zr  Zr7  1  0.252584  0.252584  0.250000  1
  Zr  Zr8  1  0.746984  0.000094  0.250000  1
  Zr  Zr9  1  0.000094  0.746984  0.250000  1
  Sn  Sn10  1  0.394462  0.394462  0.750000  1
  Sn  Sn11  1  0.598773  0.001489  0.750000  1
  Sn  Sn12  1  0.001489  0.598773  0.750000  1
  Sn  Sn13  1  0.600630  0.600630  0.250000  1
  Sn  Sn14  1  0.399089  0.000292  0.250000  1
  Sn  Sn15  1  0.000292  0.399089  0.250000  1
  S  S16  1  0.004871  0.004871  0.003196  1
  S  S17  1  0.004871  0.004871  0.496804  1
