# generated using pymatgen
data_Dy5(TlSb)2
_symmetry_space_group_name_H-M   'P 1'
_cell_length_a   8.82537000
_cell_length_b   8.82537024
_cell_length_c   8.11347900
_cell_angle_alpha   90.00000000
_cell_angle_beta   90.00000000
_cell_angle_gamma   125.17422585
_symmetry_Int_Tables_number   1
_chemical_formula_structural   Dy5(TlSb)2
_chemical_formula_sum   'Dy10 Tl4 Sb4'
_cell_volume   516.54694225
_cell_formula_units_Z   2
loop_
 _symmetry_equiv_pos_site_id
 _symmetry_equiv_pos_as_xyz
  1  'x, y, z'
loop_
 _atom_site_type_symbol
 _atom_site_label
 _atom_site_symmetry_multiplicity
 _atom_site_fract_x
 _atom_site_fract_y
 _atom_site_fract_z
 _atom_site_occupancy
  Dy  Dy0  1  0.031334  0.308168  0.334354  1
  Dy  Dy1  1  0.968666  0.691832  0.665646  1
  Dy  Dy2  1  0.468666  0.191832  0.834354  1
  Dy  Dy3  1  0.808168  0.531334  0.165646  1
  Dy  Dy4  1  0.531334  0.808168  0.165646  1
  Dy  Dy5  1  0.191832  0.468666  0.834354  1
  Dy  Dy6  1  0.691832  0.968666  0.665646  1
  Dy  Dy7  1  0.308168  0.031334  0.334354  1
  Dy  Dy8  1  0.000000  0.000000  0.000000  1
  Dy  Dy9  1  0.500000  0.500000  0.500000  1
  Tl  Tl10  1  0.367866  0.367866  0.130885  1
  Tl  Tl11  1  0.632134  0.632134  0.869115  1
  Tl  Tl12  1  0.132134  0.132134  0.630885  1
  Tl  Tl13  1  0.867866  0.867866  0.369115  1
  Sb  Sb14  1  0.797409  0.202591  0.000000  1
  Sb  Sb15  1  0.202591  0.797409  0.000000  1
  Sb  Sb16  1  0.702591  0.297409  0.500000  1
  Sb  Sb17  1  0.297409  0.702591  0.500000  1
