# generated using pymatgen
data_Ac3(CdSb3)2
_symmetry_space_group_name_H-M   'P 1'
_cell_length_a   4.45699500
_cell_length_b   11.46152500
_cell_length_c   13.90011300
_cell_angle_alpha   90.00000000
_cell_angle_beta   90.00000000
_cell_angle_gamma   90.00000000
_symmetry_Int_Tables_number   1
_chemical_formula_structural   Ac3(CdSb3)2
_chemical_formula_sum   'Ac6 Cd4 Sb12'
_cell_volume   710.07281117
_cell_formula_units_Z   2
loop_
 _symmetry_equiv_pos_site_id
 _symmetry_equiv_pos_as_xyz
  1  'x, y, z'
loop_
 _atom_site_type_symbol
 _atom_site_label
 _atom_site_symmetry_multiplicity
 _atom_site_fract_x
 _atom_site_fract_y
 _atom_site_fract_z
 _atom_site_occupancy
  Ac  Ac0  1  0.750000  0.263449  0.750000  1
  Ac  Ac1  1  0.750000  0.271658  0.412254  1
  Ac  Ac2  1  0.250000  0.728342  0.912254  1
  Ac  Ac3  1  0.250000  0.728342  0.587746  1
  Ac  Ac4  1  0.250000  0.736551  0.250000  1
  Ac  Ac5  1  0.750000  0.271658  0.087746  1
  Cd  Cd6  1  0.250000  0.001547  0.095758  1
  Cd  Cd7  1  0.250000  0.001547  0.404242  1
  Cd  Cd8  1  0.750000  0.998453  0.595758  1
  Cd  Cd9  1  0.750000  0.998453  0.904242  1
  Sb  Sb10  1  0.750000  0.503660  0.250000  1
  Sb  Sb11  1  0.750000  0.494137  0.916426  1
  Sb  Sb12  1  0.750000  0.830477  0.750000  1
  Sb  Sb13  1  0.750000  0.834907  0.420159  1
  Sb  Sb14  1  0.250000  0.165093  0.920159  1
  Sb  Sb15  1  0.250000  0.165093  0.579841  1
  Sb  Sb16  1  0.250000  0.169523  0.250000  1
  Sb  Sb17  1  0.250000  0.505863  0.083574  1
  Sb  Sb18  1  0.250000  0.496340  0.750000  1
  Sb  Sb19  1  0.250000  0.505863  0.416426  1
  Sb  Sb20  1  0.750000  0.494137  0.583574  1
  Sb  Sb21  1  0.750000  0.834907  0.079841  1
