# generated using pymatgen
data_Li3Ho4Co11(NiP2)6
_symmetry_space_group_name_H-M   'P 1'
_cell_length_a   3.69022700
_cell_length_b   10.25799787
_cell_length_c   11.92077097
_cell_angle_alpha   90.47432263
_cell_angle_beta   90.00000000
_cell_angle_gamma   90.00000000
_symmetry_Int_Tables_number   1
_chemical_formula_structural   Li3Ho4Co11(NiP2)6
_chemical_formula_sum   'Li3 Ho4 Co11 Ni6 P12'
_cell_volume   451.23746271
_cell_formula_units_Z   1
loop_
 _symmetry_equiv_pos_site_id
 _symmetry_equiv_pos_as_xyz
  1  'x, y, z'
loop_
 _atom_site_type_symbol
 _atom_site_label
 _atom_site_symmetry_multiplicity
 _atom_site_fract_x
 _atom_site_fract_y
 _atom_site_fract_z
 _atom_site_occupancy
  Li  Li0  1  0.250000  0.700882  0.991962  1
  Li  Li1  1  0.250000  0.798162  0.492373  1
  Li  Li2  1  0.750000  0.296973  0.006675  1
  Ho  Ho3  1  0.250000  0.579309  0.704873  1
  Ho  Ho4  1  0.250000  0.920051  0.205438  1
  Ho  Ho5  1  0.750000  0.420175  0.294103  1
  Ho  Ho6  1  0.750000  0.078665  0.796709  1
  Co  Co7  1  0.250000  0.275449  0.671110  1
  Co  Co8  1  0.750000  0.779328  0.826544  1
  Co  Co9  1  0.750000  0.721180  0.327084  1
  Co  Co10  1  0.250000  0.880365  0.698548  1
  Co  Co11  1  0.250000  0.621768  0.199212  1
  Co  Co12  1  0.750000  0.120176  0.303200  1
  Co  Co13  1  0.750000  0.377772  0.797803  1
  Co  Co14  1  0.250000  0.465031  0.931395  1
  Co  Co15  1  0.250000  0.034989  0.433783  1
  Co  Co16  1  0.750000  0.533436  0.066738  1
  Co  Co17  1  0.750000  0.966678  0.566900  1
  Ni  Ni18  1  0.750000  0.210828  0.509960  1
  Ni  Ni19  1  0.250000  0.408015  0.483795  1
  Ni  Ni20  1  0.250000  0.092801  0.987493  1
  Ni  Ni21  1  0.750000  0.592461  0.513874  1
  Ni  Ni22  1  0.750000  0.906795  0.014630  1
  Ni  Ni23  1  0.250000  0.222277  0.175884  1
  P  P24  1  0.250000  0.426708  0.113692  1
  P  P25  1  0.250000  0.075109  0.613815  1
  P  P26  1  0.750000  0.576447  0.884720  1
  P  P27  1  0.750000  0.923375  0.385464  1
  P  P28  1  0.250000  0.270555  0.857880  1
  P  P29  1  0.250000  0.229594  0.365213  1
  P  P30  1  0.750000  0.728069  0.141294  1
  P  P31  1  0.750000  0.772207  0.641580  1
  P  P32  1  0.250000  0.604495  0.387291  1
  P  P33  1  0.250000  0.894151  0.888321  1
  P  P34  1  0.750000  0.394951  0.609150  1
  P  P35  1  0.750000  0.100769  0.111490  1
