# generated using pymatgen
data_Nb9Tc8Mo
_symmetry_space_group_name_H-M   'P 1'
_cell_length_a   7.82255650
_cell_length_b   7.82376221
_cell_length_c   5.56243856
_cell_angle_alpha   89.99478569
_cell_angle_beta   90.00260448
_cell_angle_gamma   120.00508269
_symmetry_Int_Tables_number   1
_chemical_formula_structural   Nb9Tc8Mo
_chemical_formula_sum   'Nb9 Tc8 Mo1'
_cell_volume   294.80711583
_cell_formula_units_Z   1
loop_
 _symmetry_equiv_pos_site_id
 _symmetry_equiv_pos_as_xyz
  1  'x, y, z'
loop_
 _atom_site_type_symbol
 _atom_site_label
 _atom_site_symmetry_multiplicity
 _atom_site_fract_x
 _atom_site_fract_y
 _atom_site_fract_z
 _atom_site_occupancy
  Nb  Nb0  1  0.666431  0.000015  0.225562  1
  Nb  Nb1  1  0.333569  0.333583  0.225562  1
  Nb  Nb2  1  0.000000  0.666477  0.225189  1
  Nb  Nb3  1  0.666618  0.333291  0.558477  1
  Nb  Nb4  1  0.333382  0.666673  0.558477  1
  Nb  Nb5  1  0.000000  0.999939  0.558706  1
  Nb  Nb6  1  0.333154  0.000038  0.892351  1
  Nb  Nb7  1  0.000000  0.333078  0.892338  1
  Nb  Nb8  1  0.666847  0.666885  0.892351  1
  Tc  Tc9  1  0.665557  0.332274  0.059127  1
  Tc  Tc10  1  0.334443  0.666717  0.059127  1
  Tc  Tc11  1  0.000000  0.001018  0.059616  1
  Tc  Tc12  1  0.334287  0.001065  0.391575  1
  Tc  Tc13  1  0.000000  0.332132  0.391459  1
  Tc  Tc14  1  0.665714  0.666779  0.391575  1
  Tc  Tc15  1  0.666569  0.999988  0.725492  1
  Tc  Tc16  1  0.333431  0.333419  0.725492  1
  Mo  Mo17  1  0.000000  0.666627  0.725367  1
