# generated using pymatgen
data_ErTm2Sc3CoBi2
_symmetry_space_group_name_H-M   'P 1'
_cell_length_a   7.94781816
_cell_length_b   7.94781844
_cell_length_c   4.07260700
_cell_angle_alpha   90.00000000
_cell_angle_beta   90.00000000
_cell_angle_gamma   119.78368545
_symmetry_Int_Tables_number   1
_chemical_formula_structural   ErTm2Sc3CoBi2
_chemical_formula_sum   'Er1 Tm2 Sc3 Co1 Bi2'
_cell_volume   223.27573005
_cell_formula_units_Z   1
loop_
 _symmetry_equiv_pos_site_id
 _symmetry_equiv_pos_as_xyz
  1  'x, y, z'
loop_
 _atom_site_type_symbol
 _atom_site_label
 _atom_site_symmetry_multiplicity
 _atom_site_fract_x
 _atom_site_fract_y
 _atom_site_fract_z
 _atom_site_occupancy
  Er  Er0  1  0.384503  0.384503  0.000000  1
  Tm  Tm1  1  0.617582  0.999682  0.000000  1
  Tm  Tm2  1  0.999682  0.617582  0.000000  1
  Sc  Sc3  1  0.224927  0.000243  0.500000  1
  Sc  Sc4  1  0.000243  0.224927  0.500000  1
  Sc  Sc5  1  0.776029  0.776029  0.500000  1
  Co  Co6  1  0.996349  0.996349  0.000000  1
  Bi  Bi7  1  0.333327  0.667358  0.500000  1
  Bi  Bi8  1  0.667358  0.333327  0.500000  1
