# generated using pymatgen
data_Th6RhBr15
_symmetry_space_group_name_H-M   'P 1'
_cell_length_a   10.23130607
_cell_length_b   10.23130645
_cell_length_c   10.23130600
_cell_angle_alpha   109.47121776
_cell_angle_beta   109.47121851
_cell_angle_gamma   109.47122201
_symmetry_Int_Tables_number   1
_chemical_formula_structural   Th6RhBr15
_chemical_formula_sum   'Th6 Rh1 Br15'
_cell_volume   824.46338379
_cell_formula_units_Z   1
loop_
 _symmetry_equiv_pos_site_id
 _symmetry_equiv_pos_as_xyz
  1  'x, y, z'
loop_
 _atom_site_type_symbol
 _atom_site_label
 _atom_site_symmetry_multiplicity
 _atom_site_fract_x
 _atom_site_fract_y
 _atom_site_fract_z
 _atom_site_occupancy
  Th  Th0  1  0.240724  0.000000  0.240724  1
  Th  Th1  1  0.240724  0.240724  0.000000  1
  Th  Th2  1  0.759276  0.000000  0.759276  1
  Th  Th3  1  0.000000  0.240724  0.240724  1
  Th  Th4  1  0.000000  0.759276  0.759276  1
  Th  Th5  1  0.759276  0.759276  0.000000  1
  Rh  Rh6  1  0.000000  0.000000  0.000000  1
  Br  Br7  1  0.000000  0.751040  0.248960  1
  Br  Br8  1  0.248960  0.751040  0.000000  1
  Br  Br9  1  0.502080  0.751040  0.751040  1
  Br  Br10  1  0.000000  0.248960  0.751040  1
  Br  Br11  1  0.751040  0.000000  0.248960  1
  Br  Br12  1  0.248960  0.497920  0.248960  1
  Br  Br13  1  0.751040  0.248960  0.000000  1
  Br  Br14  1  0.500000  0.500000  0.000000  1
  Br  Br15  1  0.248960  0.248960  0.497920  1
  Br  Br16  1  0.751040  0.502080  0.751040  1
  Br  Br17  1  0.751040  0.751040  0.502080  1
  Br  Br18  1  0.497920  0.248960  0.248960  1
  Br  Br19  1  0.248960  0.000000  0.751040  1
  Br  Br20  1  0.000000  0.500000  0.500000  1
  Br  Br21  1  0.500000  0.000000  0.500000  1
