# generated using pymatgen
data_Tb16Tl6CoRh
_symmetry_space_group_name_H-M   'P 1'
_cell_length_a   10.47930700
_cell_length_b   10.47930805
_cell_length_c   7.06425200
_cell_angle_alpha   90.00000000
_cell_angle_beta   90.00000000
_cell_angle_gamma   119.99999984
_symmetry_Int_Tables_number   1
_chemical_formula_structural   Tb16Tl6CoRh
_chemical_formula_sum   'Tb16 Tl6 Co1 Rh1'
_cell_volume   671.83401169
_cell_formula_units_Z   1
loop_
 _symmetry_equiv_pos_site_id
 _symmetry_equiv_pos_as_xyz
  1  'x, y, z'
loop_
 _atom_site_type_symbol
 _atom_site_label
 _atom_site_symmetry_multiplicity
 _atom_site_fract_x
 _atom_site_fract_y
 _atom_site_fract_z
 _atom_site_occupancy
  Tb  Tb0  1  0.466312  0.533688  0.481099  1
  Tb  Tb1  1  0.067374  0.533688  0.481099  1
  Tb  Tb2  1  0.466312  0.932626  0.481099  1
  Tb  Tb3  1  0.536638  0.463362  0.981796  1
  Tb  Tb4  1  0.926722  0.463362  0.981796  1
  Tb  Tb5  1  0.536638  0.073278  0.981796  1
  Tb  Tb6  1  0.822457  0.177543  0.274829  1
  Tb  Tb7  1  0.355085  0.177543  0.274829  1
  Tb  Tb8  1  0.822457  0.644915  0.274829  1
  Tb  Tb9  1  0.175501  0.824499  0.776793  1
  Tb  Tb10  1  0.648999  0.824499  0.776793  1
  Tb  Tb11  1  0.175501  0.351001  0.776793  1
  Tb  Tb12  1  0.333333  0.666667  0.101241  1
  Tb  Tb13  1  0.666667  0.333333  0.590966  1
  Tb  Tb14  1  0.000000  0.000000  0.493621  1
  Tb  Tb15  1  0.000000  0.000000  0.997157  1
  Tl  Tl16  1  0.162574  0.837426  0.234581  1
  Tl  Tl17  1  0.674853  0.837426  0.234581  1
  Tl  Tl18  1  0.162574  0.325147  0.234581  1
  Tl  Tl19  1  0.836327  0.163673  0.732604  1
  Tl  Tl20  1  0.327348  0.163673  0.732604  1
  Tl  Tl21  1  0.836327  0.672652  0.732604  1
  Co  Co22  1  0.666667  0.333333  0.207458  1
  Rh  Rh23  1  0.333333  0.666667  0.709001  1
