# generated using pymatgen
data_DyHo2Fe9
_symmetry_space_group_name_H-M   'P 1'
_cell_length_a   8.61083979
_cell_length_b   8.61084024
_cell_length_c   8.61084132
_cell_angle_alpha   34.35107817
_cell_angle_beta   34.35107390
_cell_angle_gamma   34.35107534
_symmetry_Int_Tables_number   1
_chemical_formula_structural   DyHo2Fe9
_chemical_formula_sum   'Dy1 Ho2 Fe9'
_cell_volume   181.30699172
_cell_formula_units_Z   1
loop_
 _symmetry_equiv_pos_site_id
 _symmetry_equiv_pos_as_xyz
  1  'x, y, z'
loop_
 _atom_site_type_symbol
 _atom_site_label
 _atom_site_symmetry_multiplicity
 _atom_site_fract_x
 _atom_site_fract_y
 _atom_site_fract_z
 _atom_site_occupancy
  Dy  Dy0  1  0.000000  0.000000  0.000000  1
  Ho  Ho1  1  0.141967  0.141967  0.141967  1
  Ho  Ho2  1  0.858033  0.858033  0.858033  1
  Fe  Fe3  1  0.500000  0.500000  0.500000  1
  Fe  Fe4  1  0.332668  0.332668  0.332668  1
  Fe  Fe5  1  0.667332  0.667332  0.667332  1
  Fe  Fe6  1  0.083063  0.581269  0.581269  1
  Fe  Fe7  1  0.581269  0.581269  0.083063  1
  Fe  Fe8  1  0.581269  0.083063  0.581269  1
  Fe  Fe9  1  0.418731  0.916937  0.418731  1
  Fe  Fe10  1  0.916937  0.418731  0.418731  1
  Fe  Fe11  1  0.418731  0.418731  0.916937  1
