# generated using pymatgen
data_Ta4Si4Ir3Ru
_symmetry_space_group_name_H-M   'P 1'
_cell_length_a   3.82287400
_cell_length_b   6.41688393
_cell_length_c   7.31307000
_cell_angle_alpha   89.82003965
_cell_angle_beta   90.00000000
_cell_angle_gamma   90.00000000
_symmetry_Int_Tables_number   1
_chemical_formula_structural   Ta4Si4Ir3Ru
_chemical_formula_sum   'Ta4 Si4 Ir3 Ru1'
_cell_volume   179.39558723
_cell_formula_units_Z   1
loop_
 _symmetry_equiv_pos_site_id
 _symmetry_equiv_pos_as_xyz
  1  'x, y, z'
loop_
 _atom_site_type_symbol
 _atom_site_label
 _atom_site_symmetry_multiplicity
 _atom_site_fract_x
 _atom_site_fract_y
 _atom_site_fract_z
 _atom_site_occupancy
  Ta  Ta0  1  0.750000  0.525583  0.827534  1
  Ta  Ta1  1  0.250000  0.974140  0.325148  1
  Ta  Ta2  1  0.750000  0.021784  0.674903  1
  Ta  Ta3  1  0.250000  0.477438  0.172148  1
  Si  Si4  1  0.250000  0.228489  0.876016  1
  Si  Si5  1  0.250000  0.731115  0.626397  1
  Si  Si6  1  0.750000  0.770838  0.120951  1
  Si  Si7  1  0.750000  0.268121  0.376454  1
  Ir  Ir8  1  0.250000  0.352174  0.563509  1
  Ir  Ir9  1  0.750000  0.647283  0.435083  1
  Ir  Ir10  1  0.750000  0.149731  0.064382  1
  Ru  Ru11  1  0.250000  0.853303  0.937476  1
