# generated using pymatgen
data_Lu6Th2GaPd24
_symmetry_space_group_name_H-M   'P 1'
_cell_length_a   8.37041800
_cell_length_b   8.36956511
_cell_length_c   8.36956500
_cell_angle_alpha   89.99089518
_cell_angle_beta   90.00000000
_cell_angle_gamma   90.00000000
_symmetry_Int_Tables_number   1
_chemical_formula_structural   Lu6Th2GaPd24
_chemical_formula_sum   'Lu6 Th2 Ga1 Pd24'
_cell_volume   586.34458582
_cell_formula_units_Z   1
loop_
 _symmetry_equiv_pos_site_id
 _symmetry_equiv_pos_as_xyz
  1  'x, y, z'
loop_
 _atom_site_type_symbol
 _atom_site_label
 _atom_site_symmetry_multiplicity
 _atom_site_fract_x
 _atom_site_fract_y
 _atom_site_fract_z
 _atom_site_occupancy
  Lu  Lu0  1  0.747197  0.252897  0.252897  1
  Lu  Lu1  1  0.747197  0.747103  0.747103  1
  Lu  Lu2  1  0.747415  0.747131  0.252869  1
  Lu  Lu3  1  0.747415  0.252869  0.747131  1
  Lu  Lu4  1  0.252542  0.747610  0.747610  1
  Lu  Lu5  1  0.252542  0.252390  0.252390  1
  Th  Th6  1  0.253879  0.253553  0.746447  1
  Th  Th7  1  0.253879  0.746447  0.253553  1
  Ga  Ga8  1  0.999190  0.000000  0.000000  1
  Pd  Pd9  1  0.502019  0.501666  0.746910  1
  Pd  Pd10  1  0.502019  0.253090  0.498334  1
  Pd  Pd11  1  0.253268  0.500000  0.500000  1
  Pd  Pd12  1  0.502019  0.498334  0.253090  1
  Pd  Pd13  1  0.502019  0.746910  0.501666  1
  Pd  Pd14  1  0.747163  0.500000  0.500000  1
  Pd  Pd15  1  0.997507  0.998053  0.709891  1
  Pd  Pd16  1  0.997507  0.290109  0.001947  1
  Pd  Pd17  1  0.290979  0.000000  0.000000  1
  Pd  Pd18  1  0.997507  0.001947  0.290109  1
  Pd  Pd19  1  0.997507  0.709891  0.998053  1
  Pd  Pd20  1  0.710566  0.000000  0.000000  1
  Pd  Pd21  1  0.998458  0.500776  0.740425  1
  Pd  Pd22  1  0.501464  0.259714  0.001301  1
  Pd  Pd23  1  0.259305  0.000000  0.500000  1
  Pd  Pd24  1  0.998458  0.259575  0.499224  1
  Pd  Pd25  1  0.501464  0.998699  0.740286  1
  Pd  Pd26  1  0.259305  0.500000  0.000000  1
  Pd  Pd27  1  0.998458  0.499224  0.259575  1
  Pd  Pd28  1  0.501464  0.740286  0.998699  1
  Pd  Pd29  1  0.998458  0.740425  0.500776  1
  Pd  Pd30  1  0.501464  0.001301  0.259714  1
  Pd  Pd31  1  0.740183  0.000000  0.500000  1
  Pd  Pd32  1  0.740183  0.500000  0.000000  1
