# generated using pymatgen
data_Y16In3AgPd4
_symmetry_space_group_name_H-M   'P 1'
_cell_length_a   9.76642495
_cell_length_b   9.75953257
_cell_length_c   9.75953300
_cell_angle_alpha   60.00000194
_cell_angle_beta   60.02334428
_cell_angle_gamma   60.02333403
_symmetry_Int_Tables_number   1
_chemical_formula_structural   Y16In3AgPd4
_chemical_formula_sum   'Y16 In3 Ag1 Pd4'
_cell_volume   658.00894426
_cell_formula_units_Z   1
loop_
 _symmetry_equiv_pos_site_id
 _symmetry_equiv_pos_as_xyz
  1  'x, y, z'
loop_
 _atom_site_type_symbol
 _atom_site_label
 _atom_site_symmetry_multiplicity
 _atom_site_fract_x
 _atom_site_fract_y
 _atom_site_fract_z
 _atom_site_occupancy
  Y  Y0  1  0.353667  0.353628  0.353628  1
  Y  Y1  1  0.353667  0.353628  0.939077  1
  Y  Y2  1  0.353667  0.939077  0.353628  1
  Y  Y3  1  0.940970  0.353011  0.353011  1
  Y  Y4  1  0.808543  0.191461  0.191461  1
  Y  Y5  1  0.191707  0.809459  0.809459  1
  Y  Y6  1  0.191707  0.809459  0.189374  1
  Y  Y7  1  0.808543  0.191461  0.808536  1
  Y  Y8  1  0.191707  0.189374  0.809459  1
  Y  Y9  1  0.808543  0.808536  0.191461  1
  Y  Y10  1  0.938565  0.564092  0.564092  1
  Y  Y11  1  0.565679  0.935040  0.935040  1
  Y  Y12  1  0.565679  0.935040  0.564239  1
  Y  Y13  1  0.938565  0.564092  0.933252  1
  Y  Y14  1  0.565679  0.564239  0.935040  1
  Y  Y15  1  0.938565  0.933252  0.564092  1
  In  In16  1  0.580729  0.582434  0.582434  1
  In  In17  1  0.580729  0.582434  0.254401  1
  In  In18  1  0.580729  0.254401  0.582434  1
  Ag  Ag19  1  0.241456  0.586181  0.586181  1
  Pd  Pd20  1  0.144363  0.143709  0.143709  1
  Pd  Pd21  1  0.144363  0.143709  0.568218  1
  Pd  Pd22  1  0.144363  0.568218  0.143709  1
  Pd  Pd23  1  0.567814  0.144062  0.144062  1
