# generated using pymatgen
data_Lu20Si12O
_symmetry_space_group_name_H-M   'P 1'
_cell_length_a   6.12153700
_cell_length_b   8.16583829
_cell_length_c   14.22622000
_cell_angle_alpha   90.00000702
_cell_angle_beta   90.00000000
_cell_angle_gamma   89.94125066
_symmetry_Int_Tables_number   1
_chemical_formula_structural   Lu20Si12O
_chemical_formula_sum   'Lu20 Si12 O1'
_cell_volume   711.13253160
_cell_formula_units_Z   1
loop_
 _symmetry_equiv_pos_site_id
 _symmetry_equiv_pos_as_xyz
  1  'x, y, z'
loop_
 _atom_site_type_symbol
 _atom_site_label
 _atom_site_symmetry_multiplicity
 _atom_site_fract_x
 _atom_site_fract_y
 _atom_site_fract_z
 _atom_site_occupancy
  Lu  Lu0  1  0.499989  0.000006  0.333577  1
  Lu  Lu1  1  0.499995  0.500007  0.831498  1
  Lu  Lu2  1  0.499995  0.500007  0.168502  1
  Lu  Lu3  1  0.499989  0.000006  0.666423  1
  Lu  Lu4  1  0.999987  0.500019  0.163630  1
  Lu  Lu5  1  0.999993  0.000000  0.668449  1
  Lu  Lu6  1  0.999993  0.000000  0.331551  1
  Lu  Lu7  1  0.999987  0.500019  0.836370  1
  Lu  Lu8  1  0.737094  0.235269  0.000000  1
  Lu  Lu9  1  0.750403  0.743205  0.500000  1
  Lu  Lu10  1  0.751524  0.378616  0.379171  1
  Lu  Lu11  1  0.741545  0.881165  0.882369  1
  Lu  Lu12  1  0.741545  0.881165  0.117631  1
  Lu  Lu13  1  0.751524  0.378616  0.620829  1
  Lu  Lu14  1  0.262974  0.764687  0.000000  1
  Lu  Lu15  1  0.249563  0.256810  0.500000  1
  Lu  Lu16  1  0.258378  0.118865  0.117689  1
  Lu  Lu17  1  0.248467  0.621402  0.620831  1
  Lu  Lu18  1  0.248467  0.621402  0.379169  1
  Lu  Lu19  1  0.258378  0.118865  0.882311  1
  Si  Si20  1  0.744090  0.602138  0.000000  1
  Si  Si21  1  0.752020  0.105009  0.500000  1
  Si  Si22  1  0.749966  0.197376  0.197836  1
  Si  Si23  1  0.752010  0.697178  0.698346  1
  Si  Si24  1  0.752010  0.697178  0.301654  1
  Si  Si25  1  0.749966  0.197376  0.802164  1
  Si  Si26  1  0.255846  0.397810  0.000000  1
  Si  Si27  1  0.247953  0.895025  0.500000  1
  Si  Si28  1  0.247935  0.302842  0.301653  1
  Si  Si29  1  0.250007  0.802651  0.802166  1
  Si  Si30  1  0.250007  0.802651  0.197834  1
  Si  Si31  1  0.247935  0.302842  0.698347  1
  O  O32  1  0.500464  0.999788  0.000000  1
