# generated using pymatgen
data_Rb8ErTm5BBr20
_symmetry_space_group_name_H-M   'P 1'
_cell_length_a   12.26171193
_cell_length_b   12.26348556
_cell_length_c   12.26348513
_cell_angle_alpha   59.99043751
_cell_angle_beta   60.00477955
_cell_angle_gamma   60.00478253
_symmetry_Int_Tables_number   1
_chemical_formula_structural   Rb8ErTm5BBr20
_chemical_formula_sum   'Rb8 Er1 Tm5 B1 Br20'
_cell_volume   1303.95896361
_cell_formula_units_Z   1
loop_
 _symmetry_equiv_pos_site_id
 _symmetry_equiv_pos_as_xyz
  1  'x, y, z'
loop_
 _atom_site_type_symbol
 _atom_site_label
 _atom_site_symmetry_multiplicity
 _atom_site_fract_x
 _atom_site_fract_y
 _atom_site_fract_z
 _atom_site_occupancy
  Rb  Rb0  1  0.359645  0.359549  0.359549  1
  Rb  Rb1  1  0.640368  0.640451  0.640451  1
  Rb  Rb2  1  0.359549  0.359632  0.921271  1
  Rb  Rb3  1  0.359549  0.921271  0.359632  1
  Rb  Rb4  1  0.640451  0.640355  0.078741  1
  Rb  Rb5  1  0.640451  0.078741  0.640355  1
  Rb  Rb6  1  0.921259  0.359549  0.359549  1
  Rb  Rb7  1  0.078729  0.640451  0.640451  1
  Er  Er8  1  0.851255  0.148745  0.148745  1
  Tm  Tm9  1  0.148612  0.851388  0.851388  1
  Tm  Tm10  1  0.148657  0.851343  0.148552  1
  Tm  Tm11  1  0.851448  0.148552  0.851343  1
  Tm  Tm12  1  0.148657  0.148552  0.851343  1
  Tm  Tm13  1  0.851448  0.851343  0.148552  1
  B  B14  1  0.000255  0.999745  0.999745  1
  Br  Br15  1  0.325731  0.999996  0.999996  1
  Br  Br16  1  0.674277  0.999996  0.999996  1
  Br  Br17  1  0.000004  0.325723  0.674269  1
  Br  Br18  1  0.000004  0.674269  0.325723  1
  Br  Br19  1  0.000411  0.326114  0.999589  1
  Br  Br20  1  0.673886  0.999589  0.326114  1
  Br  Br21  1  0.999998  0.674259  0.000002  1
  Br  Br22  1  0.325741  0.000002  0.674259  1
  Br  Br23  1  0.000411  0.999589  0.326114  1
  Br  Br24  1  0.999998  0.000002  0.674259  1
  Br  Br25  1  0.673886  0.326114  0.999589  1
  Br  Br26  1  0.325741  0.674259  0.000002  1
  Br  Br27  1  0.684659  0.315341  0.315341  1
  Br  Br28  1  0.314873  0.685127  0.685127  1
  Br  Br29  1  0.314857  0.685143  0.314836  1
  Br  Br30  1  0.685164  0.314836  0.685143  1
  Br  Br31  1  0.314857  0.314836  0.685143  1
  Br  Br32  1  0.685164  0.685143  0.314836  1
  Br  Br33  1  0.250004  0.249996  0.249996  1
  Br  Br34  1  0.750004  0.749996  0.749996  1
