# generated using pymatgen
data_TbGdB5
_symmetry_space_group_name_H-M   'P 1'
_cell_length_a   7.14067400
_cell_length_b   7.13760925
_cell_length_c   7.16818289
_cell_angle_alpha   77.31085907
_cell_angle_beta   90.00000000
_cell_angle_gamma   90.00000000
_symmetry_Int_Tables_number   1
_chemical_formula_structural   TbGdB5
_chemical_formula_sum   'Tb4 Gd4 B20'
_cell_volume   356.42014805
_cell_formula_units_Z   4
loop_
 _symmetry_equiv_pos_site_id
 _symmetry_equiv_pos_as_xyz
  1  'x, y, z'
loop_
 _atom_site_type_symbol
 _atom_site_label
 _atom_site_symmetry_multiplicity
 _atom_site_fract_x
 _atom_site_fract_y
 _atom_site_fract_z
 _atom_site_occupancy
  Tb  Tb0  1  0.315263  0.757020  0.254675  1
  Tb  Tb1  1  0.815263  0.242980  0.245325  1
  Tb  Tb2  1  0.684737  0.242980  0.745325  1
  Tb  Tb3  1  0.184737  0.757020  0.754675  1
  Gd  Gd4  1  0.691887  0.767827  0.629075  1
  Gd  Gd5  1  0.191887  0.232173  0.870925  1
  Gd  Gd6  1  0.308113  0.232173  0.370925  1
  Gd  Gd7  1  0.808113  0.767827  0.129075  1
  B  B8  1  0.501825  0.314946  0.039379  1
  B  B9  1  0.001825  0.685054  0.460621  1
  B  B10  1  0.498175  0.685054  0.960621  1
  B  B11  1  0.998175  0.314946  0.539379  1
  B  B12  1  0.491466  0.924018  0.927734  1
  B  B13  1  0.991466  0.075982  0.572266  1
  B  B14  1  0.508534  0.075982  0.072266  1
  B  B15  1  0.008534  0.924018  0.427734  1
  B  B16  1  0.326480  0.496889  0.039779  1
  B  B17  1  0.826480  0.503111  0.460221  1
  B  B18  1  0.673520  0.503111  0.960221  1
  B  B19  1  0.173520  0.496889  0.539779  1
  B  B20  1  0.910581  0.498623  0.910593  1
  B  B21  1  0.410581  0.501377  0.589407  1
  B  B22  1  0.089419  0.501377  0.089407  1
  B  B23  1  0.589419  0.498623  0.410593  1
  B  B24  1  0.961613  0.496664  0.673973  1
  B  B25  1  0.461613  0.503336  0.826027  1
  B  B26  1  0.038387  0.503336  0.326027  1
  B  B27  1  0.538387  0.496664  0.173973  1
