# generated using pymatgen
data_Pr3Dy2Tc6P12Ir13
_symmetry_space_group_name_H-M   'P 1'
_cell_length_a   12.73955100
_cell_length_b   12.73955092
_cell_length_c   4.02016200
_cell_angle_alpha   90.00000000
_cell_angle_beta   90.00000000
_cell_angle_gamma   119.99999760
_symmetry_Int_Tables_number   1
_chemical_formula_structural   Pr3Dy2Tc6P12Ir13
_chemical_formula_sum   'Pr3 Dy2 Tc6 P12 Ir13'
_cell_volume   565.04422065
_cell_formula_units_Z   1
loop_
 _symmetry_equiv_pos_site_id
 _symmetry_equiv_pos_as_xyz
  1  'x, y, z'
loop_
 _atom_site_type_symbol
 _atom_site_label
 _atom_site_symmetry_multiplicity
 _atom_site_fract_x
 _atom_site_fract_y
 _atom_site_fract_z
 _atom_site_occupancy
  Pr  Pr0  1  0.000916  0.812193  0.000000  1
  Pr  Pr1  1  0.187807  0.188723  0.000000  1
  Pr  Pr2  1  0.811277  0.999084  0.000000  1
  Dy  Dy3  1  0.333333  0.666667  0.500000  1
  Dy  Dy4  1  0.666667  0.333333  0.500000  1
  Tc  Tc5  1  0.990276  0.446051  0.500000  1
  Tc  Tc6  1  0.553949  0.544224  0.500000  1
  Tc  Tc7  1  0.455776  0.009724  0.500000  1
  Tc  Tc8  1  0.617108  0.796360  0.500000  1
  Tc  Tc9  1  0.203640  0.820747  0.500000  1
  Tc  Tc10  1  0.179253  0.382892  0.500000  1
  P  P11  1  0.007375  0.635794  0.500000  1
  P  P12  1  0.364206  0.371583  0.500000  1
  P  P13  1  0.628417  0.992625  0.500000  1
  P  P14  1  0.520632  0.694314  0.000000  1
  P  P15  1  0.305686  0.826318  0.000000  1
  P  P16  1  0.173682  0.479368  0.000000  1
  P  P17  1  0.482963  0.169321  0.000000  1
  P  P18  1  0.686358  0.517037  0.000000  1
  P  P19  1  0.830679  0.313642  0.000000  1
  P  P20  1  0.003018  0.185340  0.500000  1
  P  P21  1  0.814660  0.817678  0.500000  1
  P  P22  1  0.182322  0.996982  0.500000  1
  Ir  Ir23  1  0.505763  0.874564  0.000000  1
  Ir  Ir24  1  0.125436  0.631200  0.000000  1
  Ir  Ir25  1  0.368800  0.494237  0.000000  1
  Ir  Ir26  1  0.494980  0.358732  0.000000  1
  Ir  Ir27  1  0.863753  0.505020  0.000000  1
  Ir  Ir28  1  0.641268  0.136247  0.000000  1
  Ir  Ir29  1  0.995555  0.284871  0.000000  1
  Ir  Ir30  1  0.715129  0.710684  0.000000  1
  Ir  Ir31  1  0.289316  0.004445  0.000000  1
  Ir  Ir32  1  0.378430  0.185357  0.500000  1
  Ir  Ir33  1  0.806927  0.621570  0.500000  1
  Ir  Ir34  1  0.814643  0.193073  0.500000  1
  Ir  Ir35  1  0.000000  0.000000  0.500000  1
