# generated using pymatgen
data_Eu2Zn2GaRh2
_symmetry_space_group_name_H-M   'P 1'
_cell_length_a   5.60548437
_cell_length_b   5.60548457
_cell_length_c   7.50858247
_cell_angle_alpha   113.58299499
_cell_angle_beta   113.58299580
_cell_angle_gamma   42.64002929
_symmetry_Int_Tables_number   1
_chemical_formula_structural   Eu2Zn2GaRh2
_chemical_formula_sum   'Eu2 Zn2 Ga1 Rh2'
_cell_volume   144.32790696
_cell_formula_units_Z   1
loop_
 _symmetry_equiv_pos_site_id
 _symmetry_equiv_pos_as_xyz
  1  'x, y, z'
loop_
 _atom_site_type_symbol
 _atom_site_label
 _atom_site_symmetry_multiplicity
 _atom_site_fract_x
 _atom_site_fract_y
 _atom_site_fract_z
 _atom_site_occupancy
  Eu  Eu0  1  0.142670  0.142670  0.265225  1
  Eu  Eu1  1  0.857329  0.857329  0.734776  1
  Zn  Zn2  1  0.346453  0.346453  0.056910  1
  Zn  Zn3  1  0.653548  0.653548  0.943091  1
  Ga  Ga4  1  0.500000  0.500000  0.500000  1
  Rh  Rh5  1  0.873276  0.873276  0.303426  1
  Rh  Rh6  1  0.126724  0.126724  0.696574  1
