# generated using pymatgen
data_K4Zr6RuI18
_symmetry_space_group_name_H-M   'P 1'
_cell_length_a   11.39340373
_cell_length_b   11.52205661
_cell_length_c   11.63660474
_cell_angle_alpha   118.56991843
_cell_angle_beta   100.05396284
_cell_angle_gamma   103.73302669
_symmetry_Int_Tables_number   1
_chemical_formula_structural   K4Zr6RuI18
_chemical_formula_sum   'K4 Zr6 Ru1 I18'
_cell_volume   1226.67478154
_cell_formula_units_Z   1
loop_
 _symmetry_equiv_pos_site_id
 _symmetry_equiv_pos_as_xyz
  1  'x, y, z'
loop_
 _atom_site_type_symbol
 _atom_site_label
 _atom_site_symmetry_multiplicity
 _atom_site_fract_x
 _atom_site_fract_y
 _atom_site_fract_z
 _atom_site_occupancy
  K  K0  1  0.648870  0.537893  0.224870  1
  K  K1  1  0.351130  0.462107  0.775130  1
  K  K2  1  0.683211  0.224646  0.564369  1
  K  K3  1  0.316789  0.775354  0.435631  1
  Zr  Zr4  1  0.150743  0.055927  0.231248  1
  Zr  Zr5  1  0.849257  0.944073  0.768752  1
  Zr  Zr6  1  0.861247  0.127794  0.134154  1
  Zr  Zr7  1  0.138753  0.872206  0.865846  1
  Zr  Zr8  1  0.145586  0.239133  0.045186  1
  Zr  Zr9  1  0.854414  0.760867  0.954814  1
  Ru  Ru10  1  0.000000  0.000000  0.000000  1
  I  I11  1  0.008346  0.412496  0.198340  1
  I  I12  1  0.991654  0.587504  0.801660  1
  I  I13  1  0.329722  0.334816  0.312575  1
  I  I14  1  0.670278  0.665184  0.687425  1
  I  I15  1  0.323852  0.524684  0.100461  1
  I  I16  1  0.676148  0.475316  0.899539  1
  I  I17  1  0.003711  0.794039  0.210091  1
  I  I18  1  0.996289  0.205961  0.789909  1
  I  I19  1  0.700440  0.279684  0.292053  1
  I  I20  1  0.299560  0.720316  0.707947  1
  I  I21  1  0.318054  0.127397  0.901903  1
  I  I22  1  0.681946  0.872603  0.098097  1
  I  I23  1  0.014472  0.206075  0.410897  1
  I  I24  1  0.985528  0.793925  0.589103  1
  I  I25  1  0.322425  0.921552  0.109811  1
  I  I26  1  0.677575  0.078448  0.890189  1
  I  I27  1  0.335263  0.121474  0.505726  1
  I  I28  1  0.664737  0.878526  0.494274  1
