# generated using pymatgen
data_Yb2SmY5(B6Os)4
_symmetry_space_group_name_H-M   'P 1'
_cell_length_a   3.65937900
_cell_length_b   9.18076602
_cell_length_c   11.58186401
_cell_angle_alpha   90.00114443
_cell_angle_beta   90.00000000
_cell_angle_gamma   90.00000000
_symmetry_Int_Tables_number   1
_chemical_formula_structural   Yb2SmY5(B6Os)4
_chemical_formula_sum   'Yb2 Sm1 Y5 B24 Os4'
_cell_volume   389.10317247
_cell_formula_units_Z   1
loop_
 _symmetry_equiv_pos_site_id
 _symmetry_equiv_pos_as_xyz
  1  'x, y, z'
loop_
 _atom_site_type_symbol
 _atom_site_label
 _atom_site_symmetry_multiplicity
 _atom_site_fract_x
 _atom_site_fract_y
 _atom_site_fract_z
 _atom_site_occupancy
  Yb  Yb0  1  0.000000  0.676973  0.586323  1
  Yb  Yb1  1  0.000000  0.823092  0.086029  1
  Sm  Sm2  1  0.000000  0.324149  0.414176  1
  Y  Y3  1  0.000000  0.175829  0.914314  1
  Y  Y4  1  0.000000  0.940529  0.369592  1
  Y  Y5  1  0.000000  0.056130  0.629795  1
  Y  Y6  1  0.000000  0.443692  0.129026  1
  Y  Y7  1  0.000000  0.559313  0.870040  1
  B  B8  1  0.500000  0.554952  0.433082  1
  B  B9  1  0.500000  0.446887  0.568843  1
  B  B10  1  0.500000  0.053106  0.067598  1
  B  B11  1  0.500000  0.946237  0.933296  1
  B  B12  1  0.500000  0.747136  0.418275  1
  B  B13  1  0.500000  0.252119  0.583015  1
  B  B14  1  0.500000  0.247692  0.081412  1
  B  B15  1  0.500000  0.753274  0.918275  1
  B  B16  1  0.500000  0.789282  0.265243  1
  B  B17  1  0.500000  0.209385  0.734756  1
  B  B18  1  0.500000  0.289874  0.233305  1
  B  B19  1  0.500000  0.710983  0.765459  1
  B  B20  1  0.500000  0.631336  0.185776  1
  B  B21  1  0.500000  0.369084  0.813889  1
  B  B22  1  0.500000  0.130195  0.312831  1
  B  B23  1  0.500000  0.868886  0.686156  1
  B  B24  1  0.500000  0.982835  0.211271  1
  B  B25  1  0.500000  0.016295  0.788614  1
  B  B26  1  0.500000  0.484956  0.287901  1
  B  B27  1  0.500000  0.517050  0.711905  1
  B  B28  1  0.500000  0.602430  0.028044  1
  B  B29  1  0.500000  0.397316  0.971104  1
  B  B30  1  0.500000  0.100671  0.471680  1
  B  B31  1  0.500000  0.897905  0.528019  1
  Os  Os32  1  0.000000  0.637510  0.320742  1
  Os  Os33  1  0.000000  0.361034  0.680178  1
  Os  Os34  1  0.000000  0.138326  0.178682  1
  Os  Os35  1  0.000000  0.863538  0.821355  1
