# generated using pymatgen
data_Zr2Cr3Ni9As7
_symmetry_space_group_name_H-M   'P 1'
_cell_length_a   9.45698100
_cell_length_b   9.45698093
_cell_length_c   3.73797500
_cell_angle_alpha   90.00000000
_cell_angle_beta   90.00000000
_cell_angle_gamma   119.99999674
_symmetry_Int_Tables_number   1
_chemical_formula_structural   Zr2Cr3Ni9As7
_chemical_formula_sum   'Zr2 Cr3 Ni9 As7'
_cell_volume   289.51566565
_cell_formula_units_Z   1
loop_
 _symmetry_equiv_pos_site_id
 _symmetry_equiv_pos_as_xyz
  1  'x, y, z'
loop_
 _atom_site_type_symbol
 _atom_site_label
 _atom_site_symmetry_multiplicity
 _atom_site_fract_x
 _atom_site_fract_y
 _atom_site_fract_z
 _atom_site_occupancy
  Zr  Zr0  1  0.333333  0.666667  0.000000  1
  Zr  Zr1  1  0.666667  0.333333  0.500000  1
  Cr  Cr2  1  0.223462  0.123686  0.500000  1
  Cr  Cr3  1  0.876314  0.099776  0.500000  1
  Cr  Cr4  1  0.900224  0.776538  0.500000  1
  Ni  Ni5  1  0.123671  0.283622  0.000000  1
  Ni  Ni6  1  0.716378  0.840048  0.000000  1
  Ni  Ni7  1  0.159952  0.876329  0.000000  1
  Ni  Ni8  1  0.434120  0.374895  0.000000  1
  Ni  Ni9  1  0.625105  0.059225  0.000000  1
  Ni  Ni10  1  0.940775  0.565880  0.000000  1
  Ni  Ni11  1  0.050245  0.436269  0.500000  1
  Ni  Ni12  1  0.563731  0.613977  0.500000  1
  Ni  Ni13  1  0.386023  0.949755  0.500000  1
  As  As14  1  0.291138  0.414952  0.500000  1
  As  As15  1  0.585048  0.876187  0.500000  1
  As  As16  1  0.123813  0.708862  0.500000  1
  As  As17  1  0.415359  0.121179  0.000000  1
  As  As18  1  0.878821  0.294179  0.000000  1
  As  As19  1  0.705821  0.584641  0.000000  1
  As  As20  1  0.000000  0.000000  0.000000  1
