# generated using pymatgen
data_Tm3Ir7Rh2
_symmetry_space_group_name_H-M   'P 1'
_cell_length_a   5.26647100
_cell_length_b   5.26647103
_cell_length_c   17.47113600
_cell_angle_alpha   90.00000000
_cell_angle_beta   90.00000000
_cell_angle_gamma   119.99999352
_symmetry_Int_Tables_number   1
_chemical_formula_structural   Tm3Ir7Rh2
_chemical_formula_sum   'Tm6 Ir14 Rh4'
_cell_volume   419.65383982
_cell_formula_units_Z   2
loop_
 _symmetry_equiv_pos_site_id
 _symmetry_equiv_pos_as_xyz
  1  'x, y, z'
loop_
 _atom_site_type_symbol
 _atom_site_label
 _atom_site_symmetry_multiplicity
 _atom_site_fract_x
 _atom_site_fract_y
 _atom_site_fract_z
 _atom_site_occupancy
  Tm  Tm0  1  0.333333  0.666667  0.541299  1
  Tm  Tm1  1  0.666667  0.333333  0.041299  1
  Tm  Tm2  1  0.666667  0.333333  0.458701  1
  Tm  Tm3  1  0.333333  0.666667  0.958701  1
  Tm  Tm4  1  0.333333  0.666667  0.750000  1
  Tm  Tm5  1  0.666667  0.333333  0.250000  1
  Ir  Ir6  1  0.167699  0.335397  0.125087  1
  Ir  Ir7  1  0.832301  0.664603  0.625087  1
  Ir  Ir8  1  0.664603  0.832301  0.125087  1
  Ir  Ir9  1  0.167699  0.832301  0.125087  1
  Ir  Ir10  1  0.832301  0.167699  0.625087  1
  Ir  Ir11  1  0.335397  0.167699  0.625087  1
  Ir  Ir12  1  0.832301  0.664603  0.874913  1
  Ir  Ir13  1  0.832301  0.167699  0.874913  1
  Ir  Ir14  1  0.335397  0.167699  0.874913  1
  Ir  Ir15  1  0.664603  0.832301  0.374913  1
  Ir  Ir16  1  0.167699  0.832301  0.374913  1
  Ir  Ir17  1  0.167699  0.335397  0.374913  1
  Ir  Ir18  1  0.000000  0.000000  0.000000  1
  Ir  Ir19  1  0.000000  0.000000  0.500000  1
  Rh  Rh20  1  0.000000  0.000000  0.250000  1
  Rh  Rh21  1  0.000000  0.000000  0.750000  1
  Rh  Rh22  1  0.333333  0.666667  0.250000  1
  Rh  Rh23  1  0.666667  0.333333  0.750000  1
