# generated using pymatgen
data_Fe6SiMo6
_symmetry_space_group_name_H-M   'P 1'
_cell_length_a   8.99562357
_cell_length_b   8.99562312
_cell_length_c   8.99562404
_cell_angle_alpha   30.81071594
_cell_angle_beta   30.81072396
_cell_angle_gamma   30.81072136
_symmetry_Int_Tables_number   1
_chemical_formula_structural   Fe6SiMo6
_chemical_formula_sum   'Fe6 Si1 Mo6'
_cell_volume   169.36918648
_cell_formula_units_Z   1
loop_
 _symmetry_equiv_pos_site_id
 _symmetry_equiv_pos_as_xyz
  1  'x, y, z'
loop_
 _atom_site_type_symbol
 _atom_site_label
 _atom_site_symmetry_multiplicity
 _atom_site_fract_x
 _atom_site_fract_y
 _atom_site_fract_z
 _atom_site_occupancy
  Fe  Fe0  1  0.587638  0.091274  0.091274  1
  Fe  Fe1  1  0.091274  0.091274  0.587638  1
  Fe  Fe2  1  0.908726  0.908726  0.412362  1
  Fe  Fe3  1  0.908726  0.412362  0.908726  1
  Fe  Fe4  1  0.091274  0.587638  0.091274  1
  Fe  Fe5  1  0.412362  0.908726  0.908726  1
  Si  Si6  1  0.000000  0.000000  0.000000  1
  Mo  Mo7  1  0.349773  0.349773  0.349773  1
  Mo  Mo8  1  0.168209  0.168209  0.168209  1
  Mo  Mo9  1  0.548995  0.548995  0.548995  1
  Mo  Mo10  1  0.650227  0.650227  0.650227  1
  Mo  Mo11  1  0.451005  0.451005  0.451005  1
  Mo  Mo12  1  0.831791  0.831791  0.831791  1
