# generated using pymatgen
data_V4ReTc2Os
_symmetry_space_group_name_H-M   'P 1'
_cell_length_a   6.06657700
_cell_length_b   4.27624800
_cell_length_c   8.53995900
_cell_angle_alpha   90.00000000
_cell_angle_beta   90.00217300
_cell_angle_gamma   90.00000000
_symmetry_Int_Tables_number   1
_chemical_formula_structural   V4ReTc2Os
_chemical_formula_sum   'V8 Re2 Tc4 Os2'
_cell_volume   221.54521979
_cell_formula_units_Z   2
loop_
 _symmetry_equiv_pos_site_id
 _symmetry_equiv_pos_as_xyz
  1  'x, y, z'
loop_
 _atom_site_type_symbol
 _atom_site_label
 _atom_site_symmetry_multiplicity
 _atom_site_fract_x
 _atom_site_fract_y
 _atom_site_fract_z
 _atom_site_occupancy
  V  V0  1  0.000644  0.750001  0.126036  1
  V  V1  1  0.499377  0.750001  0.126038  1
  V  V2  1  0.999378  0.250001  0.373930  1
  V  V3  1  0.500634  0.250001  0.373931  1
  V  V4  1  0.500987  0.750001  0.623701  1
  V  V5  1  0.998974  0.750001  0.623704  1
  V  V6  1  0.498987  0.250001  0.876368  1
  V  V7  1  0.001008  0.250001  0.876379  1
  Re  Re8  1  0.250050  0.250001  0.124754  1
  Re  Re9  1  0.749976  0.750001  0.375131  1
  Tc  Tc10  1  0.749954  0.250001  0.123330  1
  Tc  Tc11  1  0.250043  0.750001  0.376555  1
  Tc  Tc12  1  0.749964  0.250001  0.626630  1
  Tc  Tc13  1  0.250037  0.750001  0.873455  1
  Os  Os14  1  0.250040  0.250001  0.625268  1
  Os  Os15  1  0.749945  0.750001  0.874790  1
