# generated using pymatgen
data_CeUCo3Si
_symmetry_space_group_name_H-M   'P 1'
_cell_length_a   5.18488000
_cell_length_b   5.18487931
_cell_length_c   7.62918800
_cell_angle_alpha   90.00000000
_cell_angle_beta   90.00000000
_cell_angle_gamma   120.00000440
_symmetry_Int_Tables_number   1
_chemical_formula_structural   CeUCo3Si
_chemical_formula_sum   'Ce2 U2 Co6 Si2'
_cell_volume   177.61771988
_cell_formula_units_Z   2
loop_
 _symmetry_equiv_pos_site_id
 _symmetry_equiv_pos_as_xyz
  1  'x, y, z'
loop_
 _atom_site_type_symbol
 _atom_site_label
 _atom_site_symmetry_multiplicity
 _atom_site_fract_x
 _atom_site_fract_y
 _atom_site_fract_z
 _atom_site_occupancy
  Ce  Ce0  1  0.333333  0.666667  0.425134  1
  Ce  Ce1  1  0.666667  0.333333  0.574866  1
  U  U2  1  0.666667  0.333333  0.950160  1
  U  U3  1  0.333333  0.666667  0.049840  1
  Co  Co4  1  0.834413  0.165587  0.240311  1
  Co  Co5  1  0.834413  0.668827  0.240311  1
  Co  Co6  1  0.331173  0.165587  0.240311  1
  Co  Co7  1  0.165587  0.834413  0.759689  1
  Co  Co8  1  0.165587  0.331173  0.759689  1
  Co  Co9  1  0.668827  0.834413  0.759689  1
  Si  Si10  1  0.000000  0.000000  0.500000  1
  Si  Si11  1  0.000000  0.000000  0.000000  1
