# generated using pymatgen
data_KYb(YB12)2
_symmetry_space_group_name_H-M   'P 1'
_cell_length_a   7.14446900
_cell_length_b   7.14446867
_cell_length_c   5.84648100
_cell_angle_alpha   90.00000000
_cell_angle_beta   90.00000000
_cell_angle_gamma   109.33065436
_symmetry_Int_Tables_number   1
_chemical_formula_structural   KYb(YB12)2
_chemical_formula_sum   'K1 Yb1 Y2 B24'
_cell_volume   281.60049010
_cell_formula_units_Z   1
loop_
 _symmetry_equiv_pos_site_id
 _symmetry_equiv_pos_as_xyz
  1  'x, y, z'
loop_
 _atom_site_type_symbol
 _atom_site_label
 _atom_site_symmetry_multiplicity
 _atom_site_fract_x
 _atom_site_fract_y
 _atom_site_fract_z
 _atom_site_occupancy
  K  K0  1  0.749897  0.250103  0.500000  1
  Yb  Yb1  1  0.997376  0.002624  0.000000  1
  Y  Y2  1  0.502353  0.497647  0.000000  1
  Y  Y3  1  0.250049  0.749951  0.500000  1
  B  B4  1  0.175979  0.325887  0.649330  1
  B  B5  1  0.926573  0.576165  0.149716  1
  B  B6  1  0.674113  0.824021  0.649330  1
  B  B7  1  0.423835  0.073427  0.149716  1
  B  B8  1  0.175979  0.325887  0.350670  1
  B  B9  1  0.926573  0.576165  0.850284  1
  B  B10  1  0.674113  0.824021  0.350670  1
  B  B11  1  0.423835  0.073427  0.850284  1
  B  B12  1  0.400971  0.398693  0.500000  1
  B  B13  1  0.149735  0.651260  0.000000  1
  B  B14  1  0.898713  0.900398  0.500000  1
  B  B15  1  0.649339  0.148285  0.000000  1
  B  B16  1  0.324445  0.174579  0.649429  1
  B  B17  1  0.076549  0.426814  0.149585  1
  B  B18  1  0.825421  0.675555  0.649429  1
  B  B19  1  0.573186  0.923451  0.149585  1
  B  B20  1  0.099602  0.101287  0.500000  1
  B  B21  1  0.851715  0.350661  0.000000  1
  B  B22  1  0.601307  0.599029  0.500000  1
  B  B23  1  0.348740  0.850265  0.000000  1
  B  B24  1  0.324445  0.174579  0.350571  1
  B  B25  1  0.076549  0.426814  0.850415  1
  B  B26  1  0.825421  0.675555  0.350571  1
  B  B27  1  0.573186  0.923451  0.850415  1
