# generated using pymatgen
data_Li3Pr4Si8Pd
_symmetry_space_group_name_H-M   'P 1'
_cell_length_a   3.91824500
_cell_length_b   7.63422413
_cell_length_c   10.52069854
_cell_angle_alpha   89.65644349
_cell_angle_beta   90.00000000
_cell_angle_gamma   90.00000000
_symmetry_Int_Tables_number   1
_chemical_formula_structural   Li3Pr4Si8Pd
_chemical_formula_sum   'Li3 Pr4 Si8 Pd1'
_cell_volume   314.69747866
_cell_formula_units_Z   1
loop_
 _symmetry_equiv_pos_site_id
 _symmetry_equiv_pos_as_xyz
  1  'x, y, z'
loop_
 _atom_site_type_symbol
 _atom_site_label
 _atom_site_symmetry_multiplicity
 _atom_site_fract_x
 _atom_site_fract_y
 _atom_site_fract_z
 _atom_site_occupancy
  Li  Li0  1  0.750000  0.003047  0.607091  1
  Li  Li1  1  0.250000  0.495181  0.112789  1
  Li  Li2  1  0.750000  0.500986  0.888168  1
  Pr  Pr3  1  0.250000  0.138877  0.866815  1
  Pr  Pr4  1  0.750000  0.859647  0.133255  1
  Pr  Pr5  1  0.250000  0.643844  0.629881  1
  Pr  Pr6  1  0.750000  0.366542  0.366301  1
  Si  Si7  1  0.750000  0.271742  0.076518  1
  Si  Si8  1  0.250000  0.721343  0.925469  1
  Si  Si9  1  0.750000  0.784097  0.429548  1
  Si  Si10  1  0.250000  0.217176  0.567697  1
  Si  Si11  1  0.750000  0.836799  0.822480  1
  Si  Si12  1  0.250000  0.159658  0.184852  1
  Si  Si13  1  0.750000  0.332000  0.672533  1
  Si  Si14  1  0.250000  0.671909  0.323902  1
  Pd  Pd15  1  0.250000  0.997151  0.392703  1
