# generated using pymatgen
data_Li5CuN2
_symmetry_space_group_name_H-M   'P 1'
_cell_length_a   3.91921475
_cell_length_b   5.40768064
_cell_length_c   6.65590738
_cell_angle_alpha   87.93247162
_cell_angle_beta   125.64411135
_cell_angle_gamma   90.23808274
_symmetry_Int_Tables_number   1
_chemical_formula_structural   Li5CuN2
_chemical_formula_sum   'Li5 Cu1 N2'
_cell_volume   114.53695651
_cell_formula_units_Z   1
loop_
 _symmetry_equiv_pos_site_id
 _symmetry_equiv_pos_as_xyz
  1  'x, y, z'
loop_
 _atom_site_type_symbol
 _atom_site_label
 _atom_site_symmetry_multiplicity
 _atom_site_fract_x
 _atom_site_fract_y
 _atom_site_fract_z
 _atom_site_occupancy
  Li  Li0  1  0.780513  0.312894  0.699714  1
  Li  Li1  1  0.009352  0.575792  0.424789  1
  Li  Li2  1  0.499981  0.583595  0.927224  1
  Li  Li3  1  0.010032  0.076277  0.434416  1
  Li  Li4  1  0.231662  0.852796  0.158772  1
  Cu  Cu5  1  0.508188  0.083081  0.931829  1
  N  N6  1  0.262884  0.329908  0.681297  1
  N  N7  1  0.751042  0.832429  0.178676  1
