# generated using pymatgen
data_Ho2Tm4Al24Ru5Pt3
_symmetry_space_group_name_H-M   'P 1'
_cell_length_a   8.78615115
_cell_length_b   8.81797282
_cell_length_c   9.50994487
_cell_angle_alpha   89.84771437
_cell_angle_beta   90.14551442
_cell_angle_gamma   119.67123422
_symmetry_Int_Tables_number   1
_chemical_formula_structural   Ho2Tm4Al24Ru5Pt3
_chemical_formula_sum   'Ho2 Tm4 Al24 Ru5 Pt3'
_cell_volume   640.18182157
_cell_formula_units_Z   1
loop_
 _symmetry_equiv_pos_site_id
 _symmetry_equiv_pos_as_xyz
  1  'x, y, z'
loop_
 _atom_site_type_symbol
 _atom_site_label
 _atom_site_symmetry_multiplicity
 _atom_site_fract_x
 _atom_site_fract_y
 _atom_site_fract_z
 _atom_site_occupancy
  Ho  Ho0  1  0.804280  0.191136  0.748965  1
  Ho  Ho1  1  0.195720  0.808864  0.251035  1
  Tm  Tm2  1  0.389136  0.191758  0.749887  1
  Tm  Tm3  1  0.610864  0.808242  0.250113  1
  Tm  Tm4  1  0.805757  0.613560  0.749846  1
  Tm  Tm5  1  0.194243  0.386440  0.250154  1
  Al  Al6  1  0.664236  0.327701  0.970997  1
  Al  Al7  1  0.335764  0.672299  0.029003  1
  Al  Al8  1  0.338619  0.669401  0.472320  1
  Al  Al9  1  0.661381  0.330599  0.527680  1
  Al  Al10  1  0.832890  0.158357  0.421555  1
  Al  Al11  1  0.167110  0.841643  0.578445  1
  Al  Al12  1  0.327085  0.164525  0.422500  1
  Al  Al13  1  0.167004  0.842116  0.920702  1
  Al  Al14  1  0.672915  0.835475  0.577500  1
  Al  Al15  1  0.832996  0.157884  0.079298  1
  Al  Al16  1  0.832091  0.675539  0.422990  1
  Al  Al17  1  0.674117  0.841385  0.921267  1
  Al  Al18  1  0.167909  0.324461  0.577010  1
  Al  Al19  1  0.325883  0.158615  0.078733  1
  Al  Al20  1  0.161540  0.322893  0.920959  1
  Al  Al21  1  0.838460  0.677107  0.079041  1
  Al  Al22  1  0.437832  0.562575  0.746673  1
  Al  Al23  1  0.562168  0.437425  0.253327  1
  Al  Al24  1  0.127052  0.564016  0.750430  1
  Al  Al25  1  0.872948  0.435984  0.249570  1
  Al  Al26  1  0.438643  0.877439  0.750522  1
  Al  Al27  1  0.561357  0.122561  0.249478  1
  Al  Al28  1  0.998278  0.996869  0.749835  1
  Al  Al29  1  0.001722  0.003131  0.250165  1
  Ru  Ru30  1  0.500000  0.500000  0.500000  1
  Ru  Ru31  1  0.500000  0.000000  0.000000  1
  Ru  Ru32  1  0.500000  0.000000  0.500000  1
  Ru  Ru33  1  0.000000  0.000000  0.000000  1
  Ru  Ru34  1  0.000000  0.000000  0.500000  1
  Pt  Pt35  1  0.500000  0.500000  0.000000  1
  Pt  Pt36  1  0.000000  0.500000  0.000000  1
  Pt  Pt37  1  0.000000  0.500000  0.500000  1
