# generated using pymatgen
data_VCoTcB2
_symmetry_space_group_name_H-M   'P 1'
_cell_length_a   4.41822409
_cell_length_b   4.41822523
_cell_length_c   4.41822474
_cell_angle_alpha   139.13273178
_cell_angle_beta   118.85263646
_cell_angle_gamma   76.18510981
_symmetry_Int_Tables_number   1
_chemical_formula_structural   VCoTcB2
_chemical_formula_sum   'V1 Co1 Tc1 B2'
_cell_volume   48.21471298
_cell_formula_units_Z   1
loop_
 _symmetry_equiv_pos_site_id
 _symmetry_equiv_pos_as_xyz
  1  'x, y, z'
loop_
 _atom_site_type_symbol
 _atom_site_label
 _atom_site_symmetry_multiplicity
 _atom_site_fract_x
 _atom_site_fract_y
 _atom_site_fract_z
 _atom_site_occupancy
  V  V0  1  0.299008  0.799008  0.500000  1
  Co  Co1  1  0.005415  0.005415  0.000000  1
  Tc  Tc2  1  0.700347  0.200347  0.500000  1
  B  B3  1  0.698627  0.497616  0.201012  1
  B  B4  1  0.296603  0.497616  0.798988  1
