# generated using pymatgen
data_Zn21GaAgRh3
_symmetry_space_group_name_H-M   'P 1'
_cell_length_a   7.95139464
_cell_length_b   7.95892660
_cell_length_c   7.95139538
_cell_angle_alpha   109.49041592
_cell_angle_beta   109.45202419
_cell_angle_gamma   109.49040288
_symmetry_Int_Tables_number   1
_chemical_formula_structural   Zn21GaAgRh3
_chemical_formula_sum   'Zn21 Ga1 Ag1 Rh3'
_cell_volume   387.27224099
_cell_formula_units_Z   1
loop_
 _symmetry_equiv_pos_site_id
 _symmetry_equiv_pos_as_xyz
  1  'x, y, z'
loop_
 _atom_site_type_symbol
 _atom_site_label
 _atom_site_symmetry_multiplicity
 _atom_site_fract_x
 _atom_site_fract_y
 _atom_site_fract_z
 _atom_site_occupancy
  Zn  Zn0  1  0.778321  0.995085  0.000000  1
  Zn  Zn1  1  0.000000  0.995085  0.778321  1
  Zn  Zn2  1  0.221679  0.216762  0.221679  1
  Zn  Zn3  1  0.355748  0.623427  0.355748  1
  Zn  Zn4  1  0.268716  0.002987  0.650218  1
  Zn  Zn5  1  0.650218  0.002987  0.268716  1
  Zn  Zn6  1  0.279842  0.653935  0.000000  1
  Zn  Zn7  1  0.731284  0.734271  0.381502  1
  Zn  Zn8  1  0.381502  0.734271  0.731284  1
  Zn  Zn9  1  0.000000  0.653935  0.279842  1
  Zn  Zn10  1  0.000000  0.267680  0.644252  1
  Zn  Zn11  1  0.644252  0.267680  0.000000  1
  Zn  Zn12  1  0.349782  0.352769  0.618498  1
  Zn  Zn13  1  0.618498  0.352769  0.349782  1
  Zn  Zn14  1  0.720158  0.374093  0.720158  1
  Zn  Zn15  1  0.357013  0.355187  0.000000  1
  Zn  Zn16  1  0.000000  0.636231  0.644179  1
  Zn  Zn17  1  0.000000  0.355187  0.357013  1
  Zn  Zn18  1  0.355821  0.992053  0.355821  1
  Zn  Zn19  1  0.642987  0.998174  0.642987  1
  Zn  Zn20  1  0.644179  0.636231  0.000000  1
  Ga  Ga21  1  0.000000  0.792169  0.000000  1
  Ag  Ag22  1  0.000000  0.351219  0.000000  1
  Rh  Rh23  1  0.340438  0.998751  0.000000  1
  Rh  Rh24  1  0.000000  0.998751  0.340438  1
  Rh  Rh25  1  0.659562  0.658313  0.659562  1
