# generated using pymatgen
data_K9Rb3Sc2(AlSe6)2
_symmetry_space_group_name_H-M   'P 1'
_cell_length_a   13.79502112
_cell_length_b   8.30613269
_cell_length_c   10.61401251
_cell_angle_alpha   52.57312981
_cell_angle_beta   89.68807489
_cell_angle_gamma   89.75325886
_symmetry_Int_Tables_number   1
_chemical_formula_structural   K9Rb3Sc2(AlSe6)2
_chemical_formula_sum   'K9 Rb3 Sc2 Al2 Se12'
_cell_volume   965.79618122
_cell_formula_units_Z   1
loop_
 _symmetry_equiv_pos_site_id
 _symmetry_equiv_pos_as_xyz
  1  'x, y, z'
loop_
 _atom_site_type_symbol
 _atom_site_label
 _atom_site_symmetry_multiplicity
 _atom_site_fract_x
 _atom_site_fract_y
 _atom_site_fract_z
 _atom_site_occupancy
  K  K0  1  0.900081  0.325098  0.400583  1
  K  K1  1  0.621108  0.378604  0.472632  1
  K  K2  1  0.120823  0.621622  0.027186  1
  K  K3  1  0.378732  0.613797  0.530251  1
  K  K4  1  0.881629  0.386697  0.970529  1
  K  K5  1  0.609805  0.311336  0.899744  1
  K  K6  1  0.109648  0.688211  0.600665  1
  K  K7  1  0.395559  0.676988  0.099123  1
  K  K8  1  0.185726  0.161721  0.561515  1
  Rb  Rb9  1  0.317331  0.160892  0.057976  1
  Rb  Rb10  1  0.683777  0.837522  0.940601  1
  Rb  Rb11  1  0.819498  0.841801  0.442443  1
  Sc  Sc12  1  0.062595  0.949042  0.152129  1
  Sc  Sc13  1  0.559633  0.048696  0.347571  1
  Al  Al14  1  0.433299  0.948699  0.657158  1
  Al  Al15  1  0.936633  0.054074  0.841552  1
  Se  Se16  1  0.393997  0.177578  0.371284  1
  Se  Se17  1  0.896974  0.824299  0.128363  1
  Se  Se18  1  0.589737  0.806997  0.650851  1
  Se  Se19  1  0.094904  0.187314  0.848134  1
  Se  Se20  1  0.693189  0.314374  0.204246  1
  Se  Se21  1  0.192264  0.674947  0.300650  1
  Se  Se22  1  0.309758  0.692736  0.793036  1
  Se  Se23  1  0.814200  0.313709  0.705583  1
  Se  Se24  1  0.542728  0.856911  0.233953  1
  Se  Se25  1  0.046578  0.143455  0.264179  1
  Se  Se26  1  0.453906  0.132550  0.761306  1
  Se  Se27  1  0.955888  0.870327  0.736757  1
