# generated using pymatgen
data_Sc12ZnCo4Bi
_symmetry_space_group_name_H-M   'P 1'
_cell_length_a   7.80084287
_cell_length_b   7.80084054
_cell_length_c   7.80084043
_cell_angle_alpha   110.45354724
_cell_angle_beta   110.98011160
_cell_angle_gamma   107.00818133
_symmetry_Int_Tables_number   1
_chemical_formula_structural   Sc12ZnCo4Bi
_chemical_formula_sum   'Sc12 Zn1 Co4 Bi1'
_cell_volume   364.91670483
_cell_formula_units_Z   1
loop_
 _symmetry_equiv_pos_site_id
 _symmetry_equiv_pos_as_xyz
  1  'x, y, z'
loop_
 _atom_site_type_symbol
 _atom_site_label
 _atom_site_symmetry_multiplicity
 _atom_site_fract_x
 _atom_site_fract_y
 _atom_site_fract_z
 _atom_site_occupancy
  Sc  Sc0  1  0.279361  0.183791  0.463152  1
  Sc  Sc1  1  0.720639  0.816209  0.536848  1
  Sc  Sc2  1  0.279361  0.816209  0.095570  1
  Sc  Sc3  1  0.720639  0.183791  0.904430  1
  Sc  Sc4  1  0.616187  0.312277  0.303910  1
  Sc  Sc5  1  0.383813  0.687723  0.696090  1
  Sc  Sc6  1  0.008367  0.312277  0.696090  1
  Sc  Sc7  1  0.991633  0.687723  0.303910  1
  Sc  Sc8  1  0.224290  0.433933  0.209643  1
  Sc  Sc9  1  0.775710  0.566067  0.790357  1
  Sc  Sc10  1  0.224290  0.014646  0.790357  1
  Sc  Sc11  1  0.775710  0.985354  0.209643  1
  Zn  Zn12  1  0.000000  0.000000  0.000000  1
  Co  Co13  1  0.000000  0.365997  0.365997  1
  Co  Co14  1  0.000000  0.634003  0.634003  1
  Co  Co15  1  0.381529  0.881529  0.500000  1
  Co  Co16  1  0.618471  0.118471  0.500000  1
  Bi  Bi17  1  0.500000  0.500000  0.000000  1
