# generated using pymatgen
data_LaAs12Ru3Rh
_symmetry_space_group_name_H-M   'P 1'
_cell_length_a   7.45870319
_cell_length_b   7.45870407
_cell_length_c   7.45870400
_cell_angle_alpha   109.43939762
_cell_angle_beta   109.43940501
_cell_angle_gamma   109.43939841
_symmetry_Int_Tables_number   1
_chemical_formula_structural   LaAs12Ru3Rh
_chemical_formula_sum   'La1 As12 Ru3 Rh1'
_cell_volume   319.80023592
_cell_formula_units_Z   1
loop_
 _symmetry_equiv_pos_site_id
 _symmetry_equiv_pos_as_xyz
  1  'x, y, z'
loop_
 _atom_site_type_symbol
 _atom_site_label
 _atom_site_symmetry_multiplicity
 _atom_site_fract_x
 _atom_site_fract_y
 _atom_site_fract_z
 _atom_site_occupancy
  La  La0  1  0.000000  0.000000  0.000000  1
  As  As1  1  0.150650  0.803114  0.652855  1
  As  As2  1  0.849350  0.196886  0.347145  1
  As  As3  1  0.147374  0.497883  0.347151  1
  As  As4  1  0.852626  0.502117  0.652849  1
  As  As5  1  0.652855  0.150650  0.803114  1
  As  As6  1  0.347145  0.849350  0.196886  1
  As  As7  1  0.347151  0.147374  0.497883  1
  As  As8  1  0.652849  0.852626  0.502117  1
  As  As9  1  0.803114  0.652855  0.150650  1
  As  As10  1  0.196886  0.347145  0.849350  1
  As  As11  1  0.497883  0.347151  0.147374  1
  As  As12  1  0.502117  0.652849  0.852626  1
  Ru  Ru13  1  0.500000  0.000000  0.000000  1
  Ru  Ru14  1  0.000000  0.000000  0.500000  1
  Ru  Ru15  1  0.000000  0.500000  0.000000  1
  Rh  Rh16  1  0.500000  0.500000  0.500000  1
