# generated using pymatgen
data_Co6ReSiMo5
_symmetry_space_group_name_H-M   'P 1'
_cell_length_a   8.87283166
_cell_length_b   8.87283234
_cell_length_c   8.87283238
_cell_angle_alpha   31.11868824
_cell_angle_beta   31.11868305
_cell_angle_gamma   31.11867719
_symmetry_Int_Tables_number   1
_chemical_formula_structural   Co6ReSiMo5
_chemical_formula_sum   'Co6 Re1 Si1 Mo5'
_cell_volume   165.54360852
_cell_formula_units_Z   1
loop_
 _symmetry_equiv_pos_site_id
 _symmetry_equiv_pos_as_xyz
  1  'x, y, z'
loop_
 _atom_site_type_symbol
 _atom_site_label
 _atom_site_symmetry_multiplicity
 _atom_site_fract_x
 _atom_site_fract_y
 _atom_site_fract_z
 _atom_site_occupancy
  Co  Co0  1  0.090541  0.090541  0.588445  1
  Co  Co1  1  0.413569  0.908447  0.908447  1
  Co  Co2  1  0.588445  0.090541  0.090541  1
  Co  Co3  1  0.908447  0.908447  0.413569  1
  Co  Co4  1  0.908447  0.413569  0.908447  1
  Co  Co5  1  0.090541  0.588445  0.090541  1
  Re  Re6  1  0.831557  0.831557  0.831557  1
  Si  Si7  1  0.000154  0.000154  0.000154  1
  Mo  Mo8  1  0.652644  0.652644  0.652644  1
  Mo  Mo9  1  0.451130  0.451130  0.451130  1
  Mo  Mo10  1  0.549001  0.549001  0.549001  1
  Mo  Mo11  1  0.168320  0.168320  0.168320  1
  Mo  Mo12  1  0.347204  0.347204  0.347204  1
