# generated using pymatgen
data_Ti2NbZnPd12
_symmetry_space_group_name_H-M   'P 1'
_cell_length_a   5.58605900
_cell_length_b   5.58605875
_cell_length_c   9.05543300
_cell_angle_alpha   90.00000000
_cell_angle_beta   90.00000000
_cell_angle_gamma   119.99999556
_symmetry_Int_Tables_number   1
_chemical_formula_structural   Ti2NbZnPd12
_chemical_formula_sum   'Ti2 Nb1 Zn1 Pd12'
_cell_volume   244.70953403
_cell_formula_units_Z   1
loop_
 _symmetry_equiv_pos_site_id
 _symmetry_equiv_pos_as_xyz
  1  'x, y, z'
loop_
 _atom_site_type_symbol
 _atom_site_label
 _atom_site_symmetry_multiplicity
 _atom_site_fract_x
 _atom_site_fract_y
 _atom_site_fract_z
 _atom_site_occupancy
  Ti  Ti0  1  0.000000  0.000000  0.999782  1
  Ti  Ti1  1  0.666667  0.333333  0.752440  1
  Nb  Nb2  1  0.000000  0.000000  0.499324  1
  Zn  Zn3  1  0.333333  0.666667  0.249174  1
  Pd  Pd4  1  0.501253  0.498747  0.502091  1
  Pd  Pd5  1  0.501253  0.002504  0.502091  1
  Pd  Pd6  1  0.997496  0.498747  0.502091  1
  Pd  Pd7  1  0.501388  0.498612  0.997621  1
  Pd  Pd8  1  0.501388  0.002777  0.997621  1
  Pd  Pd9  1  0.997223  0.498612  0.997621  1
  Pd  Pd10  1  0.833410  0.666822  0.249335  1
  Pd  Pd11  1  0.333178  0.166590  0.249335  1
  Pd  Pd12  1  0.833410  0.166590  0.249335  1
  Pd  Pd13  1  0.166500  0.333000  0.750714  1
  Pd  Pd14  1  0.667000  0.833500  0.750714  1
  Pd  Pd15  1  0.166500  0.833500  0.750714  1
