# generated using pymatgen
data_Dy3ZnCd(HgAu)2
_symmetry_space_group_name_H-M   'P 1'
_cell_length_a   7.92347391
_cell_length_b   7.92347485
_cell_length_c   3.76203000
_cell_angle_alpha   90.00000000
_cell_angle_beta   90.00000000
_cell_angle_gamma   120.25691208
_symmetry_Int_Tables_number   1
_chemical_formula_structural   Dy3ZnCd(HgAu)2
_chemical_formula_sum   'Dy3 Zn1 Cd1 Hg2 Au2'
_cell_volume   204.01122446
_cell_formula_units_Z   1
loop_
 _symmetry_equiv_pos_site_id
 _symmetry_equiv_pos_as_xyz
  1  'x, y, z'
loop_
 _atom_site_type_symbol
 _atom_site_label
 _atom_site_symmetry_multiplicity
 _atom_site_fract_x
 _atom_site_fract_y
 _atom_site_fract_z
 _atom_site_occupancy
  Dy  Dy0  1  0.588882  0.004015  0.000000  1
  Dy  Dy1  1  0.004015  0.588882  0.000000  1
  Dy  Dy2  1  0.404697  0.404697  0.000000  1
  Zn  Zn3  1  0.997751  0.997751  0.000000  1
  Cd  Cd4  1  0.742176  0.742176  0.500000  1
  Hg  Hg5  1  0.258690  0.996997  0.500000  1
  Hg  Hg6  1  0.996997  0.258690  0.500000  1
  Au  Au7  1  0.339478  0.667315  0.500000  1
  Au  Au8  1  0.667315  0.339478  0.500000  1
