# generated using pymatgen
data_DyLu2Ga5Ni
_symmetry_space_group_name_H-M   'P 1'
_cell_length_a   6.78833700
_cell_length_b   6.84296997
_cell_length_c   4.19812100
_cell_angle_alpha   90.00000000
_cell_angle_beta   90.00000000
_cell_angle_gamma   119.73625211
_symmetry_Int_Tables_number   1
_chemical_formula_structural   DyLu2Ga5Ni
_chemical_formula_sum   'Dy1 Lu2 Ga5 Ni1'
_cell_volume   169.33304232
_cell_formula_units_Z   1
loop_
 _symmetry_equiv_pos_site_id
 _symmetry_equiv_pos_as_xyz
  1  'x, y, z'
loop_
 _atom_site_type_symbol
 _atom_site_label
 _atom_site_symmetry_multiplicity
 _atom_site_fract_x
 _atom_site_fract_y
 _atom_site_fract_z
 _atom_site_occupancy
  Dy  Dy0  1  0.591210  0.000000  0.500000  1
  Lu  Lu1  1  0.404148  0.405351  0.500000  1
  Lu  Lu2  1  0.998796  0.594649  0.500000  1
  Ga  Ga3  1  0.236281  0.000000  0.000000  1
  Ga  Ga4  1  0.000396  0.236336  0.000000  1
  Ga  Ga5  1  0.668033  0.337510  0.000000  1
  Ga  Ga6  1  0.330522  0.662490  0.000000  1
  Ga  Ga7  1  0.764060  0.763664  0.000000  1
  Ni  Ni8  1  0.006554  0.000000  0.500000  1
