# generated using pymatgen
data_Ti3Co4ReSi3Ge
_symmetry_space_group_name_H-M   'P 1'
_cell_length_a   3.69648700
_cell_length_b   6.07160812
_cell_length_c   6.92563256
_cell_angle_alpha   88.99004184
_cell_angle_beta   90.00000000
_cell_angle_gamma   90.00000000
_symmetry_Int_Tables_number   1
_chemical_formula_structural   Ti3Co4ReSi3Ge
_chemical_formula_sum   'Ti3 Co4 Re1 Si3 Ge1'
_cell_volume   155.41212117
_cell_formula_units_Z   1
loop_
 _symmetry_equiv_pos_site_id
 _symmetry_equiv_pos_as_xyz
  1  'x, y, z'
loop_
 _atom_site_type_symbol
 _atom_site_label
 _atom_site_symmetry_multiplicity
 _atom_site_fract_x
 _atom_site_fract_y
 _atom_site_fract_z
 _atom_site_occupancy
  Ti  Ti0  1  0.750000  0.470125  0.310785  1
  Ti  Ti1  1  0.250000  0.519688  0.694557  1
  Ti  Ti2  1  0.750000  0.981593  0.180109  1
  Co  Co3  1  0.250000  0.643507  0.057432  1
  Co  Co4  1  0.750000  0.361445  0.936053  1
  Co  Co5  1  0.250000  0.150261  0.437828  1
  Co  Co6  1  0.750000  0.857150  0.564987  1
  Re  Re7  1  0.250000  0.023602  0.822149  1
  Si  Si8  1  0.750000  0.738434  0.879570  1
  Si  Si9  1  0.750000  0.221494  0.625966  1
  Si  Si10  1  0.250000  0.268558  0.109896  1
  Ge  Ge11  1  0.250000  0.764146  0.380666  1
