# generated using pymatgen
data_La4NdSn15Ir8
_symmetry_space_group_name_H-M   'P 1'
_cell_length_a   4.54989000
_cell_length_b   7.37268207
_cell_length_c   18.80071108
_cell_angle_alpha   89.93806853
_cell_angle_beta   90.00000000
_cell_angle_gamma   90.00000000
_symmetry_Int_Tables_number   1
_chemical_formula_structural   La4NdSn15Ir8
_chemical_formula_sum   'La4 Nd1 Sn15 Ir8'
_cell_volume   630.66746240
_cell_formula_units_Z   1
loop_
 _symmetry_equiv_pos_site_id
 _symmetry_equiv_pos_as_xyz
  1  'x, y, z'
loop_
 _atom_site_type_symbol
 _atom_site_label
 _atom_site_symmetry_multiplicity
 _atom_site_fract_x
 _atom_site_fract_y
 _atom_site_fract_z
 _atom_site_occupancy
  La  La0  1  0.500000  0.002231  0.856028  1
  La  La1  1  0.500000  0.499155  0.357509  1
  La  La2  1  0.000000  0.999281  0.143808  1
  La  La3  1  0.000000  0.501372  0.642031  1
  Nd  Nd4  1  0.500000  0.490832  0.930799  1
  Sn  Sn5  1  0.000000  0.717240  0.805734  1
  Sn  Sn6  1  0.000000  0.780685  0.306532  1
  Sn  Sn7  1  0.500000  0.278036  0.193711  1
  Sn  Sn8  1  0.500000  0.218005  0.692684  1
  Sn  Sn9  1  0.000000  0.853191  0.969674  1
  Sn  Sn10  1  0.000000  0.632517  0.468182  1
  Sn  Sn11  1  0.500000  0.135034  0.032384  1
  Sn  Sn12  1  0.500000  0.365510  0.531336  1
  Sn  Sn13  1  0.000000  0.305905  0.818326  1
  Sn  Sn14  1  0.000000  0.197881  0.317725  1
  Sn  Sn15  1  0.500000  0.696482  0.185964  1
  Sn  Sn16  1  0.500000  0.809044  0.678808  1
  Sn  Sn17  1  0.500000  0.020281  0.433497  1
  Sn  Sn18  1  0.000000  0.513428  0.067669  1
  Sn  Sn19  1  0.000000  0.980124  0.567844  1
  Ir  Ir20  1  0.000000  0.229207  0.964474  1
  Ir  Ir21  1  0.000000  0.248281  0.464465  1
  Ir  Ir22  1  0.500000  0.765477  0.044867  1
  Ir  Ir23  1  0.500000  0.750228  0.533599  1
  Ir  Ir24  1  0.000000  0.018571  0.715849  1
  Ir  Ir25  1  0.000000  0.483241  0.214659  1
  Ir  Ir26  1  0.500000  0.987391  0.288610  1
  Ir  Ir27  1  0.500000  0.521367  0.773236  1
