# generated using pymatgen
data_Ho7ErTi9Si16Tc3
_symmetry_space_group_name_H-M   'P 1'
_cell_length_a   6.96569593
_cell_length_b   6.96580510
_cell_length_c   12.78983455
_cell_angle_alpha   90.07017596
_cell_angle_beta   89.93163841
_cell_angle_gamma   90.02741464
_symmetry_Int_Tables_number   1
_chemical_formula_structural   Ho7ErTi9Si16Tc3
_chemical_formula_sum   'Ho7 Er1 Ti9 Si16 Tc3'
_cell_volume   620.58328447
_cell_formula_units_Z   1
loop_
 _symmetry_equiv_pos_site_id
 _symmetry_equiv_pos_as_xyz
  1  'x, y, z'
loop_
 _atom_site_type_symbol
 _atom_site_label
 _atom_site_symmetry_multiplicity
 _atom_site_fract_x
 _atom_site_fract_y
 _atom_site_fract_z
 _atom_site_occupancy
  Ho  Ho0  1  0.498807  0.841597  0.719404  1
  Ho  Ho1  1  0.500232  0.158789  0.217877  1
  Ho  Ho2  1  0.841571  0.498832  0.280583  1
  Ho  Ho3  1  0.158796  0.500238  0.782142  1
  Ho  Ho4  1  0.658912  0.999453  0.968496  1
  Ho  Ho5  1  0.001484  0.340549  0.532602  1
  Ho  Ho6  1  0.999448  0.658921  0.031486  1
  Er  Er7  1  0.340673  0.001304  0.467420  1
  Ti  Ti8  1  0.673932  0.674044  0.499979  1
  Ti  Ti9  1  0.151851  0.005643  0.877173  1
  Ti  Ti10  1  0.494332  0.653364  0.124477  1
  Ti  Ti11  1  0.505128  0.347964  0.627519  1
  Ti  Ti12  1  0.653351  0.494328  0.875523  1
  Ti  Ti13  1  0.348008  0.505170  0.372457  1
  Ti  Ti14  1  0.847503  0.992164  0.375982  1
  Ti  Ti15  1  0.005663  0.151846  0.122817  1
  Ti  Ti16  1  0.992212  0.847477  0.624000  1
  Si  Si17  1  0.200336  0.129444  0.683765  1
  Si  Si18  1  0.370277  0.700637  0.932976  1
  Si  Si19  1  0.631282  0.296907  0.434189  1
  Si  Si20  1  0.700634  0.370262  0.067001  1
  Si  Si21  1  0.297012  0.631544  0.565757  1
  Si  Si22  1  0.798944  0.869993  0.183548  1
  Si  Si23  1  0.129552  0.200228  0.316266  1
  Si  Si24  1  0.869994  0.798957  0.816468  1
  Si  Si25  1  0.290753  0.951994  0.066705  1
  Si  Si26  1  0.547152  0.790586  0.315859  1
  Si  Si27  1  0.452129  0.210272  0.816753  1
  Si  Si28  1  0.790512  0.547250  0.684216  1
  Si  Si29  1  0.210277  0.452106  0.183265  1
  Si  Si30  1  0.707765  0.049203  0.567421  1
  Si  Si31  1  0.951975  0.290744  0.933270  1
  Si  Si32  1  0.049325  0.708025  0.432532  1
  Tc  Tc33  1  0.327875  0.327873  0.000012  1
  Tc  Tc34  1  0.173998  0.828326  0.248841  1
  Tc  Tc35  1  0.828302  0.173968  0.751218  1
