# generated using pymatgen
data_RbInSnO4
_symmetry_space_group_name_H-M   'P 1'
_cell_length_a   3.27323000
_cell_length_b   6.80530534
_cell_length_c   5.61122811
_cell_angle_alpha   71.69580354
_cell_angle_beta   90.00000000
_cell_angle_gamma   90.00000000
_symmetry_Int_Tables_number   1
_chemical_formula_structural   RbInSnO4
_chemical_formula_sum   'Rb1 In1 Sn1 O4'
_cell_volume   118.66767231
_cell_formula_units_Z   1
loop_
 _symmetry_equiv_pos_site_id
 _symmetry_equiv_pos_as_xyz
  1  'x, y, z'
loop_
 _atom_site_type_symbol
 _atom_site_label
 _atom_site_symmetry_multiplicity
 _atom_site_fract_x
 _atom_site_fract_y
 _atom_site_fract_z
 _atom_site_occupancy
  Rb  Rb0  1  0.500000  0.502225  0.667311  1
  In  In1  1  0.500000  0.021583  0.490418  1
  Sn  Sn2  1  0.000000  0.982004  0.005978  1
  O  O3  1  0.000000  0.837230  0.391137  1
  O  O4  1  0.500000  0.825744  0.901429  1
  O  O5  1  0.000000  0.171728  0.624973  1
  O  O6  1  0.500000  0.158605  0.085713  1
