# generated using pymatgen
data_TbHo3(Fe3Os)2
_symmetry_space_group_name_H-M   'P 1'
_cell_length_a   5.20360150
_cell_length_b   5.20360136
_cell_length_c   8.96784358
_cell_angle_alpha   72.83890961
_cell_angle_beta   90.54698724
_cell_angle_gamma   120.52734321
_symmetry_Int_Tables_number   1
_chemical_formula_structural   TbHo3(Fe3Os)2
_chemical_formula_sum   'Tb1 Ho3 Fe6 Os2'
_cell_volume   196.92881466
_cell_formula_units_Z   1
loop_
 _symmetry_equiv_pos_site_id
 _symmetry_equiv_pos_as_xyz
  1  'x, y, z'
loop_
 _atom_site_type_symbol
 _atom_site_label
 _atom_site_symmetry_multiplicity
 _atom_site_fract_x
 _atom_site_fract_y
 _atom_site_fract_z
 _atom_site_occupancy
  Tb  Tb0  1  0.875521  0.749487  0.374992  1
  Ho  Ho1  1  0.375505  0.749632  0.874863  1
  Ho  Ho2  1  0.999575  0.000685  0.999740  1
  Ho  Ho3  1  0.499292  0.000245  0.500464  1
  Fe  Fe4  1  0.437727  0.875510  0.186517  1
  Fe  Fe5  1  0.937423  0.874712  0.688419  1
  Fe  Fe6  1  0.187357  0.374668  0.437975  1
  Fe  Fe7  1  0.687639  0.375206  0.937155  1
  Fe  Fe8  1  0.937973  0.375755  0.186517  1
  Fe  Fe9  1  0.436869  0.374158  0.688419  1
  Os  Os10  1  0.437655  0.375817  0.186528  1
  Os  Os11  1  0.937464  0.374124  0.688412  1
