# generated using pymatgen
data_U2IrPdF24
_symmetry_space_group_name_H-M   'P 1'
_cell_length_a   5.27228770
_cell_length_b   9.10235100
_cell_length_c   9.98370602
_cell_angle_alpha   90.00000000
_cell_angle_beta   90.34713537
_cell_angle_gamma   90.00000000
_symmetry_Int_Tables_number   1
_chemical_formula_structural   U2IrPdF24
_chemical_formula_sum   'U2 Ir1 Pd1 F24'
_cell_volume   479.11138698
_cell_formula_units_Z   1
loop_
 _symmetry_equiv_pos_site_id
 _symmetry_equiv_pos_as_xyz
  1  'x, y, z'
loop_
 _atom_site_type_symbol
 _atom_site_label
 _atom_site_symmetry_multiplicity
 _atom_site_fract_x
 _atom_site_fract_y
 _atom_site_fract_z
 _atom_site_occupancy
  U  U0  1  0.408568  0.750000  0.125934  1
  U  U1  1  0.093068  0.750000  0.627576  1
  Ir  Ir2  1  0.905664  0.250000  0.372703  1
  Pd  Pd3  1  0.594049  0.250000  0.873084  1
  F  F4  1  0.253547  0.591984  0.513143  1
  F  F5  1  0.244098  0.907391  0.012463  1
  F  F6  1  0.932305  0.907296  0.740962  1
  F  F7  1  0.190313  0.250000  0.485650  1
  F  F8  1  0.744904  0.103350  0.982228  1
  F  F9  1  0.568047  0.908106  0.241193  1
  F  F10  1  0.304668  0.250000  0.985531  1
  F  F11  1  0.253547  0.908016  0.513143  1
  F  F12  1  0.756080  0.394781  0.479364  1
  F  F13  1  0.442804  0.396414  0.764013  1
  F  F14  1  0.744904  0.396650  0.982228  1
  F  F15  1  0.782940  0.750000  0.506674  1
  F  F16  1  0.717419  0.750000  0.006785  1
  F  F17  1  0.244098  0.592609  0.012463  1
  F  F18  1  0.442804  0.103586  0.764013  1
  F  F19  1  0.055629  0.394560  0.265920  1
  F  F20  1  0.620706  0.250000  0.259931  1
  F  F21  1  0.568047  0.591894  0.241193  1
  F  F22  1  0.884100  0.250000  0.760873  1
  F  F23  1  0.100973  0.750000  0.247499  1
  F  F24  1  0.055629  0.105440  0.265920  1
  F  F25  1  0.932305  0.592704  0.740962  1
  F  F26  1  0.402701  0.750000  0.749188  1
  F  F27  1  0.756080  0.105219  0.479364  1
