# generated using pymatgen
data_Ho3Tm9InCo4Ir
_symmetry_space_group_name_H-M   'P 1'
_cell_length_a   8.19078941
_cell_length_b   8.19078957
_cell_length_c   8.18987479
_cell_angle_alpha   110.88213908
_cell_angle_beta   111.16272449
_cell_angle_gamma   106.41635011
_symmetry_Int_Tables_number   1
_chemical_formula_structural   Ho3Tm9InCo4Ir
_chemical_formula_sum   'Ho3 Tm9 In1 Co4 Ir1'
_cell_volume   422.04275025
_cell_formula_units_Z   1
loop_
 _symmetry_equiv_pos_site_id
 _symmetry_equiv_pos_as_xyz
  1  'x, y, z'
loop_
 _atom_site_type_symbol
 _atom_site_label
 _atom_site_symmetry_multiplicity
 _atom_site_fract_x
 _atom_site_fract_y
 _atom_site_fract_z
 _atom_site_occupancy
  Ho  Ho0  1  0.286656  0.185432  0.472087  1
  Ho  Ho1  1  0.713786  0.815067  0.528854  1
  Ho  Ho2  1  0.286332  0.814439  0.100771  1
  Tm  Tm3  1  0.714257  0.184888  0.899147  1
  Tm  Tm4  1  0.620400  0.314478  0.305307  1
  Tm  Tm5  1  0.379867  0.685834  0.694378  1
  Tm  Tm6  1  0.008545  0.314511  0.694378  1
  Tm  Tm7  1  0.990828  0.684907  0.305307  1
  Tm  Tm8  1  0.216204  0.411119  0.194137  1
  Tm  Tm9  1  0.783129  0.588133  0.805603  1
  Tm  Tm10  1  0.217472  0.022475  0.805603  1
  Tm  Tm11  1  0.783017  0.977931  0.194137  1
  In  In12  1  0.499934  0.499968  0.999901  1
  Co  Co13  1  0.999544  0.377186  0.376729  1
  Co  Co14  1  0.000080  0.622616  0.622696  1
  Co  Co15  1  0.388031  0.888110  0.500938  1
  Co  Co16  1  0.612828  0.112907  0.500938  1
  Ir  Ir17  1  0.999090  0.999999  0.999089  1
