# generated using pymatgen
data_TmLu15(Ga3Co)2
_symmetry_space_group_name_H-M   'P 1'
_cell_length_a   9.81664500
_cell_length_b   9.81664443
_cell_length_c   6.78602700
_cell_angle_alpha   90.00000000
_cell_angle_beta   90.00000000
_cell_angle_gamma   120.00000530
_symmetry_Int_Tables_number   1
_chemical_formula_structural   TmLu15(Ga3Co)2
_chemical_formula_sum   'Tm1 Lu15 Ga6 Co2'
_cell_volume   566.33361240
_cell_formula_units_Z   1
loop_
 _symmetry_equiv_pos_site_id
 _symmetry_equiv_pos_as_xyz
  1  'x, y, z'
loop_
 _atom_site_type_symbol
 _atom_site_label
 _atom_site_symmetry_multiplicity
 _atom_site_fract_x
 _atom_site_fract_y
 _atom_site_fract_z
 _atom_site_occupancy
  Tm  Tm0  1  0.000000  0.000000  0.768154  1
  Lu  Lu1  1  0.173614  0.826386  0.990155  1
  Lu  Lu2  1  0.347214  0.173607  0.489745  1
  Lu  Lu3  1  0.826393  0.652786  0.489745  1
  Lu  Lu4  1  0.173614  0.347227  0.990155  1
  Lu  Lu5  1  0.652773  0.826386  0.990155  1
  Lu  Lu6  1  0.826393  0.173607  0.489745  1
  Lu  Lu7  1  0.333333  0.666667  0.671674  1
  Lu  Lu8  1  0.666667  0.333333  0.171787  1
  Lu  Lu9  1  0.464165  0.535835  0.292185  1
  Lu  Lu10  1  0.928341  0.464171  0.792153  1
  Lu  Lu11  1  0.535829  0.071659  0.792153  1
  Lu  Lu12  1  0.464165  0.928329  0.292185  1
  Lu  Lu13  1  0.071671  0.535835  0.292185  1
  Lu  Lu14  1  0.535829  0.464171  0.792153  1
  Lu  Lu15  1  0.000000  0.000000  0.267789  1
  Ga  Ga16  1  0.163440  0.836560  0.539456  1
  Ga  Ga17  1  0.326837  0.163418  0.039806  1
  Ga  Ga18  1  0.836582  0.673163  0.039806  1
  Ga  Ga19  1  0.163440  0.326880  0.539456  1
  Ga  Ga20  1  0.673120  0.836560  0.539456  1
  Ga  Ga21  1  0.836582  0.163418  0.039806  1
  Co  Co22  1  0.333333  0.666667  0.056919  1
  Co  Co23  1  0.666667  0.333333  0.557186  1
