# generated using pymatgen
data_KLa2NdB24
_symmetry_space_group_name_H-M   'P 1'
_cell_length_a   7.18945258
_cell_length_b   7.18945265
_cell_length_c   5.91359500
_cell_angle_alpha   90.00000000
_cell_angle_beta   90.00000000
_cell_angle_gamma   109.21573990
_symmetry_Int_Tables_number   1
_chemical_formula_structural   KLa2NdB24
_chemical_formula_sum   'K1 La2 Nd1 B24'
_cell_volume   288.63352680
_cell_formula_units_Z   1
loop_
 _symmetry_equiv_pos_site_id
 _symmetry_equiv_pos_as_xyz
  1  'x, y, z'
loop_
 _atom_site_type_symbol
 _atom_site_label
 _atom_site_symmetry_multiplicity
 _atom_site_fract_x
 _atom_site_fract_y
 _atom_site_fract_z
 _atom_site_occupancy
  K  K0  1  0.000000  0.000000  0.000000  1
  La  La1  1  0.751578  0.248422  0.500000  1
  La  La2  1  0.248422  0.751578  0.500000  1
  Nd  Nd3  1  0.500000  0.500000  0.000000  1
  B  B4  1  0.176060  0.325765  0.649320  1
  B  B5  1  0.924218  0.574719  0.148393  1
  B  B6  1  0.674235  0.823940  0.649320  1
  B  B7  1  0.425281  0.075782  0.148393  1
  B  B8  1  0.176060  0.325765  0.350680  1
  B  B9  1  0.924218  0.574719  0.851607  1
  B  B10  1  0.674235  0.823940  0.350680  1
  B  B11  1  0.425281  0.075782  0.851607  1
  B  B12  1  0.400197  0.400197  0.500000  1
  B  B13  1  0.148313  0.650686  0.000000  1
  B  B14  1  0.898677  0.898677  0.500000  1
  B  B15  1  0.650686  0.148313  0.000000  1
  B  B16  1  0.325765  0.176060  0.649320  1
  B  B17  1  0.075782  0.425281  0.148393  1
  B  B18  1  0.823940  0.674235  0.649320  1
  B  B19  1  0.574719  0.924218  0.148393  1
  B  B20  1  0.101323  0.101323  0.500000  1
  B  B21  1  0.851687  0.349314  0.000000  1
  B  B22  1  0.599803  0.599803  0.500000  1
  B  B23  1  0.349314  0.851687  0.000000  1
  B  B24  1  0.325765  0.176060  0.350680  1
  B  B25  1  0.075782  0.425281  0.851607  1
  B  B26  1  0.823940  0.674235  0.350680  1
  B  B27  1  0.574719  0.924218  0.851607  1
