# generated using pymatgen
data_Tb3Co8P6W
_symmetry_space_group_name_H-M   'P 1'
_cell_length_a   3.72153100
_cell_length_b   10.55127300
_cell_length_c   12.25701100
_cell_angle_alpha   90.00000000
_cell_angle_beta   90.00000000
_cell_angle_gamma   90.00000000
_symmetry_Int_Tables_number   1
_chemical_formula_structural   Tb3Co8P6W
_chemical_formula_sum   'Tb6 Co16 P12 W2'
_cell_volume   481.29469726
_cell_formula_units_Z   2
loop_
 _symmetry_equiv_pos_site_id
 _symmetry_equiv_pos_as_xyz
  1  'x, y, z'
loop_
 _atom_site_type_symbol
 _atom_site_label
 _atom_site_symmetry_multiplicity
 _atom_site_fract_x
 _atom_site_fract_y
 _atom_site_fract_z
 _atom_site_occupancy
  Tb  Tb0  1  0.000000  0.500000  0.523940  1
  Tb  Tb1  1  0.500000  0.000000  0.476060  1
  Tb  Tb2  1  0.500000  0.819262  0.205120  1
  Tb  Tb3  1  0.500000  0.180738  0.205120  1
  Tb  Tb4  1  0.000000  0.680738  0.794880  1
  Tb  Tb5  1  0.000000  0.319262  0.794880  1
  Co  Co6  1  0.500000  0.500000  0.701665  1
  Co  Co7  1  0.000000  0.000000  0.298335  1
  Co  Co8  1  0.000000  0.500000  0.987026  1
  Co  Co9  1  0.500000  0.000000  0.012974  1
  Co  Co10  1  0.500000  0.332646  0.990779  1
  Co  Co11  1  0.500000  0.667354  0.990779  1
  Co  Co12  1  0.000000  0.167354  0.009221  1
  Co  Co13  1  0.000000  0.832646  0.009221  1
  Co  Co14  1  0.500000  0.296003  0.431196  1
  Co  Co15  1  0.500000  0.703997  0.431196  1
  Co  Co16  1  0.000000  0.203997  0.568804  1
  Co  Co17  1  0.000000  0.796003  0.568804  1
  Co  Co18  1  0.500000  0.878586  0.707992  1
  Co  Co19  1  0.500000  0.121414  0.707992  1
  Co  Co20  1  0.000000  0.621414  0.292008  1
  Co  Co21  1  0.000000  0.378586  0.292008  1
  P  P22  1  0.500000  0.500000  0.881035  1
  P  P23  1  0.000000  0.000000  0.118965  1
  P  P24  1  0.500000  0.500000  0.349504  1
  P  P25  1  0.000000  0.000000  0.650496  1
  P  P26  1  0.500000  0.310854  0.615634  1
  P  P27  1  0.500000  0.689146  0.615634  1
  P  P28  1  0.000000  0.189146  0.384366  1
  P  P29  1  0.000000  0.810854  0.384366  1
  P  P30  1  0.500000  0.844353  0.893082  1
  P  P31  1  0.500000  0.155647  0.893082  1
  P  P32  1  0.000000  0.655647  0.106918  1
  P  P33  1  0.000000  0.344353  0.106918  1
  W  W34  1  0.500000  0.500000  0.155826  1
  W  W35  1  0.000000  0.000000  0.844174  1
