# generated using pymatgen
data_Zr24Ir5Rh3
_symmetry_space_group_name_H-M   'P 1'
_cell_length_a   10.86108300
_cell_length_b   10.88863201
_cell_length_c   5.68251401
_cell_angle_alpha   90.00534503
_cell_angle_beta   90.00000000
_cell_angle_gamma   90.00000000
_symmetry_Int_Tables_number   1
_chemical_formula_structural   Zr24Ir5Rh3
_chemical_formula_sum   'Zr24 Ir5 Rh3'
_cell_volume   672.02737801
_cell_formula_units_Z   1
loop_
 _symmetry_equiv_pos_site_id
 _symmetry_equiv_pos_as_xyz
  1  'x, y, z'
loop_
 _atom_site_type_symbol
 _atom_site_label
 _atom_site_symmetry_multiplicity
 _atom_site_fract_x
 _atom_site_fract_y
 _atom_site_fract_z
 _atom_site_occupancy
  Zr  Zr0  1  0.595958  0.096923  0.000823  1
  Zr  Zr1  1  0.291626  0.207544  0.000067  1
  Zr  Zr2  1  0.791794  0.292076  0.001433  1
  Zr  Zr3  1  0.095696  0.403610  0.000836  1
  Zr  Zr4  1  0.904403  0.596502  0.000941  1
  Zr  Zr5  1  0.208024  0.708311  0.000447  1
  Zr  Zr6  1  0.708024  0.792073  0.000917  1
  Zr  Zr7  1  0.403940  0.903532  0.999668  1
  Zr  Zr8  1  0.148272  0.000000  0.250001  1
  Zr  Zr9  1  0.851764  0.000000  0.250001  1
  Zr  Zr10  1  0.351789  0.500000  0.250001  1
  Zr  Zr11  1  0.648067  0.500000  0.250001  1
  Zr  Zr12  1  0.403940  0.096468  0.500331  1
  Zr  Zr13  1  0.708024  0.207927  0.499082  1
  Zr  Zr14  1  0.208024  0.291689  0.499552  1
  Zr  Zr15  1  0.904403  0.403498  0.499058  1
  Zr  Zr16  1  0.095696  0.596390  0.499163  1
  Zr  Zr17  1  0.791794  0.707924  0.498566  1
  Zr  Zr18  1  0.291626  0.792456  0.499932  1
  Zr  Zr19  1  0.595958  0.903077  0.499176  1
  Zr  Zr20  1  0.000663  0.148572  0.749870  1
  Zr  Zr21  1  0.499960  0.351039  0.749837  1
  Zr  Zr22  1  0.499960  0.648961  0.750163  1
  Zr  Zr23  1  0.000663  0.851428  0.750130  1
  Ir  Ir24  1  0.999297  0.203808  0.249776  1
  Ir  Ir25  1  0.500167  0.297140  0.249836  1
  Ir  Ir26  1  0.500167  0.702860  0.250166  1
  Ir  Ir27  1  0.999297  0.796192  0.250226  1
  Ir  Ir28  1  0.203929  0.000000  0.750000  1
  Rh  Rh29  1  0.797052  0.000000  0.750000  1
  Rh  Rh30  1  0.297270  0.500000  0.750000  1
  Rh  Rh31  1  0.702755  0.500000  0.750000  1
