# generated using pymatgen
data_CeEr(MnAl5)4
_symmetry_space_group_name_H-M   'P 1'
_cell_length_a   6.80556754
_cell_length_b   6.80473645
_cell_length_c   9.05072805
_cell_angle_alpha   90.00558985
_cell_angle_beta   89.99115964
_cell_angle_gamma   97.42700226
_symmetry_Int_Tables_number   1
_chemical_formula_structural   CeEr(MnAl5)4
_chemical_formula_sum   'Ce1 Er1 Mn4 Al20'
_cell_volume   415.62361909
_cell_formula_units_Z   1
loop_
 _symmetry_equiv_pos_site_id
 _symmetry_equiv_pos_as_xyz
  1  'x, y, z'
loop_
 _atom_site_type_symbol
 _atom_site_label
 _atom_site_symmetry_multiplicity
 _atom_site_fract_x
 _atom_site_fract_y
 _atom_site_fract_z
 _atom_site_occupancy
  Ce  Ce0  1  0.874879  0.124846  0.250123  1
  Er  Er1  1  0.126688  0.873546  0.750379  1
  Mn  Mn2  1  0.999213  0.499250  0.500352  1
  Mn  Mn3  1  0.999302  0.498857  0.999646  1
  Mn  Mn4  1  0.501260  0.000617  0.500223  1
  Mn  Mn5  1  0.501133  0.000235  0.999570  1
  Al  Al6  1  0.229214  0.228871  0.501647  1
  Al  Al7  1  0.771119  0.770754  0.998280  1
  Al  Al8  1  0.771218  0.770931  0.501639  1
  Al  Al9  1  0.229228  0.228791  0.998354  1
  Al  Al10  1  0.373937  0.626126  0.545639  1
  Al  Al11  1  0.625454  0.374328  0.046033  1
  Al  Al12  1  0.586343  0.866937  0.749892  1
  Al  Al13  1  0.409405  0.132967  0.249965  1
  Al  Al14  1  0.866895  0.590663  0.249988  1
  Al  Al15  1  0.133118  0.413639  0.749933  1
  Al  Al16  1  0.475544  0.217476  0.749791  1
  Al  Al17  1  0.522922  0.781245  0.250017  1
  Al  Al18  1  0.218472  0.476968  0.250121  1
  Al  Al19  1  0.782795  0.524639  0.749886  1
  Al  Al20  1  0.158028  0.842239  0.403586  1
  Al  Al21  1  0.843118  0.156798  0.902065  1
  Al  Al22  1  0.843309  0.156851  0.597831  1
  Al  Al23  1  0.157988  0.841966  0.096833  1
  Al  Al24  1  0.373886  0.625989  0.954408  1
  Al  Al25  1  0.625528  0.374468  0.453798  1
