# generated using pymatgen
data_CaDy9(In2Ir)4
_symmetry_space_group_name_H-M   'P 1'
_cell_length_a   3.66537800
_cell_length_b   8.02582442
_cell_length_c   18.32532650
_cell_angle_alpha   89.85542688
_cell_angle_beta   90.00000000
_cell_angle_gamma   90.00000000
_symmetry_Int_Tables_number   1
_chemical_formula_structural   CaDy9(In2Ir)4
_chemical_formula_sum   'Ca1 Dy9 In8 Ir4'
_cell_volume   539.08687979
_cell_formula_units_Z   1
loop_
 _symmetry_equiv_pos_site_id
 _symmetry_equiv_pos_as_xyz
  1  'x, y, z'
loop_
 _atom_site_type_symbol
 _atom_site_label
 _atom_site_symmetry_multiplicity
 _atom_site_fract_x
 _atom_site_fract_y
 _atom_site_fract_z
 _atom_site_occupancy
  Ca  Ca0  1  0.500000  0.500000  0.000000  1
  Dy  Dy1  1  0.500000  0.384218  0.589393  1
  Dy  Dy2  1  0.500000  0.882983  0.910446  1
  Dy  Dy3  1  0.500000  0.117017  0.089554  1
  Dy  Dy4  1  0.500000  0.755301  0.721945  1
  Dy  Dy5  1  0.500000  0.254788  0.777843  1
  Dy  Dy6  1  0.500000  0.745212  0.222157  1
  Dy  Dy7  1  0.500000  0.244699  0.278055  1
  Dy  Dy8  1  0.500000  0.000000  0.500000  1
  Dy  Dy9  1  0.500000  0.615782  0.410607  1
  In  In10  1  0.000000  0.795502  0.068078  1
  In  In11  1  0.000000  0.932246  0.350833  1
  In  In12  1  0.000000  0.067754  0.649167  1
  In  In13  1  0.000000  0.568006  0.849399  1
  In  In14  1  0.000000  0.708213  0.567549  1
  In  In15  1  0.000000  0.204498  0.931922  1
  In  In16  1  0.000000  0.291787  0.432451  1
  In  In17  1  0.000000  0.431994  0.150601  1
  Ir  Ir18  1  0.000000  0.981611  0.803910  1
  Ir  Ir19  1  0.000000  0.518570  0.305172  1
  Ir  Ir20  1  0.000000  0.481430  0.694828  1
  Ir  Ir21  1  0.000000  0.018389  0.196090  1
