# generated using pymatgen
data_Th8Re3TcC8
_symmetry_space_group_name_H-M   'P 1'
_cell_length_a   5.35985900
_cell_length_b   6.70048840
_cell_length_c   10.16315200
_cell_angle_alpha   89.93605801
_cell_angle_beta   90.00000000
_cell_angle_gamma   90.00000000
_symmetry_Int_Tables_number   1
_chemical_formula_structural   Th8Re3TcC8
_chemical_formula_sum   'Th8 Re3 Tc1 C8'
_cell_volume   364.99589114
_cell_formula_units_Z   1
loop_
 _symmetry_equiv_pos_site_id
 _symmetry_equiv_pos_as_xyz
  1  'x, y, z'
loop_
 _atom_site_type_symbol
 _atom_site_label
 _atom_site_symmetry_multiplicity
 _atom_site_fract_x
 _atom_site_fract_y
 _atom_site_fract_z
 _atom_site_occupancy
  Th  Th0  1  0.750000  0.525407  0.777145  1
  Th  Th1  1  0.250000  0.976378  0.276191  1
  Th  Th2  1  0.750000  0.691322  0.451130  1
  Th  Th3  1  0.250000  0.810797  0.951812  1
  Th  Th4  1  0.750000  0.192024  0.048850  1
  Th  Th5  1  0.250000  0.307977  0.549294  1
  Th  Th6  1  0.250000  0.474981  0.222329  1
  Th  Th7  1  0.750000  0.023834  0.723674  1
  Re  Re8  1  0.250000  0.771423  0.637830  1
  Re  Re9  1  0.750000  0.228500  0.362503  1
  Re  Re10  1  0.750000  0.727954  0.137706  1
  Tc  Tc11  1  0.250000  0.272006  0.862038  1
  C  C12  1  0.250000  0.668988  0.448209  1
  C  C13  1  0.250000  0.532080  0.755611  1
  C  C14  1  0.750000  0.468326  0.243049  1
  C  C15  1  0.750000  0.832475  0.948747  1
  C  C16  1  0.250000  0.030648  0.742229  1
  C  C17  1  0.250000  0.165928  0.053435  1
  C  C18  1  0.750000  0.330561  0.551526  1
  C  C19  1  0.750000  0.968388  0.256691  1
