# generated using pymatgen
data_Dy3Y(Ni7P4)2
_symmetry_space_group_name_H-M   'P 1'
_cell_length_a   3.70397400
_cell_length_b   9.16421152
_cell_length_c   10.27855959
_cell_angle_alpha   90.03866324
_cell_angle_beta   90.00000000
_cell_angle_gamma   90.00000000
_symmetry_Int_Tables_number   1
_chemical_formula_structural   Dy3Y(Ni7P4)2
_chemical_formula_sum   'Dy3 Y1 Ni14 P8'
_cell_volume   348.89535952
_cell_formula_units_Z   1
loop_
 _symmetry_equiv_pos_site_id
 _symmetry_equiv_pos_as_xyz
  1  'x, y, z'
loop_
 _atom_site_type_symbol
 _atom_site_label
 _atom_site_symmetry_multiplicity
 _atom_site_fract_x
 _atom_site_fract_y
 _atom_site_fract_z
 _atom_site_occupancy
  Dy  Dy0  1  0.000000  0.058420  0.395507  1
  Dy  Dy1  1  0.500000  0.941599  0.895387  1
  Dy  Dy2  1  0.000000  0.435931  0.178452  1
  Y  Y3  1  0.500000  0.564499  0.678639  1
  Ni  Ni4  1  0.000000  0.056796  0.699367  1
  Ni  Ni5  1  0.500000  0.943111  0.199442  1
  Ni  Ni6  1  0.000000  0.726210  0.509723  1
  Ni  Ni7  1  0.500000  0.274064  0.010014  1
  Ni  Ni8  1  0.000000  0.096257  0.093508  1
  Ni  Ni9  1  0.500000  0.903740  0.593570  1
  Ni  Ni10  1  0.000000  0.746023  0.273652  1
  Ni  Ni11  1  0.500000  0.253828  0.773895  1
  Ni  Ni12  1  0.000000  0.306149  0.602592  1
  Ni  Ni13  1  0.500000  0.693556  0.102677  1
  Ni  Ni14  1  0.000000  0.685777  0.911653  1
  Ni  Ni15  1  0.500000  0.314230  0.411633  1
  Ni  Ni16  1  0.000000  0.416922  0.870606  1
  Ni  Ni17  1  0.500000  0.582931  0.370302  1
  P  P18  1  0.000000  0.179920  0.889577  1
  P  P19  1  0.500000  0.820015  0.389590  1
  P  P20  1  0.000000  0.844927  0.083889  1
  P  P21  1  0.500000  0.155123  0.583888  1
  P  P22  1  0.000000  0.809977  0.714050  1
  P  P23  1  0.500000  0.190280  0.214135  1
  P  P24  1  0.000000  0.480217  0.461126  1
  P  P25  1  0.500000  0.519498  0.961325  1
