# generated using pymatgen
data_Lu16In3AgRh4
_symmetry_space_group_name_H-M   'P 1'
_cell_length_a   9.44590129
_cell_length_b   9.44590080
_cell_length_c   9.44590078
_cell_angle_alpha   59.78999992
_cell_angle_beta   59.79000058
_cell_angle_gamma   59.78999947
_symmetry_Int_Tables_number   1
_chemical_formula_structural   Lu16In3AgRh4
_chemical_formula_sum   'Lu16 In3 Ag1 Rh4'
_cell_volume   593.11611652
_cell_formula_units_Z   1
loop_
 _symmetry_equiv_pos_site_id
 _symmetry_equiv_pos_as_xyz
  1  'x, y, z'
loop_
 _atom_site_type_symbol
 _atom_site_label
 _atom_site_symmetry_multiplicity
 _atom_site_fract_x
 _atom_site_fract_y
 _atom_site_fract_z
 _atom_site_occupancy
  Lu  Lu0  1  0.600564  0.600564  0.600564  1
  Lu  Lu1  1  0.600029  0.600029  0.198889  1
  Lu  Lu2  1  0.600029  0.198889  0.600029  1
  Lu  Lu3  1  0.198889  0.600029  0.600029  1
  Lu  Lu4  1  0.059007  0.440870  0.440870  1
  Lu  Lu5  1  0.438992  0.060437  0.060437  1
  Lu  Lu6  1  0.440870  0.059007  0.440870  1
  Lu  Lu7  1  0.060437  0.438992  0.060437  1
  Lu  Lu8  1  0.440870  0.440870  0.059007  1
  Lu  Lu9  1  0.060437  0.060437  0.438992  1
  Lu  Lu10  1  0.183293  0.811976  0.811976  1
  Lu  Lu11  1  0.812943  0.186752  0.186752  1
  Lu  Lu12  1  0.811976  0.183293  0.811976  1
  Lu  Lu13  1  0.186752  0.812943  0.186752  1
  Lu  Lu14  1  0.811976  0.811976  0.183293  1
  Lu  Lu15  1  0.186752  0.186752  0.812943  1
  In  In16  1  0.833302  0.833302  0.502350  1
  In  In17  1  0.833302  0.502350  0.833302  1
  In  In18  1  0.502350  0.833302  0.833302  1
  Ag  Ag19  1  0.835455  0.835455  0.835455  1
  Rh  Rh20  1  0.392396  0.392396  0.392396  1
  Rh  Rh21  1  0.393441  0.393441  0.822498  1
  Rh  Rh22  1  0.393441  0.822498  0.393441  1
  Rh  Rh23  1  0.822498  0.393441  0.393441  1
