# generated using pymatgen
data_Er9Tm(Cu2Bi)2
_symmetry_space_group_name_H-M   'P 1'
_cell_length_a   8.52195084
_cell_length_b   8.52195069
_cell_length_c   8.52195024
_cell_angle_alpha   124.91503109
_cell_angle_beta   124.91503700
_cell_angle_gamma   81.67880650
_symmetry_Int_Tables_number   1
_chemical_formula_structural   Er9Tm(Cu2Bi)2
_chemical_formula_sum   'Er9 Tm1 Cu4 Bi2'
_cell_volume   400.46017819
_cell_formula_units_Z   1
loop_
 _symmetry_equiv_pos_site_id
 _symmetry_equiv_pos_as_xyz
  1  'x, y, z'
loop_
 _atom_site_type_symbol
 _atom_site_label
 _atom_site_symmetry_multiplicity
 _atom_site_fract_x
 _atom_site_fract_y
 _atom_site_fract_z
 _atom_site_occupancy
  Er  Er0  1  0.000000  0.000000  0.000000  1
  Er  Er1  1  0.792047  0.292370  0.806195  1
  Er  Er2  1  0.292370  0.486175  0.500323  1
  Er  Er3  1  0.985851  0.792047  0.499677  1
  Er  Er4  1  0.707630  0.513825  0.499677  1
  Er  Er5  1  0.014149  0.207953  0.500323  1
  Er  Er6  1  0.513825  0.014149  0.806195  1
  Er  Er7  1  0.207953  0.707630  0.193805  1
  Er  Er8  1  0.486175  0.985851  0.193805  1
  Tm  Tm9  1  0.500000  0.500000  0.000000  1
  Cu  Cu10  1  0.867176  0.367482  0.234656  1
  Cu  Cu11  1  0.367482  0.132824  0.500306  1
  Cu  Cu12  1  0.632518  0.867176  0.499694  1
  Cu  Cu13  1  0.132824  0.632518  0.765344  1
  Bi  Bi14  1  0.250182  0.250182  0.000000  1
  Bi  Bi15  1  0.749818  0.749818  0.000000  1
