# generated using pymatgen
data_DyY2Tm2Bi3
_symmetry_space_group_name_H-M   'P 1'
_cell_length_a   8.22321900
_cell_length_b   9.46846600
_cell_length_c   12.04046000
_cell_angle_alpha   90.00000000
_cell_angle_beta   90.00000000
_cell_angle_gamma   90.00000000
_symmetry_Int_Tables_number   1
_chemical_formula_structural   DyY2Tm2Bi3
_chemical_formula_sum   'Dy4 Y8 Tm8 Bi12'
_cell_volume   937.48550111
_cell_formula_units_Z   4
loop_
 _symmetry_equiv_pos_site_id
 _symmetry_equiv_pos_as_xyz
  1  'x, y, z'
loop_
 _atom_site_type_symbol
 _atom_site_label
 _atom_site_symmetry_multiplicity
 _atom_site_fract_x
 _atom_site_fract_y
 _atom_site_fract_z
 _atom_site_occupancy
  Dy  Dy0  1  0.306930  0.435374  0.940454  1
  Dy  Dy1  1  0.806930  0.064626  0.559546  1
  Dy  Dy2  1  0.693070  0.935374  0.059546  1
  Dy  Dy3  1  0.193070  0.564626  0.440454  1
  Y  Y4  1  0.186392  0.750149  0.718596  1
  Y  Y5  1  0.686392  0.749851  0.781404  1
  Y  Y6  1  0.813608  0.250149  0.281404  1
  Y  Y7  1  0.313608  0.249851  0.218596  1
  Y  Y8  1  0.353889  0.749943  0.215832  1
  Y  Y9  1  0.853889  0.750057  0.284168  1
  Y  Y10  1  0.646111  0.249943  0.784168  1
  Y  Y11  1  0.146111  0.250057  0.715832  1
  Tm  Tm12  1  0.025101  0.749907  0.988989  1
  Tm  Tm13  1  0.525101  0.750093  0.511011  1
  Tm  Tm14  1  0.974899  0.249907  0.011011  1
  Tm  Tm15  1  0.474899  0.250093  0.488989  1
  Tm  Tm16  1  0.692887  0.565461  0.059439  1
  Tm  Tm17  1  0.192887  0.934539  0.440561  1
  Tm  Tm18  1  0.307113  0.065461  0.940561  1
  Tm  Tm19  1  0.807113  0.434539  0.559439  1
  Bi  Bi20  1  0.433803  0.003933  0.672469  1
  Bi  Bi21  1  0.933803  0.496067  0.827531  1
  Bi  Bi22  1  0.566197  0.503933  0.327531  1
  Bi  Bi23  1  0.066197  0.996067  0.172469  1
  Bi  Bi24  1  0.565905  0.996194  0.327491  1
  Bi  Bi25  1  0.065905  0.503806  0.172509  1
  Bi  Bi26  1  0.434095  0.496194  0.672509  1
  Bi  Bi27  1  0.934095  0.003806  0.827491  1
  Bi  Bi28  1  0.406663  0.750923  0.957733  1
  Bi  Bi29  1  0.906663  0.749077  0.542267  1
  Bi  Bi30  1  0.593337  0.250923  0.042267  1
  Bi  Bi31  1  0.093337  0.249077  0.457733  1
