# generated using pymatgen
data_V3Fe4Hg4AsO20
_symmetry_space_group_name_H-M   'P 1'
_cell_length_a   6.23503600
_cell_length_b   8.41140761
_cell_length_c   8.66346763
_cell_angle_alpha   90.21209360
_cell_angle_beta   90.00000000
_cell_angle_gamma   90.00000000
_symmetry_Int_Tables_number   1
_chemical_formula_structural   V3Fe4Hg4AsO20
_chemical_formula_sum   'V3 Fe4 Hg4 As1 O20'
_cell_volume   454.35616584
_cell_formula_units_Z   1
loop_
 _symmetry_equiv_pos_site_id
 _symmetry_equiv_pos_as_xyz
  1  'x, y, z'
loop_
 _atom_site_type_symbol
 _atom_site_label
 _atom_site_symmetry_multiplicity
 _atom_site_fract_x
 _atom_site_fract_y
 _atom_site_fract_z
 _atom_site_occupancy
  V  V0  1  0.750000  0.811115  0.788533  1
  V  V1  1  0.250000  0.688253  0.288187  1
  V  V2  1  0.250000  0.188719  0.210601  1
  Fe  Fe3  1  0.002624  0.001255  0.500327  1
  Fe  Fe4  1  0.501102  0.499716  0.999215  1
  Fe  Fe5  1  0.497376  0.001255  0.500327  1
  Fe  Fe6  1  0.998898  0.499716  0.999215  1
  Hg  Hg7  1  0.250000  0.569254  0.658534  1
  Hg  Hg8  1  0.250000  0.073412  0.841769  1
  Hg  Hg9  1  0.750000  0.420402  0.343246  1
  Hg  Hg10  1  0.750000  0.927926  0.160260  1
  As  As11  1  0.750000  0.313293  0.713039  1
  O  O12  1  0.522940  0.331889  0.823736  1
  O  O13  1  0.972717  0.835769  0.672205  1
  O  O14  1  0.026524  0.665994  0.172090  1
  O  O15  1  0.472887  0.166361  0.327389  1
  O  O16  1  0.473476  0.665994  0.172090  1
  O  O17  1  0.027113  0.166361  0.327389  1
  O  O18  1  0.977060  0.331889  0.823736  1
  O  O19  1  0.527283  0.835769  0.672205  1
  O  O20  1  0.750000  0.133299  0.611580  1
  O  O21  1  0.750000  0.626006  0.889360  1
  O  O22  1  0.250000  0.873417  0.390524  1
  O  O23  1  0.250000  0.371758  0.107597  1
  O  O24  1  0.250000  0.099022  0.607040  1
  O  O25  1  0.250000  0.596326  0.893409  1
  O  O26  1  0.750000  0.906227  0.395418  1
  O  O27  1  0.750000  0.402340  0.107309  1
  O  O28  1  0.750000  0.466571  0.577784  1
  O  O29  1  0.750000  0.965121  0.927043  1
  O  O30  1  0.250000  0.533292  0.424296  1
  O  O31  1  0.250000  0.032279  0.074545  1
