# generated using pymatgen
data_Tb3PrGaBr6
_symmetry_space_group_name_H-M   'P 1'
_cell_length_a   4.09485200
_cell_length_b   13.65648448
_cell_length_c   14.37451074
_cell_angle_alpha   88.96199015
_cell_angle_beta   90.00000000
_cell_angle_gamma   90.00000000
_symmetry_Int_Tables_number   1
_chemical_formula_structural   Tb3PrGaBr6
_chemical_formula_sum   'Tb6 Pr2 Ga2 Br12'
_cell_volume   803.70916791
_cell_formula_units_Z   2
loop_
 _symmetry_equiv_pos_site_id
 _symmetry_equiv_pos_as_xyz
  1  'x, y, z'
loop_
 _atom_site_type_symbol
 _atom_site_label
 _atom_site_symmetry_multiplicity
 _atom_site_fract_x
 _atom_site_fract_y
 _atom_site_fract_z
 _atom_site_occupancy
  Tb  Tb0  1  0.500000  0.119300  0.338614  1
  Tb  Tb1  1  0.500000  0.880700  0.661386  1
  Tb  Tb2  1  0.500000  0.615696  0.157266  1
  Tb  Tb3  1  0.500000  0.384304  0.842734  1
  Tb  Tb4  1  0.000000  0.619994  0.919730  1
  Tb  Tb5  1  0.000000  0.380006  0.080270  1
  Pr  Pr6  1  0.000000  0.127362  0.584307  1
  Pr  Pr7  1  0.000000  0.872638  0.415693  1
  Ga  Ga8  1  0.500000  0.000000  0.500000  1
  Ga  Ga9  1  0.500000  0.500000  0.000000  1
  Br  Br10  1  0.500000  0.249225  0.164409  1
  Br  Br11  1  0.500000  0.750775  0.835591  1
  Br  Br12  1  0.500000  0.735592  0.327939  1
  Br  Br13  1  0.500000  0.264408  0.672061  1
  Br  Br14  1  0.000000  0.253870  0.402808  1
  Br  Br15  1  0.000000  0.746130  0.597192  1
  Br  Br16  1  0.000000  0.749976  0.086296  1
  Br  Br17  1  0.000000  0.250024  0.913704  1
  Br  Br18  1  0.000000  0.010556  0.240588  1
  Br  Br19  1  0.000000  0.989444  0.759412  1
  Br  Br20  1  0.000000  0.500157  0.252735  1
  Br  Br21  1  0.000000  0.499843  0.747265  1
