# generated using pymatgen
data_Dy5ThTcRh
_symmetry_space_group_name_H-M   'P 1'
_cell_length_a   6.32293900
_cell_length_b   7.29591800
_cell_length_c   9.48654600
_cell_angle_alpha   90.00000000
_cell_angle_beta   90.00000000
_cell_angle_gamma   90.00000000
_symmetry_Int_Tables_number   1
_chemical_formula_structural   Dy5ThTcRh
_chemical_formula_sum   'Dy10 Th2 Tc2 Rh2'
_cell_volume   437.62996725
_cell_formula_units_Z   2
loop_
 _symmetry_equiv_pos_site_id
 _symmetry_equiv_pos_as_xyz
  1  'x, y, z'
loop_
 _atom_site_type_symbol
 _atom_site_label
 _atom_site_symmetry_multiplicity
 _atom_site_fract_x
 _atom_site_fract_y
 _atom_site_fract_z
 _atom_site_occupancy
  Dy  Dy0  1  0.331194  0.677183  0.065745  1
  Dy  Dy1  1  0.168806  0.177183  0.434255  1
  Dy  Dy2  1  0.667258  0.323947  0.565621  1
  Dy  Dy3  1  0.832742  0.823947  0.934379  1
  Dy  Dy4  1  0.667258  0.323947  0.934379  1
  Dy  Dy5  1  0.832742  0.823947  0.565621  1
  Dy  Dy6  1  0.331194  0.677183  0.434255  1
  Dy  Dy7  1  0.168806  0.177183  0.065745  1
  Dy  Dy8  1  0.140162  0.459113  0.750000  1
  Dy  Dy9  1  0.359838  0.959113  0.750000  1
  Th  Th10  1  0.857676  0.547567  0.250000  1
  Th  Th11  1  0.642324  0.047567  0.250000  1
  Tc  Tc12  1  0.020726  0.872234  0.250000  1
  Tc  Tc13  1  0.479274  0.372234  0.250000  1
  Rh  Rh14  1  0.949049  0.118826  0.750000  1
  Rh  Rh15  1  0.550951  0.618826  0.750000  1
