# generated using pymatgen
data_Tb8NdHo11Pb16
_symmetry_space_group_name_H-M   'P 1'
_cell_length_a   8.19501570
_cell_length_b   8.29966930
_cell_length_c   15.65001700
_cell_angle_alpha   90.00935408
_cell_angle_beta   89.78875713
_cell_angle_gamma   89.82396467
_symmetry_Int_Tables_number   1
_chemical_formula_structural   Tb8NdHo11Pb16
_chemical_formula_sum   'Tb8 Nd1 Ho11 Pb16'
_cell_volume   1064.43803254
_cell_formula_units_Z   1
loop_
 _symmetry_equiv_pos_site_id
 _symmetry_equiv_pos_as_xyz
  1  'x, y, z'
loop_
 _atom_site_type_symbol
 _atom_site_label
 _atom_site_symmetry_multiplicity
 _atom_site_fract_x
 _atom_site_fract_y
 _atom_site_fract_z
 _atom_site_occupancy
  Tb  Tb0  1  0.130374  0.341892  0.621426  1
  Tb  Tb1  1  0.471299  0.676811  0.597856  1
  Tb  Tb2  1  0.971486  0.822471  0.902138  1
  Tb  Tb3  1  0.528627  0.323388  0.097923  1
  Tb  Tb4  1  0.028464  0.177456  0.400921  1
  Tb  Tb5  1  0.527170  0.322790  0.401773  1
  Tb  Tb6  1  0.028220  0.177152  0.098072  1
  Tb  Tb7  1  0.472284  0.676919  0.903314  1
  Nd  Nd8  1  0.974832  0.821480  0.596715  1
  Ho  Ho9  1  0.630851  0.158504  0.622763  1
  Ho  Ho10  1  0.130390  0.341887  0.879128  1
  Ho  Ho11  1  0.369925  0.842708  0.122186  1
  Ho  Ho12  1  0.867924  0.657158  0.377444  1
  Ho  Ho13  1  0.369113  0.842341  0.376735  1
  Ho  Ho14  1  0.869688  0.657600  0.121907  1
  Ho  Ho15  1  0.629799  0.157534  0.878465  1
  Ho  Ho16  1  0.797593  0.495645  0.750770  1
  Ho  Ho17  1  0.298295  0.004588  0.750977  1
  Ho  Ho18  1  0.201934  0.504309  0.249543  1
  Ho  Ho19  1  0.701975  0.995875  0.249618  1
  Pb  Pb20  1  0.709612  0.964654  0.455804  1
  Pb  Pb21  1  0.212362  0.538452  0.042943  1
  Pb  Pb22  1  0.287343  0.036879  0.957758  1
  Pb  Pb23  1  0.784713  0.460981  0.542114  1
  Pb  Pb24  1  0.292836  0.039538  0.541570  1
  Pb  Pb25  1  0.787773  0.461692  0.957775  1
  Pb  Pb26  1  0.712452  0.962231  0.042776  1
  Pb  Pb27  1  0.211983  0.538951  0.456508  1
  Pb  Pb28  1  0.435345  0.374559  0.750854  1
  Pb  Pb29  1  0.935194  0.125939  0.750881  1
  Pb  Pb30  1  0.564585  0.625210  0.249384  1
  Pb  Pb31  1  0.064015  0.874121  0.249721  1
  Pb  Pb32  1  0.658339  0.845260  0.750732  1
  Pb  Pb33  1  0.162265  0.652539  0.752082  1
  Pb  Pb34  1  0.340559  0.155028  0.249619  1
  Pb  Pb35  1  0.840378  0.345460  0.249806  1
