# generated using pymatgen
data_Cr(ReO4)2
_symmetry_space_group_name_H-M   'P 1'
_cell_length_a   5.73527986
_cell_length_b   5.84064831
_cell_length_c   7.21364145
_cell_angle_alpha   84.84841824
_cell_angle_beta   87.84170894
_cell_angle_gamma   62.98687533
_symmetry_Int_Tables_number   1
_chemical_formula_structural   Cr(ReO4)2
_chemical_formula_sum   'Cr1 Re2 O8'
_cell_volume   214.40745792
_cell_formula_units_Z   1
loop_
 _symmetry_equiv_pos_site_id
 _symmetry_equiv_pos_as_xyz
  1  'x, y, z'
loop_
 _atom_site_type_symbol
 _atom_site_label
 _atom_site_symmetry_multiplicity
 _atom_site_fract_x
 _atom_site_fract_y
 _atom_site_fract_z
 _atom_site_occupancy
  Cr  Cr0  1  0.000090  0.999864  0.500031  1
  Re  Re1  1  0.358828  0.352506  0.251537  1
  Re  Re2  1  0.641202  0.647489  0.748370  1
  O  O3  1  0.775515  0.324067  0.698851  1
  O  O4  1  0.188902  0.204827  0.381628  1
  O  O5  1  0.224461  0.675981  0.301128  1
  O  O6  1  0.672253  0.662398  0.984019  1
  O  O7  1  0.305815  0.806728  0.686200  1
  O  O8  1  0.327669  0.337652  0.016007  1
  O  O9  1  0.694177  0.193296  0.313817  1
  O  O10  1  0.811085  0.795192  0.618411  1
