# generated using pymatgen
data_Y10In2GaSb3
_symmetry_space_group_name_H-M   'P 1'
_cell_length_a   6.53930401
_cell_length_b   8.92548609
_cell_length_c   8.94773000
_cell_angle_alpha   120.09510961
_cell_angle_beta   90.00295271
_cell_angle_gamma   89.99934108
_symmetry_Int_Tables_number   1
_chemical_formula_structural   Y10In2GaSb3
_chemical_formula_sum   'Y10 In2 Ga1 Sb3'
_cell_volume   451.84542188
_cell_formula_units_Z   1
loop_
 _symmetry_equiv_pos_site_id
 _symmetry_equiv_pos_as_xyz
  1  'x, y, z'
loop_
 _atom_site_type_symbol
 _atom_site_label
 _atom_site_symmetry_multiplicity
 _atom_site_fract_x
 _atom_site_fract_y
 _atom_site_fract_z
 _atom_site_occupancy
  Y  Y0  1  0.498205  0.336611  0.674636  1
  Y  Y1  1  0.498413  0.656956  0.323599  1
  Y  Y2  1  0.001611  0.656908  0.323591  1
  Y  Y3  1  0.001768  0.336668  0.674639  1
  Y  Y4  1  0.750013  0.239383  0.005795  1
  Y  Y5  1  0.749962  0.758870  0.764915  1
  Y  Y6  1  0.750005  0.999924  0.241143  1
  Y  Y7  1  0.250014  0.756251  0.996682  1
  Y  Y8  1  0.250037  0.244523  0.228930  1
  Y  Y9  1  0.249992  0.010581  0.765515  1
  In  In10  1  0.749946  0.601456  0.999822  1
  In  In11  1  0.749951  0.395614  0.399803  1
  Ga  Ga12  1  0.250023  0.398089  0.996820  1
  Sb  Sb13  1  0.750062  0.997013  0.606348  1
  Sb  Sb14  1  0.250021  0.609998  0.606526  1
  Sb  Sb15  1  0.249981  0.001157  0.391238  1
