# generated using pymatgen
data_La2Zn2Ge2Ir3Rh
_symmetry_space_group_name_H-M   'P 1'
_cell_length_a   4.19040200
_cell_length_b   4.19040200
_cell_length_c   10.81632500
_cell_angle_alpha   90.00000000
_cell_angle_beta   90.00000000
_cell_angle_gamma   90.00000000
_symmetry_Int_Tables_number   1
_chemical_formula_structural   La2Zn2Ge2Ir3Rh
_chemical_formula_sum   'La2 Zn2 Ge2 Ir3 Rh1'
_cell_volume   189.92892268
_cell_formula_units_Z   1
loop_
 _symmetry_equiv_pos_site_id
 _symmetry_equiv_pos_as_xyz
  1  'x, y, z'
loop_
 _atom_site_type_symbol
 _atom_site_label
 _atom_site_symmetry_multiplicity
 _atom_site_fract_x
 _atom_site_fract_y
 _atom_site_fract_z
 _atom_site_occupancy
  La  La0  1  0.000000  0.500000  0.252789  1
  La  La1  1  0.500000  0.000000  0.747211  1
  Zn  Zn2  1  0.000000  0.000000  0.500000  1
  Zn  Zn3  1  0.500000  0.500000  0.500000  1
  Ge  Ge4  1  0.000000  0.500000  0.875896  1
  Ge  Ge5  1  0.500000  0.000000  0.124104  1
  Ir  Ir6  1  0.500000  0.500000  0.000000  1
  Ir  Ir7  1  0.000000  0.500000  0.645394  1
  Ir  Ir8  1  0.500000  0.000000  0.354606  1
  Rh  Rh9  1  0.000000  0.000000  0.000000  1
