# generated using pymatgen
data_Y12Tm8(Ir3Os)3
_symmetry_space_group_name_H-M   'P 1'
_cell_length_a   10.83275304
_cell_length_b   10.82423304
_cell_length_c   6.38397100
_cell_angle_alpha   90.00000000
_cell_angle_beta   90.00000000
_cell_angle_gamma   90.00991572
_symmetry_Int_Tables_number   1
_chemical_formula_structural   Y12Tm8(Ir3Os)3
_chemical_formula_sum   'Y12 Tm8 Ir9 Os3'
_cell_volume   748.56044611
_cell_formula_units_Z   1
loop_
 _symmetry_equiv_pos_site_id
 _symmetry_equiv_pos_as_xyz
  1  'x, y, z'
loop_
 _atom_site_type_symbol
 _atom_site_label
 _atom_site_symmetry_multiplicity
 _atom_site_fract_x
 _atom_site_fract_y
 _atom_site_fract_z
 _atom_site_occupancy
  Y  Y0  1  0.291957  0.086842  0.375647  1
  Y  Y1  1  0.291972  0.913419  0.875831  1
  Y  Y2  1  0.708028  0.086581  0.875831  1
  Y  Y3  1  0.708043  0.913158  0.375647  1
  Y  Y4  1  0.586012  0.792675  0.876322  1
  Y  Y5  1  0.586373  0.207385  0.376036  1
  Y  Y6  1  0.413627  0.792615  0.376036  1
  Y  Y7  1  0.413988  0.207325  0.876322  1
  Y  Y8  1  0.208130  0.413405  0.625538  1
  Y  Y9  1  0.207482  0.586933  0.121512  1
  Y  Y10  1  0.792518  0.413067  0.121512  1
  Y  Y11  1  0.791870  0.586595  0.625538  1
  Tm  Tm12  1  0.914477  0.707037  0.120109  1
  Tm  Tm13  1  0.914694  0.292319  0.624480  1
  Tm  Tm14  1  0.085306  0.707681  0.624480  1
  Tm  Tm15  1  0.085523  0.292963  0.120109  1
  Tm  Tm16  1  0.000000  0.000000  0.501190  1
  Tm  Tm17  1  0.000000  0.000000  0.001299  1
  Tm  Tm18  1  0.500000  0.500000  0.000141  1
  Tm  Tm19  1  0.500000  0.500000  0.499866  1
  Ir  Ir20  1  0.852083  0.152631  0.252756  1
  Ir  Ir21  1  0.851715  0.847701  0.752072  1
  Ir  Ir22  1  0.148285  0.152299  0.752072  1
  Ir  Ir23  1  0.147917  0.847369  0.252756  1
  Ir  Ir24  1  0.652453  0.349963  0.748524  1
  Ir  Ir25  1  0.652863  0.649684  0.249052  1
  Ir  Ir26  1  0.347137  0.350316  0.249052  1
  Ir  Ir27  1  0.347547  0.650037  0.748524  1
  Ir  Ir28  1  0.000000  0.500000  0.377909  1
  Os  Os29  1  0.500000  0.000000  0.124214  1
  Os  Os30  1  0.500000  0.000000  0.623809  1
  Os  Os31  1  0.000000  0.500000  0.875811  1
