# generated using pymatgen
data_Tb4AlIr
_symmetry_space_group_name_H-M   'P 1'
_cell_length_a   9.59726003
_cell_length_b   9.59725993
_cell_length_c   9.59726000
_cell_angle_alpha   59.99999975
_cell_angle_beta   60.00000010
_cell_angle_gamma   60.00000170
_symmetry_Int_Tables_number   1
_chemical_formula_structural   Tb4AlIr
_chemical_formula_sum   'Tb16 Al4 Ir4'
_cell_volume   625.06731001
_cell_formula_units_Z   4
loop_
 _symmetry_equiv_pos_site_id
 _symmetry_equiv_pos_as_xyz
  1  'x, y, z'
loop_
 _atom_site_type_symbol
 _atom_site_label
 _atom_site_symmetry_multiplicity
 _atom_site_fract_x
 _atom_site_fract_y
 _atom_site_fract_z
 _atom_site_occupancy
  Tb  Tb0  1  0.101632  0.695103  0.101632  1
  Tb  Tb1  1  0.945378  0.945378  0.554622  1
  Tb  Tb2  1  0.945378  0.554622  0.945378  1
  Tb  Tb3  1  0.311635  0.688365  0.311635  1
  Tb  Tb4  1  0.945378  0.554622  0.554622  1
  Tb  Tb5  1  0.311635  0.311635  0.688365  1
  Tb  Tb6  1  0.101632  0.101632  0.101632  1
  Tb  Tb7  1  0.554622  0.554622  0.945378  1
  Tb  Tb8  1  0.101632  0.101632  0.695103  1
  Tb  Tb9  1  0.688365  0.311635  0.688365  1
  Tb  Tb10  1  0.688365  0.688365  0.311635  1
  Tb  Tb11  1  0.688365  0.311635  0.311635  1
  Tb  Tb12  1  0.311635  0.688365  0.688365  1
  Tb  Tb13  1  0.554622  0.945378  0.554622  1
  Tb  Tb14  1  0.695103  0.101632  0.101632  1
  Tb  Tb15  1  0.554622  0.945378  0.945378  1
  Al  Al16  1  0.327627  0.327627  0.327627  1
  Al  Al17  1  0.017118  0.327627  0.327627  1
  Al  Al18  1  0.327627  0.017118  0.327627  1
  Al  Al19  1  0.327627  0.327627  0.017118  1
  Ir  Ir20  1  0.891310  0.891310  0.891310  1
  Ir  Ir21  1  0.891310  0.891310  0.326070  1
  Ir  Ir22  1  0.326070  0.891310  0.891310  1
  Ir  Ir23  1  0.891310  0.326070  0.891310  1
