# generated using pymatgen
data_Zn2Ni3P7Ru9
_symmetry_space_group_name_H-M   'P 1'
_cell_length_a   9.40757600
_cell_length_b   9.40757554
_cell_length_c   3.62128300
_cell_angle_alpha   90.00000000
_cell_angle_beta   90.00000000
_cell_angle_gamma   119.99999272
_symmetry_Int_Tables_number   1
_chemical_formula_structural   Zn2Ni3P7Ru9
_chemical_formula_sum   'Zn2 Ni3 P7 Ru9'
_cell_volume   277.55469559
_cell_formula_units_Z   1
loop_
 _symmetry_equiv_pos_site_id
 _symmetry_equiv_pos_as_xyz
  1  'x, y, z'
loop_
 _atom_site_type_symbol
 _atom_site_label
 _atom_site_symmetry_multiplicity
 _atom_site_fract_x
 _atom_site_fract_y
 _atom_site_fract_z
 _atom_site_occupancy
  Zn  Zn0  1  0.666667  0.333333  0.500000  1
  Zn  Zn1  1  0.333333  0.666667  0.000000  1
  Ni  Ni2  1  0.723934  0.859695  0.000000  1
  Ni  Ni3  1  0.140305  0.864239  0.000000  1
  Ni  Ni4  1  0.135761  0.276066  0.000000  1
  P  P5  1  0.615079  0.693543  0.500000  1
  P  P6  1  0.000000  0.000000  0.000000  1
  P  P7  1  0.306457  0.921536  0.500000  1
  P  P8  1  0.078464  0.384921  0.500000  1
  P  P9  1  0.917436  0.613884  0.000000  1
  P  P10  1  0.386116  0.303552  0.000000  1
  P  P11  1  0.696448  0.082564  0.000000  1
  Ru  Ru12  1  0.538495  0.896921  0.500000  1
  Ru  Ru13  1  0.358427  0.461505  0.500000  1
  Ru  Ru14  1  0.890736  0.101592  0.500000  1
  Ru  Ru15  1  0.210856  0.109264  0.500000  1
  Ru  Ru16  1  0.898408  0.789144  0.500000  1
  Ru  Ru17  1  0.459140  0.100454  0.000000  1
  Ru  Ru18  1  0.899546  0.358688  0.000000  1
  Ru  Ru19  1  0.641312  0.540860  0.000000  1
  Ru  Ru20  1  0.103079  0.641573  0.500000  1
