# generated using pymatgen
data_CdBiAsO5
_symmetry_space_group_name_H-M   'P 1'
_cell_length_a   7.09826696
_cell_length_b   7.99695061
_cell_length_c   9.76173268
_cell_angle_alpha   77.42819661
_cell_angle_beta   92.99451963
_cell_angle_gamma   68.07296788
_symmetry_Int_Tables_number   1
_chemical_formula_structural   CdBiAsO5
_chemical_formula_sum   'Cd4 Bi4 As4 O20'
_cell_volume   496.22497816
_cell_formula_units_Z   4
loop_
 _symmetry_equiv_pos_site_id
 _symmetry_equiv_pos_as_xyz
  1  'x, y, z'
loop_
 _atom_site_type_symbol
 _atom_site_label
 _atom_site_symmetry_multiplicity
 _atom_site_fract_x
 _atom_site_fract_y
 _atom_site_fract_z
 _atom_site_occupancy
  Cd  Cd0  1  0.359381  0.846740  0.523308  1
  Cd  Cd1  1  0.640619  0.153260  0.476692  1
  Cd  Cd2  1  0.859381  0.346740  0.023308  1
  Cd  Cd3  1  0.140619  0.653260  0.976692  1
  Bi  Bi4  1  0.104479  0.427460  0.326182  1
  Bi  Bi5  1  0.604479  0.927460  0.826182  1
  Bi  Bi6  1  0.895521  0.572540  0.673818  1
  Bi  Bi7  1  0.395521  0.072540  0.173818  1
  As  As8  1  0.466358  0.410214  0.762980  1
  As  As9  1  0.966358  0.910214  0.262980  1
  As  As10  1  0.533642  0.589786  0.237020  1
  As  As11  1  0.033642  0.089786  0.737020  1
  O  O12  1  0.163412  0.378419  0.123145  1
  O  O13  1  0.663412  0.878419  0.623145  1
  O  O14  1  0.836588  0.621581  0.876855  1
  O  O15  1  0.336588  0.121581  0.376855  1
  O  O16  1  0.033841  0.258800  0.822349  1
  O  O17  1  0.533841  0.758800  0.322349  1
  O  O18  1  0.966159  0.741200  0.177651  1
  O  O19  1  0.466159  0.241200  0.677651  1
  O  O20  1  0.217361  0.559940  0.767772  1
  O  O21  1  0.717361  0.059940  0.267772  1
  O  O22  1  0.782639  0.440060  0.232228  1
  O  O23  1  0.282639  0.940060  0.732228  1
  O  O24  1  0.412605  0.698516  0.066334  1
  O  O25  1  0.912605  0.198516  0.566334  1
  O  O26  1  0.587395  0.301484  0.933666  1
  O  O27  1  0.087395  0.801484  0.433666  1
  O  O28  1  0.573232  0.549335  0.662415  1
  O  O29  1  0.073232  0.049335  0.162415  1
  O  O30  1  0.426768  0.450665  0.337585  1
  O  O31  1  0.926768  0.950665  0.837585  1
