# generated using pymatgen
data_Dy16MgIn3Ni4
_symmetry_space_group_name_H-M   'P 1'
_cell_length_a   9.60502338
_cell_length_b   9.57769848
_cell_length_c   9.57769900
_cell_angle_alpha   60.00000167
_cell_angle_beta   60.09406416
_cell_angle_gamma   60.09405793
_symmetry_Int_Tables_number   1
_chemical_formula_structural   Dy16MgIn3Ni4
_chemical_formula_sum   'Dy16 Mg1 In3 Ni4'
_cell_volume   623.90974451
_cell_formula_units_Z   1
loop_
 _symmetry_equiv_pos_site_id
 _symmetry_equiv_pos_as_xyz
  1  'x, y, z'
loop_
 _atom_site_type_symbol
 _atom_site_label
 _atom_site_symmetry_multiplicity
 _atom_site_fract_x
 _atom_site_fract_y
 _atom_site_fract_z
 _atom_site_occupancy
  Dy  Dy0  1  0.347754  0.346118  0.346118  1
  Dy  Dy1  1  0.347754  0.346118  0.960009  1
  Dy  Dy2  1  0.347754  0.960009  0.346118  1
  Dy  Dy3  1  0.956944  0.347685  0.347685  1
  Dy  Dy4  1  0.810795  0.188897  0.188897  1
  Dy  Dy5  1  0.186829  0.812846  0.812846  1
  Dy  Dy6  1  0.186829  0.812846  0.187478  1
  Dy  Dy7  1  0.810795  0.188897  0.811411  1
  Dy  Dy8  1  0.186829  0.187478  0.812846  1
  Dy  Dy9  1  0.810795  0.811411  0.188897  1
  Dy  Dy10  1  0.934711  0.564719  0.564719  1
  Dy  Dy11  1  0.564398  0.936142  0.936142  1
  Dy  Dy12  1  0.564398  0.936142  0.563317  1
  Dy  Dy13  1  0.934711  0.564719  0.935851  1
  Dy  Dy14  1  0.564398  0.563317  0.936142  1
  Dy  Dy15  1  0.934711  0.935851  0.564719  1
  Mg  Mg16  1  0.266069  0.577977  0.577977  1
  In  In17  1  0.581323  0.582152  0.582152  1
  In  In18  1  0.581323  0.582152  0.254375  1
  In  In19  1  0.581323  0.254375  0.582152  1
  Ni  Ni20  1  0.141523  0.141780  0.141780  1
  Ni  Ni21  1  0.141523  0.141780  0.574917  1
  Ni  Ni22  1  0.141523  0.574917  0.141780  1
  Ni  Ni23  1  0.574987  0.141671  0.141671  1
