# generated using pymatgen
data_YTmPd2F14
_symmetry_space_group_name_H-M   'P 1'
_cell_length_a   5.49692694
_cell_length_b   8.80595690
_cell_length_c   11.88980912
_cell_angle_alpha   62.50459678
_cell_angle_beta   90.08638136
_cell_angle_gamma   90.00136653
_symmetry_Int_Tables_number   1
_chemical_formula_structural   YTmPd2F14
_chemical_formula_sum   'Y2 Tm2 Pd4 F28'
_cell_volume   510.52597659
_cell_formula_units_Z   2
loop_
 _symmetry_equiv_pos_site_id
 _symmetry_equiv_pos_as_xyz
  1  'x, y, z'
loop_
 _atom_site_type_symbol
 _atom_site_label
 _atom_site_symmetry_multiplicity
 _atom_site_fract_x
 _atom_site_fract_y
 _atom_site_fract_z
 _atom_site_occupancy
  Y  Y0  1  0.762352  0.184749  0.235960  1
  Y  Y1  1  0.237648  0.815251  0.764040  1
  Tm  Tm2  1  0.263142  0.812985  0.264121  1
  Tm  Tm3  1  0.736858  0.187015  0.735879  1
  Pd  Pd4  1  0.759665  0.728860  0.043976  1
  Pd  Pd5  1  0.240335  0.271140  0.956024  1
  Pd  Pd6  1  0.259240  0.274364  0.457803  1
  Pd  Pd7  1  0.740760  0.725636  0.542197  1
  F  F8  1  0.935379  0.702537  0.414573  1
  F  F9  1  0.064621  0.297463  0.585427  1
  F  F10  1  0.433746  0.296425  0.083179  1
  F  F11  1  0.566254  0.703575  0.916821  1
  F  F12  1  0.465421  0.727027  0.135972  1
  F  F13  1  0.534579  0.272973  0.864028  1
  F  F14  1  0.965275  0.275535  0.366410  1
  F  F15  1  0.034725  0.724465  0.633590  1
  F  F16  1  0.950312  0.746082  0.176490  1
  F  F17  1  0.049688  0.253918  0.823510  1
  F  F18  1  0.446624  0.257740  0.324468  1
  F  F19  1  0.553376  0.742260  0.675532  1
  F  F20  1  0.773278  0.480215  0.142467  1
  F  F21  1  0.226722  0.519785  0.857533  1
  F  F22  1  0.273374  0.523258  0.358645  1
  F  F23  1  0.726626  0.476742  0.641355  1
  F  F24  1  0.940517  0.279859  0.040155  1
  F  F25  1  0.059483  0.720141  0.959845  1
  F  F26  1  0.439024  0.720096  0.456814  1
  F  F27  1  0.560976  0.279904  0.543186  1
  F  F28  1  0.743819  0.973540  0.451171  1
  F  F29  1  0.256181  0.026460  0.548829  1
  F  F30  1  0.242790  0.023154  0.049854  1
  F  F31  1  0.757210  0.976846  0.950146  1
  F  F32  1  0.584620  0.965990  0.231885  1
  F  F33  1  0.415380  0.034010  0.768115  1
  F  F34  1  0.091047  0.026875  0.268488  1
  F  F35  1  0.908953  0.973125  0.731512  1
