# generated using pymatgen
data_Cu3H9Br2
_symmetry_space_group_name_H-M   'P 1'
_cell_length_a   4.05205038
_cell_length_b   6.52615101
_cell_length_c   10.60208759
_cell_angle_alpha   106.06639516
_cell_angle_beta   91.23874650
_cell_angle_gamma   73.10642453
_symmetry_Int_Tables_number   1
_chemical_formula_structural   Cu3H9Br2
_chemical_formula_sum   'Cu3 H9 Br2'
_cell_volume   257.26014141
_cell_formula_units_Z   1
loop_
 _symmetry_equiv_pos_site_id
 _symmetry_equiv_pos_as_xyz
  1  'x, y, z'
loop_
 _atom_site_type_symbol
 _atom_site_label
 _atom_site_symmetry_multiplicity
 _atom_site_fract_x
 _atom_site_fract_y
 _atom_site_fract_z
 _atom_site_occupancy
  Cu  Cu0  1  0.950562  0.801941  0.002323  1
  Cu  Cu1  1  0.498716  0.715294  0.102846  1
  Cu  Cu2  1  0.422859  0.850456  0.888747  1
  H  H3  1  0.641104  0.342265  0.630513  1
  H  H4  1  0.633136  0.923898  0.475495  1
  H  H5  1  0.639324  0.354065  0.384444  1
  H  H6  1  0.236696  0.304214  0.851779  1
  H  H7  1  0.516535  0.928478  0.046792  1
  H  H8  1  0.641540  0.241066  0.341519  1
  H  H9  1  0.744796  0.229097  0.634999  1
  H  H10  1  0.705246  0.808047  0.430469  1
  H  H11  1  0.169821  0.233633  0.794540  1
  Br  Br12  1  0.968324  0.782328  0.754988  1
  Br  Br13  1  0.108366  0.536630  0.152403  1
