# generated using pymatgen
data_PaICl8
_symmetry_space_group_name_H-M   'P 1'
_cell_length_a   7.62092400
_cell_length_b   7.62092400
_cell_length_c   25.58212600
_cell_angle_alpha   90.00000000
_cell_angle_beta   90.00000000
_cell_angle_gamma   90.00000000
_symmetry_Int_Tables_number   1
_chemical_formula_structural   PaICl8
_chemical_formula_sum   'Pa4 I4 Cl32'
_cell_volume   1485.77106011
_cell_formula_units_Z   4
loop_
 _symmetry_equiv_pos_site_id
 _symmetry_equiv_pos_as_xyz
  1  'x, y, z'
loop_
 _atom_site_type_symbol
 _atom_site_label
 _atom_site_symmetry_multiplicity
 _atom_site_fract_x
 _atom_site_fract_y
 _atom_site_fract_z
 _atom_site_occupancy
  Pa  Pa0  1  0.773111  0.002460  0.500928  1
  Pa  Pa1  1  0.002460  0.226889  0.250928  1
  Pa  Pa2  1  0.226889  0.997540  0.000928  1
  Pa  Pa3  1  0.997540  0.773111  0.750928  1
  I  I4  1  0.138025  0.757594  0.371649  1
  I  I5  1  0.242406  0.138025  0.621649  1
  I  I6  1  0.861975  0.242406  0.871649  1
  I  I7  1  0.757594  0.861975  0.121649  1
  Cl  Cl8  1  0.242225  0.270692  0.317052  1
  Cl  Cl9  1  0.912923  0.927913  0.299245  1
  Cl  Cl10  1  0.616470  0.219837  0.815415  1
  Cl  Cl11  1  0.076253  0.503703  0.202250  1
  Cl  Cl12  1  0.780163  0.616470  0.065415  1
  Cl  Cl13  1  0.840436  0.735464  0.434686  1
  Cl  Cl14  1  0.087077  0.072087  0.799245  1
  Cl  Cl15  1  0.804074  0.952609  0.692053  1
  Cl  Cl16  1  0.735464  0.159564  0.184686  1
  Cl  Cl17  1  0.503703  0.923747  0.952250  1
  Cl  Cl18  1  0.407201  0.289627  0.685564  1
  Cl  Cl19  1  0.592799  0.710373  0.185564  1
  Cl  Cl20  1  0.159564  0.264536  0.934686  1
  Cl  Cl21  1  0.383530  0.780163  0.315415  1
  Cl  Cl22  1  0.952609  0.195926  0.442053  1
  Cl  Cl23  1  0.757775  0.729308  0.817052  1
  Cl  Cl24  1  0.072087  0.912923  0.549245  1
  Cl  Cl25  1  0.927913  0.087077  0.049245  1
  Cl  Cl26  1  0.222937  0.617035  0.805658  1
  Cl  Cl27  1  0.219837  0.383530  0.565415  1
  Cl  Cl28  1  0.264536  0.840436  0.684686  1
  Cl  Cl29  1  0.195926  0.047391  0.192053  1
  Cl  Cl30  1  0.617035  0.777063  0.555658  1
  Cl  Cl31  1  0.729308  0.242225  0.567052  1
  Cl  Cl32  1  0.923747  0.496297  0.702250  1
  Cl  Cl33  1  0.382965  0.222937  0.055658  1
  Cl  Cl34  1  0.289627  0.592799  0.435564  1
  Cl  Cl35  1  0.270692  0.757775  0.067052  1
  Cl  Cl36  1  0.710373  0.407201  0.935564  1
  Cl  Cl37  1  0.777063  0.382965  0.305658  1
  Cl  Cl38  1  0.496297  0.076253  0.452250  1
  Cl  Cl39  1  0.047391  0.804074  0.942053  1
