# generated using pymatgen
data_Yb3GdP3
_symmetry_space_group_name_H-M   'P 1'
_cell_length_a   7.45436593
_cell_length_b   7.49722736
_cell_length_c   7.45436528
_cell_angle_alpha   109.52090930
_cell_angle_beta   109.20682113
_cell_angle_gamma   109.52091639
_symmetry_Int_Tables_number   1
_chemical_formula_structural   Yb3GdP3
_chemical_formula_sum   'Yb6 Gd2 P6'
_cell_volume   321.34992997
_cell_formula_units_Z   2
loop_
 _symmetry_equiv_pos_site_id
 _symmetry_equiv_pos_as_xyz
  1  'x, y, z'
loop_
 _atom_site_type_symbol
 _atom_site_label
 _atom_site_symmetry_multiplicity
 _atom_site_fract_x
 _atom_site_fract_y
 _atom_site_fract_z
 _atom_site_occupancy
  Yb  Yb0  1  0.364008  0.359993  0.365928  1
  Yb  Yb1  1  0.998339  0.133938  0.494189  1
  Yb  Yb2  1  0.865928  0.859993  0.864008  1
  Yb  Yb3  1  0.994189  0.633938  0.498339  1
  Yb  Yb4  1  0.636517  0.506413  0.004068  1
  Yb  Yb5  1  0.504068  0.006413  0.136517  1
  Gd  Gd6  1  0.138012  0.499805  0.000111  1
  Gd  Gd7  1  0.500111  0.999805  0.638012  1
  P  P8  1  0.876037  0.249735  0.115789  1
  P  P9  1  0.131240  0.870941  0.252494  1
  P  P10  1  0.371984  0.629175  0.751284  1
  P  P11  1  0.251284  0.129175  0.871984  1
  P  P12  1  0.752494  0.370941  0.631240  1
  P  P13  1  0.615789  0.749735  0.376037  1
