# generated using pymatgen
data_TeAs4Ru4Se3
_symmetry_space_group_name_H-M   'P 1'
_cell_length_a   6.21008171
_cell_length_b   6.24901384
_cell_length_c   6.31323773
_cell_angle_alpha   67.00236341
_cell_angle_beta   89.49700112
_cell_angle_gamma   89.46132014
_symmetry_Int_Tables_number   1
_chemical_formula_structural   TeAs4Ru4Se3
_chemical_formula_sum   'Te1 As4 Ru4 Se3'
_cell_volume   225.51153198
_cell_formula_units_Z   1
loop_
 _symmetry_equiv_pos_site_id
 _symmetry_equiv_pos_as_xyz
  1  'x, y, z'
loop_
 _atom_site_type_symbol
 _atom_site_label
 _atom_site_symmetry_multiplicity
 _atom_site_fract_x
 _atom_site_fract_y
 _atom_site_fract_z
 _atom_site_occupancy
  Te  Te0  1  0.874232  0.845852  0.867587  1
  As  As1  1  0.359625  0.651620  0.173294  1
  As  As2  1  0.860340  0.347683  0.327560  1
  As  As3  1  0.639204  0.348288  0.825923  1
  As  As4  1  0.145069  0.649754  0.670642  1
  Ru  Ru5  1  0.005340  0.723040  0.294734  1
  Ru  Ru6  1  0.503364  0.274381  0.210253  1
  Ru  Ru7  1  0.998235  0.280858  0.706597  1
  Ru  Ru8  1  0.492703  0.722502  0.789413  1
  Se  Se9  1  0.621229  0.843612  0.367513  1
  Se  Se10  1  0.123395  0.156234  0.133474  1
  Se  Se11  1  0.377265  0.156177  0.633009  1
