# generated using pymatgen
data_TiSi2MoRh2
_symmetry_space_group_name_H-M   'P 1'
_cell_length_a   3.77575300
_cell_length_b   6.28818500
_cell_length_c   7.25339600
_cell_angle_alpha   90.00000000
_cell_angle_beta   90.00000000
_cell_angle_gamma   90.00000000
_symmetry_Int_Tables_number   1
_chemical_formula_structural   TiSi2MoRh2
_chemical_formula_sum   'Ti2 Si4 Mo2 Rh4'
_cell_volume   172.21472198
_cell_formula_units_Z   2
loop_
 _symmetry_equiv_pos_site_id
 _symmetry_equiv_pos_as_xyz
  1  'x, y, z'
loop_
 _atom_site_type_symbol
 _atom_site_label
 _atom_site_symmetry_multiplicity
 _atom_site_fract_x
 _atom_site_fract_y
 _atom_site_fract_z
 _atom_site_occupancy
  Ti  Ti0  1  0.250000  0.473801  0.676195  1
  Ti  Ti1  1  0.250000  0.973801  0.823805  1
  Si  Si2  1  0.250000  0.234850  0.372611  1
  Si  Si3  1  0.750000  0.761563  0.618541  1
  Si  Si4  1  0.250000  0.734850  0.127389  1
  Si  Si5  1  0.750000  0.261563  0.881459  1
  Mo  Mo6  1  0.750000  0.026971  0.177709  1
  Mo  Mo7  1  0.750000  0.526971  0.322291  1
  Rh  Rh8  1  0.750000  0.148641  0.567093  1
  Rh  Rh9  1  0.250000  0.354174  0.059389  1
  Rh  Rh10  1  0.750000  0.648641  0.932907  1
  Rh  Rh11  1  0.250000  0.854174  0.440611  1
