# generated using pymatgen
data_Tm7Lu3OsRu3
_symmetry_space_group_name_H-M   'P 1'
_cell_length_a   6.22269869
_cell_length_b   7.24694851
_cell_length_c   8.29319192
_cell_angle_alpha   96.99685471
_cell_angle_beta   112.00238146
_cell_angle_gamma   89.90668706
_symmetry_Int_Tables_number   1
_chemical_formula_structural   Tm7Lu3OsRu3
_chemical_formula_sum   'Tm7 Lu3 Os1 Ru3'
_cell_volume   343.77215550
_cell_formula_units_Z   1
loop_
 _symmetry_equiv_pos_site_id
 _symmetry_equiv_pos_as_xyz
  1  'x, y, z'
loop_
 _atom_site_type_symbol
 _atom_site_label
 _atom_site_symmetry_multiplicity
 _atom_site_fract_x
 _atom_site_fract_y
 _atom_site_fract_z
 _atom_site_occupancy
  Tm  Tm0  1  0.522094  0.083998  0.814878  1
  Tm  Tm1  1  0.477080  0.917446  0.185622  1
  Tm  Tm2  1  0.710486  0.416329  0.185538  1
  Tm  Tm3  1  0.292872  0.584287  0.817816  1
  Tm  Tm4  1  0.295987  0.316128  0.434941  1
  Tm  Tm5  1  0.701586  0.683159  0.563996  1
  Tm  Tm6  1  0.862282  0.183934  0.565258  1
  Lu  Lu7  1  0.138145  0.815280  0.434049  1
  Lu  Lu8  1  0.081014  0.250401  0.000253  1
  Lu  Lu9  1  0.919913  0.749557  0.000473  1
  Os  Os10  1  0.320251  0.578276  0.218044  1
  Ru  Ru11  1  0.678086  0.421572  0.780503  1
  Ru  Ru12  1  0.101459  0.922781  0.778472  1
  Ru  Ru13  1  0.898743  0.076850  0.220156  1
