# generated using pymatgen
data_Sc(NbSe2)3
_symmetry_space_group_name_H-M   'P 1'
_cell_length_a   6.08252700
_cell_length_b   6.08252770
_cell_length_c   13.60190500
_cell_angle_alpha   90.00000000
_cell_angle_beta   90.00000000
_cell_angle_gamma   119.99999075
_symmetry_Int_Tables_number   1
_chemical_formula_structural   Sc(NbSe2)3
_chemical_formula_sum   'Sc2 Nb6 Se12'
_cell_volume   435.81136389
_cell_formula_units_Z   2
loop_
 _symmetry_equiv_pos_site_id
 _symmetry_equiv_pos_as_xyz
  1  'x, y, z'
loop_
 _atom_site_type_symbol
 _atom_site_label
 _atom_site_symmetry_multiplicity
 _atom_site_fract_x
 _atom_site_fract_y
 _atom_site_fract_z
 _atom_site_occupancy
  Sc  Sc0  1  0.333333  0.666667  0.250000  1
  Sc  Sc1  1  0.666667  0.333333  0.750000  1
  Nb  Nb2  1  0.000000  0.000000  0.500000  1
  Nb  Nb3  1  0.000000  0.000000  0.000000  1
  Nb  Nb4  1  0.333333  0.666667  0.001049  1
  Nb  Nb5  1  0.666667  0.333333  0.998951  1
  Nb  Nb6  1  0.666667  0.333333  0.501049  1
  Nb  Nb7  1  0.333333  0.666667  0.498951  1
  Se  Se8  1  0.333998  0.327601  0.376456  1
  Se  Se9  1  0.672399  0.006396  0.376456  1
  Se  Se10  1  0.993604  0.666002  0.376456  1
  Se  Se11  1  0.327601  0.333998  0.623544  1
  Se  Se12  1  0.006396  0.672399  0.623544  1
  Se  Se13  1  0.666002  0.993604  0.623544  1
  Se  Se14  1  0.666002  0.672399  0.876456  1
  Se  Se15  1  0.327601  0.993604  0.876456  1
  Se  Se16  1  0.006396  0.333998  0.876456  1
  Se  Se17  1  0.672399  0.666002  0.123544  1
  Se  Se18  1  0.993604  0.327601  0.123544  1
  Se  Se19  1  0.333998  0.006396  0.123544  1
