# generated using pymatgen
data_Er16In4OsRh3
_symmetry_space_group_name_H-M   'P 1'
_cell_length_a   9.55992843
_cell_length_b   9.58879349
_cell_length_c   9.55992900
_cell_angle_alpha   60.09953126
_cell_angle_beta   60.00000148
_cell_angle_gamma   60.09953475
_symmetry_Int_Tables_number   1
_chemical_formula_structural   Er16In4OsRh3
_chemical_formula_sum   'Er16 In4 Os1 Rh3'
_cell_volume   620.59749041
_cell_formula_units_Z   1
loop_
 _symmetry_equiv_pos_site_id
 _symmetry_equiv_pos_as_xyz
  1  'x, y, z'
loop_
 _atom_site_type_symbol
 _atom_site_label
 _atom_site_symmetry_multiplicity
 _atom_site_fract_x
 _atom_site_fract_y
 _atom_site_fract_z
 _atom_site_occupancy
  Er  Er0  1  0.186839  0.191181  0.810990  1
  Er  Er1  1  0.437654  0.061993  0.062699  1
  Er  Er2  1  0.437654  0.061993  0.437654  1
  Er  Er3  1  0.059993  0.436756  0.059993  1
  Er  Er4  1  0.649832  0.050504  0.649832  1
  Er  Er5  1  0.189059  0.810715  0.811167  1
  Er  Er6  1  0.062699  0.061993  0.437654  1
  Er  Er7  1  0.810990  0.191181  0.186839  1
  Er  Er8  1  0.811167  0.810715  0.189059  1
  Er  Er9  1  0.650166  0.649273  0.050394  1
  Er  Er10  1  0.650166  0.649273  0.650166  1
  Er  Er11  1  0.059993  0.436756  0.443258  1
  Er  Er12  1  0.050394  0.649273  0.650166  1
  Er  Er13  1  0.810990  0.191181  0.810990  1
  Er  Er14  1  0.443258  0.436756  0.059993  1
  Er  Er15  1  0.189059  0.810715  0.189059  1
  In  In16  1  0.417052  0.748844  0.417052  1
  In  In17  1  0.417057  0.416506  0.749380  1
  In  In18  1  0.749380  0.416506  0.417057  1
  In  In19  1  0.417057  0.416506  0.417057  1
  Os  Os20  1  0.857046  0.428863  0.857046  1
  Rh  Rh21  1  0.857454  0.857506  0.427585  1
  Rh  Rh22  1  0.427585  0.857506  0.857454  1
  Rh  Rh23  1  0.857454  0.857506  0.857454  1
