# generated using pymatgen
data_Y3Ho2Bi2Os
_symmetry_space_group_name_H-M   'P 1'
_cell_length_a   7.97687600
_cell_length_b   9.02748800
_cell_length_c   12.51645800
_cell_angle_alpha   90.00000000
_cell_angle_beta   90.00000000
_cell_angle_gamma   90.00000000
_symmetry_Int_Tables_number   1
_chemical_formula_structural   Y3Ho2Bi2Os
_chemical_formula_sum   'Y12 Ho8 Bi8 Os4'
_cell_volume   901.32456414
_cell_formula_units_Z   4
loop_
 _symmetry_equiv_pos_site_id
 _symmetry_equiv_pos_as_xyz
  1  'x, y, z'
loop_
 _atom_site_type_symbol
 _atom_site_label
 _atom_site_symmetry_multiplicity
 _atom_site_fract_x
 _atom_site_fract_y
 _atom_site_fract_z
 _atom_site_occupancy
  Y  Y0  1  0.340605  0.750000  0.710199  1
  Y  Y1  1  0.659395  0.250000  0.289801  1
  Y  Y2  1  0.840605  0.250000  0.789801  1
  Y  Y3  1  0.159395  0.750000  0.210199  1
  Y  Y4  1  0.874212  0.750000  0.806477  1
  Y  Y5  1  0.125788  0.250000  0.193523  1
  Y  Y6  1  0.374212  0.250000  0.693523  1
  Y  Y7  1  0.625788  0.750000  0.306477  1
  Y  Y8  1  0.058132  0.750000  0.495880  1
  Y  Y9  1  0.941868  0.250000  0.504120  1
  Y  Y10  1  0.558132  0.250000  0.004120  1
  Y  Y11  1  0.441868  0.750000  0.995880  1
  Ho  Ho12  1  0.672337  0.542955  0.563529  1
  Ho  Ho13  1  0.327663  0.457045  0.436471  1
  Ho  Ho14  1  0.172337  0.457045  0.936471  1
  Ho  Ho15  1  0.327663  0.042955  0.436471  1
  Ho  Ho16  1  0.827663  0.542955  0.063529  1
  Ho  Ho17  1  0.672337  0.957045  0.563529  1
  Ho  Ho18  1  0.827663  0.957045  0.063529  1
  Ho  Ho19  1  0.172337  0.042955  0.936471  1
  Bi  Bi20  1  0.568590  0.506694  0.828509  1
  Bi  Bi21  1  0.431410  0.493306  0.171491  1
  Bi  Bi22  1  0.068590  0.493306  0.671491  1
  Bi  Bi23  1  0.431410  0.006694  0.171491  1
  Bi  Bi24  1  0.931410  0.506694  0.328509  1
  Bi  Bi25  1  0.568590  0.993306  0.828509  1
  Bi  Bi26  1  0.931410  0.993306  0.328509  1
  Bi  Bi27  1  0.068590  0.006694  0.671491  1
  Os  Os28  1  0.074551  0.750000  0.989744  1
  Os  Os29  1  0.925449  0.250000  0.010256  1
  Os  Os30  1  0.574551  0.250000  0.510256  1
  Os  Os31  1  0.425449  0.750000  0.489744  1
