# generated using pymatgen
data_Nd7Y(SiI6)2
_symmetry_space_group_name_H-M   'P 1'
_cell_length_a   4.33301800
_cell_length_b   14.44203500
_cell_length_c   15.20968850
_cell_angle_alpha   90.35024416
_cell_angle_beta   90.00000000
_cell_angle_gamma   90.00000000
_symmetry_Int_Tables_number   1
_chemical_formula_structural   Nd7Y(SiI6)2
_chemical_formula_sum   'Nd7 Y1 Si2 I12'
_cell_volume   951.76798381
_cell_formula_units_Z   1
loop_
 _symmetry_equiv_pos_site_id
 _symmetry_equiv_pos_as_xyz
  1  'x, y, z'
loop_
 _atom_site_type_symbol
 _atom_site_label
 _atom_site_symmetry_multiplicity
 _atom_site_fract_x
 _atom_site_fract_y
 _atom_site_fract_z
 _atom_site_occupancy
  Nd  Nd0  1  0.500000  0.115137  0.346582  1
  Nd  Nd1  1  0.500000  0.885605  0.653987  1
  Nd  Nd2  1  0.500000  0.613928  0.152558  1
  Nd  Nd3  1  0.000000  0.114906  0.577313  1
  Nd  Nd4  1  0.000000  0.886838  0.424293  1
  Nd  Nd5  1  0.000000  0.612560  0.923817  1
  Nd  Nd6  1  0.000000  0.386330  0.074643  1
  Y  Y7  1  0.500000  0.386686  0.847984  1
  Si  Si8  1  0.500000  0.001002  0.500685  1
  Si  Si9  1  0.500000  0.498499  0.997933  1
  I  I10  1  0.500000  0.243156  0.160546  1
  I  I11  1  0.500000  0.755523  0.837784  1
  I  I12  1  0.500000  0.743294  0.338223  1
  I  I13  1  0.500000  0.258335  0.666271  1
  I  I14  1  0.000000  0.259541  0.414879  1
  I  I15  1  0.000000  0.741047  0.585878  1
  I  I16  1  0.000000  0.758410  0.086115  1
  I  I17  1  0.000000  0.246733  0.907550  1
  I  I18  1  0.000000  0.998188  0.240256  1
  I  I19  1  0.000000  0.002088  0.760664  1
  I  I20  1  0.000000  0.498498  0.259158  1
  I  I21  1  0.000000  0.493696  0.742881  1
