# generated using pymatgen
data_Dy8Zn3Si12Ir
_symmetry_space_group_name_H-M   'P 1'
_cell_length_a   8.11096200
_cell_length_b   8.11096224
_cell_length_c   8.09573400
_cell_angle_alpha   90.00000000
_cell_angle_beta   90.00000000
_cell_angle_gamma   119.99999085
_symmetry_Int_Tables_number   1
_chemical_formula_structural   Dy8Zn3Si12Ir
_chemical_formula_sum   'Dy8 Zn3 Si12 Ir1'
_cell_volume   461.24497569
_cell_formula_units_Z   1
loop_
 _symmetry_equiv_pos_site_id
 _symmetry_equiv_pos_as_xyz
  1  'x, y, z'
loop_
 _atom_site_type_symbol
 _atom_site_label
 _atom_site_symmetry_multiplicity
 _atom_site_fract_x
 _atom_site_fract_y
 _atom_site_fract_z
 _atom_site_occupancy
  Dy  Dy0  1  0.000000  0.000000  0.248126  1
  Dy  Dy1  1  0.000000  0.000000  0.751488  1
  Dy  Dy2  1  0.999947  0.499974  0.250138  1
  Dy  Dy3  1  0.500026  0.499974  0.250138  1
  Dy  Dy4  1  0.502816  0.005631  0.749935  1
  Dy  Dy5  1  0.500026  0.000053  0.250138  1
  Dy  Dy6  1  0.502816  0.497184  0.749935  1
  Dy  Dy7  1  0.994369  0.497184  0.749935  1
  Zn  Zn8  1  0.333333  0.666667  0.993009  1
  Zn  Zn9  1  0.333333  0.666667  0.503867  1
  Zn  Zn10  1  0.666667  0.333333  0.008254  1
  Si  Si11  1  0.166671  0.333343  0.000795  1
  Si  Si12  1  0.666657  0.833329  0.000795  1
  Si  Si13  1  0.163517  0.327033  0.501011  1
  Si  Si14  1  0.333691  0.166846  0.998805  1
  Si  Si15  1  0.166671  0.833329  0.000795  1
  Si  Si16  1  0.672967  0.836483  0.501011  1
  Si  Si17  1  0.833154  0.666309  0.998805  1
  Si  Si18  1  0.338159  0.169079  0.498650  1
  Si  Si19  1  0.163517  0.836483  0.501011  1
  Si  Si20  1  0.830921  0.661841  0.498650  1
  Si  Si21  1  0.833154  0.166846  0.998805  1
  Si  Si22  1  0.830921  0.169079  0.498650  1
  Ir  Ir23  1  0.666667  0.333333  0.497258  1
