# generated using pymatgen
data_La9Ce(PaSe10)2
_symmetry_space_group_name_H-M   'P 1'
_cell_length_a   7.98737674
_cell_length_b   8.70093700
_cell_length_c   12.65272700
_cell_angle_alpha   90.00000000
_cell_angle_beta   90.09397733
_cell_angle_gamma   90.00000000
_symmetry_Int_Tables_number   1
_chemical_formula_structural   La9Ce(PaSe10)2
_chemical_formula_sum   'La9 Ce1 Pa2 Se20'
_cell_volume   879.33375965
_cell_formula_units_Z   1
loop_
 _symmetry_equiv_pos_site_id
 _symmetry_equiv_pos_as_xyz
  1  'x, y, z'
loop_
 _atom_site_type_symbol
 _atom_site_label
 _atom_site_symmetry_multiplicity
 _atom_site_fract_x
 _atom_site_fract_y
 _atom_site_fract_z
 _atom_site_occupancy
  La  La0  1  0.528616  0.502589  0.324188  1
  La  La1  1  0.971750  0.996763  0.822464  1
  La  La2  1  0.475717  0.998047  0.676621  1
  La  La3  1  0.024845  0.501270  0.177932  1
  La  La4  1  0.475717  0.501953  0.676621  1
  La  La5  1  0.024845  0.998730  0.177932  1
  La  La6  1  0.528616  0.997411  0.324188  1
  La  La7  1  0.971750  0.503237  0.822464  1
  La  La8  1  0.423829  0.750000  0.990208  1
  Ce  Ce9  1  0.075574  0.750000  0.489338  1
  Pa  Pa10  1  0.937777  0.250000  0.505867  1
  Pa  Pa11  1  0.561707  0.250000  0.005089  1
  Se  Se12  1  0.837257  0.969565  0.593071  1
  Se  Se13  1  0.663572  0.526738  0.096373  1
  Se  Se14  1  0.166905  0.450411  0.406072  1
  Se  Se15  1  0.333627  0.052371  0.903940  1
  Se  Se16  1  0.166905  0.049589  0.406072  1
  Se  Se17  1  0.333627  0.447629  0.903940  1
  Se  Se18  1  0.837257  0.530435  0.593071  1
  Se  Se19  1  0.663572  0.973262  0.096373  1
  Se  Se20  1  0.828703  0.750000  0.308556  1
  Se  Se21  1  0.673546  0.750000  0.805639  1
  Se  Se22  1  0.162136  0.250000  0.683859  1
  Se  Se23  1  0.336965  0.250000  0.184116  1
  Se  Se24  1  0.461478  0.750000  0.499852  1
  Se  Se25  1  0.034367  0.750000  0.999777  1
  Se  Se26  1  0.552800  0.250000  0.502787  1
  Se  Se27  1  0.946394  0.250000  0.002077  1
  Se  Se28  1  0.196216  0.750000  0.718368  1
  Se  Se29  1  0.303200  0.750000  0.221540  1
  Se  Se30  1  0.811429  0.250000  0.291645  1
  Se  Se31  1  0.689304  0.250000  0.789963  1
