# generated using pymatgen
data_Ac5NpSe10
_symmetry_space_group_name_H-M   'P 1'
_cell_length_a   8.17622400
_cell_length_b   8.87017100
_cell_length_c   13.00926500
_cell_angle_alpha   90.00000000
_cell_angle_beta   90.00000000
_cell_angle_gamma   90.00000000
_symmetry_Int_Tables_number   1
_chemical_formula_structural   Ac5NpSe10
_chemical_formula_sum   'Ac10 Np2 Se20'
_cell_volume   943.49050472
_cell_formula_units_Z   2
loop_
 _symmetry_equiv_pos_site_id
 _symmetry_equiv_pos_as_xyz
  1  'x, y, z'
loop_
 _atom_site_type_symbol
 _atom_site_label
 _atom_site_symmetry_multiplicity
 _atom_site_fract_x
 _atom_site_fract_y
 _atom_site_fract_z
 _atom_site_occupancy
  Ac  Ac0  1  0.973870  0.497476  0.324382  1
  Ac  Ac1  1  0.526130  0.002524  0.824382  1
  Ac  Ac2  1  0.032841  0.999915  0.675394  1
  Ac  Ac3  1  0.467159  0.500085  0.175394  1
  Ac  Ac4  1  0.032841  0.500085  0.675394  1
  Ac  Ac5  1  0.467159  0.999915  0.175394  1
  Ac  Ac6  1  0.973870  0.002524  0.324382  1
  Ac  Ac7  1  0.526130  0.497476  0.824382  1
  Ac  Ac8  1  0.929343  0.750000  0.008814  1
  Ac  Ac9  1  0.570657  0.750000  0.508814  1
  Np  Np10  1  0.046417  0.250000  0.997609  1
  Np  Np11  1  0.453583  0.250000  0.497609  1
  Se  Se12  1  0.831815  0.056447  0.093287  1
  Se  Se13  1  0.668185  0.443553  0.593287  1
  Se  Se14  1  0.162457  0.513852  0.907321  1
  Se  Se15  1  0.337543  0.986148  0.407321  1
  Se  Se16  1  0.162457  0.986148  0.907321  1
  Se  Se17  1  0.337543  0.513852  0.407321  1
  Se  Se18  1  0.831815  0.443553  0.093287  1
  Se  Se19  1  0.668185  0.056447  0.593287  1
  Se  Se20  1  0.534925  0.750000  0.000192  1
  Se  Se21  1  0.965075  0.750000  0.500192  1
  Se  Se22  1  0.446149  0.250000  0.998309  1
  Se  Se23  1  0.053851  0.250000  0.498309  1
  Se  Se24  1  0.174429  0.750000  0.197213  1
  Se  Se25  1  0.325571  0.750000  0.697213  1
  Se  Se26  1  0.836916  0.250000  0.816446  1
  Se  Se27  1  0.663084  0.250000  0.316446  1
  Se  Se28  1  0.697243  0.750000  0.276707  1
  Se  Se29  1  0.802757  0.750000  0.776707  1
  Se  Se30  1  0.316885  0.250000  0.703942  1
  Se  Se31  1  0.183115  0.250000  0.203942  1
