# generated using pymatgen
data_Tb4Hf3MoF28
_symmetry_space_group_name_H-M   'P 1'
_cell_length_a   5.70781802
_cell_length_b   9.05740441
_cell_length_c   12.18100200
_cell_angle_alpha   62.42616926
_cell_angle_beta   89.99510140
_cell_angle_gamma   90.04140615
_symmetry_Int_Tables_number   1
_chemical_formula_structural   Tb4Hf3MoF28
_chemical_formula_sum   'Tb4 Hf3 Mo1 F28'
_cell_volume   558.20519230
_cell_formula_units_Z   1
loop_
 _symmetry_equiv_pos_site_id
 _symmetry_equiv_pos_as_xyz
  1  'x, y, z'
loop_
 _atom_site_type_symbol
 _atom_site_label
 _atom_site_symmetry_multiplicity
 _atom_site_fract_x
 _atom_site_fract_y
 _atom_site_fract_z
 _atom_site_occupancy
  Tb  Tb0  1  0.256712  0.814299  0.266336  1
  Tb  Tb1  1  0.743610  0.185350  0.734323  1
  Tb  Tb2  1  0.756640  0.186304  0.233879  1
  Tb  Tb3  1  0.242379  0.814035  0.764098  1
  Hf  Hf4  1  0.755151  0.726225  0.043543  1
  Hf  Hf5  1  0.244860  0.274200  0.955725  1
  Hf  Hf6  1  0.255295  0.274445  0.456184  1
  Mo  Mo7  1  0.744355  0.726475  0.543582  1
  F  F8  1  0.959401  0.706659  0.421280  1
  F  F9  1  0.039155  0.289893  0.579811  1
  F  F10  1  0.460562  0.290437  0.079440  1
  F  F11  1  0.538886  0.710306  0.919983  1
  F  F12  1  0.482643  0.733447  0.145326  1
  F  F13  1  0.517713  0.267373  0.854294  1
  F  F14  1  0.982450  0.265872  0.355193  1
  F  F15  1  0.023485  0.731674  0.642293  1
  F  F16  1  0.962505  0.746747  0.170469  1
  F  F17  1  0.038569  0.253105  0.829087  1
  F  F18  1  0.462872  0.252685  0.329863  1
  F  F19  1  0.535824  0.745787  0.669630  1
  F  F20  1  0.768832  0.477256  0.141446  1
  F  F21  1  0.230596  0.522815  0.858587  1
  F  F22  1  0.268141  0.522898  0.358221  1
  F  F23  1  0.736348  0.479989  0.642456  1
  F  F24  1  0.954876  0.280992  0.048550  1
  F  F25  1  0.044724  0.719265  0.950813  1
  F  F26  1  0.452726  0.719942  0.451906  1
  F  F27  1  0.544798  0.282316  0.548733  1
  F  F28  1  0.737824  0.972309  0.447071  1
  F  F29  1  0.260153  0.026458  0.556650  1
  F  F30  1  0.240046  0.026295  0.057424  1
  F  F31  1  0.759957  0.974525  0.942861  1
  F  F32  1  0.575314  0.972442  0.233979  1
  F  F33  1  0.424539  0.027814  0.766067  1
  F  F34  1  0.073864  0.027530  0.267837  1
  F  F35  1  0.924195  0.971836  0.733056  1
