# generated using pymatgen
data_Yb2ReRu3
_symmetry_space_group_name_H-M   'P 1'
_cell_length_a   5.49734700
_cell_length_b   5.49734662
_cell_length_c   8.05482700
_cell_angle_alpha   90.00000000
_cell_angle_beta   90.00000000
_cell_angle_gamma   119.99999630
_symmetry_Int_Tables_number   1
_chemical_formula_structural   Yb2ReRu3
_chemical_formula_sum   'Yb4 Re2 Ru6'
_cell_volume   210.81093616
_cell_formula_units_Z   2
loop_
 _symmetry_equiv_pos_site_id
 _symmetry_equiv_pos_as_xyz
  1  'x, y, z'
loop_
 _atom_site_type_symbol
 _atom_site_label
 _atom_site_symmetry_multiplicity
 _atom_site_fract_x
 _atom_site_fract_y
 _atom_site_fract_z
 _atom_site_occupancy
  Yb  Yb0  1  0.333333  0.666667  0.432954  1
  Yb  Yb1  1  0.666667  0.333333  0.567046  1
  Yb  Yb2  1  0.666667  0.333333  0.932954  1
  Yb  Yb3  1  0.333333  0.666667  0.067046  1
  Re  Re4  1  0.000000  0.000000  0.500000  1
  Re  Re5  1  0.000000  0.000000  0.000000  1
  Ru  Ru6  1  0.827523  0.172477  0.250000  1
  Ru  Ru7  1  0.827523  0.655047  0.250000  1
  Ru  Ru8  1  0.344953  0.172477  0.250000  1
  Ru  Ru9  1  0.172477  0.827523  0.750000  1
  Ru  Ru10  1  0.172477  0.344953  0.750000  1
  Ru  Ru11  1  0.655047  0.827523  0.750000  1
