# generated using pymatgen
data_Tm12Rh7
_symmetry_space_group_name_H-M   'P 1'
_cell_length_a   11.22131700
_cell_length_b   8.22662465
_cell_length_c   11.23629800
_cell_angle_alpha   57.30731884
_cell_angle_beta   90.00000000
_cell_angle_gamma   90.00000000
_symmetry_Int_Tables_number   1
_chemical_formula_structural   Tm12Rh7
_chemical_formula_sum   'Tm24 Rh14'
_cell_volume   872.93932266
_cell_formula_units_Z   2
loop_
 _symmetry_equiv_pos_site_id
 _symmetry_equiv_pos_as_xyz
  1  'x, y, z'
loop_
 _atom_site_type_symbol
 _atom_site_label
 _atom_site_symmetry_multiplicity
 _atom_site_fract_x
 _atom_site_fract_y
 _atom_site_fract_z
 _atom_site_occupancy
  Tm  Tm0  1  0.701070  0.240057  0.527634  1
  Tm  Tm1  1  0.201070  0.759943  0.972366  1
  Tm  Tm2  1  0.847391  0.508341  0.658251  1
  Tm  Tm3  1  0.347391  0.491659  0.841749  1
  Tm  Tm4  1  0.152609  0.491659  0.341749  1
  Tm  Tm5  1  0.652609  0.508341  0.158251  1
  Tm  Tm6  1  0.005553  0.843882  0.367155  1
  Tm  Tm7  1  0.505553  0.156118  0.132845  1
  Tm  Tm8  1  0.994447  0.156118  0.632845  1
  Tm  Tm9  1  0.494447  0.843882  0.867155  1
  Tm  Tm10  1  0.798930  0.240057  0.027634  1
  Tm  Tm11  1  0.298930  0.759943  0.472366  1
  Tm  Tm12  1  0.925425  0.777974  0.095810  1
  Tm  Tm13  1  0.425425  0.222026  0.404190  1
  Tm  Tm14  1  0.074575  0.222026  0.904190  1
  Tm  Tm15  1  0.574575  0.777974  0.595810  1
  Tm  Tm16  1  0.306866  0.242371  0.670353  1
  Tm  Tm17  1  0.806866  0.757629  0.829647  1
  Tm  Tm18  1  0.693134  0.757629  0.329647  1
  Tm  Tm19  1  0.193134  0.242371  0.170353  1
  Tm  Tm20  1  0.917078  0.275295  0.291701  1
  Tm  Tm21  1  0.417078  0.724705  0.208299  1
  Tm  Tm22  1  0.082922  0.724705  0.708299  1
  Tm  Tm23  1  0.582922  0.275295  0.791701  1
  Rh  Rh24  1  0.500000  0.500000  0.500000  1
  Rh  Rh25  1  0.000000  0.500000  0.000000  1
  Rh  Rh26  1  0.638776  0.918367  0.052973  1
  Rh  Rh27  1  0.138776  0.081633  0.447027  1
  Rh  Rh28  1  0.361224  0.081633  0.947027  1
  Rh  Rh29  1  0.861224  0.918367  0.552973  1
  Rh  Rh30  1  0.394211  0.488149  0.102644  1
  Rh  Rh31  1  0.894211  0.511851  0.397356  1
  Rh  Rh32  1  0.605789  0.511851  0.897356  1
  Rh  Rh33  1  0.105789  0.488149  0.602644  1
  Rh  Rh34  1  0.832343  0.112498  0.841981  1
  Rh  Rh35  1  0.332343  0.887502  0.658019  1
  Rh  Rh36  1  0.167657  0.887502  0.158019  1
  Rh  Rh37  1  0.667657  0.112498  0.341981  1
