# generated using pymatgen
data_EuY6IrI12
_symmetry_space_group_name_H-M   'P 1'
_cell_length_a   9.87032161
_cell_length_b   9.87032021
_cell_length_c   9.87032014
_cell_angle_alpha   106.87671837
_cell_angle_beta   106.87671797
_cell_angle_gamma   106.87670699
_symmetry_Int_Tables_number   1
_chemical_formula_structural   EuY6IrI12
_chemical_formula_sum   'Eu1 Y6 Ir1 I12'
_cell_volume   803.50649351
_cell_formula_units_Z   1
loop_
 _symmetry_equiv_pos_site_id
 _symmetry_equiv_pos_as_xyz
  1  'x, y, z'
loop_
 _atom_site_type_symbol
 _atom_site_label
 _atom_site_symmetry_multiplicity
 _atom_site_fract_x
 _atom_site_fract_y
 _atom_site_fract_z
 _atom_site_occupancy
  Eu  Eu0  1  0.500000  0.500000  0.500000  1
  Y  Y1  1  0.908223  0.703642  0.981548  1
  Y  Y2  1  0.981548  0.908223  0.703642  1
  Y  Y3  1  0.703642  0.981548  0.908223  1
  Y  Y4  1  0.091777  0.296358  0.018452  1
  Y  Y5  1  0.018452  0.091777  0.296358  1
  Y  Y6  1  0.296358  0.018452  0.091777  1
  Ir  Ir7  1  0.000000  0.000000  0.000000  1
  I  I8  1  0.629502  0.859490  0.550884  1
  I  I9  1  0.550884  0.629502  0.859490  1
  I  I10  1  0.859490  0.550884  0.629502  1
  I  I11  1  0.370498  0.140510  0.449116  1
  I  I12  1  0.449116  0.370498  0.140510  1
  I  I13  1  0.140510  0.449116  0.370498  1
  I  I14  1  0.675512  0.074939  0.224666  1
  I  I15  1  0.224666  0.675512  0.074939  1
  I  I16  1  0.074939  0.224666  0.675512  1
  I  I17  1  0.324488  0.925061  0.775334  1
  I  I18  1  0.775334  0.324488  0.925061  1
  I  I19  1  0.925061  0.775334  0.324488  1
