# generated using pymatgen
data_Yb3Bi2Pt3O14
_symmetry_space_group_name_H-M   'P 1'
_cell_length_a   7.42564096
_cell_length_b   7.25617096
_cell_length_c   7.25616800
_cell_angle_alpha   59.99997704
_cell_angle_beta   60.75213044
_cell_angle_gamma   60.75216104
_symmetry_Int_Tables_number   1
_chemical_formula_structural   Yb3Bi2Pt3O14
_chemical_formula_sum   'Yb3 Bi2 Pt3 O14'
_cell_volume   279.56231188
_cell_formula_units_Z   1
loop_
 _symmetry_equiv_pos_site_id
 _symmetry_equiv_pos_as_xyz
  1  'x, y, z'
loop_
 _atom_site_type_symbol
 _atom_site_label
 _atom_site_symmetry_multiplicity
 _atom_site_fract_x
 _atom_site_fract_y
 _atom_site_fract_z
 _atom_site_occupancy
  Yb  Yb0  1  0.500000  0.500000  0.000000  1
  Yb  Yb1  1  0.500001  0.500001  0.499999  1
  Yb  Yb2  1  0.499999  0.000000  0.500001  1
  Bi  Bi3  1  0.500001  0.000000  0.000000  1
  Bi  Bi4  1  0.000000  0.499999  0.500001  1
  Pt  Pt5  1  0.000000  0.000000  0.000000  1
  Pt  Pt6  1  0.000000  0.499998  0.000000  1
  Pt  Pt7  1  0.000000  0.000000  0.500001  1
  O  O8  1  0.671134  0.644005  0.092430  1
  O  O9  1  0.671134  0.092431  0.092430  1
  O  O10  1  0.075835  0.665106  0.093954  1
  O  O11  1  0.924168  0.334893  0.334892  1
  O  O12  1  0.328865  0.907569  0.355997  1
  O  O13  1  0.924167  0.906045  0.334893  1
  O  O14  1  0.345726  0.384758  0.384758  1
  O  O15  1  0.654276  0.615241  0.615242  1
  O  O16  1  0.075833  0.093955  0.665108  1
  O  O17  1  0.671131  0.092431  0.644004  1
  O  O18  1  0.075832  0.665107  0.665109  1
  O  O19  1  0.328868  0.355994  0.907570  1
  O  O20  1  0.924167  0.334892  0.906046  1
  O  O21  1  0.328868  0.907569  0.907570  1
