# generated using pymatgen
data_DyPu5O12
_symmetry_space_group_name_H-M   'P 1'
_cell_length_a   6.57896126
_cell_length_b   6.57896210
_cell_length_c   7.58689700
_cell_angle_alpha   73.25801532
_cell_angle_beta   73.25801314
_cell_angle_gamma   48.24334396
_symmetry_Int_Tables_number   1
_chemical_formula_structural   DyPu5O12
_chemical_formula_sum   'Dy1 Pu5 O12'
_cell_volume   232.44466737
_cell_formula_units_Z   1
loop_
 _symmetry_equiv_pos_site_id
 _symmetry_equiv_pos_as_xyz
  1  'x, y, z'
loop_
 _atom_site_type_symbol
 _atom_site_label
 _atom_site_symmetry_multiplicity
 _atom_site_fract_x
 _atom_site_fract_y
 _atom_site_fract_z
 _atom_site_occupancy
  Dy  Dy0  1  0.000144  0.999856  0.500000  1
  Pu  Pu1  1  0.999902  0.000098  0.000000  1
  Pu  Pu2  1  0.667193  0.667147  0.665993  1
  Pu  Pu3  1  0.334120  0.334131  0.832339  1
  Pu  Pu4  1  0.332853  0.332807  0.334007  1
  Pu  Pu5  1  0.665869  0.665880  0.167661  1
  O  O6  1  0.417419  0.918008  0.917489  1
  O  O7  1  0.917233  0.417597  0.917113  1
  O  O8  1  0.085723  0.577504  0.585587  1
  O  O9  1  0.253979  0.748224  0.755500  1
  O  O10  1  0.577503  0.083564  0.585305  1
  O  O11  1  0.747259  0.254296  0.754439  1
  O  O12  1  0.745704  0.252741  0.245561  1
  O  O13  1  0.916436  0.422497  0.414695  1
  O  O14  1  0.422496  0.914277  0.414413  1
  O  O15  1  0.251776  0.746021  0.244500  1
  O  O16  1  0.582403  0.082767  0.082887  1
  O  O17  1  0.081992  0.582581  0.082511  1
