# generated using pymatgen
data_Ce4Al24Ir2Pt7
_symmetry_space_group_name_H-M   'P 1'
_cell_length_a   7.58688364
_cell_length_b   7.58016059
_cell_length_c   13.18649611
_cell_angle_alpha   84.41244869
_cell_angle_beta   101.18427358
_cell_angle_gamma   119.90500195
_symmetry_Int_Tables_number   1
_chemical_formula_structural   Ce4Al24Ir2Pt7
_chemical_formula_sum   'Ce4 Al24 Ir2 Pt7'
_cell_volume   644.89560835
_cell_formula_units_Z   1
loop_
 _symmetry_equiv_pos_site_id
 _symmetry_equiv_pos_as_xyz
  1  'x, y, z'
loop_
 _atom_site_type_symbol
 _atom_site_label
 _atom_site_symmetry_multiplicity
 _atom_site_fract_x
 _atom_site_fract_y
 _atom_site_fract_z
 _atom_site_occupancy
  Ce  Ce0  1  0.731739  0.998214  0.190841  1
  Ce  Ce1  1  0.267999  0.001456  0.808934  1
  Ce  Ce2  1  0.062077  0.668289  0.190993  1
  Ce  Ce3  1  0.938342  0.331789  0.809167  1
  Al  Al4  1  0.807959  0.867844  0.817785  1
  Al  Al5  1  0.192317  0.131273  0.182240  1
  Al  Al6  1  0.984644  0.669368  0.946757  1
  Al  Al7  1  0.020657  0.334009  0.053389  1
  Al  Al8  1  0.398854  0.662113  0.819293  1
  Al  Al9  1  0.599753  0.336714  0.182391  1
  Al  Al10  1  0.881267  0.665266  0.669956  1
  Al  Al11  1  0.118820  0.334372  0.329383  1
  Al  Al12  1  0.602433  0.460274  0.817378  1
  Al  Al13  1  0.398066  0.541945  0.180894  1
  Al  Al14  1  0.231557  0.341732  0.668407  1
  Al  Al15  1  0.768633  0.658417  0.331548  1
  Al  Al16  1  0.852302  0.333101  0.558568  1
  Al  Al17  1  0.186721  0.999839  0.558421  1
  Al  Al18  1  0.813985  0.000168  0.441514  1
  Al  Al19  1  0.348478  0.997530  0.053389  1
  Al  Al20  1  0.648225  0.997218  0.946596  1
  Al  Al21  1  0.556234  0.991696  0.670899  1
  Al  Al22  1  0.444291  0.007743  0.329810  1
  Al  Al23  1  0.520982  0.667208  0.560540  1
  Al  Al24  1  0.479023  0.332863  0.439348  1
  Al  Al25  1  0.680854  0.670561  0.041685  1
  Al  Al26  1  0.315751  0.333049  0.958351  1
  Al  Al27  1  0.147656  0.666175  0.441657  1
  Ir  Ir28  1  0.328533  0.671638  0.999914  1
  Ir  Ir29  1  0.999698  0.000286  0.000003  1
  Pt  Pt30  1  0.546214  0.325944  0.637222  1
  Pt  Pt31  1  0.453814  0.673627  0.362385  1
  Pt  Pt32  1  0.886539  0.006735  0.638278  1
  Pt  Pt33  1  0.113711  0.993015  0.361738  1
  Pt  Pt34  1  0.671214  0.328670  0.000016  1
  Pt  Pt35  1  0.205922  0.667176  0.638205  1
  Pt  Pt36  1  0.794736  0.332682  0.362106  1
