# generated using pymatgen
data_Ca2La(GaRh)2
_symmetry_space_group_name_H-M   'P 1'
_cell_length_a   5.76230300
_cell_length_b   8.04269000
_cell_length_c   13.91411900
_cell_angle_alpha   90.00000000
_cell_angle_beta   90.00000000
_cell_angle_gamma   90.00000000
_symmetry_Int_Tables_number   1
_chemical_formula_structural   Ca2La(GaRh)2
_chemical_formula_sum   'Ca8 La4 Ga8 Rh8'
_cell_volume   644.84172916
_cell_formula_units_Z   4
loop_
 _symmetry_equiv_pos_site_id
 _symmetry_equiv_pos_as_xyz
  1  'x, y, z'
loop_
 _atom_site_type_symbol
 _atom_site_label
 _atom_site_symmetry_multiplicity
 _atom_site_fract_x
 _atom_site_fract_y
 _atom_site_fract_z
 _atom_site_occupancy
  Ca  Ca0  1  0.849929  0.392116  0.899745  1
  Ca  Ca1  1  0.849929  0.107884  0.100255  1
  Ca  Ca2  1  0.150071  0.892116  0.600255  1
  Ca  Ca3  1  0.150071  0.607884  0.399745  1
  Ca  Ca4  1  0.368111  0.253217  0.250852  1
  Ca  Ca5  1  0.368111  0.246783  0.749148  1
  Ca  Ca6  1  0.631889  0.753217  0.249148  1
  Ca  Ca7  1  0.631889  0.746783  0.750852  1
  La  La8  1  0.152030  0.592668  0.092587  1
  La  La9  1  0.152030  0.907332  0.907413  1
  La  La10  1  0.847970  0.092668  0.407413  1
  La  La11  1  0.847970  0.407332  0.592587  1
  Ga  Ga12  1  0.394473  0.250000  0.000000  1
  Ga  Ga13  1  0.605527  0.750000  0.500000  1
  Ga  Ga14  1  0.631198  0.750000  0.000000  1
  Ga  Ga15  1  0.368802  0.250000  0.500000  1
  Ga  Ga16  1  0.851773  0.407199  0.253740  1
  Ga  Ga17  1  0.851773  0.092801  0.746260  1
  Ga  Ga18  1  0.148227  0.907199  0.246260  1
  Ga  Ga19  1  0.148227  0.592801  0.753740  1
  Rh  Rh20  1  0.639800  0.473052  0.095526  1
  Rh  Rh21  1  0.639800  0.026948  0.904474  1
  Rh  Rh22  1  0.360200  0.973052  0.404474  1
  Rh  Rh23  1  0.360200  0.526948  0.595526  1
  Rh  Rh24  1  0.355247  0.532992  0.912232  1
  Rh  Rh25  1  0.355247  0.967008  0.087768  1
  Rh  Rh26  1  0.644753  0.032992  0.587768  1
  Rh  Rh27  1  0.644753  0.467008  0.412232  1
