# generated using pymatgen
data_PrSiRu2C
_symmetry_space_group_name_H-M   'P 1'
_cell_length_a   5.91609580
_cell_length_b   5.91609587
_cell_length_c   7.22176500
_cell_angle_alpha   90.00000000
_cell_angle_beta   90.00000000
_cell_angle_gamma   140.78080148
_symmetry_Int_Tables_number   1
_chemical_formula_structural   PrSiRu2C
_chemical_formula_sum   'Pr2 Si2 Ru4 C2'
_cell_volume   159.81934040
_cell_formula_units_Z   2
loop_
 _symmetry_equiv_pos_site_id
 _symmetry_equiv_pos_as_xyz
  1  'x, y, z'
loop_
 _atom_site_type_symbol
 _atom_site_label
 _atom_site_symmetry_multiplicity
 _atom_site_fract_x
 _atom_site_fract_y
 _atom_site_fract_z
 _atom_site_occupancy
  Pr  Pr0  1  0.550330  0.449670  0.250000  1
  Pr  Pr1  1  0.449670  0.550330  0.750000  1
  Si  Si2  1  0.272031  0.727969  0.250000  1
  Si  Si3  1  0.727969  0.272031  0.750000  1
  Ru  Ru4  1  0.834753  0.165247  0.058038  1
  Ru  Ru5  1  0.165247  0.834753  0.941962  1
  Ru  Ru6  1  0.165247  0.834753  0.558038  1
  Ru  Ru7  1  0.834753  0.165247  0.441962  1
  C  C8  1  0.000000  0.000000  0.000000  1
  C  C9  1  0.000000  0.000000  0.500000  1
