# generated using pymatgen
data_ZrSc2P
_symmetry_space_group_name_H-M   'P 1'
_cell_length_a   10.81893600
_cell_length_b   10.81893600
_cell_length_c   5.39807300
_cell_angle_alpha   90.00000000
_cell_angle_beta   90.00000000
_cell_angle_gamma   90.00000000
_symmetry_Int_Tables_number   1
_chemical_formula_structural   ZrSc2P
_chemical_formula_sum   'Zr8 Sc16 P8'
_cell_volume   631.84107718
_cell_formula_units_Z   8
loop_
 _symmetry_equiv_pos_site_id
 _symmetry_equiv_pos_as_xyz
  1  'x, y, z'
loop_
 _atom_site_type_symbol
 _atom_site_label
 _atom_site_symmetry_multiplicity
 _atom_site_fract_x
 _atom_site_fract_y
 _atom_site_fract_z
 _atom_site_occupancy
  Zr  Zr0  1  0.892831  0.418137  0.035300  1
  Zr  Zr1  1  0.918137  0.607169  0.535300  1
  Zr  Zr2  1  0.081863  0.392831  0.535300  1
  Zr  Zr3  1  0.107169  0.581863  0.035300  1
  Zr  Zr4  1  0.607169  0.081863  0.464700  1
  Zr  Zr5  1  0.581863  0.892831  0.964700  1
  Zr  Zr6  1  0.418137  0.107169  0.964700  1
  Zr  Zr7  1  0.392831  0.918137  0.464700  1
  Sc  Sc8  1  0.031028  0.861651  0.278787  1
  Sc  Sc9  1  0.361651  0.468972  0.778787  1
  Sc  Sc10  1  0.638349  0.531028  0.778787  1
  Sc  Sc11  1  0.968972  0.138349  0.278787  1
  Sc  Sc12  1  0.468972  0.638349  0.221213  1
  Sc  Sc13  1  0.138349  0.031028  0.721213  1
  Sc  Sc14  1  0.861651  0.968972  0.721213  1
  Sc  Sc15  1  0.531028  0.361651  0.221213  1
  Sc  Sc16  1  0.284680  0.826200  0.981241  1
  Sc  Sc17  1  0.326200  0.215320  0.481241  1
  Sc  Sc18  1  0.673800  0.784680  0.481241  1
  Sc  Sc19  1  0.715320  0.173800  0.981241  1
  Sc  Sc20  1  0.215320  0.673800  0.518759  1
  Sc  Sc21  1  0.173800  0.284680  0.018759  1
  Sc  Sc22  1  0.826200  0.715320  0.018759  1
  Sc  Sc23  1  0.784680  0.326200  0.518759  1
  P  P24  1  0.543328  0.295813  0.713043  1
  P  P25  1  0.795813  0.956672  0.213043  1
  P  P26  1  0.204187  0.043328  0.213043  1
  P  P27  1  0.456672  0.704187  0.713043  1
  P  P28  1  0.956672  0.204187  0.786957  1
  P  P29  1  0.704187  0.543328  0.286957  1
  P  P30  1  0.295813  0.456672  0.286957  1
  P  P31  1  0.043328  0.795813  0.786957  1
