# generated using pymatgen
data_Pr12IrOsPd2
_symmetry_space_group_name_H-M   'P 1'
_cell_length_a   6.61534700
_cell_length_b   7.44034833
_cell_length_c   10.04946300
_cell_angle_alpha   90.00000000
_cell_angle_beta   90.00000000
_cell_angle_gamma   90.01559809
_symmetry_Int_Tables_number   1
_chemical_formula_structural   Pr12IrOsPd2
_chemical_formula_sum   'Pr12 Ir1 Os1 Pd2'
_cell_volume   494.63943445
_cell_formula_units_Z   1
loop_
 _symmetry_equiv_pos_site_id
 _symmetry_equiv_pos_as_xyz
  1  'x, y, z'
loop_
 _atom_site_type_symbol
 _atom_site_label
 _atom_site_symmetry_multiplicity
 _atom_site_fract_x
 _atom_site_fract_y
 _atom_site_fract_z
 _atom_site_occupancy
  Pr  Pr0  1  0.328466  0.682023  0.059647  1
  Pr  Pr1  1  0.163368  0.170158  0.434848  1
  Pr  Pr2  1  0.663530  0.329781  0.566523  1
  Pr  Pr3  1  0.826109  0.817863  0.937453  1
  Pr  Pr4  1  0.663530  0.329781  0.933477  1
  Pr  Pr5  1  0.826109  0.817863  0.562547  1
  Pr  Pr6  1  0.328466  0.682023  0.440353  1
  Pr  Pr7  1  0.163368  0.170158  0.065152  1
  Pr  Pr8  1  0.869488  0.537646  0.250000  1
  Pr  Pr9  1  0.645578  0.025488  0.250000  1
  Pr  Pr10  1  0.144978  0.475587  0.750000  1
  Pr  Pr11  1  0.370895  0.960142  0.750000  1
  Ir  Ir12  1  0.071864  0.881577  0.250000  1
  Os  Os13  1  0.568984  0.618303  0.750000  1
  Pd  Pd14  1  0.428940  0.386895  0.250000  1
  Pd  Pd15  1  0.936327  0.114713  0.750000  1
