# generated using pymatgen
data_Ho10Ga3ReBi2
_symmetry_space_group_name_H-M   'P 1'
_cell_length_a   8.69326499
_cell_length_b   8.69326378
_cell_length_c   8.80547897
_cell_angle_alpha   125.69913663
_cell_angle_beta   125.69914248
_cell_angle_gamma   79.50657950
_symmetry_Int_Tables_number   1
_chemical_formula_structural   Ho10Ga3ReBi2
_chemical_formula_sum   'Ho10 Ga3 Re1 Bi2'
_cell_volume   426.01958316
_cell_formula_units_Z   1
loop_
 _symmetry_equiv_pos_site_id
 _symmetry_equiv_pos_as_xyz
  1  'x, y, z'
loop_
 _atom_site_type_symbol
 _atom_site_label
 _atom_site_symmetry_multiplicity
 _atom_site_fract_x
 _atom_site_fract_y
 _atom_site_fract_z
 _atom_site_occupancy
  Ho  Ho0  1  0.004247  0.008794  0.013042  1
  Ho  Ho1  1  0.491206  0.495753  0.986958  1
  Ho  Ho2  1  0.015554  0.501417  0.800358  1
  Ho  Ho3  1  0.715196  0.201058  0.199642  1
  Ho  Ho4  1  0.518317  0.706299  0.500000  1
  Ho  Ho5  1  0.193688  0.038346  0.500000  1
  Ho  Ho6  1  0.998583  0.484446  0.199642  1
  Ho  Ho7  1  0.298942  0.784804  0.800358  1
  Ho  Ho8  1  0.461654  0.306312  0.500000  1
  Ho  Ho9  1  0.793701  0.981683  0.500000  1
  Ga  Ga10  1  0.360161  0.854824  0.214984  1
  Ga  Ga11  1  0.645176  0.139839  0.785016  1
  Ga  Ga12  1  0.866130  0.633870  0.500000  1
  Re  Re13  1  0.125901  0.374099  0.500000  1
  Bi  Bi14  1  0.755774  0.744226  0.000000  1
  Bi  Bi15  1  0.255774  0.244226  0.000000  1
