# generated using pymatgen
data_Zr10Zn2InBi3Pb2
_symmetry_space_group_name_H-M   'P 1'
_cell_length_a   8.83370400
_cell_length_b   8.84472467
_cell_length_c   5.93917300
_cell_angle_alpha   90.00000000
_cell_angle_beta   90.00000000
_cell_angle_gamma   119.95879069
_symmetry_Int_Tables_number   1
_chemical_formula_structural   Zr10Zn2InBi3Pb2
_chemical_formula_sum   'Zr10 Zn2 In1 Bi3 Pb2'
_cell_volume   402.03509003
_cell_formula_units_Z   1
loop_
 _symmetry_equiv_pos_site_id
 _symmetry_equiv_pos_as_xyz
  1  'x, y, z'
loop_
 _atom_site_type_symbol
 _atom_site_label
 _atom_site_symmetry_multiplicity
 _atom_site_fract_x
 _atom_site_fract_y
 _atom_site_fract_z
 _atom_site_occupancy
  Zr  Zr0  1  0.334568  0.667969  0.002573  1
  Zr  Zr1  1  0.666600  0.332031  0.497427  1
  Zr  Zr2  1  0.666600  0.332031  0.002573  1
  Zr  Zr3  1  0.334568  0.667969  0.497427  1
  Zr  Zr4  1  0.267606  0.000000  0.250000  1
  Zr  Zr5  1  0.264641  0.264108  0.750000  1
  Zr  Zr6  1  0.000533  0.735892  0.750000  1
  Zr  Zr7  1  0.996681  0.264058  0.250000  1
  Zr  Zr8  1  0.732623  0.735942  0.250000  1
  Zr  Zr9  1  0.735049  0.000000  0.750000  1
  Zn  Zn10  1  0.999316  0.000000  0.003359  1
  Zn  Zn11  1  0.999316  0.000000  0.496641  1
  In  In12  1  0.616019  0.000000  0.250000  1
  Bi  Bi13  1  0.614094  0.613660  0.750000  1
  Bi  Bi14  1  0.000434  0.386340  0.750000  1
  Bi  Bi15  1  0.387788  0.000000  0.750000  1
  Pb  Pb16  1  0.999612  0.615655  0.250000  1
  Pb  Pb17  1  0.383957  0.384345  0.250000  1
