# generated using pymatgen
data_KRb5(Al2P3)2
_symmetry_space_group_name_H-M   'P 1'
_cell_length_a   5.97753400
_cell_length_b   7.65903701
_cell_length_c   10.52670946
_cell_angle_alpha   70.27254947
_cell_angle_beta   90.00000000
_cell_angle_gamma   90.00000000
_symmetry_Int_Tables_number   1
_chemical_formula_structural   KRb5(Al2P3)2
_chemical_formula_sum   'K1 Rb5 Al4 P6'
_cell_volume   453.65013029
_cell_formula_units_Z   1
loop_
 _symmetry_equiv_pos_site_id
 _symmetry_equiv_pos_as_xyz
  1  'x, y, z'
loop_
 _atom_site_type_symbol
 _atom_site_label
 _atom_site_symmetry_multiplicity
 _atom_site_fract_x
 _atom_site_fract_y
 _atom_site_fract_z
 _atom_site_occupancy
  K  K0  1  0.250000  0.427455  0.430275  1
  Rb  Rb1  1  0.750000  0.137532  0.921305  1
  Rb  Rb2  1  0.750000  0.478017  0.149504  1
  Rb  Rb3  1  0.250000  0.522864  0.850924  1
  Rb  Rb4  1  0.750000  0.557379  0.573924  1
  Rb  Rb5  1  0.250000  0.863760  0.078896  1
  Al  Al6  1  0.999796  0.025405  0.347501  1
  Al  Al7  1  0.499931  0.975385  0.651595  1
  Al  Al8  1  0.500204  0.025405  0.347501  1
  Al  Al9  1  0.000069  0.975385  0.651595  1
  P  P10  1  0.250000  0.823786  0.527131  1
  P  P11  1  0.750000  0.174139  0.471712  1
  P  P12  1  0.250000  0.238464  0.197222  1
  P  P13  1  0.750000  0.768423  0.806440  1
  P  P14  1  0.250000  0.148441  0.737126  1
  P  P15  1  0.750000  0.858161  0.257350  1
