# generated using pymatgen
data_Li8NdTh7Sn8
_symmetry_space_group_name_H-M   'P 1'
_cell_length_a   9.67721100
_cell_length_b   9.67721076
_cell_length_c   7.39598800
_cell_angle_alpha   90.00000000
_cell_angle_beta   90.00000000
_cell_angle_gamma   120.00000423
_symmetry_Int_Tables_number   1
_chemical_formula_structural   Li8NdTh7Sn8
_chemical_formula_sum   'Li8 Nd1 Th7 Sn8'
_cell_volume   599.82867178
_cell_formula_units_Z   1
loop_
 _symmetry_equiv_pos_site_id
 _symmetry_equiv_pos_as_xyz
  1  'x, y, z'
loop_
 _atom_site_type_symbol
 _atom_site_label
 _atom_site_symmetry_multiplicity
 _atom_site_fract_x
 _atom_site_fract_y
 _atom_site_fract_z
 _atom_site_occupancy
  Li  Li0  1  0.166399  0.332800  0.263657  1
  Li  Li1  1  0.166399  0.833601  0.263657  1
  Li  Li2  1  0.667200  0.833601  0.263657  1
  Li  Li3  1  0.833807  0.667612  0.778223  1
  Li  Li4  1  0.833807  0.166193  0.778223  1
  Li  Li5  1  0.332388  0.166193  0.778223  1
  Li  Li6  1  0.333333  0.666667  0.698035  1
  Li  Li7  1  0.666667  0.333333  0.196331  1
  Nd  Nd8  1  0.000000  0.000000  0.999697  1
  Th  Th9  1  0.507146  0.014292  0.495468  1
  Th  Th10  1  0.507146  0.492854  0.495468  1
  Th  Th11  1  0.985708  0.492854  0.495468  1
  Th  Th12  1  0.492700  0.985399  0.995119  1
  Th  Th13  1  0.492700  0.507300  0.995119  1
  Th  Th14  1  0.014601  0.507300  0.995119  1
  Th  Th15  1  0.000000  0.000000  0.499168  1
  Sn  Sn16  1  0.166986  0.333971  0.737383  1
  Sn  Sn17  1  0.166986  0.833014  0.737383  1
  Sn  Sn18  1  0.666029  0.833014  0.737383  1
  Sn  Sn19  1  0.833066  0.666132  0.238669  1
  Sn  Sn20  1  0.833066  0.166934  0.238669  1
  Sn  Sn21  1  0.333868  0.166934  0.238669  1
  Sn  Sn22  1  0.333333  0.666667  0.261808  1
  Sn  Sn23  1  0.666667  0.333333  0.761401  1
