# generated using pymatgen
data_Pr5Nd5CuGeBi6
_symmetry_space_group_name_H-M   'P 1'
_cell_length_a   9.70227545
_cell_length_b   9.70227580
_cell_length_c   6.65815958
_cell_angle_alpha   89.97604075
_cell_angle_beta   89.97604064
_cell_angle_gamma   119.97474931
_symmetry_Int_Tables_number   1
_chemical_formula_structural   Pr5Nd5CuGeBi6
_chemical_formula_sum   'Pr5 Nd5 Cu1 Ge1 Bi6'
_cell_volume   542.92812899
_cell_formula_units_Z   1
loop_
 _symmetry_equiv_pos_site_id
 _symmetry_equiv_pos_as_xyz
  1  'x, y, z'
loop_
 _atom_site_type_symbol
 _atom_site_label
 _atom_site_symmetry_multiplicity
 _atom_site_fract_x
 _atom_site_fract_y
 _atom_site_fract_z
 _atom_site_occupancy
  Pr  Pr0  1  0.666475  0.333356  0.000009  1
  Pr  Pr1  1  0.333356  0.666475  0.000009  1
  Pr  Pr2  1  0.333187  0.666809  0.499946  1
  Pr  Pr3  1  0.666809  0.333187  0.499946  1
  Pr  Pr4  1  0.747513  0.747513  0.751465  1
  Nd  Nd5  1  0.251613  0.999829  0.752006  1
  Nd  Nd6  1  0.999829  0.251613  0.752006  1
  Nd  Nd7  1  0.252157  0.252157  0.248284  1
  Nd  Nd8  1  0.748235  0.000220  0.248096  1
  Nd  Nd9  1  0.000220  0.748235  0.248096  1
  Cu  Cu10  1  0.000760  0.000760  0.499268  1
  Ge  Ge11  1  0.000499  0.000499  0.000863  1
  Bi  Bi12  1  0.385477  0.385477  0.748929  1
  Bi  Bi13  1  0.613360  0.000601  0.749049  1
  Bi  Bi14  1  0.000601  0.613360  0.749049  1
  Bi  Bi15  1  0.613658  0.613658  0.250971  1
  Bi  Bi16  1  0.386259  0.999991  0.251004  1
  Bi  Bi17  1  0.999991  0.386259  0.251004  1
