# generated using pymatgen
data_Na4LuRuO6
_symmetry_space_group_name_H-M   'P 1'
_cell_length_a   5.60461226
_cell_length_b   5.60366654
_cell_length_c   5.80099096
_cell_angle_alpha   99.41011054
_cell_angle_beta   99.40000447
_cell_angle_gamma   119.97892913
_symmetry_Int_Tables_number   1
_chemical_formula_structural   Na4LuRuO6
_chemical_formula_sum   'Na4 Lu1 Ru1 O6'
_cell_volume   149.15232136
_cell_formula_units_Z   1
loop_
 _symmetry_equiv_pos_site_id
 _symmetry_equiv_pos_as_xyz
  1  'x, y, z'
loop_
 _atom_site_type_symbol
 _atom_site_label
 _atom_site_symmetry_multiplicity
 _atom_site_fract_x
 _atom_site_fract_y
 _atom_site_fract_z
 _atom_site_occupancy
  Na  Na0  1  0.499354  0.500433  0.999989  1
  Na  Na1  1  0.010134  0.989884  0.499985  1
  Na  Na2  1  0.656994  0.342661  0.499828  1
  Na  Na3  1  0.337319  0.662890  0.500156  1
  Lu  Lu4  1  0.833304  0.166781  0.000012  1
  Ru  Ru5  1  0.167128  0.832881  0.999922  1
  O  O6  1  0.950727  0.596492  0.206961  1
  O  O7  1  0.543288  0.925851  0.211653  1
  O  O8  1  0.215818  0.191644  0.212059  1
  O  O9  1  0.808343  0.784296  0.787951  1
  O  O10  1  0.074150  0.456902  0.788395  1
  O  O11  1  0.403447  0.049286  0.793086  1
