# generated using pymatgen
data_Y6Co14P12RuRh3
_symmetry_space_group_name_H-M   'P 1'
_cell_length_a   3.73702000
_cell_length_b   10.68403200
_cell_length_c   12.40625400
_cell_angle_alpha   90.00000000
_cell_angle_beta   90.00000000
_cell_angle_gamma   90.00000000
_symmetry_Int_Tables_number   1
_chemical_formula_structural   Y6Co14P12RuRh3
_chemical_formula_sum   'Y6 Co14 P12 Ru1 Rh3'
_cell_volume   495.33757165
_cell_formula_units_Z   1
loop_
 _symmetry_equiv_pos_site_id
 _symmetry_equiv_pos_as_xyz
  1  'x, y, z'
loop_
 _atom_site_type_symbol
 _atom_site_label
 _atom_site_symmetry_multiplicity
 _atom_site_fract_x
 _atom_site_fract_y
 _atom_site_fract_z
 _atom_site_occupancy
  Y  Y0  1  0.000000  0.500000  0.519644  1
  Y  Y1  1  0.500000  0.000000  0.479924  1
  Y  Y2  1  0.500000  0.813107  0.205960  1
  Y  Y3  1  0.500000  0.186893  0.205960  1
  Y  Y4  1  0.000000  0.686049  0.794343  1
  Y  Y5  1  0.000000  0.313951  0.794343  1
  Co  Co6  1  0.000000  0.500000  0.989008  1
  Co  Co7  1  0.500000  0.000000  0.011926  1
  Co  Co8  1  0.500000  0.332796  0.993389  1
  Co  Co9  1  0.500000  0.667204  0.993389  1
  Co  Co10  1  0.000000  0.169039  0.007386  1
  Co  Co11  1  0.000000  0.830961  0.007386  1
  Co  Co12  1  0.500000  0.300684  0.428357  1
  Co  Co13  1  0.500000  0.699316  0.428357  1
  Co  Co14  1  0.000000  0.200111  0.570235  1
  Co  Co15  1  0.000000  0.799889  0.570235  1
  Co  Co16  1  0.500000  0.880549  0.710374  1
  Co  Co17  1  0.500000  0.119451  0.710374  1
  Co  Co18  1  0.000000  0.618632  0.289901  1
  Co  Co19  1  0.000000  0.381368  0.289901  1
  P  P20  1  0.500000  0.500000  0.889767  1
  P  P21  1  0.000000  0.000000  0.109722  1
  P  P22  1  0.500000  0.500000  0.347658  1
  P  P23  1  0.000000  0.000000  0.650719  1
  P  P24  1  0.500000  0.302072  0.612890  1
  P  P25  1  0.500000  0.697928  0.612890  1
  P  P26  1  0.000000  0.198039  0.386597  1
  P  P27  1  0.000000  0.801961  0.386597  1
  P  P28  1  0.500000  0.844914  0.895338  1
  P  P29  1  0.500000  0.155086  0.895338  1
  P  P30  1  0.000000  0.653205  0.106517  1
  P  P31  1  0.000000  0.346795  0.106517  1
  Ru  Ru32  1  0.500000  0.500000  0.158875  1
  Rh  Rh33  1  0.000000  0.000000  0.840648  1
  Rh  Rh34  1  0.500000  0.500000  0.703303  1
  Rh  Rh35  1  0.000000  0.000000  0.296236  1
