# generated using pymatgen
data_Yb2Dy2PtRh3O14
_symmetry_space_group_name_H-M   'P 1'
_cell_length_a   7.23703015
_cell_length_b   7.21972458
_cell_length_c   7.22073900
_cell_angle_alpha   59.99534739
_cell_angle_beta   60.07443272
_cell_angle_gamma   60.01970796
_symmetry_Int_Tables_number   1
_chemical_formula_structural   Yb2Dy2PtRh3O14
_chemical_formula_sum   'Yb2 Dy2 Pt1 Rh3 O14'
_cell_volume   266.95667788
_cell_formula_units_Z   1
loop_
 _symmetry_equiv_pos_site_id
 _symmetry_equiv_pos_as_xyz
  1  'x, y, z'
loop_
 _atom_site_type_symbol
 _atom_site_label
 _atom_site_symmetry_multiplicity
 _atom_site_fract_x
 _atom_site_fract_y
 _atom_site_fract_z
 _atom_site_occupancy
  Yb  Yb0  1  0.125000  0.625000  0.125000  1
  Yb  Yb1  1  0.625000  0.125000  0.125000  1
  Dy  Dy2  1  0.125000  0.125000  0.625000  1
  Dy  Dy3  1  0.125000  0.125000  0.125000  1
  Pt  Pt4  1  0.625000  0.125000  0.625000  1
  Rh  Rh5  1  0.625000  0.625000  0.625000  1
  Rh  Rh6  1  0.125000  0.625000  0.625000  1
  Rh  Rh7  1  0.625000  0.625000  0.125000  1
  O  O8  1  0.294319  0.709351  0.700904  1
  O  O9  1  0.534964  0.959115  0.959761  1
  O  O10  1  0.715036  0.290885  0.703840  1
  O  O11  1  0.288731  0.289471  0.710899  1
  O  O12  1  0.704808  0.700476  0.297358  1
  O  O13  1  0.004361  0.003211  0.996214  1
  O  O14  1  0.294319  0.709351  0.295426  1
  O  O15  1  0.955681  0.540649  0.954574  1
  O  O16  1  0.961269  0.960529  0.539101  1
  O  O17  1  0.545192  0.549524  0.952642  1
  O  O18  1  0.245639  0.246789  0.253786  1
  O  O19  1  0.534964  0.959115  0.546160  1
  O  O20  1  0.715036  0.290885  0.290239  1
  O  O21  1  0.955681  0.540649  0.549096  1
