# generated using pymatgen
data_Na2Eu(CoAs)6
_symmetry_space_group_name_H-M   'P 1'
_cell_length_a   5.37212581
_cell_length_b   6.58219922
_cell_length_c   8.48452158
_cell_angle_alpha   67.29894873
_cell_angle_beta   71.54355047
_cell_angle_gamma   90.00000405
_symmetry_Int_Tables_number   1
_chemical_formula_structural   Na2Eu(CoAs)6
_chemical_formula_sum   'Na2 Eu1 Co6 As6'
_cell_volume   259.96670499
_cell_formula_units_Z   1
loop_
 _symmetry_equiv_pos_site_id
 _symmetry_equiv_pos_as_xyz
  1  'x, y, z'
loop_
 _atom_site_type_symbol
 _atom_site_label
 _atom_site_symmetry_multiplicity
 _atom_site_fract_x
 _atom_site_fract_y
 _atom_site_fract_z
 _atom_site_occupancy
  Na  Na0  1  0.330733  0.660376  0.338532  1
  Na  Na1  1  0.669267  0.339624  0.661468  1
  Eu  Eu2  1  0.000000  0.000000  0.000000  1
  Co  Co3  1  0.417123  0.830646  0.665874  1
  Co  Co4  1  0.749146  0.500000  0.000000  1
  Co  Co5  1  0.082997  0.169354  0.334126  1
  Co  Co6  1  0.250854  0.500000  0.000000  1
  Co  Co7  1  0.582877  0.169354  0.334126  1
  Co  Co8  1  0.917003  0.830646  0.665874  1
  As  As9  1  0.119817  0.516933  0.760366  1
  As  As10  1  0.453144  0.184601  0.093711  1
  As  As11  1  0.788192  0.855096  0.423615  1
  As  As12  1  0.546856  0.815399  0.906289  1
  As  As13  1  0.880183  0.483067  0.239634  1
  As  As14  1  0.211808  0.144904  0.576385  1
