# generated using pymatgen
data_Dy2LuIn3Pt2Au
_symmetry_space_group_name_H-M   'P 1'
_cell_length_a   7.78217747
_cell_length_b   7.77209617
_cell_length_c   3.78160500
_cell_angle_alpha   90.00000000
_cell_angle_beta   90.00000000
_cell_angle_gamma   119.65953647
_symmetry_Int_Tables_number   1
_chemical_formula_structural   Dy2LuIn3Pt2Au
_chemical_formula_sum   'Dy2 Lu1 In3 Pt2 Au1'
_cell_volume   198.75855985
_cell_formula_units_Z   1
loop_
 _symmetry_equiv_pos_site_id
 _symmetry_equiv_pos_as_xyz
  1  'x, y, z'
loop_
 _atom_site_type_symbol
 _atom_site_label
 _atom_site_symmetry_multiplicity
 _atom_site_fract_x
 _atom_site_fract_y
 _atom_site_fract_z
 _atom_site_occupancy
  Dy  Dy0  1  0.014516  0.605678  0.500000  1
  Dy  Dy1  1  0.591720  0.985882  0.500000  1
  Lu  Lu2  1  0.392490  0.408462  0.500000  1
  In  In3  1  0.999251  0.263194  0.000000  1
  In  In4  1  0.265480  0.004131  0.000000  1
  In  In5  1  0.736877  0.734227  0.000000  1
  Pt  Pt6  1  0.001510  0.001581  0.500000  1
  Pt  Pt7  1  0.334185  0.663109  0.000000  1
  Au  Au8  1  0.663972  0.333735  0.000000  1
