# generated using pymatgen
data_La9Pr3(IrCl3)4
_symmetry_space_group_name_H-M   'P 1'
_cell_length_a   10.45912234
_cell_length_b   10.43639400
_cell_length_c   10.44105600
_cell_angle_alpha   109.20673841
_cell_angle_beta   109.29531912
_cell_angle_gamma   109.93829914
_symmetry_Int_Tables_number   1
_chemical_formula_structural   La9Pr3(IrCl3)4
_chemical_formula_sum   'La9 Pr3 Ir4 Cl12'
_cell_volume   877.01947950
_cell_formula_units_Z   1
loop_
 _symmetry_equiv_pos_site_id
 _symmetry_equiv_pos_as_xyz
  1  'x, y, z'
loop_
 _atom_site_type_symbol
 _atom_site_label
 _atom_site_symmetry_multiplicity
 _atom_site_fract_x
 _atom_site_fract_y
 _atom_site_fract_z
 _atom_site_occupancy
  La  La0  1  0.474796  0.486055  0.238875  1
  La  La1  1  0.746475  0.235866  0.260318  1
  La  La2  1  0.756724  0.016108  0.491232  1
  La  La3  1  0.234508  0.475123  0.491232  1
  La  La4  1  0.264079  0.752820  0.238875  1
  La  La5  1  0.026848  0.263900  0.012401  1
  La  La6  1  0.013843  0.024452  0.260318  1
  La  La7  1  0.485554  0.748502  0.012401  1
  La  La8  1  0.487426  0.237426  0.474852  1
  Pr  Pr9  1  0.012660  0.488715  0.751127  1
  Pr  Pr10  1  0.260546  0.010546  0.021093  1
  Pr  Pr11  1  0.238467  0.262412  0.751127  1
  Ir  Ir12  1  0.249835  0.250568  0.250614  1
  Ir  Ir13  1  0.500779  0.000046  0.250614  1
  Ir  Ir14  1  0.998966  0.248966  0.497932  1
  Ir  Ir15  1  0.251473  0.501473  0.002946  1
  Cl  Cl16  1  0.245620  0.748880  0.752319  1
  Cl  Cl17  1  0.494832  0.494637  0.748594  1
  Cl  Cl18  1  0.003993  0.750689  0.996237  1
  Cl  Cl19  1  0.753762  0.253957  0.748594  1
  Cl  Cl20  1  0.006699  0.003439  0.752319  1
  Cl  Cl21  1  0.250409  0.003368  0.500022  1
  Cl  Cl22  1  0.749614  0.496654  0.500022  1
  Cl  Cl23  1  0.492244  0.245548  0.996237  1
  Cl  Cl24  1  0.748042  0.752298  0.249988  1
  Cl  Cl25  1  0.751770  0.001770  0.003541  1
  Cl  Cl26  1  0.001946  0.497689  0.249988  1
  Cl  Cl27  1  0.498092  0.748092  0.496184  1
