# generated using pymatgen
data_Zr6GaPC2
_symmetry_space_group_name_H-M   'P 1'
_cell_length_a   5.91697609
_cell_length_b   5.91697637
_cell_length_c   8.82464400
_cell_angle_alpha   90.00000000
_cell_angle_beta   90.00000000
_cell_angle_gamma   145.80565249
_symmetry_Int_Tables_number   1
_chemical_formula_structural   Zr6GaPC2
_chemical_formula_sum   'Zr6 Ga1 P1 C2'
_cell_volume   173.63390573
_cell_formula_units_Z   1
loop_
 _symmetry_equiv_pos_site_id
 _symmetry_equiv_pos_as_xyz
  1  'x, y, z'
loop_
 _atom_site_type_symbol
 _atom_site_label
 _atom_site_symmetry_multiplicity
 _atom_site_fract_x
 _atom_site_fract_y
 _atom_site_fract_z
 _atom_site_occupancy
  Zr  Zr0  1  0.371812  0.628189  0.045560  1
  Zr  Zr1  1  0.052801  0.947200  0.250000  1
  Zr  Zr2  1  0.371812  0.628189  0.454440  1
  Zr  Zr3  1  0.631766  0.368235  0.560343  1
  Zr  Zr4  1  0.932500  0.067501  0.749999  1
  Zr  Zr5  1  0.631766  0.368235  0.939657  1
  Ga  Ga6  1  0.750746  0.249255  0.250000  1
  P  P7  1  0.254000  0.746001  0.749999  1
  C  C8  1  0.001401  0.998599  0.996143  1
  C  C9  1  0.001401  0.998599  0.503857  1
