# generated using pymatgen
data_Ho8ZrSc11Ga16
_symmetry_space_group_name_H-M   'P 1'
_cell_length_a   7.25210150
_cell_length_b   7.55352028
_cell_length_c   14.43443730
_cell_angle_alpha   89.97228811
_cell_angle_beta   90.07242264
_cell_angle_gamma   90.01382408
_symmetry_Int_Tables_number   1
_chemical_formula_structural   Ho8ZrSc11Ga16
_chemical_formula_sum   'Ho8 Zr1 Sc11 Ga16'
_cell_volume   790.70178897
_cell_formula_units_Z   1
loop_
 _symmetry_equiv_pos_site_id
 _symmetry_equiv_pos_as_xyz
  1  'x, y, z'
loop_
 _atom_site_type_symbol
 _atom_site_label
 _atom_site_symmetry_multiplicity
 _atom_site_fract_x
 _atom_site_fract_y
 _atom_site_fract_z
 _atom_site_occupancy
  Ho  Ho0  1  0.011126  0.180193  0.094517  1
  Ho  Ho1  1  0.989035  0.819726  0.905845  1
  Ho  Ho2  1  0.489036  0.679806  0.905806  1
  Ho  Ho3  1  0.989151  0.819980  0.594167  1
  Ho  Ho4  1  0.510851  0.319887  0.094429  1
  Ho  Ho5  1  0.011146  0.180118  0.405756  1
  Ho  Ho6  1  0.511274  0.320188  0.405443  1
  Ho  Ho7  1  0.489180  0.679731  0.594376  1
  Zr  Zr8  1  0.329628  0.173235  0.624584  1
  Sc  Sc9  1  0.162264  0.503337  0.750099  1
  Sc  Sc10  1  0.837802  0.496899  0.249881  1
  Sc  Sc11  1  0.337599  0.003278  0.250035  1
  Sc  Sc12  1  0.662109  0.996605  0.750123  1
  Sc  Sc13  1  0.670682  0.827540  0.375284  1
  Sc  Sc14  1  0.170609  0.671965  0.375384  1
  Sc  Sc15  1  0.670470  0.827585  0.124527  1
  Sc  Sc16  1  0.829245  0.327468  0.624017  1
  Sc  Sc17  1  0.329722  0.172034  0.875643  1
  Sc  Sc18  1  0.829431  0.328056  0.875925  1
  Sc  Sc19  1  0.170371  0.672163  0.124540  1
  Ga  Ga20  1  0.030802  0.116369  0.749575  1
  Ga  Ga21  1  0.969516  0.883511  0.250064  1
  Ga  Ga22  1  0.469699  0.616394  0.250041  1
  Ga  Ga23  1  0.529988  0.383151  0.749731  1
  Ga  Ga24  1  0.283402  0.871233  0.749620  1
  Ga  Ga25  1  0.716727  0.129128  0.250063  1
  Ga  Ga26  1  0.216649  0.370690  0.250118  1
  Ga  Ga27  1  0.783236  0.629455  0.749953  1
  Ga  Ga28  1  0.162537  0.464014  0.540874  1
  Ga  Ga29  1  0.837726  0.535028  0.459433  1
  Ga  Ga30  1  0.337728  0.965369  0.459819  1
  Ga  Ga31  1  0.837826  0.535151  0.040524  1
  Ga  Ga32  1  0.661628  0.035679  0.540647  1
  Ga  Ga33  1  0.162229  0.464983  0.959289  1
  Ga  Ga34  1  0.661865  0.035064  0.959293  1
  Ga  Ga35  1  0.337712  0.964987  0.040575  1
