# generated using pymatgen
data_Ca4TbU5O18
_symmetry_space_group_name_H-M   'P 1'
_cell_length_a   6.88901798
_cell_length_b   7.51610038
_cell_length_c   8.48686988
_cell_angle_alpha   99.51633662
_cell_angle_beta   98.92055949
_cell_angle_gamma   107.28492644
_symmetry_Int_Tables_number   1
_chemical_formula_structural   Ca4TbU5O18
_chemical_formula_sum   'Ca4 Tb1 U5 O18'
_cell_volume   403.97321847
_cell_formula_units_Z   1
loop_
 _symmetry_equiv_pos_site_id
 _symmetry_equiv_pos_as_xyz
  1  'x, y, z'
loop_
 _atom_site_type_symbol
 _atom_site_label
 _atom_site_symmetry_multiplicity
 _atom_site_fract_x
 _atom_site_fract_y
 _atom_site_fract_z
 _atom_site_occupancy
  Ca  Ca0  1  0.795602  0.103473  0.583087  1
  Ca  Ca1  1  0.592982  0.697234  0.196679  1
  Ca  Ca2  1  0.407018  0.302766  0.803321  1
  Ca  Ca3  1  0.204398  0.896527  0.416913  1
  Tb  Tb4  1  0.000000  0.500000  0.000000  1
  U  U5  1  0.000000  0.000000  0.000000  1
  U  U6  1  0.790185  0.578649  0.588298  1
  U  U7  1  0.625083  0.200944  0.194696  1
  U  U8  1  0.374917  0.799056  0.805304  1
  U  U9  1  0.209815  0.421351  0.411702  1
  O  O10  1  0.818100  0.794769  0.470870  1
  O  O11  1  0.998901  0.253522  0.165641  1
  O  O12  1  0.679485  0.416729  0.064317  1
  O  O13  1  0.461751  0.003435  0.679369  1
  O  O14  1  0.860610  0.339019  0.426122  1
  O  O15  1  0.504092  0.402406  0.344632  1
  O  O16  1  0.244439  0.615314  0.268625  1
  O  O17  1  0.987675  0.817704  0.155046  1
  O  O18  1  0.660476  0.928781  0.002518  1
  O  O19  1  0.339524  0.071219  0.997482  1
  O  O20  1  0.012325  0.182296  0.844954  1
  O  O21  1  0.755561  0.384686  0.731375  1
  O  O22  1  0.495908  0.597594  0.655368  1
  O  O23  1  0.139390  0.660981  0.573878  1
  O  O24  1  0.538249  0.996565  0.320631  1
  O  O25  1  0.320515  0.583271  0.935683  1
  O  O26  1  0.001099  0.746478  0.834359  1
  O  O27  1  0.181900  0.205231  0.529130  1
