# generated using pymatgen
data_DyHoCu2(AuO4)2
_symmetry_space_group_name_H-M   'P 1'
_cell_length_a   6.43293200
_cell_length_b   6.43293215
_cell_length_c   6.47510484
_cell_angle_alpha   126.01002677
_cell_angle_beta   126.09165132
_cell_angle_gamma   79.35512129
_symmetry_Int_Tables_number   1
_chemical_formula_structural   DyHoCu2(AuO4)2
_chemical_formula_sum   'Dy1 Ho1 Cu2 Au2 O8'
_cell_volume   169.71574575
_cell_formula_units_Z   1
loop_
 _symmetry_equiv_pos_site_id
 _symmetry_equiv_pos_as_xyz
  1  'x, y, z'
loop_
 _atom_site_type_symbol
 _atom_site_label
 _atom_site_symmetry_multiplicity
 _atom_site_fract_x
 _atom_site_fract_y
 _atom_site_fract_z
 _atom_site_occupancy
  Dy  Dy0  1  0.000205  0.000205  0.000000  1
  Ho  Ho1  1  0.749735  0.249735  0.500000  1
  Cu  Cu2  1  0.374762  0.624622  0.249388  1
  Cu  Cu3  1  0.375235  0.125374  0.750612  1
  Au  Au4  1  0.375243  0.624428  0.749555  1
  Au  Au5  1  0.874874  0.625689  0.250445  1
  O  O6  1  0.740335  0.285102  0.140478  1
  O  O7  1  0.144623  0.599857  0.859522  1
  O  O8  1  0.009115  0.966714  0.361544  1
  O  O9  1  0.605170  0.647571  0.638456  1
  O  O10  1  0.044782  0.386247  0.034071  1
  O  O11  1  0.352176  0.010712  0.965929  1
  O  O12  1  0.400200  0.239147  0.535602  1
  O  O13  1  0.703546  0.864598  0.464398  1
