# generated using pymatgen
data_PrBiMo2O7
_symmetry_space_group_name_H-M   'P 1'
_cell_length_a   7.53119869
_cell_length_b   7.54582245
_cell_length_c   7.61139609
_cell_angle_alpha   120.40934071
_cell_angle_beta   120.15359153
_cell_angle_gamma   89.94313841
_symmetry_Int_Tables_number   1
_chemical_formula_structural   PrBiMo2O7
_chemical_formula_sum   'Pr2 Bi2 Mo4 O14'
_cell_volume   303.39092671
_cell_formula_units_Z   2
loop_
 _symmetry_equiv_pos_site_id
 _symmetry_equiv_pos_as_xyz
  1  'x, y, z'
loop_
 _atom_site_type_symbol
 _atom_site_label
 _atom_site_symmetry_multiplicity
 _atom_site_fract_x
 _atom_site_fract_y
 _atom_site_fract_z
 _atom_site_occupancy
  Pr  Pr0  1  0.375000  0.625000  0.750000  1
  Pr  Pr1  1  0.375000  0.625000  0.250000  1
  Bi  Bi2  1  0.875000  0.625000  0.250000  1
  Bi  Bi3  1  0.375000  0.125000  0.750000  1
  Mo  Mo4  1  0.875000  0.625000  0.750000  1
  Mo  Mo5  1  0.375000  0.125000  0.250000  1
  Mo  Mo6  1  0.875000  0.125000  0.250000  1
  Mo  Mo7  1  0.875000  0.125000  0.750000  1
  O  O8  1  0.785225  0.197870  0.996295  1
  O  O9  1  0.545856  0.462058  0.496955  1
  O  O10  1  0.204691  0.207695  0.999140  1
  O  O11  1  0.957678  0.456019  0.501218  1
  O  O12  1  0.802246  0.794746  0.585005  1
  O  O13  1  0.537455  0.039498  0.087517  1
  O  O14  1  0.249741  0.749621  0.500305  1
  O  O15  1  0.947754  0.455254  0.914995  1
  O  O16  1  0.964775  0.052130  0.503705  1
  O  O17  1  0.545309  0.042305  0.500860  1
  O  O18  1  0.212545  0.210502  0.412483  1
  O  O19  1  0.500259  0.500379  0.999695  1
  O  O20  1  0.792322  0.793981  0.998782  1
  O  O21  1  0.204144  0.787942  0.003045  1
