# generated using pymatgen
data_Y5TmCo16(TcP6)2
_symmetry_space_group_name_H-M   'P 1'
_cell_length_a   3.72047900
_cell_length_b   10.54023536
_cell_length_c   12.24356634
_cell_angle_alpha   89.97155160
_cell_angle_beta   90.00000000
_cell_angle_gamma   90.00000000
_symmetry_Int_Tables_number   1
_chemical_formula_structural   Y5TmCo16(TcP6)2
_chemical_formula_sum   'Y5 Tm1 Co16 Tc2 P12'
_cell_volume   480.12801939
_cell_formula_units_Z   1
loop_
 _symmetry_equiv_pos_site_id
 _symmetry_equiv_pos_as_xyz
  1  'x, y, z'
loop_
 _atom_site_type_symbol
 _atom_site_label
 _atom_site_symmetry_multiplicity
 _atom_site_fract_x
 _atom_site_fract_y
 _atom_site_fract_z
 _atom_site_occupancy
  Y  Y0  1  0.000000  0.500510  0.523873  1
  Y  Y1  1  0.500000  0.999133  0.475695  1
  Y  Y2  1  0.500000  0.182180  0.206027  1
  Y  Y3  1  0.000000  0.682780  0.793988  1
  Y  Y4  1  0.000000  0.317577  0.794478  1
  Tm  Tm5  1  0.500000  0.817682  0.205629  1
  Co  Co6  1  0.500000  0.500356  0.702962  1
  Co  Co7  1  0.000000  0.998663  0.296512  1
  Co  Co8  1  0.000000  0.500788  0.988122  1
  Co  Co9  1  0.500000  0.999230  0.013081  1
  Co  Co10  1  0.500000  0.332415  0.990483  1
  Co  Co11  1  0.500000  0.668494  0.990758  1
  Co  Co12  1  0.000000  0.167235  0.010257  1
  Co  Co13  1  0.000000  0.832168  0.010917  1
  Co  Co14  1  0.500000  0.296003  0.431114  1
  Co  Co15  1  0.500000  0.703703  0.429780  1
  Co  Co16  1  0.000000  0.203321  0.568894  1
  Co  Co17  1  0.000000  0.796378  0.567996  1
  Co  Co18  1  0.500000  0.879427  0.707378  1
  Co  Co19  1  0.500000  0.120798  0.707951  1
  Co  Co20  1  0.000000  0.621779  0.291364  1
  Co  Co21  1  0.000000  0.379442  0.292467  1
  Tc  Tc22  1  0.500000  0.500476  0.156752  1
  Tc  Tc23  1  0.000000  0.999513  0.843537  1
  P  P24  1  0.500000  0.500534  0.881883  1
  P  P25  1  0.000000  0.998900  0.119104  1
  P  P26  1  0.500000  0.499695  0.348335  1
  P  P27  1  0.000000  0.000099  0.651532  1
  P  P28  1  0.500000  0.311477  0.616061  1
  P  P29  1  0.500000  0.689082  0.615441  1
  P  P30  1  0.000000  0.187926  0.383958  1
  P  P31  1  0.000000  0.811212  0.382179  1
  P  P32  1  0.500000  0.846542  0.892748  1
  P  P33  1  0.500000  0.153297  0.893382  1
  P  P34  1  0.000000  0.654761  0.108068  1
  P  P35  1  0.000000  0.346425  0.107293  1
