# generated using pymatgen
data_Ho3Zr(P3Pd4)2
_symmetry_space_group_name_H-M   'P 1'
_cell_length_a   3.98586800
_cell_length_b   11.43473400
_cell_length_c   13.29190300
_cell_angle_alpha   90.00000000
_cell_angle_beta   90.00000000
_cell_angle_gamma   90.00000000
_symmetry_Int_Tables_number   1
_chemical_formula_structural   Ho3Zr(P3Pd4)2
_chemical_formula_sum   'Ho6 Zr2 P12 Pd16'
_cell_volume   605.80958679
_cell_formula_units_Z   2
loop_
 _symmetry_equiv_pos_site_id
 _symmetry_equiv_pos_as_xyz
  1  'x, y, z'
loop_
 _atom_site_type_symbol
 _atom_site_label
 _atom_site_symmetry_multiplicity
 _atom_site_fract_x
 _atom_site_fract_y
 _atom_site_fract_z
 _atom_site_occupancy
  Ho  Ho0  1  0.000000  0.500000  0.523715  1
  Ho  Ho1  1  0.500000  0.000000  0.476285  1
  Ho  Ho2  1  0.500000  0.817336  0.204772  1
  Ho  Ho3  1  0.500000  0.182664  0.204772  1
  Ho  Ho4  1  0.000000  0.682664  0.795228  1
  Ho  Ho5  1  0.000000  0.317336  0.795228  1
  Zr  Zr6  1  0.500000  0.500000  0.156905  1
  Zr  Zr7  1  0.000000  0.000000  0.843095  1
  P  P8  1  0.500000  0.319574  0.617554  1
  P  P9  1  0.500000  0.680426  0.617554  1
  P  P10  1  0.000000  0.180426  0.382446  1
  P  P11  1  0.000000  0.819574  0.382446  1
  P  P12  1  0.500000  0.500000  0.872461  1
  P  P13  1  0.000000  0.000000  0.127539  1
  P  P14  1  0.500000  0.844578  0.883094  1
  P  P15  1  0.500000  0.155422  0.883094  1
  P  P16  1  0.000000  0.655422  0.116906  1
  P  P17  1  0.000000  0.344578  0.116906  1
  P  P18  1  0.500000  0.500000  0.357587  1
  P  P19  1  0.000000  0.000000  0.642413  1
  Pd  Pd20  1  0.000000  0.500000  0.983917  1
  Pd  Pd21  1  0.500000  0.000000  0.016083  1
  Pd  Pd22  1  0.500000  0.304293  0.436259  1
  Pd  Pd23  1  0.500000  0.695707  0.436259  1
  Pd  Pd24  1  0.000000  0.195707  0.563741  1
  Pd  Pd25  1  0.000000  0.804293  0.563741  1
  Pd  Pd26  1  0.500000  0.872138  0.704279  1
  Pd  Pd27  1  0.500000  0.127862  0.704279  1
  Pd  Pd28  1  0.000000  0.627862  0.295721  1
  Pd  Pd29  1  0.000000  0.372138  0.295721  1
  Pd  Pd30  1  0.500000  0.331112  0.974264  1
  Pd  Pd31  1  0.500000  0.668888  0.974264  1
  Pd  Pd32  1  0.000000  0.168888  0.025736  1
  Pd  Pd33  1  0.000000  0.831112  0.025736  1
  Pd  Pd34  1  0.500000  0.500000  0.699490  1
  Pd  Pd35  1  0.000000  0.000000  0.300510  1
