# generated using pymatgen
data_TbPa3(InRh2)2
_symmetry_space_group_name_H-M   'P 1'
_cell_length_a   7.71302803
_cell_length_b   7.71495027
_cell_length_c   3.61518900
_cell_angle_alpha   90.00000000
_cell_angle_beta   90.00000000
_cell_angle_gamma   92.29535757
_symmetry_Int_Tables_number   1
_chemical_formula_structural   TbPa3(InRh2)2
_chemical_formula_sum   'Tb1 Pa3 In2 Rh4'
_cell_volume   214.95148433
_cell_formula_units_Z   1
loop_
 _symmetry_equiv_pos_site_id
 _symmetry_equiv_pos_as_xyz
  1  'x, y, z'
loop_
 _atom_site_type_symbol
 _atom_site_label
 _atom_site_symmetry_multiplicity
 _atom_site_fract_x
 _atom_site_fract_y
 _atom_site_fract_z
 _atom_site_occupancy
  Tb  Tb0  1  0.170541  0.329406  0.500000  1
  Pa  Pa1  1  0.668177  0.171969  0.500000  1
  Pa  Pa2  1  0.328190  0.831734  0.500000  1
  Pa  Pa3  1  0.831283  0.668783  0.500000  1
  In  In4  1  0.490725  0.499070  0.000000  1
  In  In5  1  0.000916  0.009202  0.000000  1
  Rh  Rh6  1  0.387059  0.113049  0.000000  1
  Rh  Rh7  1  0.644142  0.855745  0.000000  1
  Rh  Rh8  1  0.849931  0.370919  0.000000  1
  Rh  Rh9  1  0.129037  0.650123  0.000000  1
