# generated using pymatgen
data_Dy3Zr7(Si5Ir2)4
_symmetry_space_group_name_H-M   'P 1'
_cell_length_a   12.47673054
_cell_length_b   12.47673054
_cell_length_c   4.14734200
_cell_angle_alpha   90.00000000
_cell_angle_beta   90.00000000
_cell_angle_gamma   90.08636113
_symmetry_Int_Tables_number   1
_chemical_formula_structural   Dy3Zr7(Si5Ir2)4
_chemical_formula_sum   'Dy3 Zr7 Si20 Ir8'
_cell_volume   645.61103988
_cell_formula_units_Z   1
loop_
 _symmetry_equiv_pos_site_id
 _symmetry_equiv_pos_as_xyz
  1  'x, y, z'
loop_
 _atom_site_type_symbol
 _atom_site_label
 _atom_site_symmetry_multiplicity
 _atom_site_fract_x
 _atom_site_fract_y
 _atom_site_fract_z
 _atom_site_occupancy
  Dy  Dy0  1  0.114855  0.614855  0.500000  1
  Dy  Dy1  1  0.384485  0.115698  0.500000  1
  Dy  Dy2  1  0.615698  0.884485  0.500000  1
  Zr  Zr3  1  0.499771  0.500388  0.000000  1
  Zr  Zr4  1  0.000388  0.999771  0.000000  1
  Zr  Zr5  1  0.677675  0.177675  0.500000  1
  Zr  Zr6  1  0.324578  0.824578  0.500000  1
  Zr  Zr7  1  0.174016  0.324051  0.500000  1
  Zr  Zr8  1  0.824051  0.674016  0.500000  1
  Zr  Zr9  1  0.883887  0.383887  0.500000  1
  Si  Si10  1  0.567731  0.067731  0.000000  1
  Si  Si11  1  0.433325  0.933325  0.000000  1
  Si  Si12  1  0.064993  0.432724  0.000000  1
  Si  Si13  1  0.932724  0.564993  0.000000  1
  Si  Si14  1  0.664627  0.698873  0.000000  1
  Si  Si15  1  0.335562  0.300342  0.000000  1
  Si  Si16  1  0.164433  0.800013  0.000000  1
  Si  Si17  1  0.836698  0.201585  0.000000  1
  Si  Si18  1  0.300013  0.664433  0.000000  1
  Si  Si19  1  0.701585  0.336698  0.000000  1
  Si  Si20  1  0.198873  0.164627  0.000000  1
  Si  Si21  1  0.800342  0.835562  0.000000  1
  Si  Si22  1  0.654024  0.504189  0.500000  1
  Si  Si23  1  0.346582  0.493001  0.500000  1
  Si  Si24  1  0.153137  0.994047  0.500000  1
  Si  Si25  1  0.847320  0.006245  0.500000  1
  Si  Si26  1  0.494047  0.653137  0.500000  1
  Si  Si27  1  0.506245  0.347320  0.500000  1
  Si  Si28  1  0.004189  0.154024  0.500000  1
  Si  Si29  1  0.993001  0.846582  0.500000  1
  Ir  Ir30  1  0.744733  0.520228  0.000000  1
  Ir  Ir31  1  0.255485  0.478617  0.000000  1
  Ir  Ir32  1  0.243281  0.979214  0.000000  1
  Ir  Ir33  1  0.757463  0.022125  0.000000  1
  Ir  Ir34  1  0.479214  0.743281  0.000000  1
  Ir  Ir35  1  0.522125  0.257463  0.000000  1
  Ir  Ir36  1  0.020228  0.244733  0.000000  1
  Ir  Ir37  1  0.978617  0.755485  0.000000  1
