# generated using pymatgen
data_NdErSbI2
_symmetry_space_group_name_H-M   'P 1'
_cell_length_a   4.39512200
_cell_length_b   4.39512174
_cell_length_c   11.27285000
_cell_angle_alpha   90.00000000
_cell_angle_beta   90.00000000
_cell_angle_gamma   120.00000199
_symmetry_Int_Tables_number   1
_chemical_formula_structural   NdErSbI2
_chemical_formula_sum   'Nd1 Er1 Sb1 I2'
_cell_volume   188.58458682
_cell_formula_units_Z   1
loop_
 _symmetry_equiv_pos_site_id
 _symmetry_equiv_pos_as_xyz
  1  'x, y, z'
loop_
 _atom_site_type_symbol
 _atom_site_label
 _atom_site_symmetry_multiplicity
 _atom_site_fract_x
 _atom_site_fract_y
 _atom_site_fract_z
 _atom_site_occupancy
  Nd  Nd0  1  0.666667  0.333333  0.848562  1
  Er  Er1  1  0.333333  0.666667  0.152364  1
  Sb  Sb2  1  0.000000  0.000000  0.010127  1
  I  I3  1  0.333333  0.666667  0.667400  1
  I  I4  1  0.666667  0.333333  0.321547  1
