# generated using pymatgen
data_DyYEr2(Al3Rh)6
_symmetry_space_group_name_H-M   'P 1'
_cell_length_a   7.54595506
_cell_length_b   7.54523083
_cell_length_c   9.45895500
_cell_angle_alpha   90.00000000
_cell_angle_beta   90.00000000
_cell_angle_gamma   119.31859155
_symmetry_Int_Tables_number   1
_chemical_formula_structural   DyYEr2(Al3Rh)6
_chemical_formula_sum   'Dy1 Y1 Er2 Al18 Rh6'
_cell_volume   469.57155066
_cell_formula_units_Z   1
loop_
 _symmetry_equiv_pos_site_id
 _symmetry_equiv_pos_as_xyz
  1  'x, y, z'
loop_
 _atom_site_type_symbol
 _atom_site_label
 _atom_site_symmetry_multiplicity
 _atom_site_fract_x
 _atom_site_fract_y
 _atom_site_fract_z
 _atom_site_occupancy
  Dy  Dy0  1  0.994421  0.671616  0.750000  1
  Y  Y1  1  0.671659  0.994373  0.750000  1
  Er  Er2  1  0.005654  0.328271  0.250000  1
  Er  Er3  1  0.328162  0.005540  0.250000  1
  Al  Al4  1  0.128457  0.128254  0.750000  1
  Al  Al5  1  0.872033  0.872138  0.250000  1
  Al  Al6  1  0.001234  0.335748  0.574331  1
  Al  Al7  1  0.999311  0.664220  0.424338  1
  Al  Al8  1  0.999311  0.664220  0.075662  1
  Al  Al9  1  0.335398  0.001039  0.925634  1
  Al  Al10  1  0.001234  0.335748  0.925669  1
  Al  Al11  1  0.664290  0.999430  0.075671  1
  Al  Al12  1  0.664290  0.999430  0.424329  1
  Al  Al13  1  0.335398  0.001039  0.574366  1
  Al  Al14  1  0.332737  0.332715  0.050931  1
  Al  Al15  1  0.666953  0.666801  0.950829  1
  Al  Al16  1  0.666953  0.666801  0.549171  1
  Al  Al17  1  0.332737  0.332715  0.449069  1
  Al  Al18  1  0.339257  0.549887  0.750000  1
  Al  Al19  1  0.660386  0.449613  0.250000  1
  Al  Al20  1  0.550060  0.339633  0.750000  1
  Al  Al21  1  0.449734  0.660523  0.250000  1
  Rh  Rh22  1  0.671991  0.327824  0.499561  1
  Rh  Rh23  1  0.327651  0.671900  0.499550  1
  Rh  Rh24  1  0.327651  0.671900  0.000450  1
  Rh  Rh25  1  0.671991  0.327824  0.000439  1
  Rh  Rh26  1  0.000524  0.000398  0.499313  1
  Rh  Rh27  1  0.000524  0.000398  0.000687  1
