# generated using pymatgen
data_Lu4Sc6(TlBi)3
_symmetry_space_group_name_H-M   'P 1'
_cell_length_a   6.23213801
_cell_length_b   8.70843869
_cell_length_c   8.67364300
_cell_angle_alpha   119.86104357
_cell_angle_beta   89.99755450
_cell_angle_gamma   90.00220451
_symmetry_Int_Tables_number   1
_chemical_formula_structural   Lu4Sc6(TlBi)3
_chemical_formula_sum   'Lu4 Sc6 Tl3 Bi3'
_cell_volume   408.24036150
_cell_formula_units_Z   1
loop_
 _symmetry_equiv_pos_site_id
 _symmetry_equiv_pos_as_xyz
  1  'x, y, z'
loop_
 _atom_site_type_symbol
 _atom_site_label
 _atom_site_symmetry_multiplicity
 _atom_site_fract_x
 _atom_site_fract_y
 _atom_site_fract_z
 _atom_site_occupancy
  Lu  Lu0  1  0.749940  0.999976  0.231870  1
  Lu  Lu1  1  0.250030  0.763424  0.999509  1
  Lu  Lu2  1  0.249981  0.236606  0.236036  1
  Lu  Lu3  1  0.249963  0.999959  0.766529  1
  Sc  Sc4  1  0.492861  0.332078  0.665593  1
  Sc  Sc5  1  0.492920  0.668177  0.333760  1
  Sc  Sc6  1  0.007169  0.667857  0.333444  1
  Sc  Sc7  1  0.007248  0.332199  0.665743  1
  Sc  Sc8  1  0.750012  0.234899  0.000608  1
  Sc  Sc9  1  0.750001  0.764988  0.765607  1
  Tl  Tl10  1  0.250121  0.396655  0.999624  1
  Tl  Tl11  1  0.249891  0.603139  0.602764  1
  Tl  Tl12  1  0.249913  0.000030  0.397297  1
  Bi  Bi13  1  0.749966  0.598434  0.996105  1
  Bi  Bi14  1  0.749904  0.401583  0.397581  1
  Bi  Bi15  1  0.750081  0.999999  0.607930  1
