# generated using pymatgen
data_Tm2CoMoRu2
_symmetry_space_group_name_H-M   'P 1'
_cell_length_a   5.46482282
_cell_length_b   5.14370621
_cell_length_c   5.46482327
_cell_angle_alpha   123.65566585
_cell_angle_beta   118.98307539
_cell_angle_gamma   89.62340413
_symmetry_Int_Tables_number   1
_chemical_formula_structural   Tm2CoMoRu2
_chemical_formula_sum   'Tm2 Co1 Mo1 Ru2'
_cell_volume   104.36187368
_cell_formula_units_Z   1
loop_
 _symmetry_equiv_pos_site_id
 _symmetry_equiv_pos_as_xyz
  1  'x, y, z'
loop_
 _atom_site_type_symbol
 _atom_site_label
 _atom_site_symmetry_multiplicity
 _atom_site_fract_x
 _atom_site_fract_y
 _atom_site_fract_z
 _atom_site_occupancy
  Tm  Tm0  1  0.370908  0.114368  0.243459  1
  Tm  Tm1  1  0.629092  0.885632  0.756541  1
  Co  Co2  1  0.000000  0.500000  0.000000  1
  Mo  Mo3  1  0.000000  0.000000  0.500000  1
  Ru  Ru4  1  0.000000  0.500000  0.500000  1
  Ru  Ru5  1  0.500000  0.500000  0.000000  1
