# generated using pymatgen
data_Ta6MnCrGa2(GeC)2
_symmetry_space_group_name_H-M   'P 1'
_cell_length_a   8.24488026
_cell_length_b   8.24488069
_cell_length_c   8.24663100
_cell_angle_alpha   59.99297322
_cell_angle_beta   59.99297150
_cell_angle_gamma   60.02255463
_symmetry_Int_Tables_number   1
_chemical_formula_structural   Ta6MnCrGa2(GeC)2
_chemical_formula_sum   'Ta12 Mn2 Cr2 Ga4 Ge4 C4'
_cell_volume   396.42233049
_cell_formula_units_Z   2
loop_
 _symmetry_equiv_pos_site_id
 _symmetry_equiv_pos_as_xyz
  1  'x, y, z'
loop_
 _atom_site_type_symbol
 _atom_site_label
 _atom_site_symmetry_multiplicity
 _atom_site_fract_x
 _atom_site_fract_y
 _atom_site_fract_z
 _atom_site_occupancy
  Ta  Ta0  1  0.550518  0.948325  0.553173  1
  Ta  Ta1  1  0.303241  0.697995  0.695843  1
  Ta  Ta2  1  0.700106  0.301845  0.301701  1
  Ta  Ta3  1  0.301845  0.700106  0.301701  1
  Ta  Ta4  1  0.695349  0.695349  0.304830  1
  Ta  Ta5  1  0.300479  0.300479  0.699953  1
  Ta  Ta6  1  0.553563  0.553563  0.946658  1
  Ta  Ta7  1  0.948325  0.550518  0.553173  1
  Ta  Ta8  1  0.552548  0.946951  0.946901  1
  Ta  Ta9  1  0.947897  0.947897  0.552619  1
  Ta  Ta10  1  0.697995  0.303241  0.695843  1
  Ta  Ta11  1  0.946951  0.552548  0.946901  1
  Mn  Mn12  1  0.622149  0.123352  0.122824  1
  Mn  Mn13  1  0.123352  0.622149  0.122824  1
  Cr  Cr14  1  0.128047  0.128047  0.128386  1
  Cr  Cr15  1  0.123490  0.123490  0.622484  1
  Ga  Ga16  1  0.913918  0.255414  0.917186  1
  Ga  Ga17  1  0.914736  0.914736  0.255965  1
  Ga  Ga18  1  0.255414  0.913918  0.917186  1
  Ga  Ga19  1  0.338253  0.338253  0.334365  1
  Ge  Ge20  1  0.913375  0.913375  0.916880  1
  Ge  Ge21  1  0.988025  0.341071  0.337482  1
  Ge  Ge22  1  0.341071  0.988025  0.337482  1
  Ge  Ge23  1  0.339873  0.339873  0.987970  1
  C  C24  1  0.625251  0.625251  0.625485  1
  C  C25  1  0.124172  0.625012  0.625006  1
  C  C26  1  0.625012  0.124172  0.625006  1
  C  C27  1  0.625045  0.625045  0.124170  1
