# generated using pymatgen
data_Ba2EuY(Ge4N7)2
_symmetry_space_group_name_H-M   'P 1'
_cell_length_a   6.36844300
_cell_length_b   6.36844375
_cell_length_c   10.44255100
_cell_angle_alpha   90.00000000
_cell_angle_beta   90.00000000
_cell_angle_gamma   120.00000129
_symmetry_Int_Tables_number   1
_chemical_formula_structural   Ba2EuY(Ge4N7)2
_chemical_formula_sum   'Ba2 Eu1 Y1 Ge8 N14'
_cell_volume   366.77845301
_cell_formula_units_Z   1
loop_
 _symmetry_equiv_pos_site_id
 _symmetry_equiv_pos_as_xyz
  1  'x, y, z'
loop_
 _atom_site_type_symbol
 _atom_site_label
 _atom_site_symmetry_multiplicity
 _atom_site_fract_x
 _atom_site_fract_y
 _atom_site_fract_z
 _atom_site_occupancy
  Ba  Ba0  1  0.333333  0.666667  0.363532  1
  Ba  Ba1  1  0.666667  0.333333  0.864954  1
  Eu  Eu2  1  0.333333  0.666667  0.735169  1
  Y  Y3  1  0.666667  0.333333  0.236070  1
  Ge  Ge4  1  0.826296  0.652591  0.544424  1
  Ge  Ge5  1  0.173488  0.826512  0.048566  1
  Ge  Ge6  1  0.653021  0.826512  0.048566  1
  Ge  Ge7  1  0.347409  0.173704  0.544424  1
  Ge  Ge8  1  0.826296  0.173704  0.544424  1
  Ge  Ge9  1  0.173488  0.346979  0.048566  1
  Ge  Ge10  1  0.000000  0.000000  0.813986  1
  Ge  Ge11  1  0.000000  0.000000  0.312361  1
  N  N12  1  0.000000  0.000000  0.620648  1
  N  N13  1  0.000000  0.000000  0.122524  1
  N  N14  1  0.157352  0.314705  0.872359  1
  N  N15  1  0.841795  0.158205  0.367972  1
  N  N16  1  0.316410  0.158205  0.367972  1
  N  N17  1  0.685295  0.842648  0.872359  1
  N  N18  1  0.157352  0.842648  0.872359  1
  N  N19  1  0.841795  0.683590  0.367972  1
  N  N20  1  0.984096  0.492049  0.601332  1
  N  N21  1  0.493590  0.987177  0.104864  1
  N  N22  1  0.493590  0.506410  0.104864  1
  N  N23  1  0.507951  0.492049  0.601332  1
  N  N24  1  0.012823  0.506410  0.104864  1
  N  N25  1  0.507951  0.015904  0.601332  1
