# generated using pymatgen
data_Lu5HgRu2
_symmetry_space_group_name_H-M   'P 1'
_cell_length_a   8.41857358
_cell_length_b   8.41857262
_cell_length_c   8.41857255
_cell_angle_alpha   126.16609095
_cell_angle_beta   126.16608042
_cell_angle_gamma   79.61533660
_symmetry_Int_Tables_number   1
_chemical_formula_structural   Lu5HgRu2
_chemical_formula_sum   'Lu10 Hg2 Ru4'
_cell_volume   375.72220251
_cell_formula_units_Z   2
loop_
 _symmetry_equiv_pos_site_id
 _symmetry_equiv_pos_as_xyz
  1  'x, y, z'
loop_
 _atom_site_type_symbol
 _atom_site_label
 _atom_site_symmetry_multiplicity
 _atom_site_fract_x
 _atom_site_fract_y
 _atom_site_fract_z
 _atom_site_occupancy
  Lu  Lu0  1  0.000000  0.000000  0.000000  1
  Lu  Lu1  1  0.500000  0.500000  0.000000  1
  Lu  Lu2  1  0.791826  0.291826  0.815419  1
  Lu  Lu3  1  0.208174  0.708174  0.184581  1
  Lu  Lu4  1  0.476408  0.976408  0.184581  1
  Lu  Lu5  1  0.291826  0.476408  0.500000  1
  Lu  Lu6  1  0.023592  0.208174  0.500000  1
  Lu  Lu7  1  0.523592  0.023592  0.815419  1
  Lu  Lu8  1  0.708174  0.523592  0.500000  1
  Lu  Lu9  1  0.976408  0.791826  0.500000  1
  Hg  Hg10  1  0.250000  0.250000  0.000000  1
  Hg  Hg11  1  0.750000  0.750000  0.000000  1
  Ru  Ru12  1  0.142025  0.642025  0.784049  1
  Ru  Ru13  1  0.857975  0.357975  0.215951  1
  Ru  Ru14  1  0.642025  0.857975  0.500000  1
  Ru  Ru15  1  0.357975  0.142025  0.500000  1
