# generated using pymatgen
data_PaMn5As3
_symmetry_space_group_name_H-M   'P 1'
_cell_length_a   3.84370100
_cell_length_b   11.31271000
_cell_length_c   12.13607700
_cell_angle_alpha   90.00000000
_cell_angle_beta   90.00000000
_cell_angle_gamma   90.00000000
_symmetry_Int_Tables_number   1
_chemical_formula_structural   PaMn5As3
_chemical_formula_sum   'Pa4 Mn20 As12'
_cell_volume   527.70908881
_cell_formula_units_Z   4
loop_
 _symmetry_equiv_pos_site_id
 _symmetry_equiv_pos_as_xyz
  1  'x, y, z'
loop_
 _atom_site_type_symbol
 _atom_site_label
 _atom_site_symmetry_multiplicity
 _atom_site_fract_x
 _atom_site_fract_y
 _atom_site_fract_z
 _atom_site_occupancy
  Pa  Pa0  1  0.250000  0.590603  0.691021  1
  Pa  Pa1  1  0.250000  0.909397  0.191021  1
  Pa  Pa2  1  0.750000  0.409397  0.308979  1
  Pa  Pa3  1  0.750000  0.090603  0.808979  1
  Mn  Mn4  1  0.250000  0.711065  0.973404  1
  Mn  Mn5  1  0.250000  0.788935  0.473404  1
  Mn  Mn6  1  0.750000  0.288935  0.026596  1
  Mn  Mn7  1  0.750000  0.211065  0.526596  1
  Mn  Mn8  1  0.250000  0.406110  0.486767  1
  Mn  Mn9  1  0.250000  0.093890  0.986767  1
  Mn  Mn10  1  0.750000  0.593890  0.513233  1
  Mn  Mn11  1  0.750000  0.906110  0.013233  1
  Mn  Mn12  1  0.250000  0.202777  0.184176  1
  Mn  Mn13  1  0.250000  0.297223  0.684176  1
  Mn  Mn14  1  0.750000  0.797223  0.815824  1
  Mn  Mn15  1  0.750000  0.702777  0.315824  1
  Mn  Mn16  1  0.250000  0.887633  0.688591  1
  Mn  Mn17  1  0.250000  0.612367  0.188591  1
  Mn  Mn18  1  0.750000  0.112367  0.311409  1
  Mn  Mn19  1  0.750000  0.387633  0.811409  1
  Mn  Mn20  1  0.250000  0.475380  0.933618  1
  Mn  Mn21  1  0.250000  0.024620  0.433618  1
  Mn  Mn22  1  0.750000  0.524620  0.066382  1
  Mn  Mn23  1  0.750000  0.975380  0.566382  1
  As  As24  1  0.250000  0.405010  0.122525  1
  As  As25  1  0.250000  0.094990  0.622525  1
  As  As26  1  0.750000  0.594990  0.877475  1
  As  As27  1  0.750000  0.905010  0.377475  1
  As  As28  1  0.250000  0.271865  0.882755  1
  As  As29  1  0.250000  0.228135  0.382755  1
  As  As30  1  0.750000  0.728135  0.117245  1
  As  As31  1  0.750000  0.771865  0.617245  1
  As  As32  1  0.250000  0.589872  0.390223  1
  As  As33  1  0.250000  0.910128  0.890223  1
  As  As34  1  0.750000  0.410128  0.609777  1
  As  As35  1  0.750000  0.089872  0.109777  1
