# generated using pymatgen
data_Y4Ga16Ir2Rh
_symmetry_space_group_name_H-M   'P 1'
_cell_length_a   6.16973500
_cell_length_b   6.16973500
_cell_length_c   11.25273000
_cell_angle_alpha   90.00000000
_cell_angle_beta   90.00000000
_cell_angle_gamma   90.00000000
_symmetry_Int_Tables_number   1
_chemical_formula_structural   Y4Ga16Ir2Rh
_chemical_formula_sum   'Y4 Ga16 Ir2 Rh1'
_cell_volume   428.34225633
_cell_formula_units_Z   1
loop_
 _symmetry_equiv_pos_site_id
 _symmetry_equiv_pos_as_xyz
  1  'x, y, z'
loop_
 _atom_site_type_symbol
 _atom_site_label
 _atom_site_symmetry_multiplicity
 _atom_site_fract_x
 _atom_site_fract_y
 _atom_site_fract_z
 _atom_site_occupancy
  Y  Y0  1  0.500000  0.000000  0.805228  1
  Y  Y1  1  0.000000  0.500000  0.805228  1
  Y  Y2  1  0.500000  0.000000  0.194772  1
  Y  Y3  1  0.000000  0.500000  0.194772  1
  Ga  Ga4  1  0.249095  0.249095  0.619420  1
  Ga  Ga5  1  0.750905  0.750905  0.619420  1
  Ga  Ga6  1  0.750905  0.249095  0.619420  1
  Ga  Ga7  1  0.249095  0.750905  0.619420  1
  Ga  Ga8  1  0.750905  0.750905  0.380580  1
  Ga  Ga9  1  0.249095  0.249095  0.380580  1
  Ga  Ga10  1  0.249095  0.750905  0.380580  1
  Ga  Ga11  1  0.750905  0.249095  0.380580  1
  Ga  Ga12  1  0.287070  0.287070  0.000000  1
  Ga  Ga13  1  0.712930  0.712930  0.000000  1
  Ga  Ga14  1  0.712930  0.287070  0.000000  1
  Ga  Ga15  1  0.287070  0.712930  0.000000  1
  Ga  Ga16  1  0.500000  0.500000  0.803555  1
  Ga  Ga17  1  0.500000  0.500000  0.196445  1
  Ga  Ga18  1  0.000000  0.000000  0.776204  1
  Ga  Ga19  1  0.000000  0.000000  0.223796  1
  Ir  Ir20  1  0.500000  0.000000  0.500000  1
  Ir  Ir21  1  0.000000  0.500000  0.500000  1
  Rh  Rh22  1  0.000000  0.000000  0.000000  1
