# generated using pymatgen
data_Be8FeNi3(Mo6C)2
_symmetry_space_group_name_H-M   'P 1'
_cell_length_a   7.54677673
_cell_length_b   7.54677650
_cell_length_c   7.56105874
_cell_angle_alpha   60.06245920
_cell_angle_beta   60.06246005
_cell_angle_gamma   60.00000032
_symmetry_Int_Tables_number   1
_chemical_formula_structural   Be8FeNi3(Mo6C)2
_chemical_formula_sum   'Be8 Fe1 Ni3 Mo12 C2'
_cell_volume   304.78947648
_cell_formula_units_Z   1
loop_
 _symmetry_equiv_pos_site_id
 _symmetry_equiv_pos_as_xyz
  1  'x, y, z'
loop_
 _atom_site_type_symbol
 _atom_site_label
 _atom_site_symmetry_multiplicity
 _atom_site_fract_x
 _atom_site_fract_y
 _atom_site_fract_z
 _atom_site_occupancy
  Be  Be0  1  0.329198  0.329198  0.012405  1
  Be  Be1  1  0.327404  0.327404  0.328647  1
  Be  Be2  1  0.233456  0.922596  0.921353  1
  Be  Be3  1  0.922596  0.922596  0.921353  1
  Be  Be4  1  0.016544  0.327404  0.328647  1
  Be  Be5  1  0.327404  0.016544  0.328647  1
  Be  Be6  1  0.920802  0.920802  0.237595  1
  Be  Be7  1  0.922596  0.233456  0.921353  1
  Fe  Fe8  1  0.125000  0.125000  0.625000  1
  Ni  Ni9  1  0.125000  0.625000  0.125000  1
  Ni  Ni10  1  0.625000  0.125000  0.125000  1
  Ni  Ni11  1  0.125000  0.125000  0.125000  1
  Mo  Mo12  1  0.298975  0.702127  0.699923  1
  Mo  Mo13  1  0.699910  0.699910  0.300099  1
  Mo  Mo14  1  0.702127  0.298975  0.699923  1
  Mo  Mo15  1  0.300080  0.699910  0.300099  1
  Mo  Mo16  1  0.547873  0.951025  0.550077  1
  Mo  Mo17  1  0.550090  0.949920  0.949901  1
  Mo  Mo18  1  0.951025  0.547873  0.550077  1
  Mo  Mo19  1  0.949920  0.550090  0.949901  1
  Mo  Mo20  1  0.298975  0.298975  0.699923  1
  Mo  Mo21  1  0.550090  0.550090  0.949901  1
  Mo  Mo22  1  0.951025  0.951025  0.550077  1
  Mo  Mo23  1  0.699910  0.300080  0.300099  1
  C  C24  1  0.499973  0.499973  0.500082  1
  C  C25  1  0.750027  0.750027  0.749918  1
