# generated using pymatgen
data_La16Tb4Ir11Rh
_symmetry_space_group_name_H-M   'P 1'
_cell_length_a   11.38690500
_cell_length_b   11.38690500
_cell_length_c   6.55615300
_cell_angle_alpha   90.00000000
_cell_angle_beta   90.00000000
_cell_angle_gamma   90.00000000
_symmetry_Int_Tables_number   1
_chemical_formula_structural   La16Tb4Ir11Rh
_chemical_formula_sum   'La16 Tb4 Ir11 Rh1'
_cell_volume   850.08132375
_cell_formula_units_Z   1
loop_
 _symmetry_equiv_pos_site_id
 _symmetry_equiv_pos_as_xyz
  1  'x, y, z'
loop_
 _atom_site_type_symbol
 _atom_site_label
 _atom_site_symmetry_multiplicity
 _atom_site_fract_x
 _atom_site_fract_y
 _atom_site_fract_z
 _atom_site_occupancy
  La  La0  1  0.288053  0.088844  0.386243  1
  La  La1  1  0.288056  0.911135  0.885299  1
  La  La2  1  0.711944  0.088865  0.885299  1
  La  La3  1  0.711947  0.911156  0.386243  1
  La  La4  1  0.588865  0.788056  0.885299  1
  La  La5  1  0.588844  0.211947  0.386243  1
  La  La6  1  0.411156  0.788053  0.386243  1
  La  La7  1  0.411135  0.211944  0.885299  1
  La  La8  1  0.211738  0.411233  0.614406  1
  La  La9  1  0.211741  0.588791  0.114333  1
  La  La10  1  0.788259  0.411209  0.114333  1
  La  La11  1  0.788262  0.588767  0.614406  1
  La  La12  1  0.911209  0.711741  0.114333  1
  La  La13  1  0.911233  0.288262  0.614406  1
  La  La14  1  0.088767  0.711738  0.614406  1
  La  La15  1  0.088791  0.288259  0.114333  1
  Tb  Tb16  1  0.000000  0.000000  0.500058  1
  Tb  Tb17  1  0.000000  0.000000  0.999974  1
  Tb  Tb18  1  0.500000  0.500000  0.999974  1
  Tb  Tb19  1  0.500000  0.500000  0.500058  1
  Ir  Ir20  1  0.850502  0.149186  0.249872  1
  Ir  Ir21  1  0.850572  0.850729  0.749876  1
  Ir  Ir22  1  0.149428  0.149271  0.749876  1
  Ir  Ir23  1  0.149498  0.850814  0.249872  1
  Ir  Ir24  1  0.649271  0.350572  0.749876  1
  Ir  Ir25  1  0.649186  0.649498  0.249872  1
  Ir  Ir26  1  0.350814  0.350502  0.249872  1
  Ir  Ir27  1  0.350729  0.649428  0.749876  1
  Ir  Ir28  1  0.500000  0.000000  0.617877  1
  Ir  Ir29  1  0.000000  0.500000  0.882268  1
  Ir  Ir30  1  0.000000  0.500000  0.382289  1
  Rh  Rh31  1  0.500000  0.000000  0.117390  1
