# generated using pymatgen
data_Ca3Al2Pd7
_symmetry_space_group_name_H-M   'P 1'
_cell_length_a   8.91353023
_cell_length_b   8.91352947
_cell_length_c   8.91353002
_cell_angle_alpha   36.75004873
_cell_angle_beta   36.75005845
_cell_angle_gamma   36.75005324
_symmetry_Int_Tables_number   1
_chemical_formula_structural   Ca3Al2Pd7
_chemical_formula_sum   'Ca3 Al2 Pd7'
_cell_volume   227.06234366
_cell_formula_units_Z   1
loop_
 _symmetry_equiv_pos_site_id
 _symmetry_equiv_pos_as_xyz
  1  'x, y, z'
loop_
 _atom_site_type_symbol
 _atom_site_label
 _atom_site_symmetry_multiplicity
 _atom_site_fract_x
 _atom_site_fract_y
 _atom_site_fract_z
 _atom_site_occupancy
  Ca  Ca0  1  0.358762  0.358762  0.358762  1
  Ca  Ca1  1  0.500000  0.500000  0.500000  1
  Ca  Ca2  1  0.641238  0.641238  0.641238  1
  Al  Al3  1  0.166582  0.166582  0.166582  1
  Al  Al4  1  0.833418  0.833418  0.833418  1
  Pd  Pd5  1  0.000000  0.000000  0.000000  1
  Pd  Pd6  1  0.576145  0.077265  0.077265  1
  Pd  Pd7  1  0.077265  0.576145  0.077265  1
  Pd  Pd8  1  0.922735  0.922735  0.423855  1
  Pd  Pd9  1  0.077265  0.077265  0.576145  1
  Pd  Pd10  1  0.922735  0.423855  0.922735  1
  Pd  Pd11  1  0.423855  0.922735  0.922735  1
