# generated using pymatgen
data_Sc5V3(P3Ir4)4
_symmetry_space_group_name_H-M   'P 1'
_cell_length_a   12.59593300
_cell_length_b   12.59593192
_cell_length_c   3.89504000
_cell_angle_alpha   90.00000000
_cell_angle_beta   90.00000000
_cell_angle_gamma   120.00000022
_symmetry_Int_Tables_number   1
_chemical_formula_structural   Sc5V3(P3Ir4)4
_chemical_formula_sum   'Sc5 V3 P12 Ir16'
_cell_volume   535.18409609
_cell_formula_units_Z   1
loop_
 _symmetry_equiv_pos_site_id
 _symmetry_equiv_pos_as_xyz
  1  'x, y, z'
loop_
 _atom_site_type_symbol
 _atom_site_label
 _atom_site_symmetry_multiplicity
 _atom_site_fract_x
 _atom_site_fract_y
 _atom_site_fract_z
 _atom_site_occupancy
  Sc  Sc0  1  0.333333  0.666667  0.000000  1
  Sc  Sc1  1  0.666667  0.333333  0.000000  1
  Sc  Sc2  1  0.812707  0.000000  0.500000  1
  Sc  Sc3  1  0.000000  0.812707  0.500000  1
  Sc  Sc4  1  0.187293  0.187293  0.500000  1
  V  V5  1  0.451170  0.000000  0.000000  1
  V  V6  1  0.000000  0.451170  0.000000  1
  V  V7  1  0.548830  0.548830  0.000000  1
  P  P8  1  0.175262  0.000000  0.000000  1
  P  P9  1  0.000000  0.175262  0.000000  1
  P  P10  1  0.824738  0.824738  0.000000  1
  P  P11  1  0.168452  0.484299  0.500000  1
  P  P12  1  0.515701  0.684152  0.500000  1
  P  P13  1  0.315848  0.831548  0.500000  1
  P  P14  1  0.684152  0.515701  0.500000  1
  P  P15  1  0.831548  0.315848  0.500000  1
  P  P16  1  0.484299  0.168452  0.500000  1
  P  P17  1  0.638725  0.000000  0.000000  1
  P  P18  1  0.000000  0.638725  0.000000  1
  P  P19  1  0.361275  0.361275  0.000000  1
  Ir  Ir20  1  0.357834  0.492156  0.500000  1
  Ir  Ir21  1  0.507844  0.865678  0.500000  1
  Ir  Ir22  1  0.134322  0.642166  0.500000  1
  Ir  Ir23  1  0.865678  0.507844  0.500000  1
  Ir  Ir24  1  0.642166  0.134322  0.500000  1
  Ir  Ir25  1  0.492156  0.357834  0.500000  1
  Ir  Ir26  1  0.179149  0.371308  0.000000  1
  Ir  Ir27  1  0.628692  0.807842  0.000000  1
  Ir  Ir28  1  0.192158  0.820851  0.000000  1
  Ir  Ir29  1  0.807842  0.628692  0.000000  1
  Ir  Ir30  1  0.820851  0.192158  0.000000  1
  Ir  Ir31  1  0.371308  0.179149  0.000000  1
  Ir  Ir32  1  0.284308  0.000000  0.500000  1
  Ir  Ir33  1  0.000000  0.284308  0.500000  1
  Ir  Ir34  1  0.715692  0.715692  0.500000  1
  Ir  Ir35  1  0.000000  0.000000  0.000000  1
