# generated using pymatgen
data_CeY4(TcB3)2
_symmetry_space_group_name_H-M   'P 1'
_cell_length_a   5.55928651
_cell_length_b   5.55928502
_cell_length_c   8.38498684
_cell_angle_alpha   70.64001101
_cell_angle_beta   70.64000619
_cell_angle_gamma   59.99999599
_symmetry_Int_Tables_number   1
_chemical_formula_structural   CeY4(TcB3)2
_chemical_formula_sum   'Ce1 Y4 Tc2 B6'
_cell_volume   207.33201401
_cell_formula_units_Z   1
loop_
 _symmetry_equiv_pos_site_id
 _symmetry_equiv_pos_as_xyz
  1  'x, y, z'
loop_
 _atom_site_type_symbol
 _atom_site_label
 _atom_site_symmetry_multiplicity
 _atom_site_fract_x
 _atom_site_fract_y
 _atom_site_fract_z
 _atom_site_occupancy
  Ce  Ce0  1  0.000000  0.000000  0.000000  1
  Y  Y1  1  0.750958  0.750958  0.747129  1
  Y  Y2  1  0.249042  0.249042  0.252871  1
  Y  Y3  1  0.582336  0.582336  0.252995  1
  Y  Y4  1  0.417664  0.417664  0.747005  1
  Tc  Tc5  1  0.891818  0.891818  0.324545  1
  Tc  Tc6  1  0.108182  0.108182  0.675455  1
  B  B7  1  0.500000  0.170813  0.500000  1
  B  B8  1  0.829187  0.500000  0.500000  1
  B  B9  1  0.170813  0.829187  0.500000  1
  B  B10  1  0.170813  0.500000  0.500000  1
  B  B11  1  0.829187  0.170813  0.500000  1
  B  B12  1  0.500000  0.829187  0.500000  1
