# generated using pymatgen
data_CsRb7Na4Nb3VSe16
_symmetry_space_group_name_H-M   'P 1'
_cell_length_a   7.77811847
_cell_length_b   7.74112790
_cell_length_c   20.15422300
_cell_angle_alpha   86.69720868
_cell_angle_beta   86.67311840
_cell_angle_gamma   77.88958669
_symmetry_Int_Tables_number   1
_chemical_formula_structural   CsRb7Na4Nb3VSe16
_chemical_formula_sum   'Cs1 Rb7 Na4 Nb3 V1 Se16'
_cell_volume   1183.22387916
_cell_formula_units_Z   1
loop_
 _symmetry_equiv_pos_site_id
 _symmetry_equiv_pos_as_xyz
  1  'x, y, z'
loop_
 _atom_site_type_symbol
 _atom_site_label
 _atom_site_symmetry_multiplicity
 _atom_site_fract_x
 _atom_site_fract_y
 _atom_site_fract_z
 _atom_site_occupancy
  Cs  Cs0  1  0.843694  0.892065  0.927568  1
  Rb  Rb1  1  0.897116  0.835698  0.426692  1
  Rb  Rb2  1  0.320963  0.680116  0.748891  1
  Rb  Rb3  1  0.500663  0.474194  0.498836  1
  Rb  Rb4  1  0.679440  0.320454  0.251305  1
  Rb  Rb5  1  0.476246  0.498747  0.001262  1
  Rb  Rb6  1  0.100653  0.154241  0.572200  1
  Rb  Rb7  1  0.153870  0.101094  0.074924  1
  Na  Na8  1  0.883457  0.402596  0.786486  1
  Na  Na9  1  0.398815  0.882724  0.288544  1
  Na  Na10  1  0.597382  0.116186  0.713252  1
  Na  Na11  1  0.115154  0.596431  0.215834  1
  Nb  Nb12  1  0.817734  0.700111  0.641111  1
  Nb  Nb13  1  0.698749  0.817702  0.144522  1
  Nb  Nb14  1  0.299466  0.183912  0.856776  1
  V  V15  1  0.183682  0.299995  0.356883  1
  Se  Se16  1  0.839764  0.786501  0.753836  1
  Se  Se17  1  0.606666  0.923219  0.583484  1
  Se  Se18  1  0.783794  0.838947  0.257390  1
  Se  Se19  1  0.921684  0.605529  0.087304  1
  Se  Se20  1  0.341577  0.898019  0.915122  1
  Se  Se21  1  0.913499  0.331546  0.412438  1
  Se  Se22  1  0.716745  0.421651  0.648936  1
  Se  Se23  1  0.421338  0.716449  0.150759  1
  Se  Se24  1  0.571837  0.293009  0.849569  1
  Se  Se25  1  0.278666  0.565805  0.351240  1
  Se  Se26  1  0.102870  0.664764  0.583149  1
  Se  Se27  1  0.664262  0.104359  0.086774  1
  Se  Se28  1  0.076111  0.390292  0.916106  1
  Se  Se29  1  0.213329  0.162377  0.743919  1
  Se  Se30  1  0.383276  0.090847  0.412692  1
  Se  Se31  1  0.163602  0.216519  0.249877  1
