# generated using pymatgen
data_Tb2Mn5P7Ir3Rh4
_symmetry_space_group_name_H-M   'P 1'
_cell_length_a   9.44255606
_cell_length_b   9.42950859
_cell_length_c   3.83577100
_cell_angle_alpha   90.00000000
_cell_angle_beta   90.00000000
_cell_angle_gamma   120.12622724
_symmetry_Int_Tables_number   1
_chemical_formula_structural   Tb2Mn5P7Ir3Rh4
_chemical_formula_sum   'Tb2 Mn5 P7 Ir3 Rh4'
_cell_volume   295.39839303
_cell_formula_units_Z   1
loop_
 _symmetry_equiv_pos_site_id
 _symmetry_equiv_pos_as_xyz
  1  'x, y, z'
loop_
 _atom_site_type_symbol
 _atom_site_label
 _atom_site_symmetry_multiplicity
 _atom_site_fract_x
 _atom_site_fract_y
 _atom_site_fract_z
 _atom_site_occupancy
  Tb  Tb0  1  0.666763  0.333324  0.000000  1
  Tb  Tb1  1  0.333834  0.666513  0.500000  1
  Mn  Mn2  1  0.269290  0.111158  0.000000  1
  Mn  Mn3  1  0.841647  0.730080  0.000000  1
  Mn  Mn4  1  0.891181  0.159924  0.000000  1
  Mn  Mn5  1  0.778410  0.899345  0.500000  1
  Mn  Mn6  1  0.121610  0.225521  0.500000  1
  P  P7  1  0.302000  0.891905  0.000000  1
  P  P8  1  0.592610  0.701007  0.000000  1
  P  P9  1  0.110715  0.410472  0.000000  1
  P  P10  1  0.396213  0.277014  0.500000  1
  P  P11  1  0.877888  0.601852  0.500000  1
  P  P12  1  0.723506  0.117519  0.500000  1
  P  P13  1  0.998065  0.998444  0.000000  1
  Ir  Ir14  1  0.442872  0.053873  0.500000  1
  Ir  Ir15  1  0.611829  0.558463  0.500000  1
  Ir  Ir16  1  0.945734  0.389320  0.500000  1
  Rh  Rh17  1  0.065602  0.638330  0.000000  1
  Rh  Rh18  1  0.574549  0.935396  0.000000  1
  Rh  Rh19  1  0.362144  0.427368  0.000000  1
  Rh  Rh20  1  0.093538  0.873172  0.500000  1
