# generated using pymatgen
data_YLuCo9P6Ru
_symmetry_space_group_name_H-M   'P 1'
_cell_length_a   3.66498500
_cell_length_b   10.32733400
_cell_length_c   11.75534300
_cell_angle_alpha   90.00000000
_cell_angle_beta   90.00000000
_cell_angle_gamma   90.00000000
_symmetry_Int_Tables_number   1
_chemical_formula_structural   YLuCo9P6Ru
_chemical_formula_sum   'Y2 Lu2 Co18 P12 Ru2'
_cell_volume   444.93413936
_cell_formula_units_Z   2
loop_
 _symmetry_equiv_pos_site_id
 _symmetry_equiv_pos_as_xyz
  1  'x, y, z'
loop_
 _atom_site_type_symbol
 _atom_site_label
 _atom_site_symmetry_multiplicity
 _atom_site_fract_x
 _atom_site_fract_y
 _atom_site_fract_z
 _atom_site_occupancy
  Y  Y0  1  0.250000  0.582215  0.702495  1
  Y  Y1  1  0.250000  0.917785  0.202495  1
  Lu  Lu2  1  0.750000  0.414166  0.295592  1
  Lu  Lu3  1  0.750000  0.085834  0.795592  1
  Co  Co4  1  0.750000  0.283139  0.007784  1
  Co  Co5  1  0.750000  0.216861  0.507784  1
  Co  Co6  1  0.250000  0.405586  0.486001  1
  Co  Co7  1  0.250000  0.094414  0.986001  1
  Co  Co8  1  0.750000  0.589961  0.509274  1
  Co  Co9  1  0.750000  0.910039  0.009274  1
  Co  Co10  1  0.250000  0.221370  0.176788  1
  Co  Co11  1  0.250000  0.278630  0.676788  1
  Co  Co12  1  0.750000  0.778678  0.822823  1
  Co  Co13  1  0.750000  0.721322  0.322823  1
  Co  Co14  1  0.250000  0.888096  0.702561  1
  Co  Co15  1  0.250000  0.611904  0.202561  1
  Co  Co16  1  0.750000  0.117861  0.301073  1
  Co  Co17  1  0.750000  0.382139  0.801073  1
  Co  Co18  1  0.250000  0.463038  0.933236  1
  Co  Co19  1  0.250000  0.036962  0.433236  1
  Co  Co20  1  0.750000  0.531655  0.070292  1
  Co  Co21  1  0.750000  0.968345  0.570292  1
  P  P22  1  0.250000  0.416894  0.113759  1
  P  P23  1  0.250000  0.083106  0.613759  1
  P  P24  1  0.750000  0.578095  0.887818  1
  P  P25  1  0.750000  0.921905  0.387818  1
  P  P26  1  0.250000  0.268569  0.868440  1
  P  P27  1  0.250000  0.231431  0.368440  1
  P  P28  1  0.750000  0.728652  0.132383  1
  P  P29  1  0.750000  0.771348  0.632383  1
  P  P30  1  0.250000  0.593606  0.389806  1
  P  P31  1  0.250000  0.906394  0.889806  1
  P  P32  1  0.750000  0.396591  0.608411  1
  P  P33  1  0.750000  0.103409  0.108411  1
  Ru  Ru34  1  0.250000  0.715702  0.991464  1
  Ru  Ru35  1  0.250000  0.784298  0.491464  1
