# generated using pymatgen
data_HS23
_symmetry_space_group_name_H-M   'P 1'
_cell_length_a   5.31651734
_cell_length_b   9.40995491
_cell_length_c   15.16513200
_cell_angle_alpha   90.01422355
_cell_angle_beta   86.54388498
_cell_angle_gamma   90.73422169
_symmetry_Int_Tables_number   1
_chemical_formula_structural   HS23
_chemical_formula_sum   'H1 S23'
_cell_volume   757.24195215
_cell_formula_units_Z   1
loop_
 _symmetry_equiv_pos_site_id
 _symmetry_equiv_pos_as_xyz
  1  'x, y, z'
loop_
 _atom_site_type_symbol
 _atom_site_label
 _atom_site_symmetry_multiplicity
 _atom_site_fract_x
 _atom_site_fract_y
 _atom_site_fract_z
 _atom_site_occupancy
  H  H0  1  0.543019  0.254653  0.428771  1
  S  S1  1  0.505616  0.794429  0.389300  1
  S  S2  1  0.999423  0.307243  0.113548  1
  S  S3  1  0.719712  0.225813  0.488591  1
  S  S4  1  0.289740  0.762110  0.505184  1
  S  S5  1  0.203319  0.263750  0.996793  1
  S  S6  1  0.788666  0.735323  0.003345  1
  S  S7  1  0.248438  0.367616  0.349491  1
  S  S8  1  0.710103  0.614009  0.361896  1
  S  S9  1  0.789663  0.128821  0.151707  1
  S  S10  1  0.211230  0.868500  0.136826  1
  S  S11  1  0.719583  0.631444  0.632970  1
  S  S12  1  0.292629  0.372705  0.631672  1
  S  S13  1  0.212889  0.874138  0.855771  1
  S  S14  1  0.784737  0.129687  0.862373  1
  S  S15  1  0.997706  0.690464  0.110032  1
  S  S16  1  0.509649  0.808919  0.609756  1
  S  S17  1  0.472317  0.187534  0.595869  1
  S  S18  1  0.004226  0.693347  0.888631  1
  S  S19  1  0.990449  0.309569  0.891135  1
  S  S20  1  0.489065  0.486159  0.279719  1
  S  S21  1  0.006908  0.997274  0.224206  1
  S  S22  1  0.506849  0.493782  0.713997  1
  S  S23  1  0.004060  0.002711  0.778422  1
