# generated using pymatgen
data_Mg5Si12Ir19
_symmetry_space_group_name_H-M   'P 1'
_cell_length_a   12.71943400
_cell_length_b   12.71943540
_cell_length_c   3.94693000
_cell_angle_alpha   90.00000000
_cell_angle_beta   90.00000000
_cell_angle_gamma   120.00000157
_symmetry_Int_Tables_number   1
_chemical_formula_structural   Mg5Si12Ir19
_chemical_formula_sum   'Mg5 Si12 Ir19'
_cell_volume   553.00068451
_cell_formula_units_Z   1
loop_
 _symmetry_equiv_pos_site_id
 _symmetry_equiv_pos_as_xyz
  1  'x, y, z'
loop_
 _atom_site_type_symbol
 _atom_site_label
 _atom_site_symmetry_multiplicity
 _atom_site_fract_x
 _atom_site_fract_y
 _atom_site_fract_z
 _atom_site_occupancy
  Mg  Mg0  1  0.000000  0.821289  0.500000  1
  Mg  Mg1  1  0.178711  0.178711  0.500000  1
  Mg  Mg2  1  0.821289  0.000000  0.500000  1
  Mg  Mg3  1  0.333333  0.666667  0.000000  1
  Mg  Mg4  1  0.666667  0.333333  0.000000  1
  Si  Si5  1  0.000000  0.178774  0.000000  1
  Si  Si6  1  0.821226  0.821226  0.000000  1
  Si  Si7  1  0.178774  0.000000  0.000000  1
  Si  Si8  1  0.520804  0.687156  0.500000  1
  Si  Si9  1  0.312844  0.833648  0.500000  1
  Si  Si10  1  0.166352  0.479196  0.500000  1
  Si  Si11  1  0.479196  0.166352  0.500000  1
  Si  Si12  1  0.687156  0.520804  0.500000  1
  Si  Si13  1  0.833648  0.312844  0.500000  1
  Si  Si14  1  0.000000  0.632585  0.000000  1
  Si  Si15  1  0.367415  0.367415  0.000000  1
  Si  Si16  1  0.632585  0.000000  0.000000  1
  Ir  Ir17  1  0.000000  0.278996  0.500000  1
  Ir  Ir18  1  0.721004  0.721004  0.500000  1
  Ir  Ir19  1  0.278996  0.000000  0.500000  1
  Ir  Ir20  1  0.624945  0.809263  0.000000  1
  Ir  Ir21  1  0.190737  0.815682  0.000000  1
  Ir  Ir22  1  0.184318  0.375055  0.000000  1
  Ir  Ir23  1  0.375055  0.184318  0.000000  1
  Ir  Ir24  1  0.809263  0.624945  0.000000  1
  Ir  Ir25  1  0.815682  0.190737  0.000000  1
  Ir  Ir26  1  0.510140  0.870582  0.500000  1
  Ir  Ir27  1  0.129418  0.639559  0.500000  1
  Ir  Ir28  1  0.360441  0.489860  0.500000  1
  Ir  Ir29  1  0.489860  0.360441  0.500000  1
  Ir  Ir30  1  0.870582  0.510140  0.500000  1
  Ir  Ir31  1  0.639559  0.129418  0.500000  1
  Ir  Ir32  1  0.000000  0.000000  0.000000  1
  Ir  Ir33  1  0.000000  0.447344  0.000000  1
  Ir  Ir34  1  0.552656  0.552656  0.000000  1
  Ir  Ir35  1  0.447344  0.000000  0.000000  1
