# generated using pymatgen
data_Nd8Cd2IrPd
_symmetry_space_group_name_H-M   'P 1'
_cell_length_a   10.01008876
_cell_length_b   10.01008896
_cell_length_c   10.05244700
_cell_angle_alpha   59.85992627
_cell_angle_beta   59.85992561
_cell_angle_gamma   59.68903156
_symmetry_Int_Tables_number   1
_chemical_formula_structural   Nd8Cd2IrPd
_chemical_formula_sum   'Nd16 Cd4 Ir2 Pd2'
_cell_volume   709.06030334
_cell_formula_units_Z   2
loop_
 _symmetry_equiv_pos_site_id
 _symmetry_equiv_pos_as_xyz
  1  'x, y, z'
loop_
 _atom_site_type_symbol
 _atom_site_label
 _atom_site_symmetry_multiplicity
 _atom_site_fract_x
 _atom_site_fract_y
 _atom_site_fract_z
 _atom_site_occupancy
  Nd  Nd0  1  0.349725  0.349725  0.354440  1
  Nd  Nd1  1  0.349725  0.349725  0.946110  1
  Nd  Nd2  1  0.346110  0.952669  0.350610  1
  Nd  Nd3  1  0.952669  0.346110  0.350610  1
  Nd  Nd4  1  0.814721  0.188237  0.192157  1
  Nd  Nd5  1  0.188237  0.814721  0.804886  1
  Nd  Nd6  1  0.188237  0.814721  0.192157  1
  Nd  Nd7  1  0.814721  0.188237  0.804886  1
  Nd  Nd8  1  0.189055  0.189055  0.810945  1
  Nd  Nd9  1  0.807970  0.807970  0.192030  1
  Nd  Nd10  1  0.936403  0.559987  0.566356  1
  Nd  Nd11  1  0.559987  0.936403  0.937253  1
  Nd  Nd12  1  0.559987  0.936403  0.566356  1
  Nd  Nd13  1  0.936403  0.559987  0.937253  1
  Nd  Nd14  1  0.563509  0.563509  0.936491  1
  Nd  Nd15  1  0.937158  0.937158  0.562842  1
  Cd  Cd16  1  0.580055  0.580055  0.580144  1
  Cd  Cd17  1  0.580055  0.580055  0.259747  1
  Cd  Cd18  1  0.581147  0.257827  0.580514  1
  Cd  Cd19  1  0.257827  0.581147  0.580514  1
  Ir  Ir20  1  0.144473  0.144473  0.140031  1
  Ir  Ir21  1  0.144473  0.144473  0.571022  1
  Pd  Pd22  1  0.145877  0.571476  0.141323  1
  Pd  Pd23  1  0.571476  0.145877  0.141323  1
