# generated using pymatgen
data_Li3Ac3InGeP
_symmetry_space_group_name_H-M   'P 1'
_cell_length_a   7.82529900
_cell_length_b   7.82529899
_cell_length_c   4.51171200
_cell_angle_alpha   90.00000000
_cell_angle_beta   90.00000000
_cell_angle_gamma   120.00000315
_symmetry_Int_Tables_number   1
_chemical_formula_structural   Li3Ac3InGeP
_chemical_formula_sum   'Li3 Ac3 In1 Ge1 P1'
_cell_volume   239.26207658
_cell_formula_units_Z   1
loop_
 _symmetry_equiv_pos_site_id
 _symmetry_equiv_pos_as_xyz
  1  'x, y, z'
loop_
 _atom_site_type_symbol
 _atom_site_label
 _atom_site_symmetry_multiplicity
 _atom_site_fract_x
 _atom_site_fract_y
 _atom_site_fract_z
 _atom_site_occupancy
  Li  Li0  1  0.755507  0.754806  0.500000  1
  Li  Li1  1  0.245194  0.000701  0.500000  1
  Li  Li2  1  0.999299  0.244493  0.500000  1
  Ac  Ac3  1  0.431807  0.429486  0.000000  1
  Ac  Ac4  1  0.570514  0.002321  0.000000  1
  Ac  Ac5  1  0.997679  0.568193  0.000000  1
  In  In6  1  0.000000  0.000000  0.000000  1
  Ge  Ge7  1  0.333333  0.666667  0.500000  1
  P  P8  1  0.666667  0.333333  0.500000  1
