# generated using pymatgen
data_Ho5In2(RuPb)2
_symmetry_space_group_name_H-M   'P 1'
_cell_length_a   8.13322600
_cell_length_b   18.40539000
_cell_length_c   3.59083500
_cell_angle_alpha   90.00000000
_cell_angle_beta   90.00000000
_cell_angle_gamma   90.00000000
_symmetry_Int_Tables_number   1
_chemical_formula_structural   Ho5In2(RuPb)2
_chemical_formula_sum   'Ho10 In4 Ru4 Pb4'
_cell_volume   537.53075088
_cell_formula_units_Z   2
loop_
 _symmetry_equiv_pos_site_id
 _symmetry_equiv_pos_as_xyz
  1  'x, y, z'
loop_
 _atom_site_type_symbol
 _atom_site_label
 _atom_site_symmetry_multiplicity
 _atom_site_fract_x
 _atom_site_fract_y
 _atom_site_fract_z
 _atom_site_occupancy
  Ho  Ho0  1  0.500000  0.500000  0.000000  1
  Ho  Ho1  1  0.000000  0.000000  0.000000  1
  Ho  Ho2  1  0.740723  0.278758  0.000000  1
  Ho  Ho3  1  0.259277  0.721242  0.000000  1
  Ho  Ho4  1  0.759277  0.778758  0.000000  1
  Ho  Ho5  1  0.240723  0.221242  0.000000  1
  Ho  Ho6  1  0.621518  0.089177  0.000000  1
  Ho  Ho7  1  0.378482  0.910823  0.000000  1
  Ho  Ho8  1  0.878482  0.589177  0.000000  1
  Ho  Ho9  1  0.121518  0.410823  0.000000  1
  In  In10  1  0.577899  0.652940  0.500000  1
  In  In11  1  0.422101  0.347060  0.500000  1
  In  In12  1  0.922101  0.152940  0.500000  1
  In  In13  1  0.077899  0.847060  0.500000  1
  Ru  Ru14  1  0.521911  0.195725  0.500000  1
  Ru  Ru15  1  0.478089  0.804275  0.500000  1
  Ru  Ru16  1  0.978089  0.695725  0.500000  1
  Ru  Ru17  1  0.021911  0.304275  0.500000  1
  Pb  Pb18  1  0.704640  0.932569  0.500000  1
  Pb  Pb19  1  0.295360  0.067431  0.500000  1
  Pb  Pb20  1  0.795360  0.432569  0.500000  1
  Pb  Pb21  1  0.204640  0.567431  0.500000  1
