# generated using pymatgen
data_CeTm(Lu2Co)2
_symmetry_space_group_name_H-M   'P 1'
_cell_length_a   6.16961700
_cell_length_b   6.79169700
_cell_length_c   9.26129200
_cell_angle_alpha   90.00000000
_cell_angle_beta   90.00000000
_cell_angle_gamma   90.00000000
_symmetry_Int_Tables_number   1
_chemical_formula_structural   CeTm(Lu2Co)2
_chemical_formula_sum   'Ce2 Tm2 Lu8 Co4'
_cell_volume   388.06822504
_cell_formula_units_Z   2
loop_
 _symmetry_equiv_pos_site_id
 _symmetry_equiv_pos_as_xyz
  1  'x, y, z'
loop_
 _atom_site_type_symbol
 _atom_site_label
 _atom_site_symmetry_multiplicity
 _atom_site_fract_x
 _atom_site_fract_y
 _atom_site_fract_z
 _atom_site_occupancy
  Ce  Ce0  1  0.861668  0.558568  0.250000  1
  Ce  Ce1  1  0.638332  0.058568  0.250000  1
  Tm  Tm2  1  0.140416  0.459655  0.750000  1
  Tm  Tm3  1  0.359584  0.959655  0.750000  1
  Lu  Lu4  1  0.330323  0.673183  0.064431  1
  Lu  Lu5  1  0.169677  0.173183  0.435569  1
  Lu  Lu6  1  0.676212  0.327979  0.568838  1
  Lu  Lu7  1  0.823788  0.827979  0.931162  1
  Lu  Lu8  1  0.676212  0.327979  0.931162  1
  Lu  Lu9  1  0.823788  0.827979  0.568838  1
  Lu  Lu10  1  0.330323  0.673183  0.435569  1
  Lu  Lu11  1  0.169677  0.173183  0.064431  1
  Co  Co12  1  0.025194  0.865638  0.250000  1
  Co  Co13  1  0.474806  0.365638  0.250000  1
  Co  Co14  1  0.951935  0.113815  0.750000  1
  Co  Co15  1  0.548065  0.613815  0.750000  1
