# generated using pymatgen
data_LiPr2(TmSi2)2
_symmetry_space_group_name_H-M   'P 1'
_cell_length_a   7.22348600
_cell_length_b   7.74613700
_cell_length_c   14.77070500
_cell_angle_alpha   90.00000000
_cell_angle_beta   90.00000000
_cell_angle_gamma   90.00000000
_symmetry_Int_Tables_number   1
_chemical_formula_structural   LiPr2(TmSi2)2
_chemical_formula_sum   'Li4 Pr8 Tm8 Si16'
_cell_volume   826.48168445
_cell_formula_units_Z   4
loop_
 _symmetry_equiv_pos_site_id
 _symmetry_equiv_pos_as_xyz
  1  'x, y, z'
loop_
 _atom_site_type_symbol
 _atom_site_label
 _atom_site_symmetry_multiplicity
 _atom_site_fract_x
 _atom_site_fract_y
 _atom_site_fract_z
 _atom_site_occupancy
  Li  Li0  1  0.653431  0.990809  0.750000  1
  Li  Li1  1  0.846569  0.490809  0.250000  1
  Li  Li2  1  0.346569  0.009191  0.250000  1
  Li  Li3  1  0.153431  0.509191  0.750000  1
  Pr  Pr4  1  0.023186  0.184452  0.397081  1
  Pr  Pr5  1  0.523186  0.315548  0.397081  1
  Pr  Pr6  1  0.476814  0.684452  0.897081  1
  Pr  Pr7  1  0.476814  0.684452  0.602919  1
  Pr  Pr8  1  0.976814  0.815548  0.602919  1
  Pr  Pr9  1  0.976814  0.815548  0.897081  1
  Pr  Pr10  1  0.523186  0.315548  0.102919  1
  Pr  Pr11  1  0.023186  0.184452  0.102919  1
  Tm  Tm12  1  0.326739  0.181357  0.625862  1
  Tm  Tm13  1  0.673261  0.818643  0.374138  1
  Tm  Tm14  1  0.173261  0.681357  0.374138  1
  Tm  Tm15  1  0.826739  0.318643  0.874138  1
  Tm  Tm16  1  0.826739  0.318643  0.625862  1
  Tm  Tm17  1  0.326739  0.181357  0.874138  1
  Tm  Tm18  1  0.173261  0.681357  0.125862  1
  Tm  Tm19  1  0.673261  0.818643  0.125862  1
  Si  Si20  1  0.273124  0.888062  0.750000  1
  Si  Si21  1  0.471674  0.601238  0.250000  1
  Si  Si22  1  0.028326  0.101238  0.750000  1
  Si  Si23  1  0.528326  0.398762  0.750000  1
  Si  Si24  1  0.150101  0.464924  0.535003  1
  Si  Si25  1  0.971674  0.898762  0.250000  1
  Si  Si26  1  0.726876  0.111938  0.250000  1
  Si  Si27  1  0.849899  0.535076  0.035003  1
  Si  Si28  1  0.349899  0.964924  0.035003  1
  Si  Si29  1  0.150101  0.464924  0.964997  1
  Si  Si30  1  0.650101  0.035076  0.535003  1
  Si  Si31  1  0.349899  0.964924  0.464997  1
  Si  Si32  1  0.849899  0.535076  0.464997  1
  Si  Si33  1  0.773124  0.611938  0.750000  1
  Si  Si34  1  0.226876  0.388062  0.250000  1
  Si  Si35  1  0.650101  0.035076  0.964997  1
