# generated using pymatgen
data_PrSm4Nb3(Co4P3)4
_symmetry_space_group_name_H-M   'P 1'
_cell_length_a   12.27663400
_cell_length_b   12.27663494
_cell_length_c   3.73877800
_cell_angle_alpha   90.00000000
_cell_angle_beta   90.00000000
_cell_angle_gamma   119.99999747
_symmetry_Int_Tables_number   1
_chemical_formula_structural   PrSm4Nb3(Co4P3)4
_chemical_formula_sum   'Pr1 Sm4 Nb3 Co16 P12'
_cell_volume   487.99904434
_cell_formula_units_Z   1
loop_
 _symmetry_equiv_pos_site_id
 _symmetry_equiv_pos_as_xyz
  1  'x, y, z'
loop_
 _atom_site_type_symbol
 _atom_site_label
 _atom_site_symmetry_multiplicity
 _atom_site_fract_x
 _atom_site_fract_y
 _atom_site_fract_z
 _atom_site_occupancy
  Pr  Pr0  1  0.333333  0.666667  0.000000  1
  Sm  Sm1  1  0.815790  0.999892  0.500000  1
  Sm  Sm2  1  0.000108  0.815898  0.500000  1
  Sm  Sm3  1  0.184102  0.184210  0.500000  1
  Sm  Sm4  1  0.666667  0.333333  0.000000  1
  Nb  Nb5  1  0.443325  0.000756  0.000000  1
  Nb  Nb6  1  0.999244  0.442569  0.000000  1
  Nb  Nb7  1  0.557431  0.556675  0.000000  1
  Co  Co8  1  0.280036  0.000892  0.500000  1
  Co  Co9  1  0.999108  0.279145  0.500000  1
  Co  Co10  1  0.720855  0.719964  0.500000  1
  Co  Co11  1  0.626614  0.802692  0.000000  1
  Co  Co12  1  0.197308  0.823922  0.000000  1
  Co  Co13  1  0.176078  0.373386  0.000000  1
  Co  Co14  1  0.374707  0.177215  0.000000  1
  Co  Co15  1  0.802508  0.625293  0.000000  1
  Co  Co16  1  0.822785  0.197492  0.000000  1
  Co  Co17  1  0.521824  0.876031  0.500000  1
  Co  Co18  1  0.123969  0.645793  0.500000  1
  Co  Co19  1  0.354207  0.478176  0.500000  1
  Co  Co20  1  0.480519  0.354437  0.500000  1
  Co  Co21  1  0.873917  0.519481  0.500000  1
  Co  Co22  1  0.645563  0.126083  0.500000  1
  Co  Co23  1  0.000000  0.000000  0.000000  1
  P  P24  1  0.180170  0.000469  0.000000  1
  P  P25  1  0.999531  0.179701  0.000000  1
  P  P26  1  0.820299  0.819830  0.000000  1
  P  P27  1  0.525077  0.690139  0.500000  1
  P  P28  1  0.309861  0.834939  0.500000  1
  P  P29  1  0.165061  0.474923  0.500000  1
  P  P30  1  0.477526  0.167244  0.500000  1
  P  P31  1  0.689719  0.522474  0.500000  1
  P  P32  1  0.832756  0.310281  0.500000  1
  P  P33  1  0.641206  0.999981  0.000000  1
  P  P34  1  0.000019  0.641225  0.000000  1
  P  P35  1  0.358775  0.358794  0.000000  1
