# generated using pymatgen
data_AcCdAuO
_symmetry_space_group_name_H-M   'P 1'
_cell_length_a   4.32671800
_cell_length_b   4.32671800
_cell_length_c   10.06149500
_cell_angle_alpha   90.00000000
_cell_angle_beta   90.00000000
_cell_angle_gamma   90.00000000
_symmetry_Int_Tables_number   1
_chemical_formula_structural   AcCdAuO
_chemical_formula_sum   'Ac2 Cd2 Au2 O2'
_cell_volume   188.35610296
_cell_formula_units_Z   2
loop_
 _symmetry_equiv_pos_site_id
 _symmetry_equiv_pos_as_xyz
  1  'x, y, z'
loop_
 _atom_site_type_symbol
 _atom_site_label
 _atom_site_symmetry_multiplicity
 _atom_site_fract_x
 _atom_site_fract_y
 _atom_site_fract_z
 _atom_site_occupancy
  Ac  Ac0  1  0.250003  0.250003  0.122709  1
  Ac  Ac1  1  0.750001  0.750001  0.877292  1
  Cd  Cd2  1  0.750001  0.250003  0.500000  1
  Cd  Cd3  1  0.250003  0.750001  0.500000  1
  Au  Au4  1  0.750001  0.750001  0.306190  1
  Au  Au5  1  0.250003  0.250003  0.693809  1
  O  O6  1  0.750001  0.250003  0.000000  1
  O  O7  1  0.250003  0.750001  0.000000  1
