# generated using pymatgen
data_Y12Ho4MgIn(AgPt2)2
_symmetry_space_group_name_H-M   'P 1'
_cell_length_a   9.76974884
_cell_length_b   9.72561326
_cell_length_c   9.72561400
_cell_angle_alpha   59.99999747
_cell_angle_beta   60.14932551
_cell_angle_gamma   60.14932423
_symmetry_Int_Tables_number   1
_chemical_formula_structural   Y12Ho4MgIn(AgPt2)2
_chemical_formula_sum   'Y12 Ho4 Mg1 In1 Ag2 Pt4'
_cell_volume   654.90598738
_cell_formula_units_Z   1
loop_
 _symmetry_equiv_pos_site_id
 _symmetry_equiv_pos_as_xyz
  1  'x, y, z'
loop_
 _atom_site_type_symbol
 _atom_site_label
 _atom_site_symmetry_multiplicity
 _atom_site_fract_x
 _atom_site_fract_y
 _atom_site_fract_z
 _atom_site_occupancy
  Y  Y0  1  0.057682  0.441800  0.442303  1
  Y  Y1  1  0.438641  0.061520  0.061043  1
  Y  Y2  1  0.438636  0.061519  0.438795  1
  Y  Y3  1  0.057677  0.441799  0.058223  1
  Y  Y4  1  0.439928  0.439293  0.060386  1
  Y  Y5  1  0.059317  0.059772  0.440452  1
  Y  Y6  1  0.182056  0.813941  0.815464  1
  Y  Y7  1  0.813752  0.182622  0.189499  1
  Y  Y8  1  0.813748  0.182611  0.814123  1
  Y  Y9  1  0.182053  0.813942  0.188526  1
  Y  Y10  1  0.814968  0.814251  0.185387  1
  Y  Y11  1  0.183861  0.185457  0.815336  1
  Ho  Ho12  1  0.600967  0.599894  0.599745  1
  Ho  Ho13  1  0.600956  0.599897  0.199388  1
  Ho  Ho14  1  0.601659  0.198872  0.599726  1
  Ho  Ho15  1  0.193764  0.602662  0.601783  1
  Mg  Mg16  1  0.523073  0.827602  0.824655  1
  In  In17  1  0.833392  0.504506  0.831106  1
  Ag  Ag18  1  0.832880  0.834292  0.833581  1
  Ag  Ag19  1  0.832860  0.834296  0.499310  1
  Pt  Pt20  1  0.392341  0.394157  0.394344  1
  Pt  Pt21  1  0.392348  0.394140  0.819134  1
  Pt  Pt22  1  0.392647  0.818577  0.394366  1
  Pt  Pt23  1  0.820793  0.392577  0.393322  1
