# generated using pymatgen
data_LaNdHoTm(AsPt)4
_symmetry_space_group_name_H-M   'P 1'
_cell_length_a   4.30853300
_cell_length_b   4.30853236
_cell_length_c   15.87060900
_cell_angle_alpha   90.00000000
_cell_angle_beta   90.00000000
_cell_angle_gamma   120.00001261
_symmetry_Int_Tables_number   1
_chemical_formula_structural   LaNdHoTm(AsPt)4
_chemical_formula_sum   'La1 Nd1 Ho1 Tm1 As4 Pt4'
_cell_volume   255.14258492
_cell_formula_units_Z   1
loop_
 _symmetry_equiv_pos_site_id
 _symmetry_equiv_pos_as_xyz
  1  'x, y, z'
loop_
 _atom_site_type_symbol
 _atom_site_label
 _atom_site_symmetry_multiplicity
 _atom_site_fract_x
 _atom_site_fract_y
 _atom_site_fract_z
 _atom_site_occupancy
  La  La0  1  0.000000  0.000000  0.500990  1
  Nd  Nd1  1  0.000000  0.000000  0.999024  1
  Ho  Ho2  1  0.000000  0.000000  0.248716  1
  Tm  Tm3  1  0.000000  0.000000  0.751255  1
  As  As4  1  0.333333  0.666667  0.880601  1
  As  As5  1  0.666667  0.333333  0.118073  1
  As  As6  1  0.666667  0.333333  0.378664  1
  As  As7  1  0.333333  0.666667  0.622467  1
  Pt  Pt8  1  0.333333  0.666667  0.355841  1
  Pt  Pt9  1  0.666667  0.333333  0.646949  1
  Pt  Pt10  1  0.666667  0.333333  0.856751  1
  Pt  Pt11  1  0.333333  0.666667  0.140670  1
