# generated using pymatgen
data_Nb5Co16Si6PW
_symmetry_space_group_name_H-M   'P 1'
_cell_length_a   7.89296378
_cell_length_b   7.88426673
_cell_length_c   7.89296381
_cell_angle_alpha   60.03644985
_cell_angle_beta   59.92711935
_cell_angle_gamma   60.03645290
_symmetry_Int_Tables_number   1
_chemical_formula_structural   Nb5Co16Si6PW
_chemical_formula_sum   'Nb5 Co16 Si6 P1 W1'
_cell_volume   347.31660784
_cell_formula_units_Z   1
loop_
 _symmetry_equiv_pos_site_id
 _symmetry_equiv_pos_as_xyz
  1  'x, y, z'
loop_
 _atom_site_type_symbol
 _atom_site_label
 _atom_site_symmetry_multiplicity
 _atom_site_fract_x
 _atom_site_fract_y
 _atom_site_fract_z
 _atom_site_occupancy
  Nb  Nb0  1  0.200991  0.799009  0.799960  1
  Nb  Nb1  1  0.799960  0.200040  0.200991  1
  Nb  Nb2  1  0.799960  0.799009  0.200991  1
  Nb  Nb3  1  0.200991  0.200040  0.799960  1
  Nb  Nb4  1  0.796564  0.203436  0.796564  1
  Co  Co5  1  0.166551  0.164179  0.166551  1
  Co  Co6  1  0.497282  0.833449  0.835821  1
  Co  Co7  1  0.833478  0.499847  0.833478  1
  Co  Co8  1  0.835821  0.833449  0.497282  1
  Co  Co9  1  0.166551  0.502718  0.166551  1
  Co  Co10  1  0.166803  0.166522  0.500153  1
  Co  Co11  1  0.500153  0.166522  0.166803  1
  Co  Co12  1  0.833478  0.833197  0.833478  1
  Co  Co13  1  0.381883  0.386320  0.381883  1
  Co  Co14  1  0.150086  0.618117  0.613680  1
  Co  Co15  1  0.616989  0.147723  0.616989  1
  Co  Co16  1  0.613680  0.618117  0.150086  1
  Co  Co17  1  0.381883  0.849914  0.381883  1
  Co  Co18  1  0.381700  0.383011  0.852277  1
  Co  Co19  1  0.852277  0.383011  0.381700  1
  Co  Co20  1  0.616989  0.618300  0.616989  1
  Si  Si21  1  0.000395  0.499605  0.000395  1
  Si  Si22  1  0.499575  0.998571  0.001429  1
  Si  Si23  1  0.001429  0.500425  0.499575  1
  Si  Si24  1  0.500395  0.999605  0.500395  1
  Si  Si25  1  0.001429  0.998571  0.499575  1
  Si  Si26  1  0.499575  0.500425  0.001429  1
  P  P27  1  0.502265  0.497735  0.502265  1
  W  W28  1  0.200864  0.799136  0.200864  1
