# generated using pymatgen
data_Er6PtI10
_symmetry_space_group_name_H-M   'P 1'
_cell_length_a   7.68485284
_cell_length_b   9.69008974
_cell_length_c   9.71550921
_cell_angle_alpha   107.18314204
_cell_angle_beta   97.08534490
_cell_angle_gamma   104.79749986
_symmetry_Int_Tables_number   1
_chemical_formula_structural   Er6PtI10
_chemical_formula_sum   'Er6 Pt1 I10'
_cell_volume   652.60635713
_cell_formula_units_Z   1
loop_
 _symmetry_equiv_pos_site_id
 _symmetry_equiv_pos_as_xyz
  1  'x, y, z'
loop_
 _atom_site_type_symbol
 _atom_site_label
 _atom_site_symmetry_multiplicity
 _atom_site_fract_x
 _atom_site_fract_y
 _atom_site_fract_z
 _atom_site_occupancy
  Er  Er0  1  0.527698  0.714212  0.413914  1
  Er  Er1  1  0.472302  0.285788  0.586086  1
  Er  Er2  1  0.151898  0.874017  0.334389  1
  Er  Er3  1  0.848102  0.125983  0.665611  1
  Er  Er4  1  0.612996  0.039603  0.259047  1
  Er  Er5  1  0.387004  0.960397  0.740953  1
  Pt  Pt6  1  0.500000  0.000000  0.500000  1
  I  I7  1  0.718958  0.740311  0.152277  1
  I  I8  1  0.281042  0.259689  0.847723  1
  I  I9  1  0.046300  0.182830  0.407566  1
  I  I10  1  0.953700  0.817170  0.592434  1
  I  I11  1  0.586110  0.373477  0.320803  1
  I  I12  1  0.413890  0.626523  0.679197  1
  I  I13  1  0.144277  0.546199  0.226433  1
  I  I14  1  0.855723  0.453801  0.773567  1
  I  I15  1  0.759944  0.088371  0.964279  1
  I  I16  1  0.240056  0.911629  0.035721  1
