# generated using pymatgen
data_Cs6RbUAs4
_symmetry_space_group_name_H-M   'P 1'
_cell_length_a   9.34032900
_cell_length_b   10.27916500
_cell_length_c   11.30280900
_cell_angle_alpha   90.00000000
_cell_angle_beta   90.00000000
_cell_angle_gamma   90.00000000
_symmetry_Int_Tables_number   1
_chemical_formula_structural   Cs6RbUAs4
_chemical_formula_sum   'Cs12 Rb2 U2 As8'
_cell_volume   1085.19154157
_cell_formula_units_Z   2
loop_
 _symmetry_equiv_pos_site_id
 _symmetry_equiv_pos_as_xyz
  1  'x, y, z'
loop_
 _atom_site_type_symbol
 _atom_site_label
 _atom_site_symmetry_multiplicity
 _atom_site_fract_x
 _atom_site_fract_y
 _atom_site_fract_z
 _atom_site_occupancy
  Cs  Cs0  1  0.874788  0.027565  0.000000  1
  Cs  Cs1  1  0.704249  0.833082  0.713597  1
  Cs  Cs2  1  0.399475  0.895480  0.000000  1
  Cs  Cs3  1  0.374788  0.972435  0.500000  1
  Cs  Cs4  1  0.877808  0.464764  0.292078  1
  Cs  Cs5  1  0.899475  0.104520  0.500000  1
  Cs  Cs6  1  0.204249  0.166918  0.213597  1
  Cs  Cs7  1  0.377808  0.535236  0.207922  1
  Cs  Cs8  1  0.377808  0.535236  0.792078  1
  Cs  Cs9  1  0.877808  0.464764  0.707922  1
  Cs  Cs10  1  0.704249  0.833082  0.286403  1
  Cs  Cs11  1  0.204249  0.166918  0.786403  1
  Rb  Rb12  1  0.666371  0.340839  0.000000  1
  Rb  Rb13  1  0.166371  0.659161  0.500000  1
  U  U14  1  0.000958  0.669130  0.000000  1
  U  U15  1  0.500958  0.330870  0.500000  1
  As  As16  1  0.707942  0.674909  0.000000  1
  As  As17  1  0.207942  0.325091  0.500000  1
  As  As18  1  0.066953  0.410005  0.000000  1
  As  As19  1  0.566953  0.589995  0.500000  1
  As  As20  1  0.090250  0.802003  0.200437  1
  As  As21  1  0.590250  0.197997  0.299563  1
  As  As22  1  0.590250  0.197997  0.700437  1
  As  As23  1  0.090250  0.802003  0.799563  1
