# generated using pymatgen
data_La5Al2Ir3
_symmetry_space_group_name_H-M   'P 1'
_cell_length_a   8.71223085
_cell_length_b   8.71223029
_cell_length_c   8.71223100
_cell_angle_alpha   109.47122229
_cell_angle_beta   109.47122098
_cell_angle_gamma   109.47122159
_symmetry_Int_Tables_number   1
_chemical_formula_structural   La5Al2Ir3
_chemical_formula_sum   'La10 Al4 Ir6'
_cell_volume   509.05674530
_cell_formula_units_Z   2
loop_
 _symmetry_equiv_pos_site_id
 _symmetry_equiv_pos_as_xyz
  1  'x, y, z'
loop_
 _atom_site_type_symbol
 _atom_site_label
 _atom_site_symmetry_multiplicity
 _atom_site_fract_x
 _atom_site_fract_y
 _atom_site_fract_z
 _atom_site_occupancy
  La  La0  1  0.250000  0.686090  0.436091  1
  La  La1  1  0.750000  0.813910  0.063910  1
  La  La2  1  0.436091  0.250000  0.686090  1
  La  La3  1  0.686090  0.436091  0.250000  1
  La  La4  1  0.063910  0.750000  0.813910  1
  La  La5  1  0.813910  0.063910  0.750000  1
  La  La6  1  0.213495  0.213495  0.213495  1
  La  La7  1  0.500001  0.000000  0.286505  1
  La  La8  1  0.286505  0.500001  0.000000  1
  La  La9  1  0.000000  0.286505  0.500001  1
  Al  Al10  1  0.500001  0.000000  0.900144  1
  Al  Al11  1  0.599856  0.599856  0.599856  1
  Al  Al12  1  0.900144  0.500001  0.000000  1
  Al  Al13  1  0.000000  0.900144  0.500001  1
  Ir  Ir14  1  0.250001  0.117722  0.867722  1
  Ir  Ir15  1  0.750000  0.382277  0.632277  1
  Ir  Ir16  1  0.867722  0.250001  0.117722  1
  Ir  Ir17  1  0.117722  0.867722  0.250001  1
  Ir  Ir18  1  0.632277  0.750000  0.382277  1
  Ir  Ir19  1  0.382277  0.632277  0.750000  1
