# generated using pymatgen
data_Zr4Al6TcRu
_symmetry_space_group_name_H-M   'P 1'
_cell_length_a   5.31474100
_cell_length_b   5.31474236
_cell_length_c   8.59286900
_cell_angle_alpha   90.00000000
_cell_angle_beta   90.00000000
_cell_angle_gamma   119.99999777
_symmetry_Int_Tables_number   1
_chemical_formula_structural   Zr4Al6TcRu
_chemical_formula_sum   'Zr4 Al6 Tc1 Ru1'
_cell_volume   210.20021393
_cell_formula_units_Z   1
loop_
 _symmetry_equiv_pos_site_id
 _symmetry_equiv_pos_as_xyz
  1  'x, y, z'
loop_
 _atom_site_type_symbol
 _atom_site_label
 _atom_site_symmetry_multiplicity
 _atom_site_fract_x
 _atom_site_fract_y
 _atom_site_fract_z
 _atom_site_occupancy
  Zr  Zr0  1  0.333333  0.666667  0.943944  1
  Zr  Zr1  1  0.666667  0.333333  0.056056  1
  Zr  Zr2  1  0.666667  0.333333  0.448180  1
  Zr  Zr3  1  0.333333  0.666667  0.551820  1
  Al  Al4  1  0.833960  0.166040  0.748136  1
  Al  Al5  1  0.833960  0.667922  0.748136  1
  Al  Al6  1  0.332078  0.166040  0.748136  1
  Al  Al7  1  0.166040  0.833960  0.251864  1
  Al  Al8  1  0.166040  0.332078  0.251864  1
  Al  Al9  1  0.667922  0.833960  0.251864  1
  Tc  Tc10  1  0.000000  0.000000  0.000000  1
  Ru  Ru11  1  0.000000  0.000000  0.500000  1
