# generated using pymatgen
data_Ba4UTi2Se9
_symmetry_space_group_name_H-M   'P 1'
_cell_length_a   12.61523900
_cell_length_b   12.61522443
_cell_length_c   10.14928200
_cell_angle_alpha   90.00000000
_cell_angle_beta   89.99977291
_cell_angle_gamma   119.99996215
_symmetry_Int_Tables_number   1
_chemical_formula_structural   Ba4UTi2Se9
_chemical_formula_sum   'Ba12 U3 Ti6 Se27'
_cell_volume   1398.80308372
_cell_formula_units_Z   3
loop_
 _symmetry_equiv_pos_site_id
 _symmetry_equiv_pos_as_xyz
  1  'x, y, z'
loop_
 _atom_site_type_symbol
 _atom_site_label
 _atom_site_symmetry_multiplicity
 _atom_site_fract_x
 _atom_site_fract_y
 _atom_site_fract_z
 _atom_site_occupancy
  Ba  Ba0  1  0.683822  0.999979  0.999903  1
  Ba  Ba1  1  0.316179  0.316156  0.000097  1
  Ba  Ba2  1  0.000000  0.684105  0.000000  1
  Ba  Ba3  1  0.042851  0.338878  0.255107  1
  Ba  Ba4  1  0.296029  0.957271  0.255199  1
  Ba  Ba5  1  0.661546  0.704102  0.255259  1
  Ba  Ba6  1  0.000000  0.626606  0.500000  1
  Ba  Ba7  1  0.373822  0.373684  0.500021  1
  Ba  Ba8  1  0.626178  0.999860  0.499979  1
  Ba  Ba9  1  0.703972  0.661242  0.744800  1
  Ba  Ba10  1  0.338454  0.042556  0.744742  1
  Ba  Ba11  1  0.957150  0.296028  0.744893  1
  U  U12  1  0.666922  0.333524  0.254912  1
  U  U13  1  0.000000  0.000520  0.500000  1
  U  U14  1  0.333077  0.666601  0.745088  1
  Ti  Ti15  1  0.333333  0.666587  0.088835  1
  Ti  Ti16  1  0.999738  0.999789  0.144413  1
  Ti  Ti17  1  0.333539  0.666786  0.386050  1
  Ti  Ti18  1  0.666461  0.333248  0.613951  1
  Ti  Ti19  1  0.000262  0.000051  0.855587  1
  Ti  Ti20  1  0.666667  0.333253  0.911166  1
  Se  Se21  1  0.165042  0.000049  0.000224  1
  Se  Se22  1  0.000000  0.165032  0.000000  1
  Se  Se23  1  0.834958  0.835005  0.999776  1
  Se  Se24  1  0.493570  0.176548  0.065986  1
  Se  Se25  1  0.682939  0.506576  0.065683  1
  Se  Se26  1  0.823598  0.316893  0.065679  1
  Se  Se27  1  0.154777  0.643209  0.237762  1
  Se  Se28  1  0.356893  0.511572  0.237751  1
  Se  Se29  1  0.488511  0.845308  0.237614  1
  Se  Se30  1  0.175015  0.160408  0.305737  1
  Se  Se31  1  0.839227  0.014120  0.305211  1
  Se  Se32  1  0.985611  0.824987  0.305556  1
  Se  Se33  1  0.822438  0.312151  0.451970  1
  Se  Se34  1  0.687608  0.510261  0.452136  1
  Se  Se35  1  0.489870  0.177535  0.452036  1
  Se  Se36  1  0.510130  0.687666  0.547964  1
  Se  Se37  1  0.312392  0.822653  0.547865  1
  Se  Se38  1  0.177562  0.489712  0.548030  1
  Se  Se39  1  0.160774  0.174895  0.694788  1
  Se  Se40  1  0.014389  0.839376  0.694445  1
  Se  Se41  1  0.824984  0.985393  0.694264  1
  Se  Se42  1  0.511489  0.356796  0.762386  1
  Se  Se43  1  0.643107  0.154680  0.762250  1
  Se  Se44  1  0.845224  0.488432  0.762238  1
  Se  Se45  1  0.176402  0.493295  0.934322  1
  Se  Se46  1  0.317061  0.823637  0.934317  1
  Se  Se47  1  0.506429  0.682977  0.934014  1
