# generated using pymatgen
data_NaY9Se10
_symmetry_space_group_name_H-M   'P 1'
_cell_length_a   7.06949375
_cell_length_b   8.20023050
_cell_length_c   9.20620847
_cell_angle_alpha   103.45868973
_cell_angle_beta   97.01931500
_cell_angle_gamma   106.75580195
_symmetry_Int_Tables_number   1
_chemical_formula_structural   NaY9Se10
_chemical_formula_sum   'Na1 Y9 Se10'
_cell_volume   486.62676148
_cell_formula_units_Z   1
loop_
 _symmetry_equiv_pos_site_id
 _symmetry_equiv_pos_as_xyz
  1  'x, y, z'
loop_
 _atom_site_type_symbol
 _atom_site_label
 _atom_site_symmetry_multiplicity
 _atom_site_fract_x
 _atom_site_fract_y
 _atom_site_fract_z
 _atom_site_occupancy
  Na  Na0  1  0.000000  0.500000  0.000000  1
  Y  Y1  1  0.798900  0.600772  0.599343  1
  Y  Y2  1  0.602998  0.201503  0.207114  1
  Y  Y3  1  0.397002  0.798497  0.792886  1
  Y  Y4  1  0.601266  0.704840  0.206864  1
  Y  Y5  1  0.201100  0.399228  0.400657  1
  Y  Y6  1  0.398734  0.295160  0.793136  1
  Y  Y7  1  0.000000  0.000000  0.000000  1
  Y  Y8  1  0.202496  0.902663  0.405995  1
  Y  Y9  1  0.797504  0.097337  0.594005  1
  Se  Se10  1  0.696626  0.649941  0.901975  1
  Se  Se11  1  0.501020  0.251531  0.499949  1
  Se  Se12  1  0.698318  0.149304  0.901267  1
  Se  Se13  1  0.301682  0.850696  0.098733  1
  Se  Se14  1  0.498980  0.748469  0.500051  1
  Se  Se15  1  0.097286  0.449073  0.700716  1
  Se  Se16  1  0.303374  0.350059  0.098025  1
  Se  Se17  1  0.904286  0.050044  0.298434  1
  Se  Se18  1  0.095714  0.949956  0.701566  1
  Se  Se19  1  0.902714  0.550927  0.299284  1
