# generated using pymatgen
data_Nd10CuSn6Br
_symmetry_space_group_name_H-M   'P 1'
_cell_length_a   9.52938500
_cell_length_b   9.52938432
_cell_length_c   6.81185800
_cell_angle_alpha   90.00000000
_cell_angle_beta   90.00000000
_cell_angle_gamma   119.99999888
_symmetry_Int_Tables_number   1
_chemical_formula_structural   Nd10CuSn6Br
_chemical_formula_sum   'Nd10 Cu1 Sn6 Br1'
_cell_volume   535.70529451
_cell_formula_units_Z   1
loop_
 _symmetry_equiv_pos_site_id
 _symmetry_equiv_pos_as_xyz
  1  'x, y, z'
loop_
 _atom_site_type_symbol
 _atom_site_label
 _atom_site_symmetry_multiplicity
 _atom_site_fract_x
 _atom_site_fract_y
 _atom_site_fract_z
 _atom_site_occupancy
  Nd  Nd0  1  0.260724  0.000000  0.756147  1
  Nd  Nd1  1  0.739276  0.000000  0.243853  1
  Nd  Nd2  1  0.000000  0.260724  0.756147  1
  Nd  Nd3  1  0.000000  0.739276  0.243853  1
  Nd  Nd4  1  0.739276  0.739276  0.756147  1
  Nd  Nd5  1  0.260724  0.260724  0.243853  1
  Nd  Nd6  1  0.333333  0.666667  0.500000  1
  Nd  Nd7  1  0.666667  0.333333  0.500000  1
  Nd  Nd8  1  0.666667  0.333333  0.000000  1
  Nd  Nd9  1  0.333333  0.666667  0.000000  1
  Cu  Cu10  1  0.000000  0.000000  0.000000  1
  Sn  Sn11  1  0.613541  0.000000  0.751216  1
  Sn  Sn12  1  0.386459  0.000000  0.248784  1
  Sn  Sn13  1  0.000000  0.613541  0.751216  1
  Sn  Sn14  1  0.000000  0.386459  0.248784  1
  Sn  Sn15  1  0.386459  0.386459  0.751216  1
  Sn  Sn16  1  0.613541  0.613541  0.248784  1
  Br  Br17  1  0.000000  0.000000  0.500000  1
