# generated using pymatgen
data_Er6SbO12
_symmetry_space_group_name_H-M   'P 1'
_cell_length_a   6.44029756
_cell_length_b   6.44029760
_cell_length_c   6.44029830
_cell_angle_alpha   98.94234888
_cell_angle_beta   98.94234058
_cell_angle_gamma   98.94234649
_symmetry_Int_Tables_number   1
_chemical_formula_structural   Er6SbO12
_chemical_formula_sum   'Er6 Sb1 O12'
_cell_volume   256.21971798
_cell_formula_units_Z   1
loop_
 _symmetry_equiv_pos_site_id
 _symmetry_equiv_pos_as_xyz
  1  'x, y, z'
loop_
 _atom_site_type_symbol
 _atom_site_label
 _atom_site_symmetry_multiplicity
 _atom_site_fract_x
 _atom_site_fract_y
 _atom_site_fract_z
 _atom_site_occupancy
  Er  Er0  1  0.694005  0.860526  0.391052  1
  Er  Er1  1  0.391052  0.694005  0.860526  1
  Er  Er2  1  0.860526  0.391052  0.694005  1
  Er  Er3  1  0.305995  0.139474  0.608948  1
  Er  Er4  1  0.608948  0.305995  0.139474  1
  Er  Er5  1  0.139474  0.608948  0.305995  1
  Sb  Sb6  1  0.000000  0.000000  0.000000  1
  O  O7  1  0.433683  0.587536  0.178725  1
  O  O8  1  0.178725  0.433683  0.587536  1
  O  O9  1  0.587536  0.178725  0.433683  1
  O  O10  1  0.566317  0.412464  0.821275  1
  O  O11  1  0.821275  0.566317  0.412464  1
  O  O12  1  0.412464  0.821275  0.566317  1
  O  O13  1  0.925397  0.044108  0.694785  1
  O  O14  1  0.955892  0.305215  0.074603  1
  O  O15  1  0.305215  0.074603  0.955892  1
  O  O16  1  0.074603  0.955892  0.305215  1
  O  O17  1  0.044108  0.694785  0.925397  1
  O  O18  1  0.694785  0.925397  0.044108  1
