# generated using pymatgen
data_Y5(TcB3)2
_symmetry_space_group_name_H-M   'P 1'
_cell_length_a   5.54478542
_cell_length_b   5.54478793
_cell_length_c   8.52167348
_cell_angle_alpha   71.01416721
_cell_angle_beta   71.01415716
_cell_angle_gamma   59.99999105
_symmetry_Int_Tables_number   1
_chemical_formula_structural   Y5(TcB3)2
_chemical_formula_sum   'Y5 Tc2 B6'
_cell_volume   210.27641963
_cell_formula_units_Z   1
loop_
 _symmetry_equiv_pos_site_id
 _symmetry_equiv_pos_as_xyz
  1  'x, y, z'
loop_
 _atom_site_type_symbol
 _atom_site_label
 _atom_site_symmetry_multiplicity
 _atom_site_fract_x
 _atom_site_fract_y
 _atom_site_fract_z
 _atom_site_occupancy
  Y  Y0  1  0.000000  0.000000  0.000000  1
  Y  Y1  1  0.247693  0.247693  0.256921  1
  Y  Y2  1  0.752307  0.752307  0.743079  1
  Y  Y3  1  0.418742  0.418742  0.743774  1
  Y  Y4  1  0.581258  0.581258  0.256226  1
  Tc  Tc5  1  0.111670  0.111670  0.664989  1
  Tc  Tc6  1  0.888330  0.888330  0.335011  1
  B  B7  1  0.170770  0.829230  0.500000  1
  B  B8  1  0.829230  0.500000  0.500000  1
  B  B9  1  0.500000  0.170770  0.500000  1
  B  B10  1  0.170770  0.500000  0.500000  1
  B  B11  1  0.500000  0.829230  0.500000  1
  B  B12  1  0.829230  0.170770  0.500000  1
