# generated using pymatgen
data_KP3(PbO3)4
_symmetry_space_group_name_H-M   'P 1'
_cell_length_a   9.95804600
_cell_length_b   9.95804617
_cell_length_c   7.41161300
_cell_angle_alpha   90.00000000
_cell_angle_beta   90.00000000
_cell_angle_gamma   119.99999945
_symmetry_Int_Tables_number   1
_chemical_formula_structural   KP3(PbO3)4
_chemical_formula_sum   'K2 P6 Pb8 O24'
_cell_volume   636.49006921
_cell_formula_units_Z   2
loop_
 _symmetry_equiv_pos_site_id
 _symmetry_equiv_pos_as_xyz
  1  'x, y, z'
loop_
 _atom_site_type_symbol
 _atom_site_label
 _atom_site_symmetry_multiplicity
 _atom_site_fract_x
 _atom_site_fract_y
 _atom_site_fract_z
 _atom_site_occupancy
  K  K0  1  0.333333  0.666667  0.494693  1
  K  K1  1  0.666667  0.333333  0.505307  1
  P  P2  1  0.392362  0.020803  0.755745  1
  P  P3  1  0.607638  0.979197  0.244255  1
  P  P4  1  0.979197  0.371559  0.755745  1
  P  P5  1  0.020803  0.628441  0.244255  1
  P  P6  1  0.628441  0.607638  0.755745  1
  P  P7  1  0.371559  0.392362  0.244255  1
  Pb  Pb8  1  0.261124  0.260737  0.745850  1
  Pb  Pb9  1  0.738876  0.739263  0.254150  1
  Pb  Pb10  1  0.739263  0.000387  0.745850  1
  Pb  Pb11  1  0.260737  0.999613  0.254150  1
  Pb  Pb12  1  0.999613  0.738876  0.745850  1
  Pb  Pb13  1  0.000387  0.261124  0.254150  1
  Pb  Pb14  1  0.666667  0.333333  0.010895  1
  Pb  Pb15  1  0.333333  0.666667  0.989105  1
  O  O16  1  0.340611  0.076044  0.586076  1
  O  O17  1  0.659389  0.923956  0.413924  1
  O  O18  1  0.923956  0.264567  0.586076  1
  O  O19  1  0.651864  0.912831  0.077581  1
  O  O20  1  0.076044  0.735433  0.413924  1
  O  O21  1  0.348136  0.087169  0.922419  1
  O  O22  1  0.735433  0.659389  0.586076  1
  O  O23  1  0.087169  0.739033  0.077581  1
  O  O24  1  0.264567  0.340611  0.413924  1
  O  O25  1  0.912831  0.260967  0.922419  1
  O  O26  1  0.260967  0.348136  0.077581  1
  O  O27  1  0.739033  0.651864  0.922419  1
  O  O28  1  0.157852  0.472770  0.760646  1
  O  O29  1  0.842148  0.527230  0.239354  1
  O  O30  1  0.527230  0.685083  0.760646  1
  O  O31  1  0.472770  0.314917  0.239354  1
  O  O32  1  0.314917  0.842148  0.760646  1
  O  O33  1  0.685083  0.157852  0.239354  1
  O  O34  1  0.573864  0.096428  0.755311  1
  O  O35  1  0.426136  0.903572  0.244689  1
  O  O36  1  0.903572  0.477435  0.755311  1
  O  O37  1  0.096428  0.522565  0.244689  1
  O  O38  1  0.522565  0.426136  0.755311  1
  O  O39  1  0.477435  0.573864  0.244689  1
