# generated using pymatgen
data_Lu2Mn2Fe7MoP6
_symmetry_space_group_name_H-M   'P 1'
_cell_length_a   3.64382200
_cell_length_b   10.24428300
_cell_length_c   12.12132400
_cell_angle_alpha   90.00000000
_cell_angle_beta   90.00000000
_cell_angle_gamma   90.00000000
_symmetry_Int_Tables_number   1
_chemical_formula_structural   Lu2Mn2Fe7MoP6
_chemical_formula_sum   'Lu4 Mn4 Fe14 Mo2 P12'
_cell_volume   452.46894922
_cell_formula_units_Z   2
loop_
 _symmetry_equiv_pos_site_id
 _symmetry_equiv_pos_as_xyz
  1  'x, y, z'
loop_
 _atom_site_type_symbol
 _atom_site_label
 _atom_site_symmetry_multiplicity
 _atom_site_fract_x
 _atom_site_fract_y
 _atom_site_fract_z
 _atom_site_occupancy
  Lu  Lu0  1  0.250000  0.582312  0.711048  1
  Lu  Lu1  1  0.250000  0.917688  0.211048  1
  Lu  Lu2  1  0.750000  0.419093  0.288551  1
  Lu  Lu3  1  0.750000  0.080907  0.788551  1
  Mn  Mn4  1  0.750000  0.293032  0.007167  1
  Mn  Mn5  1  0.750000  0.206968  0.507167  1
  Mn  Mn6  1  0.250000  0.406840  0.491669  1
  Mn  Mn7  1  0.250000  0.093160  0.991669  1
  Fe  Fe8  1  0.750000  0.584490  0.510742  1
  Fe  Fe9  1  0.750000  0.915510  0.010742  1
  Fe  Fe10  1  0.250000  0.219653  0.172643  1
  Fe  Fe11  1  0.250000  0.280347  0.672643  1
  Fe  Fe12  1  0.750000  0.780632  0.825269  1
  Fe  Fe13  1  0.750000  0.719368  0.325269  1
  Fe  Fe14  1  0.250000  0.879956  0.697073  1
  Fe  Fe15  1  0.250000  0.620044  0.197073  1
  Fe  Fe16  1  0.750000  0.121081  0.303961  1
  Fe  Fe17  1  0.750000  0.378919  0.803961  1
  Fe  Fe18  1  0.250000  0.459342  0.935870  1
  Fe  Fe19  1  0.250000  0.040658  0.435870  1
  Fe  Fe20  1  0.750000  0.532222  0.064540  1
  Fe  Fe21  1  0.750000  0.967778  0.564540  1
  Mo  Mo22  1  0.250000  0.706058  0.990150  1
  Mo  Mo23  1  0.250000  0.793942  0.490150  1
  P  P24  1  0.250000  0.421829  0.114504  1
  P  P25  1  0.250000  0.078171  0.614504  1
  P  P26  1  0.750000  0.576148  0.885774  1
  P  P27  1  0.750000  0.923852  0.385774  1
  P  P28  1  0.250000  0.265698  0.860165  1
  P  P29  1  0.250000  0.234302  0.360165  1
  P  P30  1  0.750000  0.729530  0.140218  1
  P  P31  1  0.750000  0.770470  0.640218  1
  P  P32  1  0.250000  0.597516  0.379636  1
  P  P33  1  0.250000  0.902484  0.879636  1
  P  P34  1  0.750000  0.397206  0.621020  1
  P  P35  1  0.750000  0.102794  0.121020  1
