# generated using pymatgen
data_Er3Lu5(ZrIr3)2
_symmetry_space_group_name_H-M   'P 1'
_cell_length_a   10.69622388
_cell_length_b   10.70481200
_cell_length_c   6.19227851
_cell_angle_alpha   90.00000000
_cell_angle_beta   89.95351068
_cell_angle_gamma   90.00000000
_symmetry_Int_Tables_number   1
_chemical_formula_structural   Er3Lu5(ZrIr3)2
_chemical_formula_sum   'Er6 Lu10 Zr4 Ir12'
_cell_volume   709.02225536
_cell_formula_units_Z   2
loop_
 _symmetry_equiv_pos_site_id
 _symmetry_equiv_pos_as_xyz
  1  'x, y, z'
loop_
 _atom_site_type_symbol
 _atom_site_label
 _atom_site_symmetry_multiplicity
 _atom_site_fract_x
 _atom_site_fract_y
 _atom_site_fract_z
 _atom_site_occupancy
  Er  Er0  1  0.789659  0.412477  0.127857  1
  Er  Er1  1  0.789659  0.587523  0.627857  1
  Er  Er2  1  0.912914  0.710181  0.127872  1
  Er  Er3  1  0.912914  0.289819  0.627872  1
  Er  Er4  1  0.088215  0.710060  0.628140  1
  Er  Er5  1  0.088215  0.289940  0.128140  1
  Lu  Lu6  1  0.291389  0.086054  0.373451  1
  Lu  Lu7  1  0.291389  0.913946  0.873451  1
  Lu  Lu8  1  0.708577  0.086101  0.873334  1
  Lu  Lu9  1  0.708577  0.913899  0.373334  1
  Lu  Lu10  1  0.585992  0.791334  0.873331  1
  Lu  Lu11  1  0.585992  0.208666  0.373331  1
  Lu  Lu12  1  0.413422  0.790928  0.373164  1
  Lu  Lu13  1  0.413422  0.209072  0.873164  1
  Lu  Lu14  1  0.210068  0.413128  0.627092  1
  Lu  Lu15  1  0.210068  0.586872  0.127092  1
  Zr  Zr16  1  0.000186  0.999914  0.498876  1
  Zr  Zr17  1  0.000186  0.000086  0.998876  1
  Zr  Zr18  1  0.499239  0.500097  0.999387  1
  Zr  Zr19  1  0.499239  0.499903  0.499387  1
  Ir  Ir20  1  0.850845  0.146150  0.249272  1
  Ir  Ir21  1  0.850845  0.853850  0.749272  1
  Ir  Ir22  1  0.149262  0.147012  0.748600  1
  Ir  Ir23  1  0.149262  0.852988  0.248600  1
  Ir  Ir24  1  0.646030  0.350895  0.749300  1
  Ir  Ir25  1  0.646030  0.649105  0.249300  1
  Ir  Ir26  1  0.352643  0.351916  0.250496  1
  Ir  Ir27  1  0.352643  0.648084  0.750496  1
  Ir  Ir28  1  0.499924  0.999922  0.120029  1
  Ir  Ir29  1  0.499924  0.000078  0.620029  1
  Ir  Ir30  1  0.001636  0.500013  0.879799  1
  Ir  Ir31  1  0.001636  0.499987  0.379799  1
