# generated using pymatgen
data_MnCo(Sb6Pd)2
_symmetry_space_group_name_H-M   'P 1'
_cell_length_a   8.06585541
_cell_length_b   8.06464868
_cell_length_c   9.33997239
_cell_angle_alpha   55.02771263
_cell_angle_beta   54.73840731
_cell_angle_gamma   70.51524810
_symmetry_Int_Tables_number   1
_chemical_formula_structural   MnCo(Sb6Pd)2
_chemical_formula_sum   'Mn1 Co1 Sb12 Pd2'
_cell_volume   406.49850497
_cell_formula_units_Z   1
loop_
 _symmetry_equiv_pos_site_id
 _symmetry_equiv_pos_as_xyz
  1  'x, y, z'
loop_
 _atom_site_type_symbol
 _atom_site_label
 _atom_site_symmetry_multiplicity
 _atom_site_fract_x
 _atom_site_fract_y
 _atom_site_fract_z
 _atom_site_occupancy
  Mn  Mn0  1  0.500000  0.000000  0.500000  1
  Co  Co1  1  0.000000  0.500000  0.500000  1
  Sb  Sb2  1  0.671710  0.673491  0.487383  1
  Sb  Sb3  1  0.328290  0.326509  0.512617  1
  Sb  Sb4  1  0.649905  0.651363  0.197118  1
  Sb  Sb5  1  0.350095  0.348637  0.802882  1
  Sb  Sb6  1  0.166971  0.852342  0.652054  1
  Sb  Sb7  1  0.833029  0.147658  0.347946  1
  Sb  Sb8  1  0.852880  0.166808  0.650834  1
  Sb  Sb9  1  0.147120  0.833192  0.349166  1
  Sb  Sb10  1  0.817407  0.494335  0.834849  1
  Sb  Sb11  1  0.182593  0.505665  0.165151  1
  Sb  Sb12  1  0.506134  0.181057  0.166876  1
  Sb  Sb13  1  0.493866  0.818943  0.833124  1
  Pd  Pd14  1  0.000000  0.500000  0.000000  1
  Pd  Pd15  1  0.500000  0.000000  0.000000  1
