# generated using pymatgen
data_Tb6LuRhO12
_symmetry_space_group_name_H-M   'P 1'
_cell_length_a   6.63955945
_cell_length_b   6.63955970
_cell_length_c   6.63955900
_cell_angle_alpha   94.03273190
_cell_angle_beta   94.03274935
_cell_angle_gamma   94.03276166
_symmetry_Int_Tables_number   1
_chemical_formula_structural   Tb6LuRhO12
_chemical_formula_sum   'Tb6 Lu1 Rh1 O12'
_cell_volume   290.41452038
_cell_formula_units_Z   1
loop_
 _symmetry_equiv_pos_site_id
 _symmetry_equiv_pos_as_xyz
  1  'x, y, z'
loop_
 _atom_site_type_symbol
 _atom_site_label
 _atom_site_symmetry_multiplicity
 _atom_site_fract_x
 _atom_site_fract_y
 _atom_site_fract_z
 _atom_site_occupancy
  Tb  Tb0  1  0.569024  0.081740  0.261758  1
  Tb  Tb1  1  0.081740  0.261758  0.569024  1
  Tb  Tb2  1  0.738242  0.430976  0.918260  1
  Tb  Tb3  1  0.261758  0.569024  0.081740  1
  Tb  Tb4  1  0.918260  0.738242  0.430976  1
  Tb  Tb5  1  0.430976  0.918260  0.738242  1
  Lu  Lu6  1  0.000000  0.000000  0.000000  1
  Rh  Rh7  1  0.500000  0.500000  0.500000  1
  O  O8  1  0.685927  0.085613  0.932761  1
  O  O9  1  0.914387  0.067239  0.314073  1
  O  O10  1  0.412765  0.196894  0.542752  1
  O  O11  1  0.067239  0.314073  0.914387  1
  O  O12  1  0.542752  0.412765  0.196894  1
  O  O13  1  0.803106  0.457248  0.587235  1
  O  O14  1  0.196894  0.542752  0.412765  1
  O  O15  1  0.457248  0.587235  0.803106  1
  O  O16  1  0.932761  0.685927  0.085613  1
  O  O17  1  0.587235  0.803106  0.457248  1
  O  O18  1  0.085613  0.932761  0.685927  1
  O  O19  1  0.314073  0.914387  0.067239  1
