# generated using pymatgen
data_Tm2Al16Pt9
_symmetry_space_group_name_H-M   'P 1'
_cell_length_a   11.14080164
_cell_length_b   11.14080170
_cell_length_c   11.14080125
_cell_angle_alpha   158.68067213
_cell_angle_beta   115.12167996
_cell_angle_gamma   69.13846748
_symmetry_Int_Tables_number   1
_chemical_formula_structural   Tm2Al16Pt9
_chemical_formula_sum   'Tm2 Al16 Pt9'
_cell_volume   451.90409349
_cell_formula_units_Z   1
loop_
 _symmetry_equiv_pos_site_id
 _symmetry_equiv_pos_as_xyz
  1  'x, y, z'
loop_
 _atom_site_type_symbol
 _atom_site_label
 _atom_site_symmetry_multiplicity
 _atom_site_fract_x
 _atom_site_fract_y
 _atom_site_fract_z
 _atom_site_occupancy
  Tm  Tm0  1  0.228233  0.228233  0.000000  1
  Tm  Tm1  1  0.771767  0.771767  0.000000  1
  Al  Al2  1  0.270294  0.390594  0.879700  1
  Al  Al3  1  0.091345  0.920043  0.171302  1
  Al  Al4  1  0.513317  0.204457  0.308862  1
  Al  Al5  1  0.251258  0.079957  0.171302  1
  Al  Al6  1  0.912524  0.412524  0.500000  1
  Al  Al7  1  0.729706  0.609406  0.120300  1
  Al  Al8  1  0.895595  0.204457  0.691138  1
  Al  Al9  1  0.486683  0.795543  0.691138  1
  Al  Al10  1  0.386522  0.000000  0.386522  1
  Al  Al11  1  0.613478  0.000000  0.613478  1
  Al  Al12  1  0.489106  0.609406  0.879700  1
  Al  Al13  1  0.104405  0.795543  0.308862  1
  Al  Al14  1  0.908655  0.079957  0.828698  1
  Al  Al15  1  0.748742  0.920043  0.828698  1
  Al  Al16  1  0.510894  0.390594  0.120300  1
  Al  Al17  1  0.087476  0.587476  0.500000  1
  Pt  Pt18  1  0.746990  0.500000  0.246990  1
  Pt  Pt19  1  0.020677  0.338781  0.681896  1
  Pt  Pt20  1  0.627937  0.127937  0.500000  1
  Pt  Pt21  1  0.253010  0.500000  0.753010  1
  Pt  Pt22  1  0.372063  0.872063  0.500000  1
  Pt  Pt23  1  0.000000  0.000000  0.000000  1
  Pt  Pt24  1  0.656885  0.338781  0.318104  1
  Pt  Pt25  1  0.343115  0.661219  0.681896  1
  Pt  Pt26  1  0.979323  0.661219  0.318104  1
