# generated using pymatgen
data_TmAs3Rh5
_symmetry_space_group_name_H-M   'P 1'
_cell_length_a   3.99064100
_cell_length_b   12.86635300
_cell_length_c   11.34837000
_cell_angle_alpha   90.00000000
_cell_angle_beta   90.00000000
_cell_angle_gamma   90.00000000
_symmetry_Int_Tables_number   1
_chemical_formula_structural   TmAs3Rh5
_chemical_formula_sum   'Tm4 As12 Rh20'
_cell_volume   582.68201001
_cell_formula_units_Z   4
loop_
 _symmetry_equiv_pos_site_id
 _symmetry_equiv_pos_as_xyz
  1  'x, y, z'
loop_
 _atom_site_type_symbol
 _atom_site_label
 _atom_site_symmetry_multiplicity
 _atom_site_fract_x
 _atom_site_fract_y
 _atom_site_fract_z
 _atom_site_occupancy
  Tm  Tm0  1  0.750000  0.701032  0.079986  1
  Tm  Tm1  1  0.250000  0.298968  0.920014  1
  Tm  Tm2  1  0.250000  0.798968  0.579986  1
  Tm  Tm3  1  0.750000  0.201032  0.420014  1
  As  As4  1  0.750000  0.615027  0.583230  1
  As  As5  1  0.250000  0.384973  0.416770  1
  As  As6  1  0.250000  0.884973  0.083230  1
  As  As7  1  0.750000  0.115027  0.916770  1
  As  As8  1  0.750000  0.889184  0.400489  1
  As  As9  1  0.250000  0.110816  0.599511  1
  As  As10  1  0.250000  0.610816  0.900489  1
  As  As11  1  0.750000  0.389184  0.099511  1
  As  As12  1  0.750000  0.868940  0.766067  1
  As  As13  1  0.250000  0.131060  0.233933  1
  As  As14  1  0.250000  0.631060  0.266067  1
  As  As15  1  0.750000  0.368940  0.733933  1
  Rh  Rh16  1  0.750000  0.701560  0.385518  1
  Rh  Rh17  1  0.250000  0.298440  0.614482  1
  Rh  Rh18  1  0.250000  0.798440  0.885518  1
  Rh  Rh19  1  0.750000  0.201560  0.114482  1
  Rh  Rh20  1  0.750000  0.995340  0.222692  1
  Rh  Rh21  1  0.250000  0.004660  0.777308  1
  Rh  Rh22  1  0.250000  0.504660  0.722692  1
  Rh  Rh23  1  0.750000  0.495340  0.277308  1
  Rh  Rh24  1  0.750000  0.676228  0.779920  1
  Rh  Rh25  1  0.250000  0.323772  0.220080  1
  Rh  Rh26  1  0.250000  0.823772  0.279920  1
  Rh  Rh27  1  0.750000  0.176228  0.720080  1
  Rh  Rh28  1  0.750000  0.928172  0.968134  1
  Rh  Rh29  1  0.250000  0.071828  0.031866  1
  Rh  Rh30  1  0.250000  0.571828  0.468134  1
  Rh  Rh31  1  0.750000  0.428172  0.531866  1
  Rh  Rh32  1  0.750000  0.977626  0.590019  1
  Rh  Rh33  1  0.250000  0.022374  0.409981  1
  Rh  Rh34  1  0.250000  0.522374  0.090019  1
  Rh  Rh35  1  0.750000  0.477625  0.909981  1
