# generated using pymatgen
data_Yb3Dy(Sc3Sn4)2
_symmetry_space_group_name_H-M   'P 1'
_cell_length_a   7.67571138
_cell_length_b   8.02892550
_cell_length_c   15.04587902
_cell_angle_alpha   89.91480830
_cell_angle_beta   89.86133879
_cell_angle_gamma   90.22367028
_symmetry_Int_Tables_number   1
_chemical_formula_structural   Yb3Dy(Sc3Sn4)2
_chemical_formula_sum   'Yb6 Dy2 Sc12 Sn16'
_cell_volume   927.23232205
_cell_formula_units_Z   2
loop_
 _symmetry_equiv_pos_site_id
 _symmetry_equiv_pos_as_xyz
  1  'x, y, z'
loop_
 _atom_site_type_symbol
 _atom_site_label
 _atom_site_symmetry_multiplicity
 _atom_site_fract_x
 _atom_site_fract_y
 _atom_site_fract_z
 _atom_site_occupancy
  Yb  Yb0  1  0.995267  0.177191  0.093324  1
  Yb  Yb1  1  0.004733  0.822809  0.906676  1
  Yb  Yb2  1  0.505077  0.677209  0.906769  1
  Yb  Yb3  1  0.004671  0.822104  0.592631  1
  Yb  Yb4  1  0.494923  0.322791  0.093231  1
  Yb  Yb5  1  0.995329  0.177896  0.407369  1
  Dy  Dy6  1  0.498006  0.321426  0.405637  1
  Dy  Dy7  1  0.501994  0.678574  0.594363  1
  Sc  Sc8  1  0.164390  0.498162  0.750430  1
  Sc  Sc9  1  0.835610  0.501838  0.249570  1
  Sc  Sc10  1  0.335653  0.998522  0.249853  1
  Sc  Sc11  1  0.664347  0.001478  0.750147  1
  Sc  Sc12  1  0.332655  0.160076  0.626662  1
  Sc  Sc13  1  0.667345  0.839924  0.373338  1
  Sc  Sc14  1  0.167398  0.660091  0.373268  1
  Sc  Sc15  1  0.668375  0.840258  0.127140  1
  Sc  Sc16  1  0.832602  0.339909  0.626732  1
  Sc  Sc17  1  0.331625  0.159742  0.872860  1
  Sc  Sc18  1  0.832883  0.339203  0.873297  1
  Sc  Sc19  1  0.167117  0.660797  0.126703  1
  Sn  Sn20  1  0.025678  0.126666  0.749489  1
  Sn  Sn21  1  0.974322  0.873334  0.250511  1
  Sn  Sn22  1  0.473887  0.624016  0.250555  1
  Sn  Sn23  1  0.526113  0.375984  0.749445  1
  Sn  Sn24  1  0.306248  0.852321  0.749339  1
  Sn  Sn25  1  0.693752  0.147679  0.250661  1
  Sn  Sn26  1  0.196458  0.353981  0.251604  1
  Sn  Sn27  1  0.803542  0.646019  0.748396  1
  Sn  Sn28  1  0.178409  0.457363  0.542473  1
  Sn  Sn29  1  0.821591  0.542637  0.457527  1
  Sn  Sn30  1  0.328235  0.959231  0.457825  1
  Sn  Sn31  1  0.827748  0.541772  0.043105  1
  Sn  Sn32  1  0.671765  0.040769  0.542175  1
  Sn  Sn33  1  0.172252  0.458228  0.956895  1
  Sn  Sn34  1  0.671715  0.041412  0.956812  1
  Sn  Sn35  1  0.328285  0.958588  0.043188  1
