# generated using pymatgen
data_K2Sn(Se2O7)3
_symmetry_space_group_name_H-M   'P 1'
_cell_length_a   10.87141400
_cell_length_b   10.87141426
_cell_length_c   11.89671100
_cell_angle_alpha   90.00000000
_cell_angle_beta   90.00000000
_cell_angle_gamma   119.99999921
_symmetry_Int_Tables_number   1
_chemical_formula_structural   K2Sn(Se2O7)3
_chemical_formula_sum   'K4 Sn2 Se12 O42'
_cell_volume   1217.67005655
_cell_formula_units_Z   2
loop_
 _symmetry_equiv_pos_site_id
 _symmetry_equiv_pos_as_xyz
  1  'x, y, z'
loop_
 _atom_site_type_symbol
 _atom_site_label
 _atom_site_symmetry_multiplicity
 _atom_site_fract_x
 _atom_site_fract_y
 _atom_site_fract_z
 _atom_site_occupancy
  K  K0  1  0.333333  0.666667  0.942542  1
  K  K1  1  0.666667  0.333333  0.057458  1
  K  K2  1  0.666667  0.333333  0.635050  1
  K  K3  1  0.333333  0.666667  0.364950  1
  Sn  Sn4  1  0.000000  0.000000  0.739702  1
  Sn  Sn5  1  0.000000  0.000000  0.260298  1
  Se  Se6  1  0.329843  0.058307  0.841939  1
  Se  Se7  1  0.941693  0.271536  0.841939  1
  Se  Se8  1  0.728464  0.670157  0.841939  1
  Se  Se9  1  0.670157  0.941693  0.158061  1
  Se  Se10  1  0.058307  0.728464  0.158061  1
  Se  Se11  1  0.271536  0.329843  0.158061  1
  Se  Se12  1  0.165833  0.348508  0.645260  1
  Se  Se13  1  0.651492  0.817325  0.645260  1
  Se  Se14  1  0.182675  0.834167  0.645260  1
  Se  Se15  1  0.834167  0.651492  0.354740  1
  Se  Se16  1  0.348508  0.182675  0.354740  1
  Se  Se17  1  0.817325  0.165833  0.354740  1
  O  O18  1  0.119440  0.172887  0.632210  1
  O  O19  1  0.827113  0.946553  0.632210  1
  O  O20  1  0.053447  0.880560  0.632210  1
  O  O21  1  0.880560  0.827113  0.367790  1
  O  O22  1  0.172887  0.053447  0.367790  1
  O  O23  1  0.946553  0.119440  0.367790  1
  O  O24  1  0.170943  0.055219  0.849715  1
  O  O25  1  0.944781  0.115724  0.849715  1
  O  O26  1  0.884276  0.829057  0.849715  1
  O  O27  1  0.829057  0.944781  0.150285  1
  O  O28  1  0.055219  0.884276  0.150285  1
  O  O29  1  0.115724  0.170943  0.150285  1
  O  O30  1  0.334203  0.001075  0.697120  1
  O  O31  1  0.998925  0.333128  0.697120  1
  O  O32  1  0.666872  0.665797  0.697120  1
  O  O33  1  0.665797  0.998925  0.302880  1
  O  O34  1  0.001075  0.666872  0.302880  1
  O  O35  1  0.333128  0.334203  0.302880  1
  O  O36  1  0.464259  0.220022  0.837490  1
  O  O37  1  0.779978  0.244237  0.837490  1
  O  O38  1  0.755763  0.535741  0.837490  1
  O  O39  1  0.535741  0.779978  0.162510  1
  O  O40  1  0.220022  0.755763  0.162510  1
  O  O41  1  0.244237  0.464259  0.162510  1
  O  O42  1  0.181664  0.416086  0.520600  1
  O  O43  1  0.583914  0.765580  0.520600  1
  O  O44  1  0.234420  0.818336  0.520600  1
  O  O45  1  0.818336  0.583914  0.479400  1
  O  O46  1  0.416086  0.234420  0.479400  1
  O  O47  1  0.765580  0.181664  0.479400  1
  O  O48  1  0.333080  0.946714  0.931087  1
  O  O49  1  0.053286  0.386366  0.931087  1
  O  O50  1  0.613634  0.666920  0.931087  1
  O  O51  1  0.666920  0.053286  0.068913  1
  O  O52  1  0.946714  0.613634  0.068913  1
  O  O53  1  0.386366  0.333080  0.068913  1
  O  O54  1  0.287469  0.431717  0.740216  1
  O  O55  1  0.568283  0.855751  0.740216  1
  O  O56  1  0.144249  0.712531  0.740216  1
  O  O57  1  0.712531  0.568283  0.259784  1
  O  O58  1  0.431717  0.144249  0.259784  1
  O  O59  1  0.855751  0.287469  0.259784  1
