# generated using pymatgen
data_Tb6Co17Si12W
_symmetry_space_group_name_H-M   'P 1'
_cell_length_a   3.78282500
_cell_length_b   10.73531000
_cell_length_c   12.39254300
_cell_angle_alpha   90.00000000
_cell_angle_beta   90.00000000
_cell_angle_gamma   90.00000000
_symmetry_Int_Tables_number   1
_chemical_formula_structural   Tb6Co17Si12W
_chemical_formula_sum   'Tb6 Co17 Si12 W1'
_cell_volume   503.25868096
_cell_formula_units_Z   1
loop_
 _symmetry_equiv_pos_site_id
 _symmetry_equiv_pos_as_xyz
  1  'x, y, z'
loop_
 _atom_site_type_symbol
 _atom_site_label
 _atom_site_symmetry_multiplicity
 _atom_site_fract_x
 _atom_site_fract_y
 _atom_site_fract_z
 _atom_site_occupancy
  Tb  Tb0  1  0.000000  0.500000  0.527007  1
  Tb  Tb1  1  0.500000  0.000000  0.473719  1
  Tb  Tb2  1  0.500000  0.819936  0.207189  1
  Tb  Tb3  1  0.500000  0.180064  0.207189  1
  Tb  Tb4  1  0.000000  0.682181  0.797355  1
  Tb  Tb5  1  0.000000  0.317819  0.797355  1
  Co  Co6  1  0.000000  0.500000  0.984547  1
  Co  Co7  1  0.500000  0.000000  0.016901  1
  Co  Co8  1  0.500000  0.300760  0.431958  1
  Co  Co9  1  0.500000  0.699240  0.431958  1
  Co  Co10  1  0.000000  0.197667  0.571831  1
  Co  Co11  1  0.000000  0.802333  0.571831  1
  Co  Co12  1  0.500000  0.884006  0.707255  1
  Co  Co13  1  0.500000  0.115994  0.707255  1
  Co  Co14  1  0.000000  0.618865  0.292061  1
  Co  Co15  1  0.000000  0.381135  0.292061  1
  Co  Co16  1  0.500000  0.327227  0.992574  1
  Co  Co17  1  0.500000  0.672773  0.992574  1
  Co  Co18  1  0.000000  0.164779  0.002488  1
  Co  Co19  1  0.000000  0.835221  0.002488  1
  Co  Co20  1  0.000000  0.000000  0.846468  1
  Co  Co21  1  0.500000  0.500000  0.696761  1
  Co  Co22  1  0.000000  0.000000  0.303251  1
  Si  Si23  1  0.500000  0.302789  0.615442  1
  Si  Si24  1  0.500000  0.697211  0.615442  1
  Si  Si25  1  0.000000  0.197213  0.387693  1
  Si  Si26  1  0.000000  0.802787  0.387693  1
  Si  Si27  1  0.500000  0.500000  0.884504  1
  Si  Si28  1  0.000000  0.000000  0.116112  1
  Si  Si29  1  0.500000  0.855489  0.891098  1
  Si  Si30  1  0.500000  0.144511  0.891098  1
  Si  Si31  1  0.000000  0.658160  0.102787  1
  Si  Si32  1  0.000000  0.341840  0.102787  1
  Si  Si33  1  0.500000  0.500000  0.345192  1
  Si  Si34  1  0.000000  0.000000  0.661407  1
  W  W35  1  0.500000  0.500000  0.144662  1
