# generated using pymatgen
data_DyTm3ScBi3
_symmetry_space_group_name_H-M   'P 1'
_cell_length_a   8.06871300
_cell_length_b   9.36156500
_cell_length_c   11.85608900
_cell_angle_alpha   90.00000000
_cell_angle_beta   90.00000000
_cell_angle_gamma   90.00000000
_symmetry_Int_Tables_number   1
_chemical_formula_structural   DyTm3ScBi3
_chemical_formula_sum   'Dy4 Tm12 Sc4 Bi12'
_cell_volume   895.55894478
_cell_formula_units_Z   4
loop_
 _symmetry_equiv_pos_site_id
 _symmetry_equiv_pos_as_xyz
  1  'x, y, z'
loop_
 _atom_site_type_symbol
 _atom_site_label
 _atom_site_symmetry_multiplicity
 _atom_site_fract_x
 _atom_site_fract_y
 _atom_site_fract_z
 _atom_site_occupancy
  Dy  Dy0  1  0.316141  0.250000  0.218790  1
  Dy  Dy1  1  0.816141  0.250000  0.281210  1
  Dy  Dy2  1  0.683859  0.750000  0.781210  1
  Dy  Dy3  1  0.183859  0.750000  0.718790  1
  Tm  Tm4  1  0.351715  0.750000  0.218066  1
  Tm  Tm5  1  0.851715  0.750000  0.281934  1
  Tm  Tm6  1  0.648285  0.250000  0.781934  1
  Tm  Tm7  1  0.148285  0.250000  0.718066  1
  Tm  Tm8  1  0.693927  0.565738  0.059805  1
  Tm  Tm9  1  0.193927  0.934262  0.440195  1
  Tm  Tm10  1  0.306073  0.065738  0.940195  1
  Tm  Tm11  1  0.806073  0.434262  0.559805  1
  Tm  Tm12  1  0.306073  0.434262  0.940195  1
  Tm  Tm13  1  0.806073  0.065738  0.559805  1
  Tm  Tm14  1  0.693927  0.934262  0.059805  1
  Tm  Tm15  1  0.193927  0.565738  0.440195  1
  Sc  Sc16  1  0.478775  0.250000  0.487865  1
  Sc  Sc17  1  0.978775  0.250000  0.012135  1
  Sc  Sc18  1  0.521225  0.750000  0.512135  1
  Sc  Sc19  1  0.021225  0.750000  0.987865  1
  Bi  Bi20  1  0.399615  0.750000  0.960104  1
  Bi  Bi21  1  0.899615  0.750000  0.539896  1
  Bi  Bi22  1  0.600385  0.250000  0.039896  1
  Bi  Bi23  1  0.100385  0.250000  0.460104  1
  Bi  Bi24  1  0.565366  0.994922  0.330824  1
  Bi  Bi25  1  0.065366  0.505078  0.169176  1
  Bi  Bi26  1  0.434634  0.494922  0.669176  1
  Bi  Bi27  1  0.934634  0.005078  0.830824  1
  Bi  Bi28  1  0.434634  0.005078  0.669176  1
  Bi  Bi29  1  0.934634  0.494922  0.830824  1
  Bi  Bi30  1  0.565366  0.505078  0.330824  1
  Bi  Bi31  1  0.065366  0.994922  0.169176  1
