# generated using pymatgen
data_Th6As7(P3Rh10)2
_symmetry_space_group_name_H-M   'P 1'
_cell_length_a   13.75594500
_cell_length_b   13.75594490
_cell_length_c   4.00925500
_cell_angle_alpha   90.00000000
_cell_angle_beta   90.00000000
_cell_angle_gamma   119.99999783
_symmetry_Int_Tables_number   1
_chemical_formula_structural   Th6As7(P3Rh10)2
_chemical_formula_sum   'Th6 As7 P6 Rh20'
_cell_volume   657.01484001
_cell_formula_units_Z   1
loop_
 _symmetry_equiv_pos_site_id
 _symmetry_equiv_pos_as_xyz
  1  'x, y, z'
loop_
 _atom_site_type_symbol
 _atom_site_label
 _atom_site_symmetry_multiplicity
 _atom_site_fract_x
 _atom_site_fract_y
 _atom_site_fract_z
 _atom_site_occupancy
  Th  Th0  1  0.528954  0.717545  0.249631  1
  Th  Th1  1  0.282455  0.811408  0.249631  1
  Th  Th2  1  0.188592  0.471046  0.249631  1
  Th  Th3  1  0.470134  0.278751  0.747739  1
  Th  Th4  1  0.721249  0.191384  0.747739  1
  Th  Th5  1  0.808616  0.529866  0.747739  1
  As  As6  1  0.526320  0.135133  0.238503  1
  As  As7  1  0.864867  0.391188  0.238503  1
  As  As8  1  0.608812  0.473680  0.238503  1
  As  As9  1  0.947922  0.719020  0.248156  1
  As  As10  1  0.280980  0.228902  0.248156  1
  As  As11  1  0.771098  0.052078  0.248156  1
  As  As12  1  0.000000  0.000000  0.022417  1
  P  P13  1  0.383530  0.523599  0.749595  1
  P  P14  1  0.476401  0.859930  0.749595  1
  P  P15  1  0.140070  0.616470  0.749595  1
  P  P16  1  0.720088  0.770095  0.748232  1
  P  P17  1  0.229905  0.949993  0.748232  1
  P  P18  1  0.050007  0.279912  0.748232  1
  Rh  Rh19  1  0.333333  0.666667  0.745595  1
  Rh  Rh20  1  0.926905  0.253647  0.243112  1
  Rh  Rh21  1  0.746353  0.673258  0.243112  1
  Rh  Rh22  1  0.326742  0.073095  0.243112  1
  Rh  Rh23  1  0.428449  0.006768  0.743366  1
  Rh  Rh24  1  0.993232  0.421682  0.743366  1
  Rh  Rh25  1  0.578318  0.571551  0.743366  1
  Rh  Rh26  1  0.666667  0.333333  0.292113  1
  Rh  Rh27  1  0.090223  0.193551  0.269743  1
  Rh  Rh28  1  0.806449  0.896672  0.269743  1
  Rh  Rh29  1  0.103328  0.909777  0.269743  1
  Rh  Rh30  1  0.033344  0.588374  0.249175  1
  Rh  Rh31  1  0.411626  0.444969  0.249175  1
  Rh  Rh32  1  0.555031  0.966656  0.249175  1
  Rh  Rh33  1  0.669785  0.914977  0.752430  1
  Rh  Rh34  1  0.085023  0.754808  0.752430  1
  Rh  Rh35  1  0.245192  0.330215  0.752430  1
  Rh  Rh36  1  0.905614  0.812822  0.740277  1
  Rh  Rh37  1  0.187178  0.092792  0.740277  1
  Rh  Rh38  1  0.907208  0.094386  0.740277  1
