# generated using pymatgen
data_Ta2Be15Nb4(CoNi3)2
_symmetry_space_group_name_H-M   'P 1'
_cell_length_a   7.56533081
_cell_length_b   7.56624238
_cell_length_c   7.56624169
_cell_angle_alpha   59.93539997
_cell_angle_beta   59.94331261
_cell_angle_gamma   59.94330926
_symmetry_Int_Tables_number   1
_chemical_formula_structural   Ta2Be15Nb4(CoNi3)2
_chemical_formula_sum   'Ta2 Be15 Nb4 Co2 Ni6'
_cell_volume   305.83600485
_cell_formula_units_Z   1
loop_
 _symmetry_equiv_pos_site_id
 _symmetry_equiv_pos_as_xyz
  1  'x, y, z'
loop_
 _atom_site_type_symbol
 _atom_site_label
 _atom_site_symmetry_multiplicity
 _atom_site_fract_x
 _atom_site_fract_y
 _atom_site_fract_z
 _atom_site_occupancy
  Ta  Ta0  1  0.709251  0.294578  0.294578  1
  Ta  Ta1  1  0.290749  0.705422  0.705422  1
  Be  Be2  1  0.327391  0.327387  0.327387  1
  Be  Be3  1  0.672609  0.672613  0.672613  1
  Be  Be4  1  0.325277  0.325406  0.022369  1
  Be  Be5  1  0.325277  0.022369  0.325406  1
  Be  Be6  1  0.674723  0.674594  0.977631  1
  Be  Be7  1  0.674723  0.977631  0.674594  1
  Be  Be8  1  0.022243  0.325207  0.325207  1
  Be  Be9  1  0.977757  0.674793  0.674793  1
  Be  Be10  1  0.500000  0.000000  0.000000  1
  Be  Be11  1  0.000000  0.500000  0.500000  1
  Be  Be12  1  0.000000  0.500000  0.000000  1
  Be  Be13  1  0.500000  0.000000  0.500000  1
  Be  Be14  1  0.000000  0.000000  0.500000  1
  Be  Be15  1  0.500000  0.500000  0.000000  1
  Be  Be16  1  0.000000  0.000000  0.000000  1
  Nb  Nb17  1  0.296690  0.707120  0.296722  1
  Nb  Nb18  1  0.703310  0.292880  0.703278  1
  Nb  Nb19  1  0.296690  0.296722  0.707120  1
  Nb  Nb20  1  0.703310  0.703278  0.292880  1
  Co  Co21  1  0.122282  0.122468  0.122468  1
  Co  Co22  1  0.877718  0.877532  0.877532  1
  Ni  Ni23  1  0.123279  0.122551  0.631516  1
  Ni  Ni24  1  0.123279  0.631516  0.122551  1
  Ni  Ni25  1  0.876721  0.877449  0.368484  1
  Ni  Ni26  1  0.876721  0.368484  0.877449  1
  Ni  Ni27  1  0.631551  0.123309  0.123309  1
  Ni  Ni28  1  0.368449  0.876691  0.876691  1
