# generated using pymatgen
data_Er10Ir3PtRh2
_symmetry_space_group_name_H-M   'P 1'
_cell_length_a   10.83918900
_cell_length_b   10.82561000
_cell_length_c   6.31978471
_cell_angle_alpha   90.00000000
_cell_angle_beta   89.92369420
_cell_angle_gamma   90.00000000
_symmetry_Int_Tables_number   1
_chemical_formula_structural   Er10Ir3PtRh2
_chemical_formula_sum   'Er20 Ir6 Pt2 Rh4'
_cell_volume   741.56814299
_cell_formula_units_Z   2
loop_
 _symmetry_equiv_pos_site_id
 _symmetry_equiv_pos_as_xyz
  1  'x, y, z'
loop_
 _atom_site_type_symbol
 _atom_site_label
 _atom_site_symmetry_multiplicity
 _atom_site_fract_x
 _atom_site_fract_y
 _atom_site_fract_z
 _atom_site_occupancy
  Er  Er0  1  0.290205  0.088987  0.379128  1
  Er  Er1  1  0.290205  0.911013  0.879128  1
  Er  Er2  1  0.704609  0.090919  0.876875  1
  Er  Er3  1  0.704609  0.909081  0.376875  1
  Er  Er4  1  0.584535  0.789751  0.880126  1
  Er  Er5  1  0.584535  0.210249  0.380126  1
  Er  Er6  1  0.409058  0.790373  0.380064  1
  Er  Er7  1  0.409058  0.209627  0.880064  1
  Er  Er8  1  0.210345  0.410762  0.618547  1
  Er  Er9  1  0.210345  0.589238  0.118547  1
  Er  Er10  1  0.790877  0.414109  0.120140  1
  Er  Er11  1  0.790877  0.585891  0.620140  1
  Er  Er12  1  0.913650  0.708327  0.125238  1
  Er  Er13  1  0.913650  0.291673  0.625238  1
  Er  Er14  1  0.092970  0.707246  0.620547  1
  Er  Er15  1  0.092970  0.292754  0.120547  1
  Er  Er16  1  0.002166  0.998461  0.499877  1
  Er  Er17  1  0.002166  0.001539  0.999877  1
  Er  Er18  1  0.500676  0.498705  0.999905  1
  Er  Er19  1  0.500676  0.501295  0.499905  1
  Ir  Ir20  1  0.152805  0.154697  0.749598  1
  Ir  Ir21  1  0.152805  0.845303  0.249598  1
  Ir  Ir22  1  0.656069  0.345528  0.748779  1
  Ir  Ir23  1  0.656069  0.654472  0.248779  1
  Ir  Ir24  1  0.347037  0.345516  0.250922  1
  Ir  Ir25  1  0.347037  0.654484  0.750922  1
  Pt  Pt26  1  0.844733  0.153956  0.250229  1
  Pt  Pt27  1  0.844733  0.846044  0.750229  1
  Rh  Rh28  1  0.499756  0.999615  0.127260  1
  Rh  Rh29  1  0.499756  0.000385  0.627260  1
  Rh  Rh30  1  0.000508  0.499988  0.872766  1
  Rh  Rh31  1  0.000508  0.500012  0.372766  1
