# generated using pymatgen
data_NdAl10RuRh
_symmetry_space_group_name_H-M   'P 1'
_cell_length_a   6.88818985
_cell_length_b   6.88402055
_cell_length_c   9.21153300
_cell_angle_alpha   90.00000000
_cell_angle_beta   90.00000000
_cell_angle_gamma   97.24210277
_symmetry_Int_Tables_number   1
_chemical_formula_structural   NdAl10RuRh
_chemical_formula_sum   'Nd2 Al20 Ru2 Rh2'
_cell_volume   433.31191302
_cell_formula_units_Z   2
loop_
 _symmetry_equiv_pos_site_id
 _symmetry_equiv_pos_as_xyz
  1  'x, y, z'
loop_
 _atom_site_type_symbol
 _atom_site_label
 _atom_site_symmetry_multiplicity
 _atom_site_fract_x
 _atom_site_fract_y
 _atom_site_fract_z
 _atom_site_occupancy
  Nd  Nd0  1  0.871975  0.123721  0.750000  1
  Nd  Nd1  1  0.128025  0.876279  0.250000  1
  Al  Al2  1  0.620726  0.375789  0.549851  1
  Al  Al3  1  0.379274  0.624211  0.450149  1
  Al  Al4  1  0.379274  0.624211  0.049851  1
  Al  Al5  1  0.620726  0.375789  0.950149  1
  Al  Al6  1  0.226782  0.224938  0.498996  1
  Al  Al7  1  0.773218  0.775062  0.501004  1
  Al  Al8  1  0.773218  0.775062  0.998996  1
  Al  Al9  1  0.226782  0.224938  0.001004  1
  Al  Al10  1  0.841405  0.157367  0.102576  1
  Al  Al11  1  0.158595  0.842633  0.897424  1
  Al  Al12  1  0.158595  0.842633  0.602576  1
  Al  Al13  1  0.841405  0.157367  0.397424  1
  Al  Al14  1  0.857806  0.590612  0.750000  1
  Al  Al15  1  0.142194  0.409388  0.250000  1
  Al  Al16  1  0.410561  0.140337  0.750000  1
  Al  Al17  1  0.589439  0.859663  0.250000  1
  Al  Al18  1  0.224987  0.482017  0.750000  1
  Al  Al19  1  0.775013  0.517983  0.250000  1
  Al  Al20  1  0.517478  0.777211  0.750000  1
  Al  Al21  1  0.482522  0.222789  0.250000  1
  Ru  Ru22  1  0.500000  0.000000  0.000000  1
  Ru  Ru23  1  0.500000  0.000000  0.500000  1
  Rh  Rh24  1  0.000000  0.500000  0.500000  1
  Rh  Rh25  1  0.000000  0.500000  0.000000  1
