# generated using pymatgen
data_Y6Er10MgHg3Pd4
_symmetry_space_group_name_H-M   'P 1'
_cell_length_a   9.63678108
_cell_length_b   9.64756138
_cell_length_c   9.64756200
_cell_angle_alpha   60.00000474
_cell_angle_beta   59.96299279
_cell_angle_gamma   59.96299035
_symmetry_Int_Tables_number   1
_chemical_formula_structural   Y6Er10MgHg3Pd4
_chemical_formula_sum   'Y6 Er10 Mg1 Hg3 Pd4'
_cell_volume   633.88281254
_cell_formula_units_Z   1
loop_
 _symmetry_equiv_pos_site_id
 _symmetry_equiv_pos_as_xyz
  1  'x, y, z'
loop_
 _atom_site_type_symbol
 _atom_site_label
 _atom_site_symmetry_multiplicity
 _atom_site_fract_x
 _atom_site_fract_y
 _atom_site_fract_z
 _atom_site_occupancy
  Y  Y0  1  0.933416  0.565840  0.565840  1
  Y  Y1  1  0.564771  0.934892  0.934892  1
  Y  Y2  1  0.564771  0.934892  0.565445  1
  Y  Y3  1  0.933416  0.565840  0.934904  1
  Y  Y4  1  0.564771  0.565445  0.934892  1
  Y  Y5  1  0.933416  0.934904  0.565840  1
  Er  Er6  1  0.356704  0.352917  0.352917  1
  Er  Er7  1  0.356704  0.352917  0.937463  1
  Er  Er8  1  0.356704  0.937463  0.352917  1
  Er  Er9  1  0.925814  0.358062  0.358062  1
  Er  Er10  1  0.810021  0.189265  0.189265  1
  Er  Er11  1  0.185454  0.813238  0.813238  1
  Er  Er12  1  0.185454  0.813238  0.188071  1
  Er  Er13  1  0.810021  0.189265  0.811448  1
  Er  Er14  1  0.185454  0.188071  0.813238  1
  Er  Er15  1  0.810021  0.811448  0.189265  1
  Mg  Mg16  1  0.279487  0.573504  0.573504  1
  Hg  Hg17  1  0.582935  0.588984  0.588984  1
  Hg  Hg18  1  0.582935  0.588984  0.239095  1
  Hg  Hg19  1  0.582935  0.239095  0.588984  1
  Pd  Pd20  1  0.143007  0.146410  0.146410  1
  Pd  Pd21  1  0.143007  0.146410  0.564172  1
  Pd  Pd22  1  0.143007  0.564172  0.146410  1
  Pd  Pd23  1  0.565769  0.144743  0.144743  1
