# generated using pymatgen
data_Ho2Er18IrRh11
_symmetry_space_group_name_H-M   'P 1'
_cell_length_a   10.81785315
_cell_length_b   10.81785211
_cell_length_c   6.31837300
_cell_angle_alpha   90.00289714
_cell_angle_beta   90.00289714
_cell_angle_gamma   90.09839659
_symmetry_Int_Tables_number   1
_chemical_formula_structural   Ho2Er18IrRh11
_chemical_formula_sum   'Ho2 Er18 Ir1 Rh11'
_cell_volume   739.41241948
_cell_formula_units_Z   1
loop_
 _symmetry_equiv_pos_site_id
 _symmetry_equiv_pos_as_xyz
  1  'x, y, z'
loop_
 _atom_site_type_symbol
 _atom_site_label
 _atom_site_symmetry_multiplicity
 _atom_site_fract_x
 _atom_site_fract_y
 _atom_site_fract_z
 _atom_site_occupancy
  Ho  Ho0  1  0.499757  0.499921  0.000251  1
  Ho  Ho1  1  0.500079  0.500243  0.499749  1
  Er  Er2  1  0.290914  0.088371  0.378308  1
  Er  Er3  1  0.291297  0.909737  0.878221  1
  Er  Er4  1  0.708973  0.088214  0.878212  1
  Er  Er5  1  0.708733  0.911368  0.378051  1
  Er  Er6  1  0.586678  0.790463  0.877794  1
  Er  Er7  1  0.588545  0.208929  0.378639  1
  Er  Er8  1  0.410943  0.790396  0.379581  1
  Er  Er9  1  0.411273  0.208630  0.877984  1
  Er  Er10  1  0.209537  0.413322  0.622206  1
  Er  Er11  1  0.209604  0.589057  0.120419  1
  Er  Er12  1  0.791071  0.411455  0.121361  1
  Er  Er13  1  0.791370  0.588727  0.622016  1
  Er  Er14  1  0.911629  0.709086  0.121692  1
  Er  Er15  1  0.911786  0.291027  0.621788  1
  Er  Er16  1  0.090263  0.708703  0.621779  1
  Er  Er17  1  0.088632  0.291267  0.121949  1
  Er  Er18  1  0.999772  0.999837  0.500179  1
  Er  Er19  1  0.000163  0.000228  0.999821  1
  Ir  Ir20  1  0.345557  0.654443  0.750000  1
  Rh  Rh21  1  0.846167  0.153833  0.250000  1
  Rh  Rh22  1  0.845724  0.846293  0.750305  1
  Rh  Rh23  1  0.153707  0.154276  0.749695  1
  Rh  Rh24  1  0.153139  0.846861  0.250000  1
  Rh  Rh25  1  0.654646  0.345354  0.750000  1
  Rh  Rh26  1  0.655620  0.654857  0.250070  1
  Rh  Rh27  1  0.345143  0.344380  0.249930  1
  Rh  Rh28  1  0.500175  0.000527  0.124590  1
  Rh  Rh29  1  0.500316  0.000687  0.623963  1
  Rh  Rh30  1  0.999313  0.499684  0.876037  1
  Rh  Rh31  1  0.999473  0.499825  0.375410  1
