# generated using pymatgen
data_Tb5DyAl24GaOs7
_symmetry_space_group_name_H-M   'P 1'
_cell_length_a   8.87760202
_cell_length_b   8.87760225
_cell_length_c   9.57005841
_cell_angle_alpha   90.16770456
_cell_angle_beta   89.83229238
_cell_angle_gamma   119.86343228
_symmetry_Int_Tables_number   1
_chemical_formula_structural   Tb5DyAl24GaOs7
_chemical_formula_sum   'Tb5 Dy1 Al24 Ga1 Os7'
_cell_volume   654.07884186
_cell_formula_units_Z   1
loop_
 _symmetry_equiv_pos_site_id
 _symmetry_equiv_pos_as_xyz
  1  'x, y, z'
loop_
 _atom_site_type_symbol
 _atom_site_label
 _atom_site_symmetry_multiplicity
 _atom_site_fract_x
 _atom_site_fract_y
 _atom_site_fract_z
 _atom_site_occupancy
  Tb  Tb0  1  0.191755  0.384587  0.245380  1
  Tb  Tb1  1  0.808232  0.615337  0.754602  1
  Tb  Tb2  1  0.615413  0.808245  0.245380  1
  Tb  Tb3  1  0.384663  0.191768  0.754602  1
  Tb  Tb4  1  0.194066  0.805934  0.255953  1
  Dy  Dy5  1  0.805740  0.194260  0.743996  1
  Al  Al6  1  0.327146  0.672854  0.021816  1
  Al  Al7  1  0.672952  0.327048  0.978063  1
  Al  Al8  1  0.665977  0.334023  0.518425  1
  Al  Al9  1  0.334113  0.665887  0.481704  1
  Al  Al10  1  0.162496  0.325633  0.571617  1
  Al  Al11  1  0.837400  0.674337  0.428442  1
  Al  Al12  1  0.674367  0.837504  0.571617  1
  Al  Al13  1  0.852874  0.678798  0.081966  1
  Al  Al14  1  0.325663  0.162600  0.428442  1
  Al  Al15  1  0.146977  0.321146  0.917967  1
  Al  Al16  1  0.162940  0.837060  0.576363  1
  Al  Al17  1  0.321202  0.147126  0.081966  1
  Al  Al18  1  0.837048  0.162952  0.423786  1
  Al  Al19  1  0.678854  0.853023  0.917967  1
  Al  Al20  1  0.836762  0.163238  0.076788  1
  Al  Al21  1  0.163227  0.836773  0.923090  1
  Al  Al22  1  0.562111  0.121298  0.249481  1
  Al  Al23  1  0.438103  0.878879  0.750515  1
  Al  Al24  1  0.878702  0.437889  0.249481  1
  Al  Al25  1  0.121121  0.561897  0.750515  1
  Al  Al26  1  0.565832  0.434168  0.258191  1
  Al  Al27  1  0.434150  0.565850  0.741808  1
  Al  Al28  1  0.998808  0.001192  0.250936  1
  Al  Al29  1  0.001102  0.998898  0.749066  1
  Ga  Ga30  1  0.500008  0.499992  0.000024  1
  Os  Os31  1  0.500195  0.000099  0.999883  1
  Os  Os32  1  0.999901  0.499805  0.999883  1
  Os  Os33  1  0.500209  0.000117  0.500131  1
  Os  Os34  1  0.999883  0.499791  0.500131  1
  Os  Os35  1  0.500037  0.499963  0.499989  1
  Os  Os36  1  0.999999  0.000001  0.999963  1
  Os  Os37  1  0.999973  0.000027  0.500069  1
