# generated using pymatgen
data_Dy6CoP12Ir2Ru15
_symmetry_space_group_name_H-M   'P 1'
_cell_length_a   3.95071200
_cell_length_b   11.15166700
_cell_length_c   12.57342900
_cell_angle_alpha   90.00000000
_cell_angle_beta   90.00000000
_cell_angle_gamma   90.00000000
_symmetry_Int_Tables_number   1
_chemical_formula_structural   Dy6CoP12Ir2Ru15
_chemical_formula_sum   'Dy6 Co1 P12 Ir2 Ru15'
_cell_volume   553.94787122
_cell_formula_units_Z   1
loop_
 _symmetry_equiv_pos_site_id
 _symmetry_equiv_pos_as_xyz
  1  'x, y, z'
loop_
 _atom_site_type_symbol
 _atom_site_label
 _atom_site_symmetry_multiplicity
 _atom_site_fract_x
 _atom_site_fract_y
 _atom_site_fract_z
 _atom_site_occupancy
  Dy  Dy0  1  0.000000  0.500000  0.523095  1
  Dy  Dy1  1  0.500000  0.000000  0.476539  1
  Dy  Dy2  1  0.500000  0.818898  0.204643  1
  Dy  Dy3  1  0.500000  0.181102  0.204643  1
  Dy  Dy4  1  0.000000  0.683054  0.795759  1
  Dy  Dy5  1  0.000000  0.316946  0.795759  1
  Co  Co6  1  0.500000  0.000000  0.013822  1
  P  P7  1  0.500000  0.500000  0.882982  1
  P  P8  1  0.000000  0.000000  0.116918  1
  P  P9  1  0.500000  0.500000  0.337859  1
  P  P10  1  0.000000  0.000000  0.660609  1
  P  P11  1  0.500000  0.301528  0.617207  1
  P  P12  1  0.500000  0.698472  0.617207  1
  P  P13  1  0.000000  0.198410  0.383156  1
  P  P14  1  0.000000  0.801590  0.383156  1
  P  P15  1  0.500000  0.851327  0.897500  1
  P  P16  1  0.500000  0.148673  0.897500  1
  P  P17  1  0.000000  0.655591  0.103557  1
  P  P18  1  0.000000  0.344409  0.103557  1
  Ir  Ir19  1  0.500000  0.500000  0.693199  1
  Ir  Ir20  1  0.000000  0.000000  0.305779  1
  Ru  Ru21  1  0.500000  0.500000  0.154320  1
  Ru  Ru22  1  0.000000  0.000000  0.845024  1
  Ru  Ru23  1  0.000000  0.500000  0.985078  1
  Ru  Ru24  1  0.500000  0.328369  0.990397  1
  Ru  Ru25  1  0.500000  0.671631  0.990397  1
  Ru  Ru26  1  0.000000  0.163213  0.010066  1
  Ru  Ru27  1  0.000000  0.836787  0.010066  1
  Ru  Ru28  1  0.500000  0.300556  0.429673  1
  Ru  Ru29  1  0.500000  0.699444  0.429673  1
  Ru  Ru30  1  0.000000  0.199020  0.570639  1
  Ru  Ru31  1  0.000000  0.800980  0.570639  1
  Ru  Ru32  1  0.500000  0.878392  0.715125  1
  Ru  Ru33  1  0.500000  0.121608  0.715125  1
  Ru  Ru34  1  0.000000  0.622465  0.284669  1
  Ru  Ru35  1  0.000000  0.377535  0.284669  1
