# generated using pymatgen
data_Sc22Os3Ru3Pt2
_symmetry_space_group_name_H-M   'P 1'
_cell_length_a   9.51171052
_cell_length_b   9.53469783
_cell_length_c   9.46938822
_cell_angle_alpha   60.06614459
_cell_angle_beta   60.30751238
_cell_angle_gamma   59.62634647
_symmetry_Int_Tables_number   1
_chemical_formula_structural   Sc22Os3Ru3Pt2
_chemical_formula_sum   'Sc22 Os3 Ru3 Pt2'
_cell_volume   607.21290577
_cell_formula_units_Z   1
loop_
 _symmetry_equiv_pos_site_id
 _symmetry_equiv_pos_as_xyz
  1  'x, y, z'
loop_
 _atom_site_type_symbol
 _atom_site_label
 _atom_site_symmetry_multiplicity
 _atom_site_fract_x
 _atom_site_fract_y
 _atom_site_fract_z
 _atom_site_occupancy
  Sc  Sc0  1  0.802999  0.802999  0.197001  1
  Sc  Sc1  1  0.197019  0.802981  0.197019  1
  Sc  Sc2  1  0.803948  0.196052  0.196052  1
  Sc  Sc3  1  0.197001  0.197001  0.802999  1
  Sc  Sc4  1  0.802981  0.197019  0.802981  1
  Sc  Sc5  1  0.196052  0.803948  0.803948  1
  Sc  Sc6  1  0.616875  0.619611  0.150490  1
  Sc  Sc7  1  0.613026  0.150490  0.619611  1
  Sc  Sc8  1  0.150490  0.613026  0.616875  1
  Sc  Sc9  1  0.619611  0.616875  0.613026  1
  Sc  Sc10  1  0.383125  0.380389  0.849510  1
  Sc  Sc11  1  0.386974  0.849510  0.380389  1
  Sc  Sc12  1  0.849510  0.386974  0.383125  1
  Sc  Sc13  1  0.380389  0.383125  0.386974  1
  Sc  Sc14  1  0.840674  0.840888  0.470451  1
  Sc  Sc15  1  0.847986  0.470451  0.840888  1
  Sc  Sc16  1  0.470451  0.847986  0.840674  1
  Sc  Sc17  1  0.840888  0.840674  0.847986  1
  Sc  Sc18  1  0.159326  0.159112  0.529549  1
  Sc  Sc19  1  0.152014  0.529549  0.159112  1
  Sc  Sc20  1  0.529549  0.152014  0.159326  1
  Sc  Sc21  1  0.159112  0.159326  0.152014  1
  Os  Os22  1  0.500000  0.500000  0.500000  1
  Os  Os23  1  0.000000  0.500000  0.500000  1
  Os  Os24  1  0.500000  0.000000  0.000000  1
  Ru  Ru25  1  0.000000  0.000000  0.000000  1
  Ru  Ru26  1  0.500000  0.000000  0.500000  1
  Ru  Ru27  1  0.000000  0.500000  0.000000  1
  Pt  Pt28  1  0.000000  0.000000  0.500000  1
  Pt  Pt29  1  0.500000  0.500000  0.000000  1
