# generated using pymatgen
data_RbYbH9W
_symmetry_space_group_name_H-M   'P 1'
_cell_length_a   8.97495500
_cell_length_b   8.97495436
_cell_length_c   5.53023200
_cell_angle_alpha   90.00000000
_cell_angle_beta   90.00000000
_cell_angle_gamma   120.00000605
_symmetry_Int_Tables_number   1
_chemical_formula_structural   RbYbH9W
_chemical_formula_sum   'Rb3 Yb3 H27 W3'
_cell_volume   385.77891258
_cell_formula_units_Z   3
loop_
 _symmetry_equiv_pos_site_id
 _symmetry_equiv_pos_as_xyz
  1  'x, y, z'
loop_
 _atom_site_type_symbol
 _atom_site_label
 _atom_site_symmetry_multiplicity
 _atom_site_fract_x
 _atom_site_fract_y
 _atom_site_fract_z
 _atom_site_occupancy
  Rb  Rb0  1  0.000000  0.587276  0.000000  1
  Rb  Rb1  1  0.412724  0.412724  0.000000  1
  Rb  Rb2  1  0.587276  0.000000  0.000000  1
  Yb  Yb3  1  0.000000  0.275176  0.500000  1
  Yb  Yb4  1  0.724824  0.724824  0.500000  1
  Yb  Yb5  1  0.275176  0.000000  0.500000  1
  H  H6  1  0.790764  0.303646  0.726008  1
  H  H7  1  0.696354  0.487117  0.726008  1
  H  H8  1  0.512883  0.209236  0.726008  1
  H  H9  1  0.209236  0.512883  0.273992  1
  H  H10  1  0.512883  0.209236  0.273992  1
  H  H11  1  0.790764  0.303646  0.273992  1
  H  H12  1  0.696354  0.487117  0.273992  1
  H  H13  1  0.303646  0.790764  0.726008  1
  H  H14  1  0.487117  0.696354  0.726008  1
  H  H15  1  0.195433  0.000000  0.000000  1
  H  H16  1  0.804567  0.804567  0.000000  1
  H  H17  1  0.000000  0.195433  0.000000  1
  H  H18  1  0.863175  0.000000  0.237592  1
  H  H19  1  0.136825  0.136825  0.762408  1
  H  H20  1  0.000000  0.863175  0.762408  1
  H  H21  1  0.000000  0.863175  0.237592  1
  H  H22  1  0.136825  0.136825  0.237592  1
  H  H23  1  0.863175  0.000000  0.762408  1
  H  H24  1  0.123443  0.628158  0.500000  1
  H  H25  1  0.504715  0.876557  0.500000  1
  H  H26  1  0.371842  0.495285  0.500000  1
  H  H27  1  0.495285  0.371842  0.500000  1
  H  H28  1  0.876557  0.504715  0.500000  1
  H  H29  1  0.628158  0.123443  0.500000  1
  H  H30  1  0.209236  0.512883  0.726008  1
  H  H31  1  0.303646  0.790764  0.273992  1
  H  H32  1  0.487117  0.696354  0.273992  1
  W  W33  1  0.666667  0.333333  0.500000  1
  W  W34  1  0.333333  0.666667  0.500000  1
  W  W35  1  0.000000  0.000000  0.000000  1
