# generated using pymatgen
data_Tb4Ga18Ru5Pt
_symmetry_space_group_name_H-M   'P 1'
_cell_length_a   7.55881812
_cell_length_b   7.55881721
_cell_length_c   9.72126633
_cell_angle_alpha   90.12316091
_cell_angle_beta   90.12315861
_cell_angle_gamma   119.67934477
_symmetry_Int_Tables_number   1
_chemical_formula_structural   Tb4Ga18Ru5Pt
_chemical_formula_sum   'Tb4 Ga18 Ru5 Pt1'
_cell_volume   482.56014744
_cell_formula_units_Z   1
loop_
 _symmetry_equiv_pos_site_id
 _symmetry_equiv_pos_as_xyz
  1  'x, y, z'
loop_
 _atom_site_type_symbol
 _atom_site_label
 _atom_site_symmetry_multiplicity
 _atom_site_fract_x
 _atom_site_fract_y
 _atom_site_fract_z
 _atom_site_occupancy
  Tb  Tb0  1  0.997934  0.671240  0.250900  1
  Tb  Tb1  1  0.002066  0.328760  0.749100  1
  Tb  Tb2  1  0.671240  0.997934  0.250900  1
  Tb  Tb3  1  0.328760  0.002066  0.749100  1
  Ga  Ga4  1  0.133496  0.133496  0.253973  1
  Ga  Ga5  1  0.866504  0.866504  0.746027  1
  Ga  Ga6  1  0.005074  0.340457  0.077707  1
  Ga  Ga7  1  0.994926  0.659543  0.922293  1
  Ga  Ga8  1  0.994728  0.664162  0.574636  1
  Ga  Ga9  1  0.335838  0.005272  0.425364  1
  Ga  Ga10  1  0.005272  0.335838  0.425364  1
  Ga  Ga11  1  0.664162  0.994728  0.574636  1
  Ga  Ga12  1  0.659543  0.994926  0.922293  1
  Ga  Ga13  1  0.340457  0.005074  0.077707  1
  Ga  Ga14  1  0.337522  0.337522  0.560205  1
  Ga  Ga15  1  0.662478  0.662478  0.439795  1
  Ga  Ga16  1  0.657424  0.657424  0.063178  1
  Ga  Ga17  1  0.342576  0.342576  0.936822  1
  Ga  Ga18  1  0.336778  0.550865  0.250230  1
  Ga  Ga19  1  0.663222  0.449135  0.749770  1
  Ga  Ga20  1  0.550865  0.336778  0.250230  1
  Ga  Ga21  1  0.449135  0.663222  0.749770  1
  Ru  Ru22  1  0.673915  0.326085  0.000000  1
  Ru  Ru23  1  0.326085  0.673915  0.000000  1
  Ru  Ru24  1  0.325806  0.674194  0.500000  1
  Ru  Ru25  1  0.674194  0.325806  0.500000  1
  Ru  Ru26  1  0.000000  0.000000  0.500000  1
  Pt  Pt27  1  0.000000  0.000000  0.000000  1
