# generated using pymatgen
data_Li4AcLa3Si8
_symmetry_space_group_name_H-M   'P 1'
_cell_length_a   3.94609400
_cell_length_b   7.87495987
_cell_length_c   10.82777660
_cell_angle_alpha   89.88831483
_cell_angle_beta   90.00000000
_cell_angle_gamma   90.00000000
_symmetry_Int_Tables_number   1
_chemical_formula_structural   Li4AcLa3Si8
_chemical_formula_sum   'Li4 Ac1 La3 Si8'
_cell_volume   336.47611214
_cell_formula_units_Z   1
loop_
 _symmetry_equiv_pos_site_id
 _symmetry_equiv_pos_as_xyz
  1  'x, y, z'
loop_
 _atom_site_type_symbol
 _atom_site_label
 _atom_site_symmetry_multiplicity
 _atom_site_fract_x
 _atom_site_fract_y
 _atom_site_fract_z
 _atom_site_occupancy
  Li  Li0  1  0.250000  0.998298  0.390555  1
  Li  Li1  1  0.750000  0.002962  0.611192  1
  Li  Li2  1  0.250000  0.496539  0.108419  1
  Li  Li3  1  0.750000  0.503107  0.890609  1
  Ac  Ac4  1  0.750000  0.361679  0.365923  1
  La  La5  1  0.250000  0.134294  0.865294  1
  La  La6  1  0.750000  0.863185  0.133074  1
  La  La7  1  0.250000  0.636930  0.635628  1
  Si  Si8  1  0.750000  0.271986  0.069191  1
  Si  Si9  1  0.250000  0.725463  0.926339  1
  Si  Si10  1  0.750000  0.779903  0.427233  1
  Si  Si11  1  0.250000  0.222514  0.579479  1
  Si  Si12  1  0.750000  0.831020  0.821915  1
  Si  Si13  1  0.250000  0.163693  0.172179  1
  Si  Si14  1  0.750000  0.332262  0.681463  1
  Si  Si15  1  0.250000  0.676161  0.321507  1
