# generated using pymatgen
data_HoEr11GaCo4Sn
_symmetry_space_group_name_H-M   'P 1'
_cell_length_a   8.26372817
_cell_length_b   8.26359385
_cell_length_c   8.26356012
_cell_angle_alpha   112.08843929
_cell_angle_beta   109.34078330
_cell_angle_gamma   107.02738502
_symmetry_Int_Tables_number   1
_chemical_formula_structural   HoEr11GaCo4Sn
_chemical_formula_sum   'Ho1 Er11 Ga1 Co4 Sn1'
_cell_volume   433.53226835
_cell_formula_units_Z   1
loop_
 _symmetry_equiv_pos_site_id
 _symmetry_equiv_pos_as_xyz
  1  'x, y, z'
loop_
 _atom_site_type_symbol
 _atom_site_label
 _atom_site_symmetry_multiplicity
 _atom_site_fract_x
 _atom_site_fract_y
 _atom_site_fract_z
 _atom_site_occupancy
  Ho  Ho0  1  0.819827  0.219322  0.039136  1
  Er  Er1  1  0.966954  0.266074  0.700679  1
  Er  Er2  1  0.033190  0.734132  0.299245  1
  Er  Er3  1  0.674651  0.860281  0.185748  1
  Er  Er4  1  0.325474  0.511118  0.185733  1
  Er  Er5  1  0.325134  0.139583  0.814198  1
  Er  Er6  1  0.674647  0.489086  0.814200  1
  Er  Er7  1  0.565132  0.266073  0.299275  1
  Er  Er8  1  0.434608  0.733701  0.700683  1
  Er  Er9  1  0.180053  0.780661  0.960734  1
  Er  Er10  1  0.819961  0.780609  0.600582  1
  Er  Er11  1  0.180187  0.219351  0.399578  1
  Ga  Ga12  1  0.000089  0.500200  0.500292  1
  Co  Co13  1  0.115109  0.114837  0.999923  1
  Co  Co14  1  0.885095  0.884809  0.999931  1
  Co  Co15  1  0.662010  0.500150  0.162169  1
  Co  Co16  1  0.337879  0.500003  0.837887  1
  Sn  Sn17  1  0.500000  0.000011  0.500005  1
