# generated using pymatgen
data_ErLu3TaOs7
_symmetry_space_group_name_H-M   'P 1'
_cell_length_a   5.38818800
_cell_length_b   5.27463699
_cell_length_c   8.93600600
_cell_angle_alpha   89.99732441
_cell_angle_beta   90.00000000
_cell_angle_gamma   120.71471148
_symmetry_Int_Tables_number   1
_chemical_formula_structural   ErLu3TaOs7
_chemical_formula_sum   'Er1 Lu3 Ta1 Os7'
_cell_volume   218.34154585
_cell_formula_units_Z   1
loop_
 _symmetry_equiv_pos_site_id
 _symmetry_equiv_pos_as_xyz
  1  'x, y, z'
loop_
 _atom_site_type_symbol
 _atom_site_label
 _atom_site_symmetry_multiplicity
 _atom_site_fract_x
 _atom_site_fract_y
 _atom_site_fract_z
 _atom_site_occupancy
  Er  Er0  1  0.333074  0.666149  0.431380  1
  Lu  Lu1  1  0.669497  0.338992  0.560645  1
  Lu  Lu2  1  0.669423  0.338846  0.939561  1
  Lu  Lu3  1  0.332848  0.665697  0.068462  1
  Ta  Ta4  1  0.163567  0.327133  0.750393  1
  Os  Os5  1  0.175838  0.827883  0.750408  1
  Os  Os6  1  0.347444  0.171807  0.249428  1
  Os  Os7  1  0.830967  0.661933  0.249511  1
  Os  Os8  1  0.652044  0.827883  0.750408  1
  Os  Os9  1  0.000562  0.001125  0.003644  1
  Os  Os10  1  0.824364  0.171807  0.249428  1
  Os  Os11  1  0.000374  0.000747  0.496732  1
