# generated using pymatgen
data_Y2Fe3Co9P7
_symmetry_space_group_name_H-M   'P 1'
_cell_length_a   3.61449200
_cell_length_b   8.98978878
_cell_length_c   8.98606100
_cell_angle_alpha   119.99406519
_cell_angle_beta   90.00000000
_cell_angle_gamma   90.00000000
_symmetry_Int_Tables_number   1
_chemical_formula_structural   Y2Fe3Co9P7
_chemical_formula_sum   'Y2 Fe3 Co9 P7'
_cell_volume   252.88479557
_cell_formula_units_Z   1
loop_
 _symmetry_equiv_pos_site_id
 _symmetry_equiv_pos_as_xyz
  1  'x, y, z'
loop_
 _atom_site_type_symbol
 _atom_site_label
 _atom_site_symmetry_multiplicity
 _atom_site_fract_x
 _atom_site_fract_y
 _atom_site_fract_z
 _atom_site_occupancy
  Y  Y0  1  0.000000  0.666791  0.333388  1
  Y  Y1  1  0.500000  0.333235  0.666679  1
  Fe  Fe2  1  0.500000  0.123165  0.906142  1
  Fe  Fe3  1  0.500000  0.093762  0.216970  1
  Fe  Fe4  1  0.500000  0.783046  0.876841  1
  Co  Co5  1  0.000000  0.371296  0.940347  1
  Co  Co6  1  0.000000  0.059628  0.431042  1
  Co  Co7  1  0.000000  0.569088  0.628715  1
  Co  Co8  1  0.000000  0.882692  0.726043  1
  Co  Co9  1  0.000000  0.273884  0.156376  1
  Co  Co10  1  0.000000  0.843431  0.117425  1
  Co  Co11  1  0.500000  0.950752  0.566558  1
  Co  Co12  1  0.500000  0.433499  0.384140  1
  Co  Co13  1  0.500000  0.615842  0.049343  1
  P  P14  1  0.000000  0.112444  0.703621  1
  P  P15  1  0.000000  0.296365  0.408844  1
  P  P16  1  0.000000  0.591213  0.887576  1
  P  P17  1  0.500000  0.709886  0.598566  1
  P  P18  1  0.500000  0.401346  0.111244  1
  P  P19  1  0.500000  0.888687  0.290196  1
  P  P20  1  0.000000  0.999949  0.999942  1
