# generated using pymatgen
data_Tb3Dy2Er5Bi6
_symmetry_space_group_name_H-M   'P 1'
_cell_length_a   8.24985000
_cell_length_b   9.48822474
_cell_length_c   12.03481300
_cell_angle_alpha   89.97687305
_cell_angle_beta   90.00000000
_cell_angle_gamma   90.00000000
_symmetry_Int_Tables_number   1
_chemical_formula_structural   Tb3Dy2Er5Bi6
_chemical_formula_sum   'Tb6 Dy4 Er10 Bi12'
_cell_volume   942.04213128
_cell_formula_units_Z   2
loop_
 _symmetry_equiv_pos_site_id
 _symmetry_equiv_pos_as_xyz
  1  'x, y, z'
loop_
 _atom_site_type_symbol
 _atom_site_label
 _atom_site_symmetry_multiplicity
 _atom_site_fract_x
 _atom_site_fract_y
 _atom_site_fract_z
 _atom_site_occupancy
  Tb  Tb0  1  0.693207  0.936333  0.058730  1
  Tb  Tb1  1  0.193207  0.563667  0.441270  1
  Tb  Tb2  1  0.312679  0.250061  0.218881  1
  Tb  Tb3  1  0.812679  0.249939  0.281119  1
  Tb  Tb4  1  0.687474  0.749795  0.781052  1
  Tb  Tb5  1  0.187474  0.750205  0.718948  1
  Dy  Dy6  1  0.352985  0.750007  0.215932  1
  Dy  Dy7  1  0.852985  0.749993  0.284068  1
  Dy  Dy8  1  0.647532  0.249753  0.784161  1
  Dy  Dy9  1  0.147532  0.250247  0.715839  1
  Er  Er10  1  0.693227  0.564814  0.058917  1
  Er  Er11  1  0.193227  0.935186  0.441083  1
  Er  Er12  1  0.307022  0.064866  0.941407  1
  Er  Er13  1  0.807022  0.435134  0.558593  1
  Er  Er14  1  0.306575  0.435232  0.941188  1
  Er  Er15  1  0.806575  0.064768  0.558812  1
  Er  Er16  1  0.475478  0.249806  0.488313  1
  Er  Er17  1  0.975478  0.250194  0.011687  1
  Er  Er18  1  0.525007  0.750260  0.511846  1
  Er  Er19  1  0.025007  0.749740  0.988154  1
  Bi  Bi20  1  0.406533  0.749397  0.957473  1
  Bi  Bi21  1  0.906533  0.750603  0.542527  1
  Bi  Bi22  1  0.592346  0.251744  0.041939  1
  Bi  Bi23  1  0.092346  0.248256  0.458061  1
  Bi  Bi24  1  0.564887  0.995067  0.326122  1
  Bi  Bi25  1  0.064887  0.504933  0.173878  1
  Bi  Bi26  1  0.434821  0.494910  0.674252  1
  Bi  Bi27  1  0.934821  0.005090  0.825748  1
  Bi  Bi28  1  0.434781  0.005142  0.673976  1
  Bi  Bi29  1  0.934781  0.494858  0.826024  1
  Bi  Bi30  1  0.565449  0.505000  0.325818  1
  Bi  Bi31  1  0.065449  0.995000  0.174182  1
