# generated using pymatgen
data_NaPt4Pb
_symmetry_space_group_name_H-M   'P 1'
_cell_length_a   5.43579427
_cell_length_b   5.43579366
_cell_length_c   5.43579600
_cell_angle_alpha   59.99999794
_cell_angle_beta   60.00000161
_cell_angle_gamma   60.00000443
_symmetry_Int_Tables_number   1
_chemical_formula_structural   NaPt4Pb
_chemical_formula_sum   'Na1 Pt4 Pb1'
_cell_volume   113.57274927
_cell_formula_units_Z   1
loop_
 _symmetry_equiv_pos_site_id
 _symmetry_equiv_pos_as_xyz
  1  'x, y, z'
loop_
 _atom_site_type_symbol
 _atom_site_label
 _atom_site_symmetry_multiplicity
 _atom_site_fract_x
 _atom_site_fract_y
 _atom_site_fract_z
 _atom_site_occupancy
  Na  Na0  1  0.500000  0.500000  0.500000  1
  Pt  Pt1  1  0.125058  0.624826  0.125058  1
  Pt  Pt2  1  0.125058  0.125058  0.624826  1
  Pt  Pt3  1  0.624826  0.125058  0.125058  1
  Pt  Pt4  1  0.125058  0.125058  0.125058  1
  Pb  Pb5  1  0.750000  0.750000  0.750000  1
