# generated using pymatgen
data_Dy5TcMoO12
_symmetry_space_group_name_H-M   'P 1'
_cell_length_a   6.83043348
_cell_length_b   6.83043335
_cell_length_c   7.52561206
_cell_angle_alpha   73.85449578
_cell_angle_beta   73.85449401
_cell_angle_gamma   50.06384408
_symmetry_Int_Tables_number   1
_chemical_formula_structural   Dy5TcMoO12
_chemical_formula_sum   'Dy5 Tc1 Mo1 O12'
_cell_volume   256.22198409
_cell_formula_units_Z   1
loop_
 _symmetry_equiv_pos_site_id
 _symmetry_equiv_pos_as_xyz
  1  'x, y, z'
loop_
 _atom_site_type_symbol
 _atom_site_label
 _atom_site_symmetry_multiplicity
 _atom_site_fract_x
 _atom_site_fract_y
 _atom_site_fract_z
 _atom_site_occupancy
  Dy  Dy0  1  0.313257  0.294818  0.360038  1
  Dy  Dy1  1  0.705182  0.686743  0.639962  1
  Dy  Dy2  1  0.316576  0.309428  0.824201  1
  Dy  Dy3  1  0.690572  0.683424  0.175799  1
  Dy  Dy4  1  0.005732  0.994268  0.500000  1
  Tc  Tc5  1  0.766930  0.233070  0.000000  1
  Mo  Mo6  1  0.211416  0.788584  0.000000  1
  O  O7  1  0.910403  0.428859  0.914750  1
  O  O8  1  0.417169  0.904361  0.916364  1
  O  O9  1  0.095639  0.582831  0.083636  1
  O  O10  1  0.571141  0.089597  0.085250  1
  O  O11  1  0.104236  0.591170  0.571847  1
  O  O12  1  0.596817  0.090902  0.576610  1
  O  O13  1  0.909098  0.403183  0.423390  1
  O  O14  1  0.408830  0.895764  0.428153  1
  O  O15  1  0.992660  0.004806  0.798069  1
  O  O16  1  0.995194  0.007340  0.201931  1
  O  O17  1  0.494771  0.505621  0.819193  1
  O  O18  1  0.494379  0.505229  0.180807  1
