# generated using pymatgen
data_Ti3TcP3W2
_symmetry_space_group_name_H-M   'P 1'
_cell_length_a   6.72357995
_cell_length_b   6.72358024
_cell_length_c   3.29024300
_cell_angle_alpha   90.00000000
_cell_angle_beta   90.00000000
_cell_angle_gamma   120.22161730
_symmetry_Int_Tables_number   1
_chemical_formula_structural   Ti3TcP3W2
_chemical_formula_sum   'Ti3 Tc1 P3 W2'
_cell_volume   128.52439930
_cell_formula_units_Z   1
loop_
 _symmetry_equiv_pos_site_id
 _symmetry_equiv_pos_as_xyz
  1  'x, y, z'
loop_
 _atom_site_type_symbol
 _atom_site_label
 _atom_site_symmetry_multiplicity
 _atom_site_fract_x
 _atom_site_fract_y
 _atom_site_fract_z
 _atom_site_occupancy
  Ti  Ti0  1  0.397144  0.397144  0.500000  1
  Ti  Ti1  1  0.598221  0.009985  0.500000  1
  Ti  Ti2  1  0.009985  0.598221  0.500000  1
  Tc  Tc3  1  0.739232  0.739232  0.000000  1
  P  P4  1  0.668396  0.337946  0.000000  1
  P  P5  1  0.337946  0.668396  0.000000  1
  P  P6  1  0.992004  0.992004  0.500000  1
  W  W7  1  0.257145  0.999928  0.000000  1
  W  W8  1  0.999928  0.257145  0.000000  1
