# generated using pymatgen
data_Er7Tm9Cd4(IrRu)2
_symmetry_space_group_name_H-M   'P 1'
_cell_length_a   9.51425378
_cell_length_b   9.51425387
_cell_length_c   9.55668300
_cell_angle_alpha   59.85236638
_cell_angle_beta   59.85236608
_cell_angle_gamma   59.73786091
_symmetry_Int_Tables_number   1
_chemical_formula_structural   Er7Tm9Cd4(IrRu)2
_chemical_formula_sum   'Er7 Tm9 Cd4 Ir2 Ru2'
_cell_volume   609.12297202
_cell_formula_units_Z   1
loop_
 _symmetry_equiv_pos_site_id
 _symmetry_equiv_pos_as_xyz
  1  'x, y, z'
loop_
 _atom_site_type_symbol
 _atom_site_label
 _atom_site_symmetry_multiplicity
 _atom_site_fract_x
 _atom_site_fract_y
 _atom_site_fract_z
 _atom_site_occupancy
  Er  Er0  1  0.059452  0.059452  0.440548  1
  Er  Er1  1  0.188542  0.809435  0.813238  1
  Er  Er2  1  0.809435  0.188542  0.188785  1
  Er  Er3  1  0.809435  0.188542  0.813238  1
  Er  Er4  1  0.188542  0.809435  0.188785  1
  Er  Er5  1  0.810909  0.810909  0.189091  1
  Er  Er6  1  0.188726  0.188726  0.811274  1
  Tm  Tm7  1  0.598214  0.598214  0.598098  1
  Tm  Tm8  1  0.598214  0.598214  0.205472  1
  Tm  Tm9  1  0.596666  0.209549  0.596892  1
  Tm  Tm10  1  0.209549  0.596666  0.596892  1
  Tm  Tm11  1  0.061999  0.437891  0.440056  1
  Tm  Tm12  1  0.437891  0.061999  0.060054  1
  Tm  Tm13  1  0.437891  0.061999  0.440056  1
  Tm  Tm14  1  0.061999  0.437891  0.060054  1
  Tm  Tm15  1  0.437882  0.437882  0.062118  1
  Cd  Cd16  1  0.830466  0.830466  0.830646  1
  Cd  Cd17  1  0.830466  0.830466  0.508421  1
  Cd  Cd18  1  0.830857  0.507315  0.830914  1
  Cd  Cd19  1  0.507315  0.830857  0.830914  1
  Ir  Ir20  1  0.394383  0.827047  0.389285  1
  Ir  Ir21  1  0.827047  0.394383  0.389285  1
  Ru  Ru22  1  0.392059  0.392059  0.387420  1
  Ru  Ru23  1  0.392059  0.392059  0.828460  1
