# generated using pymatgen
data_Li4Tb2PrNdSi6
_symmetry_space_group_name_H-M   'P 1'
_cell_length_a   9.39491161
_cell_length_b   9.39491136
_cell_length_c   6.80223400
_cell_angle_alpha   90.00000000
_cell_angle_beta   90.00000000
_cell_angle_gamma   153.18487282
_symmetry_Int_Tables_number   1
_chemical_formula_structural   Li4Tb2PrNdSi6
_chemical_formula_sum   'Li4 Tb2 Pr1 Nd1 Si6'
_cell_volume   270.84602956
_cell_formula_units_Z   1
loop_
 _symmetry_equiv_pos_site_id
 _symmetry_equiv_pos_as_xyz
  1  'x, y, z'
loop_
 _atom_site_type_symbol
 _atom_site_label
 _atom_site_symmetry_multiplicity
 _atom_site_fract_x
 _atom_site_fract_y
 _atom_site_fract_z
 _atom_site_occupancy
  Li  Li0  1  0.190078  0.809922  0.059643  1
  Li  Li1  1  0.190078  0.809922  0.440357  1
  Li  Li2  1  0.809955  0.190045  0.940296  1
  Li  Li3  1  0.809955  0.190045  0.559704  1
  Tb  Tb4  1  0.343788  0.656212  0.250000  1
  Tb  Tb5  1  0.656200  0.343800  0.750000  1
  Pr  Pr6  1  0.553403  0.446597  0.250000  1
  Nd  Nd7  1  0.446599  0.553401  0.750000  1
  Si  Si8  1  0.722688  0.277312  0.250000  1
  Si  Si9  1  0.277470  0.722530  0.750000  1
  Si  Si10  1  0.059247  0.940753  0.924788  1
  Si  Si11  1  0.940646  0.059354  0.074497  1
  Si  Si12  1  0.940646  0.059354  0.425503  1
  Si  Si13  1  0.059247  0.940753  0.575212  1
