# generated using pymatgen
data_Cs3MnZnCo2(PO3)12
_symmetry_space_group_name_H-M   'P 1'
_cell_length_a   9.61584488
_cell_length_b   9.61584480
_cell_length_c   12.49338700
_cell_angle_alpha   58.97509137
_cell_angle_beta   58.97509168
_cell_angle_gamma   62.97273511
_symmetry_Int_Tables_number   1
_chemical_formula_structural   Cs3MnZnCo2(PO3)12
_chemical_formula_sum   'Cs3 Mn1 Zn1 Co2 P12 O36'
_cell_volume   819.81367798
_cell_formula_units_Z   1
loop_
 _symmetry_equiv_pos_site_id
 _symmetry_equiv_pos_as_xyz
  1  'x, y, z'
loop_
 _atom_site_type_symbol
 _atom_site_label
 _atom_site_symmetry_multiplicity
 _atom_site_fract_x
 _atom_site_fract_y
 _atom_site_fract_z
 _atom_site_occupancy
  Cs  Cs0  1  0.996835  0.996835  0.499889  1
  Cs  Cs1  1  0.786649  0.211613  0.001411  1
  Cs  Cs2  1  0.211613  0.786649  0.001411  1
  Mn  Mn3  1  0.210264  0.210264  0.585307  1
  Zn  Zn4  1  0.791333  0.791333  0.411388  1
  Co  Co5  1  0.748631  0.748631  0.930774  1
  Co  Co6  1  0.244402  0.244402  0.070206  1
  P  P7  1  0.607792  0.196067  0.370420  1
  P  P8  1  0.196067  0.607792  0.370420  1
  P  P9  1  0.395511  0.805533  0.629751  1
  P  P10  1  0.805533  0.395511  0.629751  1
  P  P11  1  0.836786  0.419255  0.195837  1
  P  P12  1  0.419255  0.836786  0.195837  1
  P  P13  1  0.162005  0.582157  0.804443  1
  P  P14  1  0.582157  0.162005  0.804443  1
  P  P15  1  0.763913  0.763913  0.172247  1
  P  P16  1  0.241415  0.241415  0.817835  1
  P  P17  1  0.329564  0.329564  0.275158  1
  P  P18  1  0.671827  0.671827  0.728883  1
  O  O19  1  0.227935  0.227935  0.417068  1
  O  O20  1  0.774497  0.774497  0.594387  1
  O  O21  1  0.678298  0.347765  0.326251  1
  O  O22  1  0.347765  0.678298  0.326251  1
  O  O23  1  0.319194  0.655732  0.677251  1
  O  O24  1  0.655732  0.319194  0.677251  1
  O  O25  1  0.827892  0.827892  0.221322  1
  O  O26  1  0.181041  0.181041  0.761153  1
  O  O27  1  0.800735  0.494031  0.070637  1
  O  O28  1  0.494031  0.800735  0.070637  1
  O  O29  1  0.196139  0.499228  0.931669  1
  O  O30  1  0.499228  0.196139  0.931669  1
  O  O31  1  0.823248  0.823248  0.021766  1
  O  O32  1  0.173786  0.173786  0.968729  1
  O  O33  1  0.324970  0.324970  0.160204  1
  O  O34  1  0.661809  0.661809  0.856188  1
  O  O35  1  0.470204  0.178262  0.506601  1
  O  O36  1  0.178262  0.470204  0.506601  1
  O  O37  1  0.526491  0.826012  0.492441  1
  O  O38  1  0.826012  0.526491  0.492441  1
  O  O39  1  0.753824  0.051746  0.344233  1
  O  O40  1  0.051746  0.753824  0.344233  1
  O  O41  1  0.247868  0.951577  0.657132  1
  O  O42  1  0.951577  0.247868  0.657132  1
  O  O43  1  0.522468  0.270552  0.259821  1
  O  O44  1  0.270552  0.522468  0.259821  1
  O  O45  1  0.477832  0.730563  0.740972  1
  O  O46  1  0.730563  0.477832  0.740972  1
  O  O47  1  0.816332  0.562526  0.238016  1
  O  O48  1  0.562526  0.816332  0.238016  1
  O  O49  1  0.186626  0.440918  0.756336  1
  O  O50  1  0.440918  0.186626  0.756336  1
  O  O51  1  0.997470  0.289205  0.206292  1
  O  O52  1  0.289205  0.997470  0.206292  1
  O  O53  1  0.001221  0.710447  0.794236  1
  O  O54  1  0.710447  0.001221  0.794236  1
