# generated using pymatgen
data_Tb14Ho2ZnIn2AgRh4
_symmetry_space_group_name_H-M   'P 1'
_cell_length_a   9.65454893
_cell_length_b   9.64889588
_cell_length_c   9.64889600
_cell_angle_alpha   60.10348167
_cell_angle_beta   60.08654899
_cell_angle_gamma   60.08655189
_symmetry_Int_Tables_number   1
_chemical_formula_structural   Tb14Ho2ZnIn2AgRh4
_chemical_formula_sum   'Tb14 Ho2 Zn1 In2 Ag1 Rh4'
_cell_volume   636.91067571
_cell_formula_units_Z   1
loop_
 _symmetry_equiv_pos_site_id
 _symmetry_equiv_pos_as_xyz
  1  'x, y, z'
loop_
 _atom_site_type_symbol
 _atom_site_label
 _atom_site_symmetry_multiplicity
 _atom_site_fract_x
 _atom_site_fract_y
 _atom_site_fract_z
 _atom_site_occupancy
  Tb  Tb0  1  0.189420  0.189707  0.811760  1
  Tb  Tb1  1  0.647881  0.053266  0.647715  1
  Tb  Tb2  1  0.062668  0.063150  0.437744  1
  Tb  Tb3  1  0.437114  0.436253  0.064463  1
  Tb  Tb4  1  0.651127  0.650345  0.650094  1
  Tb  Tb5  1  0.811075  0.189641  0.189843  1
  Tb  Tb6  1  0.189261  0.810851  0.810191  1
  Tb  Tb7  1  0.052703  0.647844  0.647727  1
  Tb  Tb8  1  0.439082  0.065631  0.059249  1
  Tb  Tb9  1  0.436534  0.067931  0.435488  1
  Tb  Tb10  1  0.065736  0.438458  0.059749  1
  Tb  Tb11  1  0.648098  0.647887  0.053762  1
  Tb  Tb12  1  0.189790  0.810947  0.190406  1
  Tb  Tb13  1  0.067993  0.436031  0.435714  1
  Ho  Ho14  1  0.809118  0.809708  0.190958  1
  Ho  Ho15  1  0.810176  0.189868  0.810191  1
  Zn  Zn16  1  0.416893  0.417108  0.418218  1
  In  In17  1  0.417666  0.741731  0.420392  1
  In  In18  1  0.741820  0.417519  0.420575  1
  Ag  Ag19  1  0.416972  0.416595  0.745923  1
  Rh  Rh20  1  0.857500  0.426903  0.857439  1
  Rh  Rh21  1  0.855917  0.857265  0.858769  1
  Rh  Rh22  1  0.857755  0.857778  0.425753  1
  Rh  Rh23  1  0.427703  0.857585  0.857880  1
