# generated using pymatgen
data_K3RbHg2(BSe)18
_symmetry_space_group_name_H-M   'P 1'
_cell_length_a   9.91010192
_cell_length_b   10.71850466
_cell_length_c   11.27002749
_cell_angle_alpha   100.13164828
_cell_angle_beta   90.77098098
_cell_angle_gamma   116.36504096
_symmetry_Int_Tables_number   1
_chemical_formula_structural   K3RbHg2(BSe)18
_chemical_formula_sum   'K3 Rb1 Hg2 B18 Se18'
_cell_volume   1050.16567834
_cell_formula_units_Z   1
loop_
 _symmetry_equiv_pos_site_id
 _symmetry_equiv_pos_as_xyz
  1  'x, y, z'
loop_
 _atom_site_type_symbol
 _atom_site_label
 _atom_site_symmetry_multiplicity
 _atom_site_fract_x
 _atom_site_fract_y
 _atom_site_fract_z
 _atom_site_occupancy
  K  K0  1  0.792042  0.174580  0.003086  1
  K  K1  1  0.207975  0.825423  0.996925  1
  K  K2  1  0.176512  0.345127  0.502994  1
  Rb  Rb3  1  0.824514  0.655803  0.495796  1
  Hg  Hg4  1  0.325011  0.318712  0.074513  1
  Hg  Hg5  1  0.674897  0.681248  0.925555  1
  B  B6  1  0.515767  0.163585  0.552027  1
  B  B7  1  0.484221  0.836244  0.448020  1
  B  B8  1  0.663396  0.120598  0.587047  1
  B  B9  1  0.336603  0.879326  0.412893  1
  B  B10  1  0.486136  0.042129  0.648508  1
  B  B11  1  0.513760  0.957686  0.351483  1
  B  B12  1  0.337870  0.008068  0.538445  1
  B  B13  1  0.662127  0.991981  0.461532  1
  B  B14  1  0.422713  0.063902  0.405896  1
  B  B15  1  0.577210  0.936029  0.594138  1
  B  B16  1  0.621884  0.132358  0.436202  1
  B  B17  1  0.377903  0.867421  0.563752  1
  B  B18  1  0.753125  0.416529  0.714868  1
  B  B19  1  0.246627  0.583091  0.285421  1
  B  B20  1  0.250461  0.086687  0.780523  1
  B  B21  1  0.749774  0.913880  0.219451  1
  B  B22  1  0.570244  0.284776  0.260149  1
  B  B23  1  0.429535  0.714965  0.739880  1
  Se  Se24  1  0.556366  0.363148  0.627394  1
  Se  Se25  1  0.442970  0.636161  0.373307  1
  Se  Se26  1  0.841370  0.281082  0.695904  1
  Se  Se27  1  0.159198  0.718981  0.303396  1
  Se  Se28  1  0.447909  0.094500  0.820739  1
  Se  Se29  1  0.551875  0.905164  0.179262  1
  Se  Se30  1  0.162007  0.030070  0.609680  1
  Se  Se31  1  0.839050  0.972317  0.390144  1
  Se  Se32  1  0.361767  0.157107  0.289310  1
  Se  Se33  1  0.637925  0.843387  0.711431  1
  Se  Se34  1  0.745433  0.287688  0.347777  1
  Se  Se35  1  0.254249  0.711209  0.651559  1
  Se  Se36  1  0.872311  0.604189  0.814623  1
  Se  Se37  1  0.127368  0.395062  0.186292  1
  Se  Se38  1  0.127058  0.119668  0.901973  1
  Se  Se39  1  0.872928  0.880307  0.098068  1
  Se  Se40  1  0.609629  0.407693  0.143648  1
  Se  Se41  1  0.390278  0.592119  0.856391  1
