# generated using pymatgen
data_Nd3ErAl18Pd4RuPt
_symmetry_space_group_name_H-M   'P 1'
_cell_length_a   7.65305000
_cell_length_b   7.66600144
_cell_length_c   9.58006200
_cell_angle_alpha   90.00000000
_cell_angle_beta   90.00000000
_cell_angle_gamma   119.46498084
_symmetry_Int_Tables_number   1
_chemical_formula_structural   Nd3ErAl18Pd4RuPt
_chemical_formula_sum   'Nd3 Er1 Al18 Pd4 Ru1 Pt1'
_cell_volume   489.34889813
_cell_formula_units_Z   1
loop_
 _symmetry_equiv_pos_site_id
 _symmetry_equiv_pos_as_xyz
  1  'x, y, z'
loop_
 _atom_site_type_symbol
 _atom_site_label
 _atom_site_symmetry_multiplicity
 _atom_site_fract_x
 _atom_site_fract_y
 _atom_site_fract_z
 _atom_site_occupancy
  Nd  Nd0  1  0.994300  0.667895  0.250189  1
  Nd  Nd1  1  0.006022  0.332188  0.750013  1
  Nd  Nd2  1  0.667327  0.993128  0.249866  1
  Er  Er3  1  0.330817  0.006399  0.749228  1
  Al  Al4  1  0.130868  0.129228  0.254903  1
  Al  Al5  1  0.871611  0.870876  0.745745  1
  Al  Al6  1  0.002741  0.334506  0.076184  1
  Al  Al7  1  0.000112  0.667356  0.920589  1
  Al  Al8  1  0.002279  0.673788  0.575476  1
  Al  Al9  1  0.328639  0.000616  0.430511  1
  Al  Al10  1  0.000868  0.327850  0.427904  1
  Al  Al11  1  0.669346  0.999786  0.575163  1
  Al  Al12  1  0.662308  0.998053  0.920558  1
  Al  Al13  1  0.334532  0.002311  0.073361  1
  Al  Al14  1  0.329397  0.327731  0.553995  1
  Al  Al15  1  0.671101  0.670967  0.452839  1
  Al  Al16  1  0.664949  0.664956  0.051393  1
  Al  Al17  1  0.335024  0.333409  0.942258  1
  Al  Al18  1  0.341494  0.544843  0.251008  1
  Al  Al19  1  0.656565  0.451781  0.748932  1
  Al  Al20  1  0.545052  0.339769  0.250906  1
  Al  Al21  1  0.453602  0.661528  0.749006  1
  Pd  Pd22  1  0.671147  0.327945  0.998654  1
  Pd  Pd23  1  0.328161  0.671928  0.999006  1
  Pd  Pd24  1  0.328312  0.671834  0.500915  1
  Pd  Pd25  1  0.671100  0.328023  0.501300  1
  Ru  Ru26  1  0.001263  0.000697  0.501970  1
  Pt  Pt27  1  0.001064  0.000611  0.998127  1
