# generated using pymatgen
data_Lu4U2TcRu5
_symmetry_space_group_name_H-M   'P 1'
_cell_length_a   5.75514079
_cell_length_b   5.77614758
_cell_length_c   7.97491900
_cell_angle_alpha   90.00000000
_cell_angle_beta   90.00000000
_cell_angle_gamma   120.12080202
_symmetry_Int_Tables_number   1
_chemical_formula_structural   Lu4U2TcRu5
_chemical_formula_sum   'Lu4 U2 Tc1 Ru5'
_cell_volume   229.30905235
_cell_formula_units_Z   1
loop_
 _symmetry_equiv_pos_site_id
 _symmetry_equiv_pos_as_xyz
  1  'x, y, z'
loop_
 _atom_site_type_symbol
 _atom_site_label
 _atom_site_symmetry_multiplicity
 _atom_site_fract_x
 _atom_site_fract_y
 _atom_site_fract_z
 _atom_site_occupancy
  Lu  Lu0  1  0.333065  0.666533  0.440931  1
  Lu  Lu1  1  0.666581  0.333290  0.557869  1
  Lu  Lu2  1  0.666581  0.333290  0.942131  1
  Lu  Lu3  1  0.333065  0.666533  0.059069  1
  U  U4  1  0.995350  0.997675  0.500027  1
  U  U5  1  0.995350  0.997675  0.999973  1
  Tc  Tc6  1  0.672570  0.836285  0.750000  1
  Ru  Ru7  1  0.832461  0.166307  0.250000  1
  Ru  Ru8  1  0.832461  0.666154  0.250000  1
  Ru  Ru9  1  0.335184  0.167592  0.250000  1
  Ru  Ru10  1  0.168665  0.835281  0.750000  1
  Ru  Ru11  1  0.168665  0.333384  0.750000  1
