# generated using pymatgen
data_Mn2Co3Sb2
_symmetry_space_group_name_H-M   'P 1'
_cell_length_a   7.21735611
_cell_length_b   7.21735635
_cell_length_c   7.21735599
_cell_angle_alpha   33.75220883
_cell_angle_beta   33.75220355
_cell_angle_gamma   33.75220707
_symmetry_Int_Tables_number   1
_chemical_formula_structural   Mn2Co3Sb2
_chemical_formula_sum   'Mn2 Co3 Sb2'
_cell_volume   103.40580038
_cell_formula_units_Z   1
loop_
 _symmetry_equiv_pos_site_id
 _symmetry_equiv_pos_as_xyz
  1  'x, y, z'
loop_
 _atom_site_type_symbol
 _atom_site_label
 _atom_site_symmetry_multiplicity
 _atom_site_fract_x
 _atom_site_fract_y
 _atom_site_fract_z
 _atom_site_occupancy
  Mn  Mn0  1  0.246977  0.246977  0.246977  1
  Mn  Mn1  1  0.753986  0.753986  0.753986  1
  Co  Co2  1  0.121361  0.121361  0.121361  1
  Co  Co3  1  0.375082  0.375082  0.375082  1
  Co  Co4  1  0.628960  0.628960  0.628960  1
  Sb  Sb5  1  0.503725  0.503725  0.503725  1
  Sb  Sb6  1  0.994909  0.994909  0.994909  1
