# generated using pymatgen
data_Ca2PRh2
_symmetry_space_group_name_H-M   'P 1'
_cell_length_a   5.67289781
_cell_length_b   5.67289831
_cell_length_c   7.33010939
_cell_angle_alpha   99.68065793
_cell_angle_beta   99.68065931
_cell_angle_gamma   60.58898744
_symmetry_Int_Tables_number   1
_chemical_formula_structural   Ca2PRh2
_chemical_formula_sum   'Ca4 P2 Rh4'
_cell_volume   201.55886993
_cell_formula_units_Z   2
loop_
 _symmetry_equiv_pos_site_id
 _symmetry_equiv_pos_as_xyz
  1  'x, y, z'
loop_
 _atom_site_type_symbol
 _atom_site_label
 _atom_site_symmetry_multiplicity
 _atom_site_fract_x
 _atom_site_fract_y
 _atom_site_fract_z
 _atom_site_occupancy
  Ca  Ca0  1  0.024151  0.276556  0.147741  1
  Ca  Ca1  1  0.723444  0.975849  0.352259  1
  Ca  Ca2  1  0.276556  0.024151  0.647741  1
  Ca  Ca3  1  0.975849  0.723444  0.852259  1
  P  P4  1  0.414485  0.585515  0.250000  1
  P  P5  1  0.585515  0.414485  0.750000  1
  Rh  Rh6  1  0.489602  0.751587  0.006980  1
  Rh  Rh7  1  0.248413  0.510397  0.493020  1
  Rh  Rh8  1  0.751587  0.489602  0.506979  1
  Rh  Rh9  1  0.510398  0.248413  0.993021  1
