# generated using pymatgen
data_DyErIr2F14
_symmetry_space_group_name_H-M   'P 1'
_cell_length_a   5.53233500
_cell_length_b   8.89539197
_cell_length_c   11.94494498
_cell_angle_alpha   62.62307926
_cell_angle_beta   90.00000000
_cell_angle_gamma   90.00000000
_symmetry_Int_Tables_number   1
_chemical_formula_structural   DyErIr2F14
_chemical_formula_sum   'Dy2 Er2 Ir4 F28'
_cell_volume   522.00061494
_cell_formula_units_Z   2
loop_
 _symmetry_equiv_pos_site_id
 _symmetry_equiv_pos_as_xyz
  1  'x, y, z'
loop_
 _atom_site_type_symbol
 _atom_site_label
 _atom_site_symmetry_multiplicity
 _atom_site_fract_x
 _atom_site_fract_y
 _atom_site_fract_z
 _atom_site_occupancy
  Dy  Dy0  1  0.239744  0.186942  0.234310  1
  Dy  Dy1  1  0.739744  0.813058  0.265690  1
  Er  Er2  1  0.759992  0.814742  0.765206  1
  Er  Er3  1  0.259992  0.185258  0.734794  1
  Ir  Ir4  1  0.757659  0.274170  0.954734  1
  Ir  Ir5  1  0.257659  0.725830  0.545266  1
  Ir  Ir6  1  0.242814  0.727433  0.042404  1
  Ir  Ir7  1  0.742814  0.272567  0.457596  1
  F  F8  1  0.442195  0.705982  0.914478  1
  F  F9  1  0.942195  0.294018  0.585522  1
  F  F10  1  0.558574  0.295162  0.083435  1
  F  F11  1  0.058574  0.704838  0.416565  1
  F  F12  1  0.442663  0.278139  0.546509  1
  F  F13  1  0.942663  0.721861  0.953491  1
  F  F14  1  0.556544  0.720170  0.456394  1
  F  F15  1  0.056544  0.279830  0.043606  1
  F  F16  1  0.769896  0.520149  0.858343  1
  F  F17  1  0.269896  0.479851  0.641657  1
  F  F18  1  0.229681  0.481740  0.139658  1
  F  F19  1  0.729681  0.518260  0.360342  1
  F  F20  1  0.757060  0.028464  0.049376  1
  F  F21  1  0.257060  0.971536  0.450624  1
  F  F22  1  0.244030  0.973320  0.948357  1
  F  F23  1  0.744030  0.026680  0.551643  1
  F  F24  1  0.966348  0.728866  0.639293  1
  F  F25  1  0.466348  0.271134  0.860707  1
  F  F26  1  0.034549  0.271839  0.363020  1
  F  F27  1  0.534549  0.728161  0.136980  1
  F  F28  1  0.048644  0.746795  0.173292  1
  F  F29  1  0.548644  0.253205  0.326708  1
  F  F30  1  0.954043  0.253638  0.824369  1
  F  F31  1  0.454043  0.746362  0.675631  1
  F  F32  1  0.414786  0.969897  0.231794  1
  F  F33  1  0.914786  0.030103  0.268206  1
  F  F34  1  0.580779  0.027940  0.767892  1
  F  F35  1  0.080779  0.972060  0.732108  1
