# generated using pymatgen
data_InSb8
_symmetry_space_group_name_H-M   'P 1'
_cell_length_a   4.32282800
_cell_length_b   4.32282762
_cell_length_c   17.62586500
_cell_angle_alpha   90.00000000
_cell_angle_beta   90.00000000
_cell_angle_gamma   119.99998762
_symmetry_Int_Tables_number   1
_chemical_formula_structural   InSb8
_chemical_formula_sum   'In1 Sb8'
_cell_volume   285.24431566
_cell_formula_units_Z   1
loop_
 _symmetry_equiv_pos_site_id
 _symmetry_equiv_pos_as_xyz
  1  'x, y, z'
loop_
 _atom_site_type_symbol
 _atom_site_label
 _atom_site_symmetry_multiplicity
 _atom_site_fract_x
 _atom_site_fract_y
 _atom_site_fract_z
 _atom_site_occupancy
  In  In0  1  0.000000  0.000000  0.000000  1
  Sb  Sb1  1  0.333333  0.666667  0.565984  1
  Sb  Sb2  1  0.666667  0.333333  0.434016  1
  Sb  Sb3  1  0.666667  0.333333  0.784048  1
  Sb  Sb4  1  0.333333  0.666667  0.215952  1
  Sb  Sb5  1  0.333333  0.666667  0.876150  1
  Sb  Sb6  1  0.666667  0.333333  0.123850  1
  Sb  Sb7  1  0.000000  0.000000  0.656224  1
  Sb  Sb8  1  0.000000  0.000000  0.343776  1
