# generated using pymatgen
data_Gd2HoTm(ReB6)2
_symmetry_space_group_name_H-M   'P 1'
_cell_length_a   3.68282700
_cell_length_b   9.17853606
_cell_length_c   11.57733407
_cell_angle_alpha   90.01260847
_cell_angle_beta   90.00000000
_cell_angle_gamma   90.00000000
_symmetry_Int_Tables_number   1
_chemical_formula_structural   Gd2HoTm(ReB6)2
_chemical_formula_sum   'Gd4 Ho2 Tm2 Re4 B24'
_cell_volume   391.34815570
_cell_formula_units_Z   2
loop_
 _symmetry_equiv_pos_site_id
 _symmetry_equiv_pos_as_xyz
  1  'x, y, z'
loop_
 _atom_site_type_symbol
 _atom_site_label
 _atom_site_symmetry_multiplicity
 _atom_site_fract_x
 _atom_site_fract_y
 _atom_site_fract_z
 _atom_site_occupancy
  Gd  Gd0  1  0.000000  0.323414  0.413950  1
  Gd  Gd1  1  0.000000  0.676586  0.586050  1
  Gd  Gd2  1  0.000000  0.823043  0.085845  1
  Gd  Gd3  1  0.000000  0.176957  0.914155  1
  Ho  Ho4  1  0.000000  0.943232  0.369513  1
  Ho  Ho5  1  0.000000  0.056768  0.630487  1
  Tm  Tm6  1  0.000000  0.443275  0.130100  1
  Tm  Tm7  1  0.000000  0.556725  0.869900  1
  Re  Re8  1  0.000000  0.638879  0.319614  1
  Re  Re9  1  0.000000  0.361121  0.680386  1
  Re  Re10  1  0.000000  0.139974  0.179576  1
  Re  Re11  1  0.000000  0.860026  0.820424  1
  B  B12  1  0.500000  0.553677  0.432144  1
  B  B13  1  0.500000  0.446323  0.567856  1
  B  B14  1  0.500000  0.054074  0.067610  1
  B  B15  1  0.500000  0.945926  0.932390  1
  B  B16  1  0.500000  0.749361  0.417809  1
  B  B17  1  0.500000  0.250639  0.582191  1
  B  B18  1  0.500000  0.250526  0.081954  1
  B  B19  1  0.500000  0.749474  0.918046  1
  B  B20  1  0.500000  0.791861  0.265145  1
  B  B21  1  0.500000  0.208139  0.734855  1
  B  B22  1  0.500000  0.292904  0.234365  1
  B  B23  1  0.500000  0.707096  0.765635  1
  B  B24  1  0.500000  0.629936  0.185047  1
  B  B25  1  0.500000  0.370064  0.814953  1
  B  B26  1  0.500000  0.130947  0.314191  1
  B  B27  1  0.500000  0.869053  0.685809  1
  B  B28  1  0.500000  0.983120  0.211956  1
  B  B29  1  0.500000  0.016880  0.788044  1
  B  B30  1  0.500000  0.482453  0.287339  1
  B  B31  1  0.500000  0.517547  0.712661  1
  B  B32  1  0.500000  0.597540  0.027167  1
  B  B33  1  0.500000  0.402460  0.972833  1
  B  B34  1  0.500000  0.098841  0.472540  1
  B  B35  1  0.500000  0.901159  0.527460  1
