# generated using pymatgen
data_Nd5Y11Cd4Ir3Pt
_symmetry_space_group_name_H-M   'P 1'
_cell_length_a   9.77401175
_cell_length_b   9.76355886
_cell_length_c   9.76355971
_cell_angle_alpha   60.13215782
_cell_angle_beta   60.11776344
_cell_angle_gamma   60.11777154
_symmetry_Int_Tables_number   1
_chemical_formula_structural   Nd5Y11Cd4Ir3Pt
_chemical_formula_sum   'Nd5 Y11 Cd4 Ir3 Pt1'
_cell_volume   660.66059334
_cell_formula_units_Z   1
loop_
 _symmetry_equiv_pos_site_id
 _symmetry_equiv_pos_as_xyz
  1  'x, y, z'
loop_
 _atom_site_type_symbol
 _atom_site_label
 _atom_site_symmetry_multiplicity
 _atom_site_fract_x
 _atom_site_fract_y
 _atom_site_fract_z
 _atom_site_occupancy
  Nd  Nd0  1  0.559740  0.941006  0.941006  1
  Nd  Nd1  1  0.562826  0.938774  0.560492  1
  Nd  Nd2  1  0.940640  0.560874  0.937595  1
  Nd  Nd3  1  0.562826  0.560492  0.938774  1
  Nd  Nd4  1  0.940640  0.937595  0.560874  1
  Y  Y5  1  0.347832  0.347252  0.347252  1
  Y  Y6  1  0.350927  0.353303  0.951633  1
  Y  Y7  1  0.350927  0.951633  0.353303  1
  Y  Y8  1  0.949751  0.351974  0.351974  1
  Y  Y9  1  0.807182  0.189099  0.189099  1
  Y  Y10  1  0.185805  0.812099  0.812099  1
  Y  Y11  1  0.188590  0.806874  0.190669  1
  Y  Y12  1  0.811981  0.186612  0.811013  1
  Y  Y13  1  0.188590  0.190669  0.806874  1
  Y  Y14  1  0.811981  0.811013  0.186612  1
  Y  Y15  1  0.942870  0.557747  0.557747  1
  Cd  Cd16  1  0.582346  0.579352  0.579352  1
  Cd  Cd17  1  0.578982  0.579872  0.260873  1
  Cd  Cd18  1  0.578982  0.260873  0.579872  1
  Cd  Cd19  1  0.258718  0.579377  0.579377  1
  Ir  Ir20  1  0.139871  0.144390  0.575425  1
  Ir  Ir21  1  0.139871  0.575425  0.144390  1
  Ir  Ir22  1  0.575595  0.141354  0.141354  1
  Pt  Pt23  1  0.142524  0.142339  0.142339  1
