# generated using pymatgen
data_Na2CrF6
_symmetry_space_group_name_H-M   'P 1'
_cell_length_a   9.27154500
_cell_length_b   9.27154568
_cell_length_c   5.20205500
_cell_angle_alpha   90.00000000
_cell_angle_beta   90.00000000
_cell_angle_gamma   120.00000114
_symmetry_Int_Tables_number   1
_chemical_formula_structural   Na2CrF6
_chemical_formula_sum   'Na6 Cr3 F18'
_cell_volume   387.26640077
_cell_formula_units_Z   3
loop_
 _symmetry_equiv_pos_site_id
 _symmetry_equiv_pos_as_xyz
  1  'x, y, z'
loop_
 _atom_site_type_symbol
 _atom_site_label
 _atom_site_symmetry_multiplicity
 _atom_site_fract_x
 _atom_site_fract_y
 _atom_site_fract_z
 _atom_site_occupancy
  Na  Na0  1  0.000000  0.707850  0.500000  1
  Na  Na1  1  0.707850  0.000000  0.500000  1
  Na  Na2  1  0.292150  0.292150  0.500000  1
  Na  Na3  1  0.626804  0.626804  0.000000  1
  Na  Na4  1  0.000000  0.373196  0.000000  1
  Na  Na5  1  0.373196  0.000000  0.000000  1
  Cr  Cr6  1  0.666667  0.333333  0.503007  1
  Cr  Cr7  1  0.333333  0.666667  0.496993  1
  Cr  Cr8  1  0.000000  0.000000  0.000000  1
  F  F9  1  0.775509  0.251965  0.297843  1
  F  F10  1  0.748035  0.523544  0.297843  1
  F  F11  1  0.476456  0.224491  0.297843  1
  F  F12  1  0.523544  0.748035  0.702157  1
  F  F13  1  0.224491  0.476456  0.702157  1
  F  F14  1  0.251965  0.775509  0.702157  1
  F  F15  1  0.409435  0.553728  0.291459  1
  F  F16  1  0.446272  0.855706  0.291459  1
  F  F17  1  0.144294  0.590565  0.291459  1
  F  F18  1  0.911987  0.102436  0.796054  1
  F  F19  1  0.897564  0.809551  0.796054  1
  F  F20  1  0.190449  0.088013  0.796054  1
  F  F21  1  0.809551  0.897564  0.203946  1
  F  F22  1  0.088013  0.190449  0.203946  1
  F  F23  1  0.102436  0.911987  0.203946  1
  F  F24  1  0.553728  0.409435  0.708541  1
  F  F25  1  0.590565  0.144294  0.708541  1
  F  F26  1  0.855706  0.446272  0.708541  1
