# generated using pymatgen
data_DyCoF7
_symmetry_space_group_name_H-M   'P 1'
_cell_length_a   5.35028900
_cell_length_b   8.67239062
_cell_length_c   11.64995400
_cell_angle_alpha   62.46215889
_cell_angle_beta   90.00000000
_cell_angle_gamma   90.00000000
_symmetry_Int_Tables_number   1
_chemical_formula_structural   DyCoF7
_chemical_formula_sum   'Dy4 Co4 F28'
_cell_volume   479.31362252
_cell_formula_units_Z   4
loop_
 _symmetry_equiv_pos_site_id
 _symmetry_equiv_pos_as_xyz
  1  'x, y, z'
loop_
 _atom_site_type_symbol
 _atom_site_label
 _atom_site_symmetry_multiplicity
 _atom_site_fract_x
 _atom_site_fract_y
 _atom_site_fract_z
 _atom_site_occupancy
  Dy  Dy0  1  0.263837  0.808673  0.265258  1
  Dy  Dy1  1  0.736163  0.191327  0.734742  1
  Dy  Dy2  1  0.763837  0.191327  0.234742  1
  Dy  Dy3  1  0.236163  0.808673  0.765258  1
  Co  Co4  1  0.758761  0.726173  0.043178  1
  Co  Co5  1  0.241239  0.273827  0.956822  1
  Co  Co6  1  0.258761  0.273827  0.456822  1
  Co  Co7  1  0.741239  0.726173  0.543178  1
  F  F8  1  0.923098  0.706145  0.420358  1
  F  F9  1  0.076902  0.293855  0.579642  1
  F  F10  1  0.423098  0.293855  0.079642  1
  F  F11  1  0.576902  0.706145  0.920358  1
  F  F12  1  0.475474  0.728045  0.128678  1
  F  F13  1  0.524526  0.271955  0.871322  1
  F  F14  1  0.975474  0.271955  0.371322  1
  F  F15  1  0.024526  0.728045  0.628678  1
  F  F16  1  0.940396  0.739930  0.171018  1
  F  F17  1  0.059604  0.260070  0.828982  1
  F  F18  1  0.440396  0.260070  0.328982  1
  F  F19  1  0.559604  0.739930  0.671018  1
  F  F20  1  0.770116  0.492163  0.136054  1
  F  F21  1  0.229884  0.507837  0.863946  1
  F  F22  1  0.270116  0.507837  0.363946  1
  F  F23  1  0.729884  0.492163  0.636054  1
  F  F24  1  0.954185  0.282030  0.038126  1
  F  F25  1  0.045815  0.717970  0.961874  1
  F  F26  1  0.454185  0.717970  0.461874  1
  F  F27  1  0.545815  0.282030  0.538126  1
  F  F28  1  0.740407  0.958517  0.456708  1
  F  F29  1  0.259593  0.041483  0.543292  1
  F  F30  1  0.240407  0.041483  0.043292  1
  F  F31  1  0.759593  0.958517  0.956708  1
  F  F32  1  0.598768  0.968762  0.226673  1
  F  F33  1  0.401232  0.031238  0.773327  1
  F  F34  1  0.098768  0.031238  0.273327  1
  F  F35  1  0.901232  0.968762  0.726673  1
