# generated using pymatgen
data_Eu2Cd21Pd
_symmetry_space_group_name_H-M   'P 1'
_cell_length_a   9.39822821
_cell_length_b   9.41150891
_cell_length_c   9.41150872
_cell_angle_alpha   99.14571269
_cell_angle_beta   100.12464297
_cell_angle_gamma   131.79385676
_symmetry_Int_Tables_number   1
_chemical_formula_structural   Eu2Cd21Pd
_chemical_formula_sum   'Eu2 Cd21 Pd1'
_cell_volume   566.09398338
_cell_formula_units_Z   1
loop_
 _symmetry_equiv_pos_site_id
 _symmetry_equiv_pos_as_xyz
  1  'x, y, z'
loop_
 _atom_site_type_symbol
 _atom_site_label
 _atom_site_symmetry_multiplicity
 _atom_site_fract_x
 _atom_site_fract_y
 _atom_site_fract_z
 _atom_site_occupancy
  Eu  Eu0  1  0.500591  0.500455  0.000136  1
  Eu  Eu1  1  0.749409  0.249545  0.499864  1
  Cd  Cd2  1  0.998250  0.321189  0.917127  1
  Cd  Cd3  1  0.125000  0.875000  0.750000  1
  Cd  Cd4  1  0.572102  0.158328  0.825492  1
  Cd  Cd5  1  0.998250  0.081123  0.677060  1
  Cd  Cd6  1  0.572102  0.746612  0.413774  1
  Cd  Cd7  1  0.926092  0.607054  0.928275  1
  Cd  Cd8  1  0.926092  0.997816  0.319037  1
  Cd  Cd9  1  0.848851  0.437677  0.175732  1
  Cd  Cd10  1  0.251750  0.668877  0.822940  1
  Cd  Cd11  1  0.247190  0.755598  0.491592  1
  Cd  Cd12  1  0.677898  0.003388  0.086226  1
  Cd  Cd13  1  0.002810  0.994402  0.008408  1
  Cd  Cd14  1  0.625000  0.875000  0.750000  1
  Cd  Cd15  1  0.677898  0.591672  0.674508  1
  Cd  Cd16  1  0.401149  0.076880  0.088825  1
  Cd  Cd17  1  0.251750  0.428811  0.582873  1
  Cd  Cd18  1  0.323908  0.752184  0.180963  1
  Cd  Cd19  1  0.323908  0.142946  0.571725  1
  Cd  Cd20  1  0.848851  0.673120  0.411175  1
  Cd  Cd21  1  0.401149  0.312323  0.324268  1
  Cd  Cd22  1  0.125000  0.375000  0.250000  1
  Pd  Pd23  1  0.125000  0.875000  0.250000  1
