# generated using pymatgen
data_Hf18NbSi16W
_symmetry_space_group_name_H-M   'P 1'
_cell_length_a   7.02264054
_cell_length_b   7.02263994
_cell_length_c   12.80926867
_cell_angle_alpha   90.02619349
_cell_angle_beta   90.02619277
_cell_angle_gamma   89.85715387
_symmetry_Int_Tables_number   1
_chemical_formula_structural   Hf18NbSi16W
_chemical_formula_sum   'Hf18 Nb1 Si16 W1'
_cell_volume   631.71870414
_cell_formula_units_Z   1
loop_
 _symmetry_equiv_pos_site_id
 _symmetry_equiv_pos_as_xyz
  1  'x, y, z'
loop_
 _atom_site_type_symbol
 _atom_site_label
 _atom_site_symmetry_multiplicity
 _atom_site_fract_x
 _atom_site_fract_y
 _atom_site_fract_z
 _atom_site_occupancy
  Hf  Hf0  1  0.824640  0.824284  0.499424  1
  Hf  Hf1  1  0.175716  0.175360  0.000576  1
  Hf  Hf2  1  0.495667  0.153144  0.531025  1
  Hf  Hf3  1  0.503886  0.846604  0.031905  1
  Hf  Hf4  1  0.653671  0.001923  0.282261  1
  Hf  Hf5  1  0.346647  0.997923  0.782254  1
  Hf  Hf6  1  0.846856  0.504333  0.968975  1
  Hf  Hf7  1  0.153396  0.496114  0.468095  1
  Hf  Hf8  1  0.002077  0.653353  0.717746  1
  Hf  Hf9  1  0.998077  0.346329  0.217739  1
  Hf  Hf10  1  0.497897  0.355820  0.127399  1
  Hf  Hf11  1  0.501102  0.644740  0.626308  1
  Hf  Hf12  1  0.853468  0.001583  0.875663  1
  Hf  Hf13  1  0.146928  0.997988  0.375121  1
  Hf  Hf14  1  0.644180  0.502103  0.372601  1
  Hf  Hf15  1  0.355260  0.498898  0.873692  1
  Hf  Hf16  1  0.002012  0.853072  0.124879  1
  Hf  Hf17  1  0.998417  0.146532  0.624337  1
  Nb  Nb18  1  0.675309  0.324691  0.750000  1
  Si  Si19  1  0.796555  0.147213  0.071862  1
  Si  Si20  1  0.203547  0.852988  0.571899  1
  Si  Si21  1  0.647003  0.703148  0.822368  1
  Si  Si22  1  0.352823  0.298135  0.322509  1
  Si  Si23  1  0.852787  0.203445  0.428138  1
  Si  Si24  1  0.147012  0.796453  0.928101  1
  Si  Si25  1  0.701865  0.647177  0.177491  1
  Si  Si26  1  0.296852  0.352997  0.677632  1
  Si  Si27  1  0.550036  0.199109  0.934970  1
  Si  Si28  1  0.448975  0.799805  0.433856  1
  Si  Si29  1  0.695705  0.954268  0.685529  1
  Si  Si30  1  0.304255  0.043669  0.185496  1
  Si  Si31  1  0.800891  0.449964  0.565030  1
  Si  Si32  1  0.200195  0.551025  0.066144  1
  Si  Si33  1  0.956331  0.695745  0.314504  1
  Si  Si34  1  0.045732  0.304295  0.814471  1
  W  W35  1  0.324228  0.675772  0.250000  1
