# generated using pymatgen
data_Tb4Y12MgHg3Ir4
_symmetry_space_group_name_H-M   'P 1'
_cell_length_a   9.64929531
_cell_length_b   9.65197184
_cell_length_c   9.65197200
_cell_angle_alpha   59.99999946
_cell_angle_beta   59.99082334
_cell_angle_gamma   59.99082372
_symmetry_Int_Tables_number   1
_chemical_formula_structural   Tb4Y12MgHg3Ir4
_chemical_formula_sum   'Tb4 Y12 Mg1 Hg3 Ir4'
_cell_volume   635.55398533
_cell_formula_units_Z   1
loop_
 _symmetry_equiv_pos_site_id
 _symmetry_equiv_pos_as_xyz
  1  'x, y, z'
loop_
 _atom_site_type_symbol
 _atom_site_label
 _atom_site_symmetry_multiplicity
 _atom_site_fract_x
 _atom_site_fract_y
 _atom_site_fract_z
 _atom_site_occupancy
  Tb  Tb0  1  0.600203  0.598311  0.598311  1
  Tb  Tb1  1  0.600203  0.598311  0.203174  1
  Tb  Tb2  1  0.600203  0.203174  0.598311  1
  Tb  Tb3  1  0.193803  0.602065  0.602065  1
  Y  Y4  1  0.059422  0.440384  0.440384  1
  Y  Y5  1  0.436969  0.062300  0.062300  1
  Y  Y6  1  0.436969  0.062300  0.438430  1
  Y  Y7  1  0.059422  0.440384  0.059808  1
  Y  Y8  1  0.436969  0.438430  0.062300  1
  Y  Y9  1  0.059422  0.059808  0.440384  1
  Y  Y10  1  0.185783  0.812838  0.812838  1
  Y  Y11  1  0.811893  0.187395  0.187395  1
  Y  Y12  1  0.811893  0.187395  0.813317  1
  Y  Y13  1  0.185783  0.812838  0.188541  1
  Y  Y14  1  0.811893  0.813317  0.187395  1
  Y  Y15  1  0.185783  0.188541  0.812838  1
  Mg  Mg16  1  0.536309  0.821231  0.821231  1
  Hg  Hg17  1  0.830975  0.836233  0.836233  1
  Hg  Hg18  1  0.830975  0.836233  0.496561  1
  Hg  Hg19  1  0.830975  0.496561  0.836233  1
  Ir  Ir20  1  0.390455  0.393619  0.393619  1
  Ir  Ir21  1  0.390455  0.393619  0.822306  1
  Ir  Ir22  1  0.390455  0.822306  0.393619  1
  Ir  Ir23  1  0.822786  0.392405  0.392405  1
