# generated using pymatgen
data_Ho3ErSi4Ir3Os
_symmetry_space_group_name_H-M   'P 1'
_cell_length_a   4.25625200
_cell_length_b   6.85534480
_cell_length_c   7.34661349
_cell_angle_alpha   90.15352638
_cell_angle_beta   90.00000000
_cell_angle_gamma   90.00000000
_symmetry_Int_Tables_number   1
_chemical_formula_structural   Ho3ErSi4Ir3Os
_chemical_formula_sum   'Ho3 Er1 Si4 Ir3 Os1'
_cell_volume   214.35927013
_cell_formula_units_Z   1
loop_
 _symmetry_equiv_pos_site_id
 _symmetry_equiv_pos_as_xyz
  1  'x, y, z'
loop_
 _atom_site_type_symbol
 _atom_site_label
 _atom_site_symmetry_multiplicity
 _atom_site_fract_x
 _atom_site_fract_y
 _atom_site_fract_z
 _atom_site_occupancy
  Ho  Ho0  1  0.750000  0.497968  0.812438  1
  Ho  Ho1  1  0.250000  0.998990  0.315293  1
  Ho  Ho2  1  0.250000  0.504634  0.186422  1
  Er  Er3  1  0.750000  0.999069  0.685903  1
  Si  Si4  1  0.250000  0.701756  0.616519  1
  Si  Si5  1  0.250000  0.198628  0.890868  1
  Si  Si6  1  0.750000  0.299137  0.388178  1
  Si  Si7  1  0.750000  0.799724  0.103681  1
  Ir  Ir8  1  0.250000  0.340878  0.566049  1
  Ir  Ir9  1  0.750000  0.657892  0.434061  1
  Ir  Ir10  1  0.750000  0.157854  0.066536  1
  Os  Os11  1  0.250000  0.843469  0.934053  1
