# generated using pymatgen
data_CeEr3(MgIr)4
_symmetry_space_group_name_H-M   'P 1'
_cell_length_a   7.04797673
_cell_length_b   4.06736200
_cell_length_c   8.60063329
_cell_angle_alpha   90.00000000
_cell_angle_beta   90.54321521
_cell_angle_gamma   90.00000000
_symmetry_Int_Tables_number   1
_chemical_formula_structural   CeEr3(MgIr)4
_chemical_formula_sum   'Ce1 Er3 Mg4 Ir4'
_cell_volume   246.54045886
_cell_formula_units_Z   1
loop_
 _symmetry_equiv_pos_site_id
 _symmetry_equiv_pos_as_xyz
  1  'x, y, z'
loop_
 _atom_site_type_symbol
 _atom_site_label
 _atom_site_symmetry_multiplicity
 _atom_site_fract_x
 _atom_site_fract_y
 _atom_site_fract_z
 _atom_site_occupancy
  Ce  Ce0  1  0.536778  0.750000  0.679228  1
  Er  Er1  1  0.957515  0.250000  0.174672  1
  Er  Er2  1  0.460606  0.250000  0.321290  1
  Er  Er3  1  0.039119  0.750000  0.829205  1
  Mg  Mg4  1  0.870235  0.250000  0.557191  1
  Mg  Mg5  1  0.361466  0.250000  0.945812  1
  Mg  Mg6  1  0.136149  0.750000  0.437887  1
  Mg  Mg7  1  0.634390  0.750000  0.060307  1
  Ir  Ir8  1  0.749211  0.250000  0.862458  1
  Ir  Ir9  1  0.259335  0.250000  0.631091  1
  Ir  Ir10  1  0.245569  0.750000  0.130891  1
  Ir  Ir11  1  0.749628  0.750000  0.369965  1
