# generated using pymatgen
data_Cs4LaSm3(SiSe4)4
_symmetry_space_group_name_H-M   'P 1'
_cell_length_a   7.13245139
_cell_length_b   9.94836099
_cell_length_c   13.53153497
_cell_angle_alpha   71.38832651
_cell_angle_beta   89.77166032
_cell_angle_gamma   89.94884737
_symmetry_Int_Tables_number   1
_chemical_formula_structural   Cs4LaSm3(SiSe4)4
_chemical_formula_sum   'Cs4 La1 Sm3 Si4 Se16'
_cell_volume   909.92663655
_cell_formula_units_Z   1
loop_
 _symmetry_equiv_pos_site_id
 _symmetry_equiv_pos_as_xyz
  1  'x, y, z'
loop_
 _atom_site_type_symbol
 _atom_site_label
 _atom_site_symmetry_multiplicity
 _atom_site_fract_x
 _atom_site_fract_y
 _atom_site_fract_z
 _atom_site_occupancy
  Cs  Cs0  1  0.257365  0.433150  0.388272  1
  Cs  Cs1  1  0.757646  0.566520  0.112033  1
  Cs  Cs2  1  0.743720  0.567219  0.609847  1
  Cs  Cs3  1  0.242233  0.433212  0.888722  1
  La  La4  1  0.299110  0.953434  0.865537  1
  Sm  Sm5  1  0.195500  0.954784  0.364638  1
  Sm  Sm6  1  0.696331  0.045945  0.135530  1
  Sm  Sm7  1  0.803673  0.046338  0.634043  1
  Si  Si8  1  0.746417  0.165956  0.354668  1
  Si  Si9  1  0.246535  0.832374  0.148248  1
  Si  Si10  1  0.252782  0.832546  0.643845  1
  Si  Si11  1  0.753722  0.168965  0.853540  1
  Se  Se12  1  0.022971  0.202239  0.754239  1
  Se  Se13  1  0.780800  0.934384  0.455503  1
  Se  Se14  1  0.524633  0.208484  0.728251  1
  Se  Se15  1  0.729601  0.936474  0.955572  1
  Se  Se16  1  0.762407  0.310815  0.454239  1
  Se  Se17  1  0.972590  0.804188  0.243299  1
  Se  Se18  1  0.262392  0.683230  0.051671  1
  Se  Se19  1  0.219620  0.065319  0.544945  1
  Se  Se20  1  0.736426  0.311525  0.954879  1
  Se  Se21  1  0.477897  0.794149  0.271873  1
  Se  Se22  1  0.017499  0.790826  0.767044  1
  Se  Se23  1  0.238329  0.689129  0.543416  1
  Se  Se24  1  0.474159  0.195123  0.259057  1
  Se  Se25  1  0.976795  0.205524  0.229161  1
  Se  Se26  1  0.526819  0.802483  0.738337  1
  Se  Se27  1  0.282027  0.065664  0.049591  1
