# generated using pymatgen
data_K3Mn3V4O16
_symmetry_space_group_name_H-M   'P 1'
_cell_length_a   5.25112321
_cell_length_b   7.55633898
_cell_length_c   11.06983843
_cell_angle_alpha   102.19753855
_cell_angle_beta   89.47050683
_cell_angle_gamma   100.50612424
_symmetry_Int_Tables_number   1
_chemical_formula_structural   K3Mn3V4O16
_chemical_formula_sum   'K3 Mn3 V4 O16'
_cell_volume   421.93364198
_cell_formula_units_Z   1
loop_
 _symmetry_equiv_pos_site_id
 _symmetry_equiv_pos_as_xyz
  1  'x, y, z'
loop_
 _atom_site_type_symbol
 _atom_site_label
 _atom_site_symmetry_multiplicity
 _atom_site_fract_x
 _atom_site_fract_y
 _atom_site_fract_z
 _atom_site_occupancy
  K  K0  1  0.940545  0.254986  0.520385  1
  K  K1  1  0.000000  0.000000  0.000000  1
  K  K2  1  0.059455  0.745014  0.479615  1
  Mn  Mn3  1  0.015156  0.563458  0.139375  1
  Mn  Mn4  1  0.984844  0.436542  0.860625  1
  Mn  Mn5  1  0.500000  0.500000  0.000000  1
  V  V6  1  0.484836  0.675312  0.754434  1
  V  V7  1  0.557734  0.876645  0.241198  1
  V  V8  1  0.515164  0.324688  0.245566  1
  V  V9  1  0.442266  0.123355  0.758802  1
  O  O10  1  0.673157  0.607927  0.864754  1
  O  O11  1  0.759833  0.240159  0.746947  1
  O  O12  1  0.326843  0.392073  0.135246  1
  O  O13  1  0.360067  0.336254  0.376494  1
  O  O14  1  0.276799  0.259232  0.868447  1
  O  O15  1  0.639933  0.663746  0.623506  1
  O  O16  1  0.819804  0.469155  0.274073  1
  O  O17  1  0.289538  0.072323  0.621341  1
  O  O18  1  0.723201  0.740768  0.131553  1
  O  O19  1  0.446641  0.912940  0.815826  1
  O  O20  1  0.203578  0.616046  0.990496  1
  O  O21  1  0.710462  0.927677  0.378659  1
  O  O22  1  0.240167  0.759841  0.253053  1
  O  O23  1  0.553359  0.087060  0.184174  1
  O  O24  1  0.796422  0.383954  0.009504  1
  O  O25  1  0.180196  0.530845  0.725927  1
