# generated using pymatgen
data_La2Nd3DyTaNbO14
_symmetry_space_group_name_H-M   'P 1'
_cell_length_a   6.67852100
_cell_length_b   6.66314290
_cell_length_c   7.72806500
_cell_angle_alpha   90.00000000
_cell_angle_beta   90.00000000
_cell_angle_gamma   108.84890936
_symmetry_Int_Tables_number   1
_chemical_formula_structural   La2Nd3DyTaNbO14
_chemical_formula_sum   'La2 Nd3 Dy1 Ta1 Nb1 O14'
_cell_volume   325.45646822
_cell_formula_units_Z   1
loop_
 _symmetry_equiv_pos_site_id
 _symmetry_equiv_pos_as_xyz
  1  'x, y, z'
loop_
 _atom_site_type_symbol
 _atom_site_label
 _atom_site_symmetry_multiplicity
 _atom_site_fract_x
 _atom_site_fract_y
 _atom_site_fract_z
 _atom_site_occupancy
  La  La0  1  0.520949  0.516954  0.498745  1
  La  La1  1  0.520432  0.516479  0.001256  1
  Nd  Nd2  1  0.004819  0.463058  0.750519  1
  Nd  Nd3  1  0.533730  0.002520  0.750405  1
  Nd  Nd4  1  0.461916  0.002580  0.249658  1
  Dy  Dy5  1  0.002752  0.531157  0.249230  1
  Ta  Ta6  1  0.999884  0.000340  0.002090  1
  Nb  Nb7  1  0.000322  0.000621  0.498094  1
  O  O8  1  0.943739  0.058108  0.751729  1
  O  O9  1  0.059007  0.936319  0.248540  1
  O  O10  1  0.353616  0.636202  0.250012  1
  O  O11  1  0.641864  0.367601  0.749999  1
  O  O12  1  0.371140  0.632163  0.750016  1
  O  O13  1  0.644324  0.375583  0.249966  1
  O  O14  1  0.310118  0.069998  0.969482  1
  O  O15  1  0.679385  0.922979  0.472176  1
  O  O16  1  0.311707  0.070715  0.530154  1
  O  O17  1  0.681348  0.923639  0.028423  1
  O  O18  1  0.045054  0.305137  0.459701  1
  O  O19  1  0.934853  0.682678  0.975353  1
  O  O20  1  0.934191  0.680954  0.523930  1
  O  O21  1  0.044850  0.304216  0.040521  1
