# generated using pymatgen
data_Ho10Ag3Rh
_symmetry_space_group_name_H-M   'P 1'
_cell_length_a   9.50127800
_cell_length_b   9.50127840
_cell_length_c   9.56325200
_cell_angle_alpha   90.00000000
_cell_angle_beta   90.00000000
_cell_angle_gamma   120.00000557
_symmetry_Int_Tables_number   1
_chemical_formula_structural   Ho10Ag3Rh
_chemical_formula_sum   'Ho20 Ag6 Rh2'
_cell_volume   747.65333746
_cell_formula_units_Z   2
loop_
 _symmetry_equiv_pos_site_id
 _symmetry_equiv_pos_as_xyz
  1  'x, y, z'
loop_
 _atom_site_type_symbol
 _atom_site_label
 _atom_site_symmetry_multiplicity
 _atom_site_fract_x
 _atom_site_fract_y
 _atom_site_fract_z
 _atom_site_occupancy
  Ho  Ho0  1  0.000000  0.000000  0.500000  1
  Ho  Ho1  1  0.000000  0.000000  0.000000  1
  Ho  Ho2  1  0.543209  0.456791  0.250000  1
  Ho  Ho3  1  0.543209  0.086420  0.250000  1
  Ho  Ho4  1  0.913580  0.456791  0.250000  1
  Ho  Ho5  1  0.456791  0.543209  0.750000  1
  Ho  Ho6  1  0.456791  0.913580  0.750000  1
  Ho  Ho7  1  0.086420  0.543209  0.750000  1
  Ho  Ho8  1  0.208325  0.791675  0.442123  1
  Ho  Ho9  1  0.208325  0.416652  0.442123  1
  Ho  Ho10  1  0.583348  0.791675  0.442123  1
  Ho  Ho11  1  0.791675  0.208325  0.557877  1
  Ho  Ho12  1  0.791675  0.583348  0.557877  1
  Ho  Ho13  1  0.416652  0.208325  0.557877  1
  Ho  Ho14  1  0.791675  0.208325  0.942123  1
  Ho  Ho15  1  0.791675  0.583348  0.942123  1
  Ho  Ho16  1  0.416652  0.208325  0.942123  1
  Ho  Ho17  1  0.208325  0.791675  0.057877  1
  Ho  Ho18  1  0.208325  0.416652  0.057877  1
  Ho  Ho19  1  0.583348  0.791675  0.057877  1
  Ag  Ag20  1  0.883017  0.116983  0.250000  1
  Ag  Ag21  1  0.883017  0.766034  0.250000  1
  Ag  Ag22  1  0.233966  0.116983  0.250000  1
  Ag  Ag23  1  0.116983  0.883017  0.750000  1
  Ag  Ag24  1  0.116983  0.233966  0.750000  1
  Ag  Ag25  1  0.766034  0.883017  0.750000  1
  Rh  Rh26  1  0.333333  0.666667  0.250000  1
  Rh  Rh27  1  0.666667  0.333333  0.750000  1
