# generated using pymatgen
data_NdHo(NbSe2)6
_symmetry_space_group_name_H-M   'P 1'
_cell_length_a   6.10325500
_cell_length_b   6.10325536
_cell_length_c   14.64713700
_cell_angle_alpha   90.00000000
_cell_angle_beta   90.00000000
_cell_angle_gamma   120.00000348
_symmetry_Int_Tables_number   1
_chemical_formula_structural   NdHo(NbSe2)6
_chemical_formula_sum   'Nd1 Ho1 Nb6 Se12'
_cell_volume   472.50500896
_cell_formula_units_Z   1
loop_
 _symmetry_equiv_pos_site_id
 _symmetry_equiv_pos_as_xyz
  1  'x, y, z'
loop_
 _atom_site_type_symbol
 _atom_site_label
 _atom_site_symmetry_multiplicity
 _atom_site_fract_x
 _atom_site_fract_y
 _atom_site_fract_z
 _atom_site_occupancy
  Nd  Nd0  1  0.666667  0.333333  0.750000  1
  Ho  Ho1  1  0.333333  0.666667  0.250000  1
  Nb  Nb2  1  0.333333  0.666667  0.005786  1
  Nb  Nb3  1  0.000000  0.000000  0.004643  1
  Nb  Nb4  1  0.666667  0.333333  0.002215  1
  Nb  Nb5  1  0.333333  0.666667  0.494214  1
  Nb  Nb6  1  0.000000  0.000000  0.495357  1
  Nb  Nb7  1  0.666667  0.333333  0.497785  1
  Se  Se8  1  0.672419  0.664888  0.381380  1
  Se  Se9  1  0.665946  0.675137  0.609960  1
  Se  Se10  1  0.009191  0.675137  0.890040  1
  Se  Se11  1  0.665946  0.990809  0.890040  1
  Se  Se12  1  0.672419  0.007531  0.118620  1
  Se  Se13  1  0.335112  0.007531  0.381380  1
  Se  Se14  1  0.009191  0.334054  0.609960  1
  Se  Se15  1  0.324863  0.990809  0.609960  1
  Se  Se16  1  0.992469  0.664888  0.118620  1
  Se  Se17  1  0.324863  0.334054  0.890040  1
  Se  Se18  1  0.992469  0.327581  0.381380  1
  Se  Se19  1  0.335112  0.327581  0.118620  1
