# generated using pymatgen
data_Tb15ErMgCo4Ag3
_symmetry_space_group_name_H-M   'P 1'
_cell_length_a   9.46132689
_cell_length_b   9.47821770
_cell_length_c   9.47821825
_cell_angle_alpha   60.31913508
_cell_angle_beta   60.26690089
_cell_angle_gamma   60.26689633
_symmetry_Int_Tables_number   1
_chemical_formula_structural   Tb15ErMgCo4Ag3
_chemical_formula_sum   'Tb15 Er1 Mg1 Co4 Ag3'
_cell_volume   604.88896212
_cell_formula_units_Z   1
loop_
 _symmetry_equiv_pos_site_id
 _symmetry_equiv_pos_as_xyz
  1  'x, y, z'
loop_
 _atom_site_type_symbol
 _atom_site_label
 _atom_site_symmetry_multiplicity
 _atom_site_fract_x
 _atom_site_fract_y
 _atom_site_fract_z
 _atom_site_occupancy
  Tb  Tb0  1  0.185040  0.813427  0.813427  1
  Tb  Tb1  1  0.184322  0.814315  0.186285  1
  Tb  Tb2  1  0.808571  0.189053  0.812200  1
  Tb  Tb3  1  0.184322  0.186285  0.814315  1
  Tb  Tb4  1  0.808571  0.812200  0.189053  1
  Tb  Tb5  1  0.935212  0.562226  0.562227  1
  Tb  Tb6  1  0.563108  0.937347  0.937348  1
  Tb  Tb7  1  0.562223  0.937647  0.562397  1
  Tb  Tb8  1  0.936665  0.561878  0.938336  1
  Tb  Tb9  1  0.562223  0.562396  0.937648  1
  Tb  Tb10  1  0.936665  0.938335  0.561879  1
  Tb  Tb11  1  0.346694  0.345180  0.345180  1
  Tb  Tb12  1  0.346108  0.345647  0.963701  1
  Tb  Tb13  1  0.346108  0.963701  0.345647  1
  Tb  Tb14  1  0.950831  0.349941  0.349941  1
  Er  Er15  1  0.809411  0.188474  0.188474  1
  Mg  Mg16  1  0.290525  0.569708  0.569708  1
  Co  Co17  1  0.138037  0.142085  0.142085  1
  Co  Co18  1  0.139776  0.143193  0.576960  1
  Co  Co19  1  0.139776  0.576960  0.143193  1
  Co  Co20  1  0.577057  0.141980  0.141980  1
  Ag  Ag21  1  0.582678  0.583608  0.583608  1
  Ag  Ag22  1  0.583040  0.582514  0.251894  1
  Ag  Ag23  1  0.583040  0.251894  0.582514  1
