# generated using pymatgen
data_Ca4Nd4Zn3Si12Ir
_symmetry_space_group_name_H-M   'P 1'
_cell_length_a   8.17159100
_cell_length_b   8.21489474
_cell_length_c   8.58875000
_cell_angle_alpha   90.00736848
_cell_angle_beta   90.00000000
_cell_angle_gamma   119.82578120
_symmetry_Int_Tables_number   1
_chemical_formula_structural   Ca4Nd4Zn3Si12Ir
_chemical_formula_sum   'Ca4 Nd4 Zn3 Si12 Ir1'
_cell_volume   500.18304087
_cell_formula_units_Z   1
loop_
 _symmetry_equiv_pos_site_id
 _symmetry_equiv_pos_as_xyz
  1  'x, y, z'
loop_
 _atom_site_type_symbol
 _atom_site_label
 _atom_site_symmetry_multiplicity
 _atom_site_fract_x
 _atom_site_fract_y
 _atom_site_fract_z
 _atom_site_occupancy
  Ca  Ca0  1  0.501379  0.497520  0.745367  1
  Ca  Ca1  1  0.502243  0.496674  0.254606  1
  Ca  Ca2  1  0.996141  0.497520  0.745367  1
  Ca  Ca3  1  0.994431  0.496674  0.254606  1
  Nd  Nd4  1  0.501689  0.003377  0.745988  1
  Nd  Nd5  1  0.502291  0.004583  0.254101  1
  Nd  Nd6  1  0.000359  0.000717  0.749378  1
  Nd  Nd7  1  0.000379  0.000757  0.250972  1
  Zn  Zn8  1  0.667947  0.335893  0.997212  1
  Zn  Zn9  1  0.331738  0.663476  0.002425  1
  Zn  Zn10  1  0.332572  0.665144  0.498279  1
  Si  Si11  1  0.832095  0.164584  0.000719  1
  Si  Si12  1  0.167380  0.835513  0.999389  1
  Si  Si13  1  0.332490  0.164584  0.000719  1
  Si  Si14  1  0.163875  0.839349  0.500005  1
  Si  Si15  1  0.668135  0.835513  0.999389  1
  Si  Si16  1  0.831638  0.170144  0.500224  1
  Si  Si17  1  0.835308  0.670616  0.000709  1
  Si  Si18  1  0.675472  0.839349  0.500005  1
  Si  Si19  1  0.164143  0.328284  0.999374  1
  Si  Si20  1  0.338506  0.170144  0.500224  1
  Si  Si21  1  0.162103  0.324208  0.499998  1
  Si  Si22  1  0.830239  0.660478  0.500299  1
  Ir  Ir23  1  0.667451  0.334901  0.500643  1
