# generated using pymatgen
data_Ti6Mn11Si6Ir
_symmetry_space_group_name_H-M   'P 1'
_cell_length_a   4.10776400
_cell_length_b   5.81482600
_cell_length_c   12.32915000
_cell_angle_alpha   90.00000000
_cell_angle_beta   89.99986047
_cell_angle_gamma   90.00000000
_symmetry_Int_Tables_number   1
_chemical_formula_structural   Ti6Mn11Si6Ir
_chemical_formula_sum   'Ti6 Mn11 Si6 Ir1'
_cell_volume   294.49324973
_cell_formula_units_Z   1
loop_
 _symmetry_equiv_pos_site_id
 _symmetry_equiv_pos_as_xyz
  1  'x, y, z'
loop_
 _atom_site_type_symbol
 _atom_site_label
 _atom_site_symmetry_multiplicity
 _atom_site_fract_x
 _atom_site_fract_y
 _atom_site_fract_z
 _atom_site_occupancy
  Ti  Ti0  1  0.000000  0.986876  0.000000  1
  Ti  Ti1  1  0.499996  0.505868  0.171341  1
  Ti  Ti2  1  0.999999  0.000434  0.334126  1
  Ti  Ti3  1  0.499999  0.498846  0.500000  1
  Ti  Ti4  1  0.000001  0.000434  0.665875  1
  Ti  Ti5  1  0.500004  0.505868  0.828659  1
  Mn  Mn6  1  0.500001  0.748004  0.000000  1
  Mn  Mn7  1  0.999997  0.249150  0.169100  1
  Mn  Mn8  1  0.999998  0.750339  0.167691  1
  Mn  Mn9  1  0.499999  0.249143  0.333412  1
  Mn  Mn10  1  0.499999  0.751819  0.336814  1
  Mn  Mn11  1  0.000000  0.250460  0.500000  1
  Mn  Mn12  1  0.000000  0.750393  0.500000  1
  Mn  Mn13  1  0.500002  0.249143  0.666588  1
  Mn  Mn14  1  0.500002  0.751819  0.663186  1
  Mn  Mn15  1  0.000003  0.249150  0.830899  1
  Mn  Mn16  1  0.000002  0.750339  0.832308  1
  Si  Si17  1  0.000000  0.511584  0.000000  1
  Si  Si18  1  0.499997  0.993256  0.170392  1
  Si  Si19  1  0.999999  0.500883  0.334009  1
  Si  Si20  1  0.499999  0.000862  0.500000  1
  Si  Si21  1  0.000001  0.500883  0.665991  1
  Si  Si22  1  0.500001  0.993256  0.829609  1
  Ir  Ir23  1  0.500001  0.251190  0.000000  1
