# generated using pymatgen
data_YNiB4Os3
_symmetry_space_group_name_H-M   'P 1'
_cell_length_a   7.54982021
_cell_length_b   7.26389444
_cell_length_c   4.01132900
_cell_angle_alpha   90.00000000
_cell_angle_beta   90.00000000
_cell_angle_gamma   87.52384872
_symmetry_Int_Tables_number   1
_chemical_formula_structural   YNiB4Os3
_chemical_formula_sum   'Y2 Ni2 B8 Os6'
_cell_volume   219.78028057
_cell_formula_units_Z   2
loop_
 _symmetry_equiv_pos_site_id
 _symmetry_equiv_pos_as_xyz
  1  'x, y, z'
loop_
 _atom_site_type_symbol
 _atom_site_label
 _atom_site_symmetry_multiplicity
 _atom_site_fract_x
 _atom_site_fract_y
 _atom_site_fract_z
 _atom_site_occupancy
  Y  Y0  1  0.000000  0.000000  0.016030  1
  Y  Y1  1  0.500000  0.500000  0.611714  1
  Ni  Ni2  1  0.136043  0.383540  0.879418  1
  Ni  Ni3  1  0.863957  0.616460  0.879418  1
  B  B4  1  0.673920  0.781803  0.105615  1
  B  B5  1  0.326080  0.218197  0.105615  1
  B  B6  1  0.279940  0.835588  0.602907  1
  B  B7  1  0.720060  0.164412  0.602907  1
  B  B8  1  0.843649  0.690262  0.381433  1
  B  B9  1  0.156351  0.309738  0.381433  1
  B  B10  1  0.202859  0.671017  0.880678  1
  B  B11  1  0.797141  0.328983  0.880678  1
  Os  Os12  1  0.879881  0.367999  0.373645  1
  Os  Os13  1  0.120119  0.632001  0.373645  1
  Os  Os14  1  0.346518  0.115810  0.607218  1
  Os  Os15  1  0.653482  0.884190  0.607218  1
  Os  Os16  1  0.603691  0.151116  0.105216  1
  Os  Os17  1  0.396309  0.848884  0.105216  1
