# generated using pymatgen
data_TaTi2(ReSi)3
_symmetry_space_group_name_H-M   'P 1'
_cell_length_a   6.81125171
_cell_length_b   6.81125162
_cell_length_c   3.28727400
_cell_angle_alpha   90.00000000
_cell_angle_beta   90.00000000
_cell_angle_gamma   119.60379185
_symmetry_Int_Tables_number   1
_chemical_formula_structural   TaTi2(ReSi)3
_chemical_formula_sum   'Ta1 Ti2 Re3 Si3'
_cell_volume   132.59907189
_cell_formula_units_Z   1
loop_
 _symmetry_equiv_pos_site_id
 _symmetry_equiv_pos_as_xyz
  1  'x, y, z'
loop_
 _atom_site_type_symbol
 _atom_site_label
 _atom_site_symmetry_multiplicity
 _atom_site_fract_x
 _atom_site_fract_y
 _atom_site_fract_z
 _atom_site_occupancy
  Ta  Ta0  1  0.402346  0.402346  0.500000  1
  Ti  Ti1  1  0.596867  0.997908  0.500000  1
  Ti  Ti2  1  0.997908  0.596867  0.500000  1
  Re  Re3  1  0.740776  0.740776  0.000000  1
  Re  Re4  1  0.260100  0.001648  0.000000  1
  Re  Re5  1  0.001648  0.260100  0.000000  1
  Si  Si6  1  0.670652  0.331545  0.000000  1
  Si  Si7  1  0.331545  0.670652  0.000000  1
  Si  Si8  1  0.998158  0.998158  0.500000  1
