# generated using pymatgen
data_YbHo5Al18(Si3Os4)2
_symmetry_space_group_name_H-M   'P 1'
_cell_length_a   8.68981300
_cell_length_b   8.65465929
_cell_length_c   9.54558600
_cell_angle_alpha   90.00000000
_cell_angle_beta   90.00000000
_cell_angle_gamma   120.13445911
_symmetry_Int_Tables_number   1
_chemical_formula_structural   YbHo5Al18(Si3Os4)2
_chemical_formula_sum   'Yb1 Ho5 Al18 Si6 Os8'
_cell_volume   620.87419757
_cell_formula_units_Z   1
loop_
 _symmetry_equiv_pos_site_id
 _symmetry_equiv_pos_as_xyz
  1  'x, y, z'
loop_
 _atom_site_type_symbol
 _atom_site_label
 _atom_site_symmetry_multiplicity
 _atom_site_fract_x
 _atom_site_fract_y
 _atom_site_fract_z
 _atom_site_occupancy
  Yb  Yb0  1  0.193621  0.387241  0.250000  1
  Ho  Ho1  1  0.805849  0.611699  0.750000  1
  Ho  Ho2  1  0.609327  0.806836  0.250000  1
  Ho  Ho3  1  0.390885  0.192805  0.750000  1
  Ho  Ho4  1  0.197510  0.806836  0.250000  1
  Ho  Ho5  1  0.801919  0.192805  0.750000  1
  Al  Al6  1  0.165395  0.330790  0.577898  1
  Al  Al7  1  0.834668  0.669337  0.420679  1
  Al  Al8  1  0.669848  0.834689  0.577158  1
  Al  Al9  1  0.834668  0.669337  0.079321  1
  Al  Al10  1  0.329904  0.165737  0.422675  1
  Al  Al11  1  0.165395  0.330790  0.922102  1
  Al  Al12  1  0.164841  0.834689  0.577158  1
  Al  Al13  1  0.329904  0.165737  0.077325  1
  Al  Al14  1  0.835833  0.165737  0.422675  1
  Al  Al15  1  0.669848  0.834689  0.922842  1
  Al  Al16  1  0.835833  0.165737  0.077325  1
  Al  Al17  1  0.164841  0.834689  0.922842  1
  Al  Al18  1  0.873564  0.432960  0.250000  1
  Al  Al19  1  0.127556  0.566777  0.750000  1
  Al  Al20  1  0.559395  0.432960  0.250000  1
  Al  Al21  1  0.439222  0.566777  0.750000  1
  Al  Al22  1  0.999804  0.999610  0.250000  1
  Al  Al23  1  0.000700  0.001399  0.750000  1
  Si  Si24  1  0.331597  0.663194  0.040510  1
  Si  Si25  1  0.667907  0.335814  0.960118  1
  Si  Si26  1  0.667907  0.335814  0.539882  1
  Si  Si27  1  0.331597  0.663194  0.459490  1
  Si  Si28  1  0.563699  0.127400  0.250000  1
  Si  Si29  1  0.436460  0.872918  0.750000  1
  Os  Os30  1  0.500227  0.000453  0.999174  1
  Os  Os31  1  0.999128  0.500442  0.998842  1
  Os  Os32  1  0.500227  0.000453  0.500826  1
  Os  Os33  1  0.501313  0.500442  0.998842  1
  Os  Os34  1  0.999128  0.500442  0.501158  1
  Os  Os35  1  0.501313  0.500442  0.501158  1
  Os  Os36  1  0.999583  0.999166  0.999816  1
  Os  Os37  1  0.999583  0.999166  0.500184  1
