# generated using pymatgen
data_Er8Th4Tc3Rh
_symmetry_space_group_name_H-M   'P 1'
_cell_length_a   6.32541201
_cell_length_b   7.27374834
_cell_length_c   9.47610300
_cell_angle_alpha   90.00000000
_cell_angle_beta   90.00000000
_cell_angle_gamma   89.89303632
_symmetry_Int_Tables_number   1
_chemical_formula_structural   Er8Th4Tc3Rh
_chemical_formula_sum   'Er8 Th4 Tc3 Rh1'
_cell_volume   435.98957568
_cell_formula_units_Z   1
loop_
 _symmetry_equiv_pos_site_id
 _symmetry_equiv_pos_as_xyz
  1  'x, y, z'
loop_
 _atom_site_type_symbol
 _atom_site_label
 _atom_site_symmetry_multiplicity
 _atom_site_fract_x
 _atom_site_fract_y
 _atom_site_fract_z
 _atom_site_occupancy
  Er  Er0  1  0.662294  0.174672  0.065535  1
  Er  Er1  1  0.171242  0.325260  0.931631  1
  Er  Er2  1  0.836788  0.675519  0.434993  1
  Er  Er3  1  0.334096  0.823600  0.566897  1
  Er  Er4  1  0.334096  0.823600  0.933103  1
  Er  Er5  1  0.836788  0.675519  0.065007  1
  Er  Er6  1  0.171242  0.325260  0.568369  1
  Er  Er7  1  0.662294  0.174672  0.434465  1
  Th  Th8  1  0.861056  0.954322  0.750000  1
  Th  Th9  1  0.355116  0.550588  0.250000  1
  Th  Th10  1  0.645069  0.451543  0.750000  1
  Th  Th11  1  0.148712  0.043010  0.250000  1
  Tc  Tc12  1  0.019490  0.629560  0.750000  1
  Tc  Tc13  1  0.524814  0.870308  0.250000  1
  Tc  Tc14  1  0.480569  0.129622  0.750000  1
  Rh  Rh15  1  0.956333  0.372944  0.250000  1
