# generated using pymatgen
data_Dy10Ho10CoBi8Rh3
_symmetry_space_group_name_H-M   'P 1'
_cell_length_a   8.01528902
_cell_length_b   8.97917600
_cell_length_c   12.44215814
_cell_angle_alpha   90.00000000
_cell_angle_beta   89.83446294
_cell_angle_gamma   90.00000000
_symmetry_Int_Tables_number   1
_chemical_formula_structural   Dy10Ho10CoBi8Rh3
_chemical_formula_sum   'Dy10 Ho10 Co1 Bi8 Rh3'
_cell_volume   895.46697958
_cell_formula_units_Z   1
loop_
 _symmetry_equiv_pos_site_id
 _symmetry_equiv_pos_as_xyz
  1  'x, y, z'
loop_
 _atom_site_type_symbol
 _atom_site_label
 _atom_site_symmetry_multiplicity
 _atom_site_fract_x
 _atom_site_fract_y
 _atom_site_fract_z
 _atom_site_occupancy
  Dy  Dy0  1  0.345639  0.750000  0.699629  1
  Dy  Dy1  1  0.657600  0.250000  0.294117  1
  Dy  Dy2  1  0.842807  0.250000  0.794005  1
  Dy  Dy3  1  0.157320  0.750000  0.205602  1
  Dy  Dy4  1  0.879685  0.750000  0.806168  1
  Dy  Dy5  1  0.120861  0.250000  0.193351  1
  Dy  Dy6  1  0.379113  0.250000  0.693504  1
  Dy  Dy7  1  0.614784  0.750000  0.311688  1
  Dy  Dy8  1  0.950015  0.250000  0.501342  1
  Dy  Dy9  1  0.547698  0.250000  0.000795  1
  Ho  Ho10  1  0.676510  0.545295  0.564032  1
  Ho  Ho11  1  0.324112  0.465463  0.436549  1
  Ho  Ho12  1  0.177789  0.457487  0.934367  1
  Ho  Ho13  1  0.324112  0.034537  0.436549  1
  Ho  Ho14  1  0.821788  0.541790  0.065572  1
  Ho  Ho15  1  0.676510  0.954705  0.564032  1
  Ho  Ho16  1  0.821788  0.958210  0.065572  1
  Ho  Ho17  1  0.177789  0.042513  0.934367  1
  Ho  Ho18  1  0.051660  0.750000  0.498863  1
  Ho  Ho19  1  0.450881  0.750000  0.998313  1
  Co  Co20  1  0.432394  0.750000  0.491706  1
  Bi  Bi21  1  0.570995  0.509979  0.826199  1
  Bi  Bi22  1  0.429003  0.491075  0.173689  1
  Bi  Bi23  1  0.071800  0.490648  0.672710  1
  Bi  Bi24  1  0.429003  0.008925  0.173689  1
  Bi  Bi25  1  0.928506  0.510200  0.327469  1
  Bi  Bi26  1  0.570995  0.990021  0.826199  1
  Bi  Bi27  1  0.928506  0.989800  0.327469  1
  Bi  Bi28  1  0.071800  0.009352  0.672710  1
  Rh  Rh29  1  0.070258  0.750000  0.990566  1
  Rh  Rh30  1  0.928689  0.250000  0.010002  1
  Rh  Rh31  1  0.569590  0.250000  0.509171  1
