# generated using pymatgen
data_Zr4Ti3Re5
_symmetry_space_group_name_H-M   'P 1'
_cell_length_a   5.34189207
_cell_length_b   5.30102687
_cell_length_c   8.81331200
_cell_angle_alpha   90.00000000
_cell_angle_beta   90.00000000
_cell_angle_gamma   119.74679341
_symmetry_Int_Tables_number   1
_chemical_formula_structural   Zr4Ti3Re5
_chemical_formula_sum   'Zr4 Ti3 Re5'
_cell_volume   216.68424698
_cell_formula_units_Z   1
loop_
 _symmetry_equiv_pos_site_id
 _symmetry_equiv_pos_as_xyz
  1  'x, y, z'
loop_
 _atom_site_type_symbol
 _atom_site_label
 _atom_site_symmetry_multiplicity
 _atom_site_fract_x
 _atom_site_fract_y
 _atom_site_fract_z
 _atom_site_occupancy
  Zr  Zr0  1  0.333369  0.666672  0.058619  1
  Zr  Zr1  1  0.333369  0.666672  0.441381  1
  Zr  Zr2  1  0.669266  0.334618  0.566764  1
  Zr  Zr3  1  0.669266  0.334618  0.933236  1
  Ti  Ti4  1  0.994984  0.997491  0.998844  1
  Ti  Ti5  1  0.338141  0.169086  0.250000  1
  Ti  Ti6  1  0.994984  0.997491  0.501156  1
  Re  Re7  1  0.833905  0.173258  0.250000  1
  Re  Re8  1  0.833868  0.660815  0.250000  1
  Re  Re9  1  0.168981  0.337217  0.750000  1
  Re  Re10  1  0.168992  0.831686  0.750000  1
  Re  Re11  1  0.660876  0.830376  0.750000  1
