# generated using pymatgen
data_Dy3Lu5Tc(B8Os)3
_symmetry_space_group_name_H-M   'P 1'
_cell_length_a   3.62223400
_cell_length_b   9.06973097
_cell_length_c   11.45890609
_cell_angle_alpha   89.96088442
_cell_angle_beta   90.00000000
_cell_angle_gamma   90.00000000
_symmetry_Int_Tables_number   1
_chemical_formula_structural   Dy3Lu5Tc(B8Os)3
_chemical_formula_sum   'Dy3 Lu5 Tc1 B24 Os3'
_cell_volume   376.45577744
_cell_formula_units_Z   1
loop_
 _symmetry_equiv_pos_site_id
 _symmetry_equiv_pos_as_xyz
  1  'x, y, z'
loop_
 _atom_site_type_symbol
 _atom_site_label
 _atom_site_symmetry_multiplicity
 _atom_site_fract_x
 _atom_site_fract_y
 _atom_site_fract_z
 _atom_site_occupancy
  Dy  Dy0  1  0.000000  0.323125  0.413012  1
  Dy  Dy1  1  0.000000  0.678047  0.583704  1
  Dy  Dy2  1  0.000000  0.819611  0.087927  1
  Lu  Lu3  1  0.000000  0.178697  0.915107  1
  Lu  Lu4  1  0.000000  0.942846  0.372465  1
  Lu  Lu5  1  0.000000  0.056877  0.627527  1
  Lu  Lu6  1  0.000000  0.444413  0.127902  1
  Lu  Lu7  1  0.000000  0.556256  0.872456  1
  Tc  Tc8  1  0.000000  0.638204  0.320448  1
  B  B9  1  0.500000  0.553315  0.432792  1
  B  B10  1  0.500000  0.445904  0.567726  1
  B  B11  1  0.500000  0.054333  0.066304  1
  B  B12  1  0.500000  0.946927  0.933164  1
  B  B13  1  0.500000  0.749848  0.418958  1
  B  B14  1  0.500000  0.250325  0.581271  1
  B  B15  1  0.500000  0.249611  0.079546  1
  B  B16  1  0.500000  0.750488  0.919164  1
  B  B17  1  0.500000  0.792046  0.265831  1
  B  B18  1  0.500000  0.207744  0.735036  1
  B  B19  1  0.500000  0.291558  0.232984  1
  B  B20  1  0.500000  0.708861  0.766050  1
  B  B21  1  0.500000  0.630234  0.184898  1
  B  B22  1  0.500000  0.368538  0.816175  1
  B  B23  1  0.500000  0.130452  0.314576  1
  B  B24  1  0.500000  0.870310  0.684973  1
  B  B25  1  0.500000  0.982393  0.213027  1
  B  B26  1  0.500000  0.018820  0.787557  1
  B  B27  1  0.500000  0.481657  0.286387  1
  B  B28  1  0.500000  0.517170  0.713819  1
  B  B29  1  0.500000  0.603296  0.028042  1
  B  B30  1  0.500000  0.394788  0.970816  1
  B  B31  1  0.500000  0.103713  0.471573  1
  B  B32  1  0.500000  0.897611  0.528861  1
  Os  Os33  1  0.000000  0.360946  0.680847  1
  Os  Os34  1  0.000000  0.138032  0.178207  1
  Os  Os35  1  0.000000  0.863000  0.820866  1
