# generated using pymatgen
data_Zr4ZnGe(B2Ru5)2
_symmetry_space_group_name_H-M   'P 1'
_cell_length_a   9.40927000
_cell_length_b   9.40927000
_cell_length_c   3.08360600
_cell_angle_alpha   90.00000000
_cell_angle_beta   90.00000000
_cell_angle_gamma   90.00000000
_symmetry_Int_Tables_number   1
_chemical_formula_structural   Zr4ZnGe(B2Ru5)2
_chemical_formula_sum   'Zr4 Zn1 Ge1 B4 Ru10'
_cell_volume   273.00508966
_cell_formula_units_Z   1
loop_
 _symmetry_equiv_pos_site_id
 _symmetry_equiv_pos_as_xyz
  1  'x, y, z'
loop_
 _atom_site_type_symbol
 _atom_site_label
 _atom_site_symmetry_multiplicity
 _atom_site_fract_x
 _atom_site_fract_y
 _atom_site_fract_z
 _atom_site_occupancy
  Zr  Zr0  1  0.674289  0.175772  0.000000  1
  Zr  Zr1  1  0.325711  0.824228  0.000000  1
  Zr  Zr2  1  0.175772  0.325711  0.000000  1
  Zr  Zr3  1  0.824228  0.674289  0.000000  1
  Zn  Zn4  1  0.500000  0.500000  0.000000  1
  Ge  Ge5  1  0.000000  0.000000  0.000000  1
  B  B6  1  0.126271  0.623045  0.000000  1
  B  B7  1  0.873729  0.376955  0.000000  1
  B  B8  1  0.623045  0.873729  0.000000  1
  B  B9  1  0.376955  0.126271  0.000000  1
  Ru  Ru10  1  0.213391  0.069313  0.500000  1
  Ru  Ru11  1  0.786609  0.930687  0.500000  1
  Ru  Ru12  1  0.069313  0.786609  0.500000  1
  Ru  Ru13  1  0.716213  0.428100  0.500000  1
  Ru  Ru14  1  0.930687  0.213391  0.500000  1
  Ru  Ru15  1  0.283787  0.571900  0.500000  1
  Ru  Ru16  1  0.571900  0.716213  0.500000  1
  Ru  Ru17  1  0.428100  0.283787  0.500000  1
  Ru  Ru18  1  0.500000  0.000000  0.500000  1
  Ru  Ru19  1  0.000000  0.500000  0.500000  1
