# generated using pymatgen
data_CaScB6Rh
_symmetry_space_group_name_H-M   'P 1'
_cell_length_a   3.55713700
_cell_length_b   9.00703800
_cell_length_c   11.38921400
_cell_angle_alpha   90.00000000
_cell_angle_beta   90.00000000
_cell_angle_gamma   90.00000000
_symmetry_Int_Tables_number   1
_chemical_formula_structural   CaScB6Rh
_chemical_formula_sum   'Ca4 Sc4 B24 Rh4'
_cell_volume   364.90208114
_cell_formula_units_Z   4
loop_
 _symmetry_equiv_pos_site_id
 _symmetry_equiv_pos_as_xyz
  1  'x, y, z'
loop_
 _atom_site_type_symbol
 _atom_site_label
 _atom_site_symmetry_multiplicity
 _atom_site_fract_x
 _atom_site_fract_y
 _atom_site_fract_z
 _atom_site_occupancy
  Ca  Ca0  1  0.000000  0.321388  0.415230  1
  Ca  Ca1  1  0.000000  0.678612  0.584770  1
  Ca  Ca2  1  0.000000  0.821388  0.084770  1
  Ca  Ca3  1  0.000000  0.178612  0.915230  1
  Sc  Sc4  1  0.000000  0.946168  0.374416  1
  Sc  Sc5  1  0.000000  0.053832  0.625584  1
  Sc  Sc6  1  0.000000  0.446168  0.125584  1
  Sc  Sc7  1  0.000000  0.553832  0.874416  1
  B  B8  1  0.500000  0.556295  0.432419  1
  B  B9  1  0.500000  0.443705  0.567581  1
  B  B10  1  0.500000  0.056295  0.067581  1
  B  B11  1  0.500000  0.943705  0.932419  1
  B  B12  1  0.500000  0.754157  0.418193  1
  B  B13  1  0.500000  0.245843  0.581807  1
  B  B14  1  0.500000  0.254157  0.081807  1
  B  B15  1  0.500000  0.745843  0.918193  1
  B  B16  1  0.500000  0.794558  0.264441  1
  B  B17  1  0.500000  0.205442  0.735559  1
  B  B18  1  0.500000  0.294558  0.235559  1
  B  B19  1  0.500000  0.705442  0.764441  1
  B  B20  1  0.500000  0.630089  0.181400  1
  B  B21  1  0.500000  0.369911  0.818600  1
  B  B22  1  0.500000  0.130089  0.318600  1
  B  B23  1  0.500000  0.869911  0.681400  1
  B  B24  1  0.500000  0.983947  0.214511  1
  B  B25  1  0.500000  0.016053  0.785489  1
  B  B26  1  0.500000  0.483947  0.285489  1
  B  B27  1  0.500000  0.516053  0.714511  1
  B  B28  1  0.500000  0.599251  0.026271  1
  B  B29  1  0.500000  0.400749  0.973729  1
  B  B30  1  0.500000  0.099251  0.473729  1
  B  B31  1  0.500000  0.900749  0.526271  1
  Rh  Rh32  1  0.000000  0.641665  0.317677  1
  Rh  Rh33  1  0.000000  0.358335  0.682323  1
  Rh  Rh34  1  0.000000  0.141665  0.182323  1
  Rh  Rh35  1  0.000000  0.858335  0.817677  1
