# generated using pymatgen
data_Y20CdIn5Os2
_symmetry_space_group_name_H-M   'P 1'
_cell_length_a   9.76394313
_cell_length_b   9.82973048
_cell_length_c   9.75570300
_cell_angle_alpha   90.00000000
_cell_angle_beta   90.00000000
_cell_angle_gamma   120.22313471
_symmetry_Int_Tables_number   1
_chemical_formula_structural   Y20CdIn5Os2
_chemical_formula_sum   'Y20 Cd1 In5 Os2'
_cell_volume   809.04963152
_cell_formula_units_Z   1
loop_
 _symmetry_equiv_pos_site_id
 _symmetry_equiv_pos_as_xyz
  1  'x, y, z'
loop_
 _atom_site_type_symbol
 _atom_site_label
 _atom_site_symmetry_multiplicity
 _atom_site_fract_x
 _atom_site_fract_y
 _atom_site_fract_z
 _atom_site_occupancy
  Y  Y0  1  0.996230  0.998115  0.502456  1
  Y  Y1  1  0.996230  0.998115  0.997544  1
  Y  Y2  1  0.210411  0.790729  0.440404  1
  Y  Y3  1  0.210411  0.419683  0.440404  1
  Y  Y4  1  0.579390  0.789696  0.437700  1
  Y  Y5  1  0.790257  0.210951  0.559789  1
  Y  Y6  1  0.790257  0.579304  0.559789  1
  Y  Y7  1  0.419377  0.209688  0.561617  1
  Y  Y8  1  0.790257  0.210951  0.940211  1
  Y  Y9  1  0.790257  0.579304  0.940211  1
  Y  Y10  1  0.419377  0.209688  0.938383  1
  Y  Y11  1  0.210411  0.790729  0.059596  1
  Y  Y12  1  0.210411  0.419683  0.059596  1
  Y  Y13  1  0.579390  0.789696  0.062300  1
  Y  Y14  1  0.539978  0.460711  0.250000  1
  Y  Y15  1  0.539978  0.079269  0.250000  1
  Y  Y16  1  0.925259  0.462629  0.250000  1
  Y  Y17  1  0.463157  0.541638  0.750000  1
  Y  Y18  1  0.463157  0.921518  0.750000  1
  Y  Y19  1  0.079880  0.539940  0.750000  1
  Cd  Cd20  1  0.766953  0.883477  0.750000  1
  In  In21  1  0.884795  0.117784  0.250000  1
  In  In22  1  0.884795  0.767011  0.250000  1
  In  In23  1  0.230396  0.115198  0.250000  1
  In  In24  1  0.115763  0.882026  0.750000  1
  In  In25  1  0.115763  0.233736  0.750000  1
  Os  Os26  1  0.329656  0.664828  0.250000  1
  Os  Os27  1  0.667802  0.333901  0.750000  1
