# generated using pymatgen
data_K5InS4
_symmetry_space_group_name_H-M   'P 1'
_cell_length_a   12.46290100
_cell_length_b   12.72097900
_cell_length_c   15.51128400
_cell_angle_alpha   90.00000000
_cell_angle_beta   90.00000000
_cell_angle_gamma   90.00000000
_symmetry_Int_Tables_number   1
_chemical_formula_structural   K5InS4
_chemical_formula_sum   'K40 In8 S32'
_cell_volume   2459.16364822
_cell_formula_units_Z   8
loop_
 _symmetry_equiv_pos_site_id
 _symmetry_equiv_pos_as_xyz
  1  'x, y, z'
loop_
 _atom_site_type_symbol
 _atom_site_label
 _atom_site_symmetry_multiplicity
 _atom_site_fract_x
 _atom_site_fract_y
 _atom_site_fract_z
 _atom_site_occupancy
  K  K0  1  0.057471  0.339034  0.278756  1
  K  K1  1  0.557471  0.160966  0.721244  1
  K  K2  1  0.942529  0.839034  0.221244  1
  K  K3  1  0.442529  0.660966  0.778756  1
  K  K4  1  0.942529  0.660966  0.721244  1
  K  K5  1  0.442529  0.839034  0.278756  1
  K  K6  1  0.057471  0.160966  0.778756  1
  K  K7  1  0.557471  0.339034  0.221244  1
  K  K8  1  0.386748  0.015122  0.062837  1
  K  K9  1  0.886748  0.484878  0.937163  1
  K  K10  1  0.613252  0.515122  0.437163  1
  K  K11  1  0.113252  0.984878  0.562837  1
  K  K12  1  0.613252  0.984878  0.937163  1
  K  K13  1  0.113252  0.515122  0.062837  1
  K  K14  1  0.386748  0.484878  0.562837  1
  K  K15  1  0.886748  0.015122  0.437163  1
  K  K16  1  0.059064  0.068862  0.107687  1
  K  K17  1  0.559064  0.431138  0.892313  1
  K  K18  1  0.940936  0.568862  0.392313  1
  K  K19  1  0.440936  0.931138  0.607687  1
  K  K20  1  0.940936  0.931138  0.892313  1
  K  K21  1  0.440936  0.568862  0.107687  1
  K  K22  1  0.059064  0.431138  0.607687  1
  K  K23  1  0.559064  0.068862  0.392313  1
  K  K24  1  0.175355  0.652869  0.267236  1
  K  K25  1  0.675355  0.847131  0.732764  1
  K  K26  1  0.824645  0.152869  0.232764  1
  K  K27  1  0.324645  0.347131  0.767236  1
  K  K28  1  0.824645  0.347131  0.732764  1
  K  K29  1  0.324645  0.152869  0.267236  1
  K  K30  1  0.175355  0.847131  0.767236  1
  K  K31  1  0.675355  0.652869  0.232764  1
  K  K32  1  0.269328  0.789570  0.986546  1
  K  K33  1  0.769328  0.710430  0.013454  1
  K  K34  1  0.730672  0.289570  0.513454  1
  K  K35  1  0.230672  0.210430  0.486546  1
  K  K36  1  0.730672  0.210430  0.013454  1
  K  K37  1  0.230672  0.289570  0.986546  1
  K  K38  1  0.269328  0.710430  0.486546  1
  K  K39  1  0.769328  0.789570  0.513454  1
  In  In40  1  0.165212  0.934791  0.335016  1
  In  In41  1  0.665212  0.565209  0.664984  1
  In  In42  1  0.834788  0.434791  0.164984  1
  In  In43  1  0.334788  0.065209  0.835016  1
  In  In44  1  0.834788  0.065209  0.664984  1
  In  In45  1  0.334788  0.434791  0.335016  1
  In  In46  1  0.165212  0.565209  0.835016  1
  In  In47  1  0.665212  0.934791  0.164984  1
  S  S48  1  0.066663  0.103990  0.319320  1
  S  S49  1  0.566663  0.396010  0.680680  1
  S  S50  1  0.933337  0.603990  0.180680  1
  S  S51  1  0.433337  0.896010  0.819320  1
  S  S52  1  0.933337  0.896010  0.680680  1
  S  S53  1  0.433337  0.603990  0.319320  1
  S  S54  1  0.066663  0.396010  0.819320  1
  S  S55  1  0.566663  0.103990  0.180680  1
  S  S56  1  0.324672  0.967077  0.429423  1
  S  S57  1  0.824672  0.532923  0.570577  1
  S  S58  1  0.675328  0.467077  0.070577  1
  S  S59  1  0.175328  0.032923  0.929423  1
  S  S60  1  0.675328  0.032923  0.570577  1
  S  S61  1  0.175328  0.467077  0.429423  1
  S  S62  1  0.324672  0.532923  0.929423  1
  S  S63  1  0.824672  0.967077  0.070577  1
  S  S64  1  0.217207  0.881533  0.185090  1
  S  S65  1  0.717207  0.618467  0.814910  1
  S  S66  1  0.782793  0.381533  0.314910  1
  S  S67  1  0.282793  0.118467  0.685090  1
  S  S68  1  0.782793  0.118467  0.814910  1
  S  S69  1  0.282793  0.381533  0.185090  1
  S  S70  1  0.217207  0.618467  0.685090  1
  S  S71  1  0.717207  0.881533  0.314910  1
  S  S72  1  0.049301  0.804538  0.410878  1
  S  S73  1  0.549301  0.695462  0.589122  1
  S  S74  1  0.950699  0.304538  0.089122  1
  S  S75  1  0.450699  0.195462  0.910878  1
  S  S76  1  0.950699  0.195462  0.589122  1
  S  S77  1  0.450699  0.304538  0.410878  1
  S  S78  1  0.049301  0.695462  0.910878  1
  S  S79  1  0.549301  0.804538  0.089122  1
