# generated using pymatgen
data_GaCu16Si3
_symmetry_space_group_name_H-M   'P 1'
_cell_length_a   6.24458867
_cell_length_b   6.24458817
_cell_length_c   6.24458816
_cell_angle_alpha   89.93245469
_cell_angle_beta   89.93245019
_cell_angle_gamma   89.93244079
_symmetry_Int_Tables_number   1
_chemical_formula_structural   GaCu16Si3
_chemical_formula_sum   'Ga1 Cu16 Si3'
_cell_volume   243.50648725
_cell_formula_units_Z   1
loop_
 _symmetry_equiv_pos_site_id
 _symmetry_equiv_pos_as_xyz
  1  'x, y, z'
loop_
 _atom_site_type_symbol
 _atom_site_label
 _atom_site_symmetry_multiplicity
 _atom_site_fract_x
 _atom_site_fract_y
 _atom_site_fract_z
 _atom_site_occupancy
  Ga  Ga0  1  0.060187  0.060187  0.060187  1
  Cu  Cu1  1  0.807940  0.317413  0.190211  1
  Cu  Cu2  1  0.317413  0.190211  0.807940  1
  Cu  Cu3  1  0.190211  0.807940  0.317413  1
  Cu  Cu4  1  0.686397  0.686397  0.686397  1
  Cu  Cu5  1  0.048681  0.875835  0.702486  1
  Cu  Cu6  1  0.294596  0.548430  0.621992  1
  Cu  Cu7  1  0.379757  0.793991  0.950627  1
  Cu  Cu8  1  0.548430  0.621992  0.294596  1
  Cu  Cu9  1  0.793991  0.950627  0.379757  1
  Cu  Cu10  1  0.875835  0.702486  0.048681  1
  Cu  Cu11  1  0.950627  0.379757  0.793991  1
  Cu  Cu12  1  0.702486  0.048681  0.875835  1
  Cu  Cu13  1  0.621992  0.294596  0.548430  1
  Cu  Cu14  1  0.453431  0.120240  0.206405  1
  Cu  Cu15  1  0.206405  0.453431  0.120240  1
  Cu  Cu16  1  0.120240  0.206405  0.453431  1
  Si  Si17  1  0.440849  0.941034  0.559496  1
  Si  Si18  1  0.941034  0.559496  0.440849  1
  Si  Si19  1  0.559496  0.440849  0.941034  1
