# generated using pymatgen
data_Li4Er8Sc7Si16W
_symmetry_space_group_name_H-M   'P 1'
_cell_length_a   6.83781905
_cell_length_b   7.30414395
_cell_length_c   13.89470887
_cell_angle_alpha   90.06233243
_cell_angle_beta   89.72228215
_cell_angle_gamma   89.75035555
_symmetry_Int_Tables_number   1
_chemical_formula_structural   Li4Er8Sc7Si16W
_chemical_formula_sum   'Li4 Er8 Sc7 Si16 W1'
_cell_volume   693.94793481
_cell_formula_units_Z   1
loop_
 _symmetry_equiv_pos_site_id
 _symmetry_equiv_pos_as_xyz
  1  'x, y, z'
loop_
 _atom_site_type_symbol
 _atom_site_label
 _atom_site_symmetry_multiplicity
 _atom_site_fract_x
 _atom_site_fract_y
 _atom_site_fract_z
 _atom_site_occupancy
  Li  Li0  1  0.161288  0.503294  0.743773  1
  Li  Li1  1  0.839405  0.493540  0.252648  1
  Li  Li2  1  0.340265  0.009131  0.250792  1
  Li  Li3  1  0.658896  0.997119  0.744179  1
  Er  Er4  1  0.011949  0.182674  0.098669  1
  Er  Er5  1  0.988521  0.821627  0.894795  1
  Er  Er6  1  0.488801  0.678581  0.897369  1
  Er  Er7  1  0.988221  0.824378  0.597635  1
  Er  Er8  1  0.511741  0.319306  0.099138  1
  Er  Er9  1  0.010233  0.182494  0.402157  1
  Er  Er10  1  0.509327  0.318583  0.407209  1
  Er  Er11  1  0.488185  0.675884  0.596865  1
  Sc  Sc12  1  0.666560  0.822670  0.379014  1
  Sc  Sc13  1  0.168129  0.680459  0.378928  1
  Sc  Sc14  1  0.667652  0.822320  0.127391  1
  Sc  Sc15  1  0.835500  0.316076  0.624842  1
  Sc  Sc16  1  0.330885  0.179222  0.870573  1
  Sc  Sc17  1  0.831354  0.321611  0.872030  1
  Sc  Sc18  1  0.168351  0.678577  0.126392  1
  Si  Si19  1  0.038692  0.105183  0.744598  1
  Si  Si20  1  0.968946  0.899848  0.251525  1
  Si  Si21  1  0.467828  0.604985  0.252210  1
  Si  Si22  1  0.527308  0.384853  0.745167  1
  Si  Si23  1  0.292733  0.886558  0.743945  1
  Si  Si24  1  0.712932  0.121986  0.251608  1
  Si  Si25  1  0.217399  0.379999  0.251375  1
  Si  Si26  1  0.785132  0.613799  0.745109  1
  Si  Si27  1  0.177183  0.447940  0.537222  1
  Si  Si28  1  0.838620  0.533912  0.468887  1
  Si  Si29  1  0.327300  0.968848  0.476534  1
  Si  Si30  1  0.839083  0.538768  0.033637  1
  Si  Si31  1  0.645269  0.036661  0.543052  1
  Si  Si32  1  0.158573  0.465597  0.963456  1
  Si  Si33  1  0.661864  0.036632  0.964638  1
  Si  Si34  1  0.340901  0.963196  0.033182  1
  W  W35  1  0.334976  0.183691  0.629456  1
