# generated using pymatgen
data_HoUInIrRu
_symmetry_space_group_name_H-M   'P 1'
_cell_length_a   7.72295775
_cell_length_b   7.72295722
_cell_length_c   3.51430800
_cell_angle_alpha   90.00000000
_cell_angle_beta   90.00000000
_cell_angle_gamma   84.34364359
_symmetry_Int_Tables_number   1
_chemical_formula_structural   HoUInIrRu
_chemical_formula_sum   'Ho2 U2 In2 Ir2 Ru2'
_cell_volume   208.58704754
_cell_formula_units_Z   2
loop_
 _symmetry_equiv_pos_site_id
 _symmetry_equiv_pos_as_xyz
  1  'x, y, z'
loop_
 _atom_site_type_symbol
 _atom_site_label
 _atom_site_symmetry_multiplicity
 _atom_site_fract_x
 _atom_site_fract_y
 _atom_site_fract_z
 _atom_site_occupancy
  Ho  Ho0  1  0.672348  0.172348  0.500000  1
  Ho  Ho1  1  0.327652  0.827652  0.500000  1
  U  U2  1  0.174256  0.325744  0.500000  1
  U  U3  1  0.825744  0.674256  0.500000  1
  In  In4  1  0.500000  0.500000  0.000000  1
  In  In5  1  0.000000  0.000000  0.000000  1
  Ir  Ir6  1  0.122831  0.622831  0.000000  1
  Ir  Ir7  1  0.877169  0.377169  0.000000  1
  Ru  Ru8  1  0.654555  0.845445  0.000000  1
  Ru  Ru9  1  0.345445  0.154555  0.000000  1
