# generated using pymatgen
data_Y5Er5In8(PdRu)2
_symmetry_space_group_name_H-M   'P 1'
_cell_length_a   3.60768700
_cell_length_b   8.08624244
_cell_length_c   18.34770650
_cell_angle_alpha   90.03221735
_cell_angle_beta   90.00000000
_cell_angle_gamma   90.00000000
_symmetry_Int_Tables_number   1
_chemical_formula_structural   Y5Er5In8(PdRu)2
_chemical_formula_sum   'Y5 Er5 In8 Pd2 Ru2'
_cell_volume   535.25080004
_cell_formula_units_Z   1
loop_
 _symmetry_equiv_pos_site_id
 _symmetry_equiv_pos_as_xyz
  1  'x, y, z'
loop_
 _atom_site_type_symbol
 _atom_site_label
 _atom_site_symmetry_multiplicity
 _atom_site_fract_x
 _atom_site_fract_y
 _atom_site_fract_z
 _atom_site_occupancy
  Y  Y0  1  0.500000  0.882934  0.413373  1
  Y  Y1  1  0.500000  0.379628  0.084763  1
  Y  Y2  1  0.500000  0.620321  0.915236  1
  Y  Y3  1  0.500000  0.999977  0.999976  1
  Y  Y4  1  0.500000  0.499310  0.500216  1
  Er  Er5  1  0.500000  0.228258  0.777324  1
  Er  Er6  1  0.500000  0.771906  0.222439  1
  Er  Er7  1  0.500000  0.244279  0.280184  1
  Er  Er8  1  0.500000  0.755882  0.719768  1
  Er  Er9  1  0.500000  0.116452  0.588060  1
  In  In10  1  0.000000  0.071185  0.150479  1
  In  In11  1  0.000000  0.928825  0.849274  1
  In  In12  1  0.000000  0.425130  0.650093  1
  In  In13  1  0.000000  0.573898  0.349736  1
  In  In14  1  0.000000  0.206971  0.430812  1
  In  In15  1  0.000000  0.793858  0.569543  1
  In  In16  1  0.000000  0.292899  0.932192  1
  In  In17  1  0.000000  0.707019  0.067729  1
  Pd  Pd18  1  0.000000  0.480231  0.197564  1
  Pd  Pd19  1  0.000000  0.519707  0.802451  1
  Ru  Ru20  1  0.000000  0.020664  0.695754  1
  Ru  Ru21  1  0.000000  0.980664  0.303034  1
