# generated using pymatgen
data_Lu5HgBiAu
_symmetry_space_group_name_H-M   'P 1'
_cell_length_a   8.55475996
_cell_length_b   8.55476029
_cell_length_c   8.61668998
_cell_angle_alpha   123.62646107
_cell_angle_beta   123.62646207
_cell_angle_gamma   83.36348059
_symmetry_Int_Tables_number   1
_chemical_formula_structural   Lu5HgBiAu
_chemical_formula_sum   'Lu10 Hg2 Bi2 Au2'
_cell_volume   420.28214853
_cell_formula_units_Z   2
loop_
 _symmetry_equiv_pos_site_id
 _symmetry_equiv_pos_as_xyz
  1  'x, y, z'
loop_
 _atom_site_type_symbol
 _atom_site_label
 _atom_site_symmetry_multiplicity
 _atom_site_fract_x
 _atom_site_fract_y
 _atom_site_fract_z
 _atom_site_occupancy
  Lu  Lu0  1  0.500000  0.500000  0.000000  1
  Lu  Lu1  1  0.000000  0.000000  0.000000  1
  Lu  Lu2  1  0.504467  0.004467  0.794250  1
  Lu  Lu3  1  0.210216  0.710216  0.205750  1
  Lu  Lu4  1  0.018766  0.199587  0.500000  1
  Lu  Lu5  1  0.699587  0.518766  0.500000  1
  Lu  Lu6  1  0.495533  0.995533  0.205750  1
  Lu  Lu7  1  0.789784  0.289784  0.794250  1
  Lu  Lu8  1  0.981234  0.800413  0.500000  1
  Lu  Lu9  1  0.300413  0.481234  0.500000  1
  Hg  Hg10  1  0.142008  0.642008  0.784015  1
  Hg  Hg11  1  0.857992  0.357992  0.215985  1
  Bi  Bi12  1  0.250000  0.250000  0.000000  1
  Bi  Bi13  1  0.750000  0.750000  0.000000  1
  Au  Au14  1  0.637035  0.862965  0.500000  1
  Au  Au15  1  0.362965  0.137035  0.500000  1
