# generated using pymatgen
data_Ho2MnFe2Si5
_symmetry_space_group_name_H-M   'P 1'
_cell_length_a   8.03521797
_cell_length_b   8.03521880
_cell_length_c   8.03521907
_cell_angle_alpha   141.18357935
_cell_angle_beta   108.26907705
_cell_angle_gamma   84.68458894
_symmetry_Int_Tables_number   1
_chemical_formula_structural   Ho2MnFe2Si5
_chemical_formula_sum   'Ho4 Mn2 Fe4 Si10'
_cell_volume   298.61622952
_cell_formula_units_Z   2
loop_
 _symmetry_equiv_pos_site_id
 _symmetry_equiv_pos_as_xyz
  1  'x, y, z'
loop_
 _atom_site_type_symbol
 _atom_site_label
 _atom_site_symmetry_multiplicity
 _atom_site_fract_x
 _atom_site_fract_y
 _atom_site_fract_z
 _atom_site_occupancy
  Ho  Ho0  1  0.591885  0.861866  0.730020  1
  Ho  Ho1  1  0.131848  0.361866  0.769980  1
  Ho  Ho2  1  0.868152  0.638134  0.230020  1
  Ho  Ho3  1  0.408115  0.138134  0.269980  1
  Mn  Mn4  1  0.000000  0.250000  0.250000  1
  Mn  Mn5  1  0.000000  0.750000  0.750000  1
  Fe  Fe6  1  0.267515  0.854851  0.412665  1
  Fe  Fe7  1  0.557814  0.645149  0.912665  1
  Fe  Fe8  1  0.442186  0.354851  0.087335  1
  Fe  Fe9  1  0.732485  0.145149  0.587335  1
  Si  Si10  1  0.789294  0.039294  0.250000  1
  Si  Si11  1  0.210706  0.960706  0.750000  1
  Si  Si12  1  0.789294  0.539294  0.750000  1
  Si  Si13  1  0.919309  0.096241  0.823069  1
  Si  Si14  1  0.080691  0.903759  0.176931  1
  Si  Si15  1  0.500000  0.250000  0.750000  1
  Si  Si16  1  0.500000  0.750000  0.250000  1
  Si  Si17  1  0.726828  0.403759  0.323069  1
  Si  Si18  1  0.273172  0.596241  0.676931  1
  Si  Si19  1  0.210706  0.460706  0.250000  1
