# generated using pymatgen
data_Th5P12Pd2Ru17
_symmetry_space_group_name_H-M   'P 1'
_cell_length_a   12.69080986
_cell_length_b   12.80370129
_cell_length_c   4.02028500
_cell_angle_alpha   90.00000000
_cell_angle_beta   90.00000000
_cell_angle_gamma   120.29470228
_symmetry_Int_Tables_number   1
_chemical_formula_structural   Th5P12Pd2Ru17
_chemical_formula_sum   'Th5 P12 Pd2 Ru17'
_cell_volume   564.04659415
_cell_formula_units_Z   1
loop_
 _symmetry_equiv_pos_site_id
 _symmetry_equiv_pos_as_xyz
  1  'x, y, z'
loop_
 _atom_site_type_symbol
 _atom_site_label
 _atom_site_symmetry_multiplicity
 _atom_site_fract_x
 _atom_site_fract_y
 _atom_site_fract_z
 _atom_site_occupancy
  Th  Th0  1  0.185828  0.185199  0.500000  1
  Th  Th1  1  0.814172  0.999372  0.500000  1
  Th  Th2  1  0.000000  0.811791  0.500000  1
  Th  Th3  1  0.328181  0.663934  0.000000  1
  Th  Th4  1  0.671819  0.335751  0.000000  1
  P  P5  1  0.811010  0.811458  0.000000  1
  P  P6  1  0.188990  0.000447  0.000000  1
  P  P7  1  0.000000  0.184186  0.000000  1
  P  P8  1  0.168537  0.475462  0.500000  1
  P  P9  1  0.519860  0.700907  0.500000  1
  P  P10  1  0.299463  0.823296  0.500000  1
  P  P11  1  0.700537  0.523834  0.500000  1
  P  P12  1  0.831463  0.306925  0.500000  1
  P  P13  1  0.480140  0.181048  0.500000  1
  P  P14  1  0.367871  0.367449  0.000000  1
  P  P15  1  0.632129  0.999579  0.000000  1
  P  P16  1  0.000000  0.623739  0.000000  1
  Pd  Pd17  1  0.552275  0.553546  0.000000  1
  Pd  Pd18  1  0.447725  0.001271  0.000000  1
  Ru  Ru19  1  0.000000  0.444135  0.000000  1
  Ru  Ru20  1  0.710826  0.712124  0.500000  1
  Ru  Ru21  1  0.289174  0.001299  0.500000  1
  Ru  Ru22  1  0.000000  0.283421  0.500000  1
  Ru  Ru23  1  0.183949  0.376327  0.000000  1
  Ru  Ru24  1  0.618525  0.804298  0.000000  1
  Ru  Ru25  1  0.193763  0.816590  0.000000  1
  Ru  Ru26  1  0.806237  0.622827  0.000000  1
  Ru  Ru27  1  0.816051  0.192378  0.000000  1
  Ru  Ru28  1  0.381475  0.185773  0.000000  1
  Ru  Ru29  1  0.366428  0.495528  0.500000  1
  Ru  Ru30  1  0.507753  0.878680  0.500000  1
  Ru  Ru31  1  0.123895  0.631889  0.500000  1
  Ru  Ru32  1  0.876105  0.507994  0.500000  1
  Ru  Ru33  1  0.633572  0.129100  0.500000  1
  Ru  Ru34  1  0.492247  0.370927  0.500000  1
  Ru  Ru35  1  0.000000  0.997515  0.000000  1
