# generated using pymatgen
data_Dy2Ho2ZnPt3
_symmetry_space_group_name_H-M   'P 1'
_cell_length_a   4.54056400
_cell_length_b   5.56564363
_cell_length_c   7.09612556
_cell_angle_alpha   89.92179755
_cell_angle_beta   90.00000000
_cell_angle_gamma   90.00000000
_symmetry_Int_Tables_number   1
_chemical_formula_structural   Dy2Ho2ZnPt3
_chemical_formula_sum   'Dy2 Ho2 Zn1 Pt3'
_cell_volume   179.32716517
_cell_formula_units_Z   1
loop_
 _symmetry_equiv_pos_site_id
 _symmetry_equiv_pos_as_xyz
  1  'x, y, z'
loop_
 _atom_site_type_symbol
 _atom_site_label
 _atom_site_symmetry_multiplicity
 _atom_site_fract_x
 _atom_site_fract_y
 _atom_site_fract_z
 _atom_site_occupancy
  Dy  Dy0  1  0.250000  0.359932  0.687202  1
  Dy  Dy1  1  0.250000  0.149411  0.178003  1
  Ho  Ho2  1  0.750000  0.629684  0.306836  1
  Ho  Ho3  1  0.750000  0.861726  0.828957  1
  Zn  Zn4  1  0.250000  0.863693  0.532384  1
  Pt  Pt5  1  0.250000  0.664683  0.043304  1
  Pt  Pt6  1  0.750000  0.125330  0.469225  1
  Pt  Pt7  1  0.750000  0.345542  0.954089  1
