# generated using pymatgen
data_Na3Yb2RuO6
_symmetry_space_group_name_H-M   'P 1'
_cell_length_a   5.59576202
_cell_length_b   5.68944901
_cell_length_c   5.59576100
_cell_angle_alpha   80.27886870
_cell_angle_beta   119.92810577
_cell_angle_gamma   80.27851700
_symmetry_Int_Tables_number   1
_chemical_formula_structural   Na3Yb2RuO6
_chemical_formula_sum   'Na3 Yb2 Ru1 O6'
_cell_volume   145.34457208
_cell_formula_units_Z   1
loop_
 _symmetry_equiv_pos_site_id
 _symmetry_equiv_pos_as_xyz
  1  'x, y, z'
loop_
 _atom_site_type_symbol
 _atom_site_label
 _atom_site_symmetry_multiplicity
 _atom_site_fract_x
 _atom_site_fract_y
 _atom_site_fract_z
 _atom_site_occupancy
  Na  Na0  1  0.500004  0.500001  0.500000  1
  Na  Na1  1  0.836034  0.500001  0.163945  1
  Na  Na2  1  0.163962  0.499999  0.836054  1
  Yb  Yb3  1  0.332838  0.999993  0.667155  1
  Yb  Yb4  1  0.667159  0.000009  0.332843  1
  Ru  Ru5  1  0.999981  0.000000  0.999984  1
  O  O6  1  0.225003  0.208869  0.225006  1
  O  O7  1  0.774999  0.791136  0.774994  1
  O  O8  1  0.369655  0.783705  0.072546  1
  O  O9  1  0.072594  0.783693  0.369650  1
  O  O10  1  0.927419  0.216303  0.630353  1
  O  O11  1  0.630352  0.216291  0.927469  1
