# generated using pymatgen
data_AgPd3S
_symmetry_space_group_name_H-M   'P 1'
_cell_length_a   8.55618800
_cell_length_b   8.55618800
_cell_length_c   8.55618800
_cell_angle_alpha   90.00000000
_cell_angle_beta   90.00000000
_cell_angle_gamma   90.00000000
_symmetry_Int_Tables_number   1
_chemical_formula_structural   AgPd3S
_chemical_formula_sum   'Ag8 Pd24 S8'
_cell_volume   626.38443222
_cell_formula_units_Z   8
loop_
 _symmetry_equiv_pos_site_id
 _symmetry_equiv_pos_as_xyz
  1  'x, y, z'
loop_
 _atom_site_type_symbol
 _atom_site_label
 _atom_site_symmetry_multiplicity
 _atom_site_fract_x
 _atom_site_fract_y
 _atom_site_fract_z
 _atom_site_occupancy
  Ag  Ag0  1  0.093896  0.906104  0.406104  1
  Ag  Ag1  1  0.906104  0.406104  0.093896  1
  Ag  Ag2  1  0.406104  0.093896  0.906104  1
  Ag  Ag3  1  0.593896  0.593896  0.593896  1
  Ag  Ag4  1  0.906104  0.093896  0.593896  1
  Ag  Ag5  1  0.093896  0.593896  0.906104  1
  Ag  Ag6  1  0.593896  0.906104  0.093896  1
  Ag  Ag7  1  0.406104  0.406104  0.406104  1
  Pd  Pd8  1  0.877144  0.093704  0.219595  1
  Pd  Pd9  1  0.122856  0.593704  0.280405  1
  Pd  Pd10  1  0.622856  0.906296  0.719595  1
  Pd  Pd11  1  0.377144  0.406296  0.780405  1
  Pd  Pd12  1  0.219595  0.877144  0.093704  1
  Pd  Pd13  1  0.280405  0.122856  0.593704  1
  Pd  Pd14  1  0.719595  0.622856  0.906296  1
  Pd  Pd15  1  0.780405  0.377144  0.406296  1
  Pd  Pd16  1  0.093704  0.219595  0.877144  1
  Pd  Pd17  1  0.593704  0.280405  0.122856  1
  Pd  Pd18  1  0.906296  0.719595  0.622856  1
  Pd  Pd19  1  0.406296  0.780405  0.377144  1
  Pd  Pd20  1  0.122856  0.906296  0.780405  1
  Pd  Pd21  1  0.877144  0.406296  0.719595  1
  Pd  Pd22  1  0.377144  0.093704  0.280405  1
  Pd  Pd23  1  0.622856  0.593704  0.219595  1
  Pd  Pd24  1  0.780405  0.122856  0.906296  1
  Pd  Pd25  1  0.719595  0.877144  0.406296  1
  Pd  Pd26  1  0.280405  0.377144  0.093704  1
  Pd  Pd27  1  0.219595  0.622856  0.593704  1
  Pd  Pd28  1  0.906296  0.780405  0.122856  1
  Pd  Pd29  1  0.406296  0.719595  0.877144  1
  Pd  Pd30  1  0.093704  0.280405  0.377144  1
  Pd  Pd31  1  0.593704  0.219595  0.622856  1
  S  S32  1  0.363275  0.636725  0.136725  1
  S  S33  1  0.636725  0.136725  0.363275  1
  S  S34  1  0.136725  0.363275  0.636725  1
  S  S35  1  0.863275  0.863275  0.863275  1
  S  S36  1  0.636725  0.363275  0.863275  1
  S  S37  1  0.363275  0.863275  0.636725  1
  S  S38  1  0.863275  0.636725  0.363275  1
  S  S39  1  0.136725  0.136725  0.136725  1
