# generated using pymatgen
data_Tb3SmBi5SbRh7
_symmetry_space_group_name_H-M   'P 1'
_cell_length_a   7.79012543
_cell_length_b   7.81782881
_cell_length_c   7.81273902
_cell_angle_alpha   110.38488511
_cell_angle_beta   110.24353285
_cell_angle_gamma   107.75121985
_symmetry_Int_Tables_number   1
_chemical_formula_structural   Tb3SmBi5SbRh7
_chemical_formula_sum   'Tb3 Sm1 Bi5 Sb1 Rh7'
_cell_volume   366.25025523
_cell_formula_units_Z   1
loop_
 _symmetry_equiv_pos_site_id
 _symmetry_equiv_pos_as_xyz
  1  'x, y, z'
loop_
 _atom_site_type_symbol
 _atom_site_label
 _atom_site_symmetry_multiplicity
 _atom_site_fract_x
 _atom_site_fract_y
 _atom_site_fract_z
 _atom_site_occupancy
  Tb  Tb0  1  0.003368  0.476088  0.000000  1
  Tb  Tb1  1  0.002679  0.003213  0.525860  1
  Tb  Tb2  1  0.476819  0.477353  0.474140  1
  Sm  Sm3  1  0.479370  0.000553  0.000000  1
  Bi  Bi4  1  0.987662  0.301007  0.314469  1
  Bi  Bi5  1  0.673193  0.986539  0.685531  1
  Bi  Bi6  1  0.700699  0.698274  0.000000  1
  Bi  Bi7  1  0.985519  0.674210  0.687152  1
  Bi  Bi8  1  0.298366  0.987058  0.312848  1
  Sb  Sb9  1  0.346535  0.345558  0.000000  1
  Rh  Rh10  1  0.060982  0.064474  0.000000  1
  Rh  Rh11  1  0.500227  0.749071  0.249575  1
  Rh  Rh12  1  0.752325  0.504585  0.250614  1
  Rh  Rh13  1  0.238355  0.737684  0.496821  1
  Rh  Rh14  1  0.250652  0.499497  0.750425  1
  Rh  Rh15  1  0.501711  0.253971  0.749386  1
  Rh  Rh16  1  0.741533  0.240863  0.503179  1
