# generated using pymatgen
data_NdSi2Ni8Rh
_symmetry_space_group_name_H-M   'P 1'
_cell_length_a   7.66254363
_cell_length_b   7.66254433
_cell_length_c   7.66254475
_cell_angle_alpha   99.50512272
_cell_angle_beta   99.50511913
_cell_angle_gamma   132.04611542
_symmetry_Int_Tables_number   1
_chemical_formula_structural   NdSi2Ni8Rh
_chemical_formula_sum   'Nd2 Si4 Ni16 Rh2'
_cell_volume   305.27087947
_cell_formula_units_Z   2
loop_
 _symmetry_equiv_pos_site_id
 _symmetry_equiv_pos_as_xyz
  1  'x, y, z'
loop_
 _atom_site_type_symbol
 _atom_site_label
 _atom_site_symmetry_multiplicity
 _atom_site_fract_x
 _atom_site_fract_y
 _atom_site_fract_z
 _atom_site_occupancy
  Nd  Nd0  1  0.500000  0.500000  0.000000  1
  Nd  Nd1  1  0.750000  0.250000  0.500000  1
  Si  Si2  1  0.625000  0.875000  0.750000  1
  Si  Si3  1  0.125000  0.375000  0.250000  1
  Si  Si4  1  0.125000  0.875000  0.750000  1
  Si  Si5  1  0.125000  0.875000  0.250000  1
  Ni  Ni6  1  0.687750  0.019917  0.082040  1
  Ni  Ni7  1  0.687750  0.605709  0.667833  1
  Ni  Ni8  1  0.269917  0.437750  0.582040  1
  Ni  Ni9  1  0.269917  0.687876  0.832167  1
  Ni  Ni10  1  0.937876  0.019917  0.332167  1
  Ni  Ni11  1  0.937876  0.605709  0.917960  1
  Ni  Ni12  1  0.855709  0.437750  0.167833  1
  Ni  Ni13  1  0.855709  0.687876  0.417960  1
  Ni  Ni14  1  0.562250  0.730083  0.417960  1
  Ni  Ni15  1  0.562250  0.144291  0.832167  1
  Ni  Ni16  1  0.980083  0.312250  0.917960  1
  Ni  Ni17  1  0.980083  0.062124  0.667833  1
  Ni  Ni18  1  0.312124  0.730083  0.167833  1
  Ni  Ni19  1  0.312124  0.144291  0.582040  1
  Ni  Ni20  1  0.394291  0.312250  0.332167  1
  Ni  Ni21  1  0.394291  0.062124  0.082040  1
  Rh  Rh22  1  0.250000  0.750000  0.500000  1
  Rh  Rh23  1  0.000000  0.000000  0.000000  1
