# generated using pymatgen
data_ErTaSnB2Ru5
_symmetry_space_group_name_H-M   'P 1'
_cell_length_a   9.61690176
_cell_length_b   9.61690226
_cell_length_c   3.08540000
_cell_angle_alpha   90.00000000
_cell_angle_beta   90.00000000
_cell_angle_gamma   91.73860040
_symmetry_Int_Tables_number   1
_chemical_formula_structural   ErTaSnB2Ru5
_chemical_formula_sum   'Er2 Ta2 Sn2 B4 Ru10'
_cell_volume   285.22125242
_cell_formula_units_Z   2
loop_
 _symmetry_equiv_pos_site_id
 _symmetry_equiv_pos_as_xyz
  1  'x, y, z'
loop_
 _atom_site_type_symbol
 _atom_site_label
 _atom_site_symmetry_multiplicity
 _atom_site_fract_x
 _atom_site_fract_y
 _atom_site_fract_z
 _atom_site_occupancy
  Er  Er0  1  0.823683  0.676317  0.000000  1
  Er  Er1  1  0.176317  0.323683  0.000000  1
  Ta  Ta2  1  0.325713  0.825713  0.000000  1
  Ta  Ta3  1  0.674287  0.174287  0.000000  1
  Sn  Sn4  1  0.500000  0.500000  0.000000  1
  Sn  Sn5  1  0.000000  0.000000  0.000000  1
  B  B6  1  0.619890  0.880110  0.000000  1
  B  B7  1  0.380110  0.119890  0.000000  1
  B  B8  1  0.121958  0.621958  0.000000  1
  B  B9  1  0.878042  0.378042  0.000000  1
  Ru  Ru10  1  0.555225  0.727933  0.500000  1
  Ru  Ru11  1  0.444775  0.272067  0.500000  1
  Ru  Ru12  1  0.086342  0.783362  0.500000  1
  Ru  Ru13  1  0.913658  0.216638  0.500000  1
  Ru  Ru14  1  0.283362  0.586342  0.500000  1
  Ru  Ru15  1  0.716638  0.413658  0.500000  1
  Ru  Ru16  1  0.227933  0.055225  0.500000  1
  Ru  Ru17  1  0.772067  0.944775  0.500000  1
  Ru  Ru18  1  0.500000  0.000000  0.500000  1
  Ru  Ru19  1  0.000000  0.500000  0.500000  1
