# generated using pymatgen
data_Nb4CrTe4
_symmetry_space_group_name_H-M   'P 1'
_cell_length_a   4.88702700
_cell_length_b   11.05455300
_cell_length_c   19.25328700
_cell_angle_alpha   90.00000000
_cell_angle_beta   90.00000000
_cell_angle_gamma   90.00000000
_symmetry_Int_Tables_number   1
_chemical_formula_structural   Nb4CrTe4
_chemical_formula_sum   'Nb16 Cr4 Te16'
_cell_volume   1040.13763200
_cell_formula_units_Z   4
loop_
 _symmetry_equiv_pos_site_id
 _symmetry_equiv_pos_as_xyz
  1  'x, y, z'
loop_
 _atom_site_type_symbol
 _atom_site_label
 _atom_site_symmetry_multiplicity
 _atom_site_fract_x
 _atom_site_fract_y
 _atom_site_fract_z
 _atom_site_occupancy
  Nb  Nb0  1  0.500000  0.564378  0.381978  1
  Nb  Nb1  1  0.500000  0.435622  0.618022  1
  Nb  Nb2  1  0.500000  0.064378  0.118022  1
  Nb  Nb3  1  0.500000  0.935622  0.881978  1
  Nb  Nb4  1  0.500000  0.705964  0.536806  1
  Nb  Nb5  1  0.500000  0.294036  0.463194  1
  Nb  Nb6  1  0.500000  0.205964  0.963194  1
  Nb  Nb7  1  0.500000  0.794036  0.036806  1
  Nb  Nb8  1  0.000000  0.691101  0.442235  1
  Nb  Nb9  1  0.000000  0.308899  0.557765  1
  Nb  Nb10  1  0.000000  0.191101  0.057765  1
  Nb  Nb11  1  0.000000  0.808899  0.942235  1
  Nb  Nb12  1  0.000000  0.400069  0.390478  1
  Nb  Nb13  1  0.000000  0.599931  0.609522  1
  Nb  Nb14  1  0.000000  0.900069  0.109522  1
  Nb  Nb15  1  0.000000  0.099931  0.890478  1
  Cr  Cr16  1  0.249900  0.500000  0.500000  1
  Cr  Cr17  1  0.750100  0.000000  0.000000  1
  Cr  Cr18  1  0.750100  0.500000  0.500000  1
  Cr  Cr19  1  0.249900  0.000000  0.000000  1
  Te  Te20  1  0.000000  0.844939  0.561741  1
  Te  Te21  1  0.000000  0.155061  0.438259  1
  Te  Te22  1  0.000000  0.344939  0.938259  1
  Te  Te23  1  0.000000  0.655061  0.061741  1
  Te  Te24  1  0.500000  0.332588  0.316439  1
  Te  Te25  1  0.500000  0.667412  0.683561  1
  Te  Te26  1  0.500000  0.832588  0.183561  1
  Te  Te27  1  0.500000  0.167412  0.816439  1
  Te  Te28  1  0.500000  0.820669  0.403494  1
  Te  Te29  1  0.500000  0.179331  0.596506  1
  Te  Te30  1  0.500000  0.320669  0.096506  1
  Te  Te31  1  0.500000  0.679331  0.903494  1
  Te  Te32  1  0.000000  0.607537  0.301906  1
  Te  Te33  1  0.000000  0.392463  0.698094  1
  Te  Te34  1  0.000000  0.107537  0.198094  1
  Te  Te35  1  0.000000  0.892463  0.801906  1
