# generated using pymatgen
data_Mg(TcN)2
_symmetry_space_group_name_H-M   'P 1'
_cell_length_a   2.88432600
_cell_length_b   2.88431477
_cell_length_c   7.42710500
_cell_angle_alpha   90.00001725
_cell_angle_beta   89.99970878
_cell_angle_gamma   119.99989517
_symmetry_Int_Tables_number   1
_chemical_formula_structural   Mg(TcN)2
_chemical_formula_sum   'Mg1 Tc2 N2'
_cell_volume   53.51033287
_cell_formula_units_Z   1
loop_
 _symmetry_equiv_pos_site_id
 _symmetry_equiv_pos_as_xyz
  1  'x, y, z'
loop_
 _atom_site_type_symbol
 _atom_site_label
 _atom_site_symmetry_multiplicity
 _atom_site_fract_x
 _atom_site_fract_y
 _atom_site_fract_z
 _atom_site_occupancy
  Mg  Mg0  1  0.999993  0.000002  0.999995  1
  Tc  Tc1  1  0.666670  0.333336  0.353516  1
  Tc  Tc2  1  0.333335  0.666662  0.646497  1
  N  N3  1  0.666668  0.333330  0.817024  1
  N  N4  1  0.333335  0.666671  0.182970  1
