# generated using pymatgen
data_Er3LuTh6(Ge3C)2
_symmetry_space_group_name_H-M   'P 1'
_cell_length_a   8.78033000
_cell_length_b   8.78018635
_cell_length_c   6.37968100
_cell_angle_alpha   89.99867903
_cell_angle_beta   90.00057974
_cell_angle_gamma   119.99920932
_symmetry_Int_Tables_number   1
_chemical_formula_structural   Er3LuTh6(Ge3C)2
_chemical_formula_sum   'Er3 Lu1 Th6 Ge6 C2'
_cell_volume   425.93921665
_cell_formula_units_Z   1
loop_
 _symmetry_equiv_pos_site_id
 _symmetry_equiv_pos_as_xyz
  1  'x, y, z'
loop_
 _atom_site_type_symbol
 _atom_site_label
 _atom_site_symmetry_multiplicity
 _atom_site_fract_x
 _atom_site_fract_y
 _atom_site_fract_z
 _atom_site_occupancy
  Er  Er0  1  0.666670  0.333335  0.499999  1
  Er  Er1  1  0.333329  0.666664  0.500000  1
  Er  Er2  1  0.333322  0.666661  0.999997  1
  Lu  Lu3  1  0.666680  0.333340  0.999999  1
  Th  Th4  1  0.767830  0.767696  0.249855  1
  Th  Th5  1  0.232290  0.000107  0.249855  1
  Th  Th6  1  0.999878  0.232186  0.249853  1
  Th  Th7  1  0.232290  0.232187  0.750155  1
  Th  Th8  1  0.767834  0.000141  0.750148  1
  Th  Th9  1  0.999880  0.767698  0.750148  1
  Ge  Ge10  1  0.404125  0.403742  0.249723  1
  Ge  Ge11  1  0.596252  0.000371  0.249723  1
  Ge  Ge12  1  0.999623  0.595854  0.249728  1
  Ge  Ge13  1  0.596254  0.595870  0.750276  1
  Ge  Ge14  1  0.404124  0.000371  0.750276  1
  Ge  Ge15  1  0.999623  0.403773  0.750265  1
  C  C16  1  0.999999  0.000001  0.499999  1
  C  C17  1  0.999999  0.000000  0.000000  1
