# generated using pymatgen
data_Eu4Sb2Te
_symmetry_space_group_name_H-M   'P 1'
_cell_length_a   8.43893567
_cell_length_b   8.43893596
_cell_length_c   8.43893547
_cell_angle_alpha   109.49129445
_cell_angle_beta   109.49128972
_cell_angle_gamma   109.43107969
_symmetry_Int_Tables_number   1
_chemical_formula_structural   Eu4Sb2Te
_chemical_formula_sum   'Eu8 Sb4 Te2'
_cell_volume   462.63769162
_cell_formula_units_Z   2
loop_
 _symmetry_equiv_pos_site_id
 _symmetry_equiv_pos_as_xyz
  1  'x, y, z'
loop_
 _atom_site_type_symbol
 _atom_site_label
 _atom_site_symmetry_multiplicity
 _atom_site_fract_x
 _atom_site_fract_y
 _atom_site_fract_z
 _atom_site_occupancy
  Eu  Eu0  1  0.630381  0.881007  0.896914  1
  Eu  Eu1  1  0.266532  0.369619  0.250625  1
  Eu  Eu2  1  0.118993  0.015907  0.749375  1
  Eu  Eu3  1  0.483468  0.234093  0.603086  1
  Eu  Eu4  1  0.119619  0.516532  0.750625  1
  Eu  Eu5  1  0.765907  0.368993  0.249375  1
  Eu  Eu6  1  0.984093  0.733468  0.103086  1
  Eu  Eu7  1  0.631007  0.880381  0.396914  1
  Sb  Sb8  1  0.375000  0.995017  0.120017  1
  Sb  Sb9  1  0.004983  0.125000  0.379983  1
  Sb  Sb10  1  0.875000  0.254983  0.879983  1
  Sb  Sb11  1  0.745017  0.625000  0.620017  1
  Te  Te12  1  0.500000  0.500000  0.000000  1
  Te  Te13  1  0.250000  0.750000  0.500000  1
