# generated using pymatgen
data_CaEu3(ReN3)4
_symmetry_space_group_name_H-M   'P 1'
_cell_length_a   7.35517891
_cell_length_b   7.35517903
_cell_length_c   6.25691700
_cell_angle_alpha   74.40559204
_cell_angle_beta   74.40559176
_cell_angle_gamma   83.55411164
_symmetry_Int_Tables_number   1
_chemical_formula_structural   CaEu3(ReN3)4
_chemical_formula_sum   'Ca1 Eu3 Re4 N12'
_cell_volume   313.73700164
_cell_formula_units_Z   1
loop_
 _symmetry_equiv_pos_site_id
 _symmetry_equiv_pos_as_xyz
  1  'x, y, z'
loop_
 _atom_site_type_symbol
 _atom_site_label
 _atom_site_symmetry_multiplicity
 _atom_site_fract_x
 _atom_site_fract_y
 _atom_site_fract_z
 _atom_site_occupancy
  Ca  Ca0  1  0.694751  0.305249  0.250000  1
  Eu  Eu1  1  0.908468  0.091532  0.750000  1
  Eu  Eu2  1  0.308056  0.691944  0.750000  1
  Eu  Eu3  1  0.088008  0.911992  0.250000  1
  Re  Re4  1  0.621281  0.798194  0.263562  1
  Re  Re5  1  0.201806  0.378719  0.236438  1
  Re  Re6  1  0.379953  0.201055  0.733965  1
  Re  Re7  1  0.798945  0.620047  0.766035  1
  N  N8  1  0.358545  0.340295  0.958451  1
  N  N9  1  0.003663  0.230161  0.339501  1
  N  N10  1  0.769839  0.996337  0.160499  1
  N  N11  1  0.226066  0.006224  0.838001  1
  N  N12  1  0.640024  0.656199  0.043865  1
  N  N13  1  0.887913  0.385930  0.845142  1
  N  N14  1  0.117010  0.615675  0.157004  1
  N  N15  1  0.993776  0.773934  0.661999  1
  N  N16  1  0.384325  0.882990  0.342996  1
  N  N17  1  0.659705  0.641455  0.541549  1
  N  N18  1  0.614070  0.112087  0.654858  1
  N  N19  1  0.343801  0.359976  0.456135  1
