# generated using pymatgen
data_Nd3Dy2Ta2BiO14
_symmetry_space_group_name_H-M   'P 1'
_cell_length_a   6.58786822
_cell_length_b   6.67376259
_cell_length_c   7.64935500
_cell_angle_alpha   90.00000000
_cell_angle_beta   90.00000000
_cell_angle_gamma   109.17557822
_symmetry_Int_Tables_number   1
_chemical_formula_structural   Nd3Dy2Ta2BiO14
_chemical_formula_sum   'Nd3 Dy2 Ta2 Bi1 O14'
_cell_volume   317.65083699
_cell_formula_units_Z   1
loop_
 _symmetry_equiv_pos_site_id
 _symmetry_equiv_pos_as_xyz
  1  'x, y, z'
loop_
 _atom_site_type_symbol
 _atom_site_label
 _atom_site_symmetry_multiplicity
 _atom_site_fract_x
 _atom_site_fract_y
 _atom_site_fract_z
 _atom_site_occupancy
  Nd  Nd0  1  0.533235  0.525741  0.504329  1
  Nd  Nd1  1  0.533235  0.525741  0.995671  1
  Nd  Nd2  1  0.452301  0.999020  0.250000  1
  Dy  Dy3  1  0.006105  0.463727  0.750000  1
  Dy  Dy4  1  0.531034  0.002655  0.750000  1
  Ta  Ta5  1  0.996315  0.995941  0.504765  1
  Ta  Ta6  1  0.996315  0.995941  0.995235  1
  Bi  Bi7  1  0.012531  0.507149  0.250000  1
  O  O8  1  0.933974  0.073595  0.750000  1
  O  O9  1  0.049087  0.963051  0.250000  1
  O  O10  1  0.372662  0.629779  0.250000  1
  O  O11  1  0.648006  0.354085  0.750000  1
  O  O12  1  0.370605  0.634946  0.750000  1
  O  O13  1  0.630621  0.360465  0.250000  1
  O  O14  1  0.305536  0.055635  0.960355  1
  O  O15  1  0.673955  0.922595  0.477301  1
  O  O16  1  0.305536  0.055635  0.539645  1
  O  O17  1  0.673955  0.922595  0.022699  1
  O  O18  1  0.059165  0.315991  0.474138  1
  O  O19  1  0.928331  0.689859  0.952982  1
  O  O20  1  0.928331  0.689859  0.547018  1
  O  O21  1  0.059165  0.315991  0.025862  1
