# generated using pymatgen
data_Ba2Ga6OsRu
_symmetry_space_group_name_H-M   'P 1'
_cell_length_a   6.90868859
_cell_length_b   6.90868858
_cell_length_c   6.90868900
_cell_angle_alpha   119.99999721
_cell_angle_beta   119.99999716
_cell_angle_gamma   60.00000737
_symmetry_Int_Tables_number   1
_chemical_formula_structural   Ba2Ga6OsRu
_chemical_formula_sum   'Ba2 Ga6 Os1 Ru1'
_cell_volume   233.16959704
_cell_formula_units_Z   1
loop_
 _symmetry_equiv_pos_site_id
 _symmetry_equiv_pos_as_xyz
  1  'x, y, z'
loop_
 _atom_site_type_symbol
 _atom_site_label
 _atom_site_symmetry_multiplicity
 _atom_site_fract_x
 _atom_site_fract_y
 _atom_site_fract_z
 _atom_site_occupancy
  Ba  Ba0  1  0.749999  0.749999  0.249998  1
  Ba  Ba1  1  0.250000  0.250000  0.749997  1
  Ga  Ga2  1  0.250827  0.250827  0.250827  1
  Ga  Ga3  1  0.749173  0.250827  0.250827  1
  Ga  Ga4  1  0.250827  0.749173  0.250827  1
  Ga  Ga5  1  0.749173  0.250827  0.749172  1
  Ga  Ga6  1  0.250827  0.749173  0.749172  1
  Ga  Ga7  1  0.749173  0.749173  0.749174  1
  Os  Os8  1  0.000000  0.000000  0.000000  1
  Ru  Ru9  1  0.500000  0.500000  0.500001  1
