# generated using pymatgen
data_LiTbHo(PRh2)6
_symmetry_space_group_name_H-M   'P 1'
_cell_length_a   9.62098100
_cell_length_b   9.62098092
_cell_length_c   3.91711700
_cell_angle_alpha   90.00000000
_cell_angle_beta   90.00000000
_cell_angle_gamma   120.00001058
_symmetry_Int_Tables_number   1
_chemical_formula_structural   LiTbHo(PRh2)6
_chemical_formula_sum   'Li1 Tb1 Ho1 P6 Rh12'
_cell_volume   314.00447651
_cell_formula_units_Z   1
loop_
 _symmetry_equiv_pos_site_id
 _symmetry_equiv_pos_as_xyz
  1  'x, y, z'
loop_
 _atom_site_type_symbol
 _atom_site_label
 _atom_site_symmetry_multiplicity
 _atom_site_fract_x
 _atom_site_fract_y
 _atom_site_fract_z
 _atom_site_occupancy
  Li  Li0  1  0.000000  0.000000  0.499915  1
  Tb  Tb1  1  0.333333  0.666667  0.750917  1
  Ho  Ho2  1  0.666667  0.333333  0.249089  1
  P  P3  1  0.399685  0.282920  0.748943  1
  P  P4  1  0.717080  0.116764  0.748943  1
  P  P5  1  0.883236  0.600315  0.748943  1
  P  P6  1  0.600629  0.717186  0.251065  1
  P  P7  1  0.282814  0.883444  0.251065  1
  P  P8  1  0.116556  0.399371  0.251065  1
  Rh  Rh9  1  0.453599  0.066392  0.749484  1
  Rh  Rh10  1  0.933608  0.387207  0.749484  1
  Rh  Rh11  1  0.612793  0.546401  0.749484  1
  Rh  Rh12  1  0.547037  0.934469  0.250504  1
  Rh  Rh13  1  0.065531  0.612569  0.250504  1
  Rh  Rh14  1  0.387431  0.452963  0.250504  1
  Rh  Rh15  1  0.158701  0.286292  0.750791  1
  Rh  Rh16  1  0.713708  0.872411  0.750791  1
  Rh  Rh17  1  0.127589  0.841299  0.750791  1
  Rh  Rh18  1  0.841217  0.713440  0.249239  1
  Rh  Rh19  1  0.286560  0.127775  0.249239  1
  Rh  Rh20  1  0.872225  0.158783  0.249239  1
