# generated using pymatgen
data_Cs2Nd10Os2Br17
_symmetry_space_group_name_H-M   'P 1'
_cell_length_a   9.60537393
_cell_length_b   11.25179146
_cell_length_c   11.25174150
_cell_angle_alpha   107.81005673
_cell_angle_beta   93.48807377
_cell_angle_gamma   93.48810608
_symmetry_Int_Tables_number   1
_chemical_formula_structural   Cs2Nd10Os2Br17
_chemical_formula_sum   'Cs2 Nd10 Os2 Br17'
_cell_volume   1151.59237813
_cell_formula_units_Z   1
loop_
 _symmetry_equiv_pos_site_id
 _symmetry_equiv_pos_as_xyz
  1  'x, y, z'
loop_
 _atom_site_type_symbol
 _atom_site_label
 _atom_site_symmetry_multiplicity
 _atom_site_fract_x
 _atom_site_fract_y
 _atom_site_fract_z
 _atom_site_occupancy
  Cs  Cs0  1  0.000000  0.824310  0.175689  1
  Cs  Cs1  1  0.000000  0.175689  0.824310  1
  Nd  Nd2  1  0.440286  0.164116  0.164117  1
  Nd  Nd3  1  0.574149  0.511173  0.201110  1
  Nd  Nd4  1  0.826218  0.290355  0.290356  1
  Nd  Nd5  1  0.307557  0.433324  0.433325  1
  Nd  Nd6  1  0.425851  0.798892  0.488829  1
  Nd  Nd7  1  0.574149  0.201109  0.511172  1
  Nd  Nd8  1  0.692443  0.566676  0.566675  1
  Nd  Nd9  1  0.173783  0.709645  0.709644  1
  Nd  Nd10  1  0.425851  0.488828  0.798891  1
  Nd  Nd11  1  0.559713  0.835884  0.835883  1
  Os  Os12  1  0.569739  0.359012  0.359012  1
  Os  Os13  1  0.430261  0.640988  0.640988  1
  Br  Br14  1  0.577600  0.686875  0.019496  1
  Br  Br15  1  0.714978  0.067701  0.067701  1
  Br  Br16  1  0.854793  0.449144  0.121134  1
  Br  Br17  1  0.134293  0.205764  0.205764  1
  Br  Br18  1  0.284556  0.604135  0.256247  1
  Br  Br19  1  0.422400  0.980504  0.313126  1
  Br  Br20  1  0.715446  0.743754  0.395864  1
  Br  Br21  1  0.854794  0.121134  0.449143  1
  Br  Br22  1  0.000000  0.499999  0.499999  1
  Br  Br23  1  0.145206  0.878866  0.550857  1
  Br  Br24  1  0.284555  0.256246  0.604136  1
  Br  Br25  1  0.577600  0.019496  0.686875  1
  Br  Br26  1  0.715445  0.395865  0.743753  1
  Br  Br27  1  0.865707  0.794236  0.794236  1
  Br  Br28  1  0.145207  0.550856  0.878866  1
  Br  Br29  1  0.285022  0.932298  0.932298  1
  Br  Br30  1  0.422400  0.313126  0.980504  1
