# generated using pymatgen
data_Tb5Yb5(Pb3Cl)2
_symmetry_space_group_name_H-M   'P 1'
_cell_length_a   9.19076999
_cell_length_b   9.19077204
_cell_length_c   6.93442500
_cell_angle_alpha   90.00000000
_cell_angle_beta   90.00000000
_cell_angle_gamma   119.77964908
_symmetry_Int_Tables_number   1
_chemical_formula_structural   Tb5Yb5(Pb3Cl)2
_chemical_formula_sum   'Tb5 Yb5 Pb6 Cl2'
_cell_volume   508.39937899
_cell_formula_units_Z   1
loop_
 _symmetry_equiv_pos_site_id
 _symmetry_equiv_pos_as_xyz
  1  'x, y, z'
loop_
 _atom_site_type_symbol
 _atom_site_label
 _atom_site_symmetry_multiplicity
 _atom_site_fract_x
 _atom_site_fract_y
 _atom_site_fract_z
 _atom_site_occupancy
  Tb  Tb0  1  0.257040  0.257040  0.750000  1
  Tb  Tb1  1  0.333788  0.667892  0.001388  1
  Tb  Tb2  1  0.667892  0.333788  0.001388  1
  Tb  Tb3  1  0.667892  0.333788  0.498612  1
  Tb  Tb4  1  0.333788  0.667892  0.498612  1
  Yb  Yb5  1  0.251173  0.000863  0.250000  1
  Yb  Yb6  1  0.747819  0.999411  0.750000  1
  Yb  Yb7  1  0.000863  0.251173  0.250000  1
  Yb  Yb8  1  0.999411  0.747819  0.750000  1
  Yb  Yb9  1  0.747515  0.747515  0.250000  1
  Pb  Pb10  1  0.600747  0.000237  0.250000  1
  Pb  Pb11  1  0.396472  0.002018  0.750000  1
  Pb  Pb12  1  0.000237  0.600747  0.250000  1
  Pb  Pb13  1  0.002018  0.396472  0.750000  1
  Pb  Pb14  1  0.396740  0.396740  0.250000  1
  Pb  Pb15  1  0.599440  0.599440  0.750000  1
  Cl  Cl16  1  0.998582  0.998582  0.998890  1
  Cl  Cl17  1  0.998582  0.998582  0.501110  1
