# generated using pymatgen
data_Rb4CdHgI8
_symmetry_space_group_name_H-M   'P 1'
_cell_length_a   8.42385187
_cell_length_b   8.59964000
_cell_length_c   10.31531167
_cell_angle_alpha   90.00000000
_cell_angle_beta   108.13630928
_cell_angle_gamma   90.00000000
_symmetry_Int_Tables_number   1
_chemical_formula_structural   Rb4CdHgI8
_chemical_formula_sum   'Rb4 Cd1 Hg1 I8'
_cell_volume   710.13775660
_cell_formula_units_Z   1
loop_
 _symmetry_equiv_pos_site_id
 _symmetry_equiv_pos_as_xyz
  1  'x, y, z'
loop_
 _atom_site_type_symbol
 _atom_site_label
 _atom_site_symmetry_multiplicity
 _atom_site_fract_x
 _atom_site_fract_y
 _atom_site_fract_z
 _atom_site_occupancy
  Rb  Rb0  1  0.218139  0.250000  0.551570  1
  Rb  Rb1  1  0.781857  0.750000  0.448524  1
  Rb  Rb2  1  0.259884  0.250000  0.066741  1
  Rb  Rb3  1  0.739615  0.750000  0.933058  1
  Cd  Cd4  1  0.225584  0.750000  0.299617  1
  Hg  Hg5  1  0.773818  0.250000  0.700236  1
  I  I6  1  0.590254  0.250000  0.418638  1
  I  I7  1  0.408470  0.750000  0.579436  1
  I  I8  1  0.000064  0.004646  0.238653  1
  I  I9  1  0.001768  0.993456  0.761858  1
  I  I10  1  0.001768  0.506544  0.761858  1
  I  I11  1  0.000064  0.495354  0.238653  1
  I  I12  1  0.571535  0.250000  0.874158  1
  I  I13  1  0.427180  0.750000  0.127001  1
