# generated using pymatgen
data_YbSmBPt6
_symmetry_space_group_name_H-M   'P 1'
_cell_length_a   5.95269827
_cell_length_b   5.95269786
_cell_length_c   5.95269900
_cell_angle_alpha   59.99999921
_cell_angle_beta   60.00000150
_cell_angle_gamma   59.99998909
_symmetry_Int_Tables_number   1
_chemical_formula_structural   YbSmBPt6
_chemical_formula_sum   'Yb1 Sm1 B1 Pt6'
_cell_volume   149.15114808
_cell_formula_units_Z   1
loop_
 _symmetry_equiv_pos_site_id
 _symmetry_equiv_pos_as_xyz
  1  'x, y, z'
loop_
 _atom_site_type_symbol
 _atom_site_label
 _atom_site_symmetry_multiplicity
 _atom_site_fract_x
 _atom_site_fract_y
 _atom_site_fract_z
 _atom_site_occupancy
  Yb  Yb0  1  0.750000  0.750000  0.750000  1
  Sm  Sm1  1  0.250000  0.250000  0.250000  1
  B  B2  1  0.000000  0.000000  0.000000  1
  Pt  Pt3  1  0.743153  0.256848  0.256848  1
  Pt  Pt4  1  0.256848  0.743153  0.256848  1
  Pt  Pt5  1  0.743153  0.743153  0.256848  1
  Pt  Pt6  1  0.256848  0.256848  0.743153  1
  Pt  Pt7  1  0.743153  0.256848  0.743153  1
  Pt  Pt8  1  0.256848  0.743153  0.743153  1
