# generated using pymatgen
data_K4Zn3Ga5Au12
_symmetry_space_group_name_H-M   'P 1'
_cell_length_a   5.71848899
_cell_length_b   7.13527923
_cell_length_c   13.36933677
_cell_angle_alpha   90.03503329
_cell_angle_beta   89.77197374
_cell_angle_gamma   89.89427035
_symmetry_Int_Tables_number   1
_chemical_formula_structural   K4Zn3Ga5Au12
_chemical_formula_sum   'K4 Zn3 Ga5 Au12'
_cell_volume   545.50390502
_cell_formula_units_Z   1
loop_
 _symmetry_equiv_pos_site_id
 _symmetry_equiv_pos_as_xyz
  1  'x, y, z'
loop_
 _atom_site_type_symbol
 _atom_site_label
 _atom_site_symmetry_multiplicity
 _atom_site_fract_x
 _atom_site_fract_y
 _atom_site_fract_z
 _atom_site_occupancy
  K  K0  1  0.251115  0.108987  0.080445  1
  K  K1  1  0.250004  0.389864  0.577662  1
  K  K2  1  0.749475  0.890110  0.921636  1
  K  K3  1  0.749020  0.610695  0.420268  1
  Zn  Zn4  1  0.998854  0.895504  0.654666  1
  Zn  Zn5  1  0.503400  0.606840  0.156026  1
  Zn  Zn6  1  0.499248  0.107958  0.343966  1
  Ga  Ga7  1  0.999871  0.390830  0.843947  1
  Ga  Ga8  1  0.006103  0.104348  0.343651  1
  Ga  Ga9  1  0.493369  0.396735  0.844902  1
  Ga  Ga10  1  0.502269  0.893570  0.656096  1
  Ga  Ga11  1  0.995416  0.606285  0.155939  1
  Au  Au12  1  0.252544  0.105482  0.789409  1
  Au  Au13  1  0.244167  0.395928  0.289050  1
  Au  Au14  1  0.755325  0.895851  0.211282  1
  Au  Au15  1  0.747861  0.607465  0.713142  1
  Au  Au16  1  0.243574  0.699157  0.789377  1
  Au  Au17  1  0.254412  0.797955  0.291101  1
  Au  Au18  1  0.747507  0.298920  0.208615  1
  Au  Au19  1  0.746308  0.199615  0.709262  1
  Au  Au20  1  0.244345  0.583711  0.994876  1
  Au  Au21  1  0.260563  0.917137  0.493757  1
  Au  Au22  1  0.745236  0.414891  0.005199  1
  Au  Au23  1  0.760014  0.082162  0.505727  1
