# generated using pymatgen
data_SmEu3Mo2(RuO7)2
_symmetry_space_group_name_H-M   'P 1'
_cell_length_a   7.49700910
_cell_length_b   7.51581648
_cell_length_c   7.51581522
_cell_angle_alpha   59.25932502
_cell_angle_beta   59.19170739
_cell_angle_gamma   59.19171610
_symmetry_Int_Tables_number   1
_chemical_formula_structural   SmEu3Mo2(RuO7)2
_chemical_formula_sum   'Sm1 Eu3 Mo2 Ru2 O14'
_cell_volume   294.09000814
_cell_formula_units_Z   1
loop_
 _symmetry_equiv_pos_site_id
 _symmetry_equiv_pos_as_xyz
  1  'x, y, z'
loop_
 _atom_site_type_symbol
 _atom_site_label
 _atom_site_symmetry_multiplicity
 _atom_site_fract_x
 _atom_site_fract_y
 _atom_site_fract_z
 _atom_site_occupancy
  Sm  Sm0  1  0.125000  0.125000  0.125000  1
  Eu  Eu1  1  0.125000  0.125000  0.625000  1
  Eu  Eu2  1  0.625000  0.125000  0.125000  1
  Eu  Eu3  1  0.125000  0.625000  0.125000  1
  Mo  Mo4  1  0.625000  0.125000  0.625000  1
  Mo  Mo5  1  0.625000  0.625000  0.125000  1
  Ru  Ru6  1  0.625000  0.625000  0.625000  1
  Ru  Ru7  1  0.125000  0.625000  0.625000  1
  O  O8  1  0.292956  0.292682  0.704539  1
  O  O9  1  0.292956  0.704539  0.292682  1
  O  O10  1  0.957044  0.545461  0.957318  1
  O  O11  1  0.704996  0.292334  0.292334  1
  O  O12  1  0.002329  0.002270  0.002270  1
  O  O13  1  0.547448  0.547710  0.949275  1
  O  O14  1  0.301474  0.701190  0.701190  1
  O  O15  1  0.547448  0.949275  0.547710  1
  O  O16  1  0.545004  0.957666  0.957666  1
  O  O17  1  0.702552  0.702290  0.300725  1
  O  O18  1  0.247671  0.247730  0.247730  1
  O  O19  1  0.957044  0.957318  0.545461  1
  O  O20  1  0.948526  0.548810  0.548810  1
  O  O21  1  0.702552  0.300725  0.702290  1
