# generated using pymatgen
data_Rb12Na8V3GaP12
_symmetry_space_group_name_H-M   'P 1'
_cell_length_a   10.44295000
_cell_length_b   10.44294791
_cell_length_c   15.46634984
_cell_angle_alpha   89.96786360
_cell_angle_beta   89.96786233
_cell_angle_gamma   142.37743825
_symmetry_Int_Tables_number   1
_chemical_formula_structural   Rb12Na8V3GaP12
_chemical_formula_sum   'Rb12 Na8 V3 Ga1 P12'
_cell_volume   1029.64765177
_cell_formula_units_Z   1
loop_
 _symmetry_equiv_pos_site_id
 _symmetry_equiv_pos_as_xyz
  1  'x, y, z'
loop_
 _atom_site_type_symbol
 _atom_site_label
 _atom_site_symmetry_multiplicity
 _atom_site_fract_x
 _atom_site_fract_y
 _atom_site_fract_z
 _atom_site_occupancy
  Rb  Rb0  1  0.932222  0.603848  0.827944  1
  Rb  Rb1  1  0.560544  0.892751  0.325764  1
  Rb  Rb2  1  0.396152  0.067778  0.172056  1
  Rb  Rb3  1  0.055385  0.394203  0.173343  1
  Rb  Rb4  1  0.892712  0.559857  0.326798  1
  Rb  Rb5  1  0.440143  0.107288  0.673202  1
  Rb  Rb6  1  0.605797  0.944615  0.826657  1
  Rb  Rb7  1  0.272855  0.273430  0.315099  1
  Rb  Rb8  1  0.772564  0.767427  0.182352  1
  Rb  Rb9  1  0.232573  0.227436  0.817648  1
  Rb  Rb10  1  0.726570  0.727145  0.684901  1
  Rb  Rb11  1  0.107249  0.439456  0.674236  1
  Na  Na12  1  0.920933  0.079067  0.000000  1
  Na  Na13  1  0.579037  0.420963  0.500000  1
  Na  Na14  1  0.079953  0.920047  0.000000  1
  Na  Na15  1  0.421014  0.578986  0.500000  1
  Na  Na16  1  0.751940  0.248060  0.000000  1
  Na  Na17  1  0.744862  0.255138  0.500000  1
  Na  Na18  1  0.244159  0.755841  0.000000  1
  Na  Na19  1  0.254913  0.745087  0.500000  1
  V  V20  1  0.918873  0.081127  0.500000  1
  V  V21  1  0.420326  0.579674  0.000000  1
  V  V22  1  0.081163  0.918837  0.500000  1
  Ga  Ga23  1  0.585305  0.414695  0.000000  1
  P  P24  1  0.866382  0.557608  0.096901  1
  P  P25  1  0.442392  0.133618  0.903099  1
  P  P26  1  0.650088  0.950889  0.589491  1
  P  P27  1  0.950653  0.650144  0.589358  1
  P  P28  1  0.156390  0.452820  0.911905  1
  P  P29  1  0.547180  0.843610  0.088095  1
  P  P30  1  0.349856  0.049347  0.410642  1
  P  P31  1  0.183168  0.183481  0.580545  1
  P  P32  1  0.685154  0.694132  0.916059  1
  P  P33  1  0.305868  0.314846  0.083941  1
  P  P34  1  0.049111  0.349912  0.410509  1
  P  P35  1  0.816519  0.816832  0.419455  1
