# generated using pymatgen
data_Tb7YNp4O24
_symmetry_space_group_name_H-M   'P 1'
_cell_length_a   5.56184800
_cell_length_b   7.87769076
_cell_length_c   11.90832005
_cell_angle_alpha   73.92673068
_cell_angle_beta   90.00236337
_cell_angle_gamma   90.00302875
_symmetry_Int_Tables_number   1
_chemical_formula_structural   Tb7YNp4O24
_chemical_formula_sum   'Tb7 Y1 Np4 O24'
_cell_volume   501.36099606
_cell_formula_units_Z   1
loop_
 _symmetry_equiv_pos_site_id
 _symmetry_equiv_pos_as_xyz
  1  'x, y, z'
loop_
 _atom_site_type_symbol
 _atom_site_label
 _atom_site_symmetry_multiplicity
 _atom_site_fract_x
 _atom_site_fract_y
 _atom_site_fract_z
 _atom_site_occupancy
  Tb  Tb0  1  0.186418  0.793920  0.079296  1
  Tb  Tb1  1  0.255691  0.000003  0.749975  1
  Tb  Tb2  1  0.744294  0.999979  0.250024  1
  Tb  Tb3  1  0.303587  0.500016  0.749977  1
  Tb  Tb4  1  0.186410  0.206063  0.420725  1
  Tb  Tb5  1  0.696413  0.500011  0.250011  1
  Tb  Tb6  1  0.813581  0.206078  0.920709  1
  Y  Y7  1  0.813548  0.793783  0.579396  1
  Np  Np8  1  0.744281  0.721786  0.885972  1
  Np  Np9  1  0.255679  0.721770  0.386101  1
  Np  Np10  1  0.744212  0.278236  0.613948  1
  Np  Np11  1  0.255757  0.278243  0.113963  1
  O  O12  1  0.871584  0.371316  0.446382  1
  O  O13  1  0.448202  0.848226  0.931230  1
  O  O14  1  0.871569  0.628689  0.053604  1
  O  O15  1  0.034640  0.287976  0.732307  1
  O  O16  1  0.965349  0.287993  0.232316  1
  O  O17  1  0.128411  0.371324  0.946371  1
  O  O18  1  0.612970  0.482845  0.883363  1
  O  O19  1  0.551829  0.151756  0.068754  1
  O  O20  1  0.128166  0.628794  0.553637  1
  O  O21  1  0.034629  0.712034  0.767632  1
  O  O22  1  0.449740  0.199550  0.273334  1
  O  O23  1  0.044966  0.944267  0.395777  1
  O  O24  1  0.448164  0.151811  0.568761  1
  O  O25  1  0.965364  0.712016  0.267676  1
  O  O26  1  0.954900  0.055551  0.604175  1
  O  O27  1  0.550259  0.199558  0.773330  1
  O  O28  1  0.550381  0.800502  0.726521  1
  O  O29  1  0.044966  0.055765  0.104205  1
  O  O30  1  0.613071  0.517258  0.616623  1
  O  O31  1  0.387040  0.517176  0.116646  1
  O  O32  1  0.449739  0.800450  0.226672  1
  O  O33  1  0.387021  0.482836  0.383360  1
  O  O34  1  0.552148  0.848201  0.431431  1
  O  O35  1  0.955021  0.944218  0.895798  1
