# generated using pymatgen
data_DyHo5Al24Os7Au
_symmetry_space_group_name_H-M   'P 1'
_cell_length_a   8.85822651
_cell_length_b   8.85626416
_cell_length_c   9.55322602
_cell_angle_alpha   89.76862927
_cell_angle_beta   90.22802922
_cell_angle_gamma   119.96387811
_symmetry_Int_Tables_number   1
_chemical_formula_structural   DyHo5Al24Os7Au
_chemical_formula_sum   'Dy1 Ho5 Al24 Os7 Au1'
_cell_volume   649.27896799
_cell_formula_units_Z   1
loop_
 _symmetry_equiv_pos_site_id
 _symmetry_equiv_pos_as_xyz
  1  'x, y, z'
loop_
 _atom_site_type_symbol
 _atom_site_label
 _atom_site_symmetry_multiplicity
 _atom_site_fract_x
 _atom_site_fract_y
 _atom_site_fract_z
 _atom_site_occupancy
  Dy  Dy0  1  0.190493  0.386286  0.251047  1
  Ho  Ho1  1  0.809331  0.612889  0.748719  1
  Ho  Ho2  1  0.612808  0.809309  0.251278  1
  Ho  Ho3  1  0.387163  0.190733  0.748687  1
  Ho  Ho4  1  0.194979  0.805098  0.254076  1
  Ho  Ho5  1  0.805183  0.194957  0.745854  1
  Al  Al6  1  0.328503  0.671400  0.022903  1
  Al  Al7  1  0.671340  0.328521  0.976799  1
  Al  Al8  1  0.666243  0.333928  0.518483  1
  Al  Al9  1  0.333848  0.666263  0.481708  1
  Al  Al10  1  0.162825  0.325830  0.575590  1
  Al  Al11  1  0.837250  0.674248  0.424762  1
  Al  Al12  1  0.674288  0.837298  0.575456  1
  Al  Al13  1  0.848320  0.677564  0.079318  1
  Al  Al14  1  0.325865  0.162722  0.424760  1
  Al  Al15  1  0.151602  0.322434  0.920355  1
  Al  Al16  1  0.163161  0.836893  0.575646  1
  Al  Al17  1  0.322446  0.151569  0.079313  1
  Al  Al18  1  0.836691  0.163147  0.424538  1
  Al  Al19  1  0.677609  0.848403  0.920551  1
  Al  Al20  1  0.836526  0.163179  0.075370  1
  Al  Al21  1  0.163222  0.836774  0.924402  1
  Al  Al22  1  0.560973  0.121411  0.249236  1
  Al  Al23  1  0.439037  0.878644  0.750800  1
  Al  Al24  1  0.878451  0.439072  0.249236  1
  Al  Al25  1  0.121409  0.561055  0.750783  1
  Al  Al26  1  0.563903  0.436393  0.255827  1
  Al  Al27  1  0.436371  0.563751  0.744311  1
  Al  Al28  1  0.999050  0.999689  0.250394  1
  Al  Al29  1  0.000547  0.999490  0.749686  1
  Os  Os30  1  0.500156  0.000081  0.999925  1
  Os  Os31  1  0.999873  0.500065  0.999862  1
  Os  Os32  1  0.500209  0.000391  0.500007  1
  Os  Os33  1  0.999790  0.500142  0.500096  1
  Os  Os34  1  0.500250  0.500242  0.500214  1
  Os  Os35  1  0.999860  0.999803  0.000094  1
  Os  Os36  1  0.000138  0.000181  0.500163  1
  Au  Au37  1  0.500286  0.500144  0.999752  1
