# generated using pymatgen
data_Rb3PrV2O8
_symmetry_space_group_name_H-M   'P 1'
_cell_length_a   6.22666500
_cell_length_b   6.22666469
_cell_length_c   8.09075500
_cell_angle_alpha   90.00000000
_cell_angle_beta   90.00000000
_cell_angle_gamma   119.99999634
_symmetry_Int_Tables_number   1
_chemical_formula_structural   Rb3PrV2O8
_chemical_formula_sum   'Rb3 Pr1 V2 O8'
_cell_volume   271.66311622
_cell_formula_units_Z   1
loop_
 _symmetry_equiv_pos_site_id
 _symmetry_equiv_pos_as_xyz
  1  'x, y, z'
loop_
 _atom_site_type_symbol
 _atom_site_label
 _atom_site_symmetry_multiplicity
 _atom_site_fract_x
 _atom_site_fract_y
 _atom_site_fract_z
 _atom_site_occupancy
  Rb  Rb0  1  0.333333  0.666667  0.704694  1
  Rb  Rb1  1  0.666667  0.333333  0.295306  1
  Rb  Rb2  1  0.000000  0.000000  0.000000  1
  Pr  Pr3  1  0.000000  0.000000  0.500000  1
  V  V4  1  0.333333  0.666667  0.251955  1
  V  V5  1  0.666667  0.333333  0.748045  1
  O  O6  1  0.333333  0.666667  0.043764  1
  O  O7  1  0.666667  0.333333  0.956236  1
  O  O8  1  0.178714  0.821286  0.325323  1
  O  O9  1  0.821286  0.178714  0.674677  1
  O  O10  1  0.178714  0.357428  0.325323  1
  O  O11  1  0.821286  0.642572  0.674677  1
  O  O12  1  0.642572  0.821286  0.325323  1
  O  O13  1  0.357428  0.178714  0.674677  1
