# generated using pymatgen
data_Sc3GaSn2Pt3
_symmetry_space_group_name_H-M   'P 1'
_cell_length_a   7.43306200
_cell_length_b   7.50154333
_cell_length_c   3.54474600
_cell_angle_alpha   90.00000000
_cell_angle_beta   90.00000000
_cell_angle_gamma   119.69847294
_symmetry_Int_Tables_number   1
_chemical_formula_structural   Sc3GaSn2Pt3
_chemical_formula_sum   'Sc3 Ga1 Sn2 Pt3'
_cell_volume   171.69026952
_cell_formula_units_Z   1
loop_
 _symmetry_equiv_pos_site_id
 _symmetry_equiv_pos_as_xyz
  1  'x, y, z'
loop_
 _atom_site_type_symbol
 _atom_site_label
 _atom_site_symmetry_multiplicity
 _atom_site_fract_x
 _atom_site_fract_y
 _atom_site_fract_z
 _atom_site_occupancy
  Sc  Sc0  1  0.413385  0.000000  0.500000  1
  Sc  Sc1  1  0.985024  0.381729  0.500000  1
  Sc  Sc2  1  0.603294  0.618271  0.500000  1
  Ga  Ga3  1  0.725354  0.000000  0.000000  1
  Sn  Sn4  1  0.000912  0.728046  0.000000  1
  Sn  Sn5  1  0.272867  0.271954  0.000000  1
  Pt  Pt6  1  0.344769  0.674214  0.000000  1
  Pt  Pt7  1  0.670555  0.325786  0.000000  1
  Pt  Pt8  1  0.983840  0.000000  0.500000  1
