# generated using pymatgen
data_Ta4GaGeTe8
_symmetry_space_group_name_H-M   'P 1'
_cell_length_a   8.04182102
_cell_length_b   6.50103609
_cell_length_c   7.69493300
_cell_angle_alpha   97.66690826
_cell_angle_beta   104.95367275
_cell_angle_gamma   89.38254657
_symmetry_Int_Tables_number   1
_chemical_formula_structural   Ta4GaGeTe8
_chemical_formula_sum   'Ta4 Ga1 Ge1 Te8'
_cell_volume   385.07662879
_cell_formula_units_Z   1
loop_
 _symmetry_equiv_pos_site_id
 _symmetry_equiv_pos_as_xyz
  1  'x, y, z'
loop_
 _atom_site_type_symbol
 _atom_site_label
 _atom_site_symmetry_multiplicity
 _atom_site_fract_x
 _atom_site_fract_y
 _atom_site_fract_z
 _atom_site_occupancy
  Ta  Ta0  1  0.092064  0.107836  0.999643  1
  Ta  Ta1  1  0.407936  0.892164  0.000357  1
  Ta  Ta2  1  0.589588  0.394772  0.000444  1
  Ta  Ta3  1  0.910412  0.605228  0.999556  1
  Ga  Ga4  1  0.750000  0.000000  0.000000  1
  Ge  Ge5  1  0.250000  0.500000  0.000000  1
  Te  Te6  1  0.071459  0.747053  0.742257  1
  Te  Te7  1  0.197029  0.826803  0.257054  1
  Te  Te8  1  0.302971  0.173197  0.742946  1
  Te  Te9  1  0.428541  0.252947  0.257743  1
  Te  Te10  1  0.572037  0.675179  0.745609  1
  Te  Te11  1  0.697904  0.754302  0.254489  1
  Te  Te12  1  0.802096  0.245698  0.745511  1
  Te  Te13  1  0.927963  0.324821  0.254391  1
