# generated using pymatgen
data_Pr6Si2GeSe14
_symmetry_space_group_name_H-M   'P 1'
_cell_length_a   10.76041300
_cell_length_b   10.76041287
_cell_length_c   6.06957600
_cell_angle_alpha   90.00000000
_cell_angle_beta   90.00000000
_cell_angle_gamma   120.00000961
_symmetry_Int_Tables_number   1
_chemical_formula_structural   Pr6Si2GeSe14
_chemical_formula_sum   'Pr6 Si2 Ge1 Se14'
_cell_volume   608.62084021
_cell_formula_units_Z   1
loop_
 _symmetry_equiv_pos_site_id
 _symmetry_equiv_pos_as_xyz
  1  'x, y, z'
loop_
 _atom_site_type_symbol
 _atom_site_label
 _atom_site_symmetry_multiplicity
 _atom_site_fract_x
 _atom_site_fract_y
 _atom_site_fract_z
 _atom_site_occupancy
  Pr  Pr0  1  0.308504  0.105339  0.753597  1
  Pr  Pr1  1  0.796835  0.691496  0.753597  1
  Pr  Pr2  1  0.894661  0.203165  0.753597  1
  Pr  Pr3  1  0.025210  0.561403  0.250640  1
  Pr  Pr4  1  0.536192  0.974790  0.250640  1
  Pr  Pr5  1  0.438597  0.463808  0.250640  1
  Si  Si6  1  0.000000  0.000000  0.166532  1
  Si  Si7  1  0.333333  0.666667  0.663331  1
  Ge  Ge8  1  0.666667  0.333333  0.517358  1
  Se  Se9  1  0.000000  0.000000  0.540125  1
  Se  Se10  1  0.333333  0.666667  0.037482  1
  Se  Se11  1  0.144341  0.225707  0.018983  1
  Se  Se12  1  0.081366  0.855659  0.018983  1
  Se  Se13  1  0.774293  0.918634  0.018983  1
  Se  Se14  1  0.189100  0.441104  0.516067  1
  Se  Se15  1  0.252003  0.810900  0.516067  1
  Se  Se16  1  0.558896  0.747997  0.516067  1
  Se  Se17  1  0.410704  0.171726  0.274828  1
  Se  Se18  1  0.761023  0.589296  0.274828  1
  Se  Se19  1  0.828274  0.238977  0.274828  1
  Se  Se20  1  0.923263  0.497791  0.765625  1
  Se  Se21  1  0.574528  0.076737  0.765625  1
  Se  Se22  1  0.502209  0.425472  0.765625  1
