# generated using pymatgen
data_Tb5Y5AlBi5
_symmetry_space_group_name_H-M   'P 1'
_cell_length_a   9.14333923
_cell_length_b   9.14032180
_cell_length_c   6.43564000
_cell_angle_alpha   90.00000000
_cell_angle_beta   90.00000000
_cell_angle_gamma   119.80268403
_symmetry_Int_Tables_number   1
_chemical_formula_structural   Tb5Y5AlBi5
_chemical_formula_sum   'Tb5 Y5 Al1 Bi5'
_cell_volume   466.71178310
_cell_formula_units_Z   1
loop_
 _symmetry_equiv_pos_site_id
 _symmetry_equiv_pos_as_xyz
  1  'x, y, z'
loop_
 _atom_site_type_symbol
 _atom_site_label
 _atom_site_symmetry_multiplicity
 _atom_site_fract_x
 _atom_site_fract_y
 _atom_site_fract_z
 _atom_site_occupancy
  Tb  Tb0  1  0.659848  0.335489  0.996927  1
  Tb  Tb1  1  0.335441  0.659806  0.996918  1
  Tb  Tb2  1  0.335441  0.659806  0.503082  1
  Tb  Tb3  1  0.659848  0.335489  0.503073  1
  Tb  Tb4  1  0.000379  0.758282  0.250000  1
  Y  Y5  1  0.750121  0.750129  0.750000  1
  Y  Y6  1  0.243776  0.012585  0.750000  1
  Y  Y7  1  0.012572  0.243753  0.750000  1
  Y  Y8  1  0.240556  0.240540  0.250000  1
  Y  Y9  1  0.758242  0.000362  0.250000  1
  Al  Al10  1  0.395381  0.395392  0.750000  1
  Bi  Bi11  1  0.611656  0.002560  0.750000  1
  Bi  Bi12  1  0.002571  0.611665  0.750000  1
  Bi  Bi13  1  0.607900  0.607973  0.250000  1
  Bi  Bi14  1  0.390237  0.996101  0.250000  1
  Bi  Bi15  1  0.996031  0.390069  0.250000  1
