# generated using pymatgen
data_Y4PtPb2Au3
_symmetry_space_group_name_H-M   'P 1'
_cell_length_a   8.14266700
_cell_length_b   8.14266798
_cell_length_c   3.66006600
_cell_angle_alpha   90.00000000
_cell_angle_beta   90.00000000
_cell_angle_gamma   90.06946422
_symmetry_Int_Tables_number   1
_chemical_formula_structural   Y4PtPb2Au3
_chemical_formula_sum   'Y4 Pt1 Pb2 Au3'
_cell_volume   242.67330168
_cell_formula_units_Z   1
loop_
 _symmetry_equiv_pos_site_id
 _symmetry_equiv_pos_as_xyz
  1  'x, y, z'
loop_
 _atom_site_type_symbol
 _atom_site_label
 _atom_site_symmetry_multiplicity
 _atom_site_fract_x
 _atom_site_fract_y
 _atom_site_fract_z
 _atom_site_occupancy
  Y  Y0  1  0.665892  0.165892  0.500000  1
  Y  Y1  1  0.170041  0.345070  0.500000  1
  Y  Y2  1  0.845070  0.670041  0.500000  1
  Y  Y3  1  0.323390  0.823390  0.500000  1
  Pt  Pt4  1  0.125517  0.625517  0.000000  1
  Pb  Pb5  1  0.002363  0.998034  0.000000  1
  Pb  Pb6  1  0.498034  0.502363  0.000000  1
  Au  Au7  1  0.872712  0.372712  0.000000  1
  Au  Au8  1  0.371905  0.125077  0.000000  1
  Au  Au9  1  0.625077  0.871905  0.000000  1
