# generated using pymatgen
data_Rb2ThTe3
_symmetry_space_group_name_H-M   'P 1'
_cell_length_a   8.38956952
_cell_length_b   8.38956965
_cell_length_c   9.01076285
_cell_angle_alpha   80.91863975
_cell_angle_beta   80.91864214
_cell_angle_gamma   120.01940180
_symmetry_Int_Tables_number   1
_chemical_formula_structural   Rb2ThTe3
_chemical_formula_sum   'Rb4 Th2 Te6'
_cell_volume   521.04860100
_cell_formula_units_Z   2
loop_
 _symmetry_equiv_pos_site_id
 _symmetry_equiv_pos_as_xyz
  1  'x, y, z'
loop_
 _atom_site_type_symbol
 _atom_site_label
 _atom_site_symmetry_multiplicity
 _atom_site_fract_x
 _atom_site_fract_y
 _atom_site_fract_z
 _atom_site_occupancy
  Rb  Rb0  1  0.500000  0.500000  0.000000  1
  Rb  Rb1  1  0.656237  0.343763  0.500000  1
  Rb  Rb2  1  0.343763  0.656237  0.500000  1
  Rb  Rb3  1  0.000000  0.000000  0.500000  1
  Th  Th4  1  0.832185  0.167815  0.000000  1
  Th  Th5  1  0.167815  0.832185  0.000000  1
  Te  Te6  1  0.805902  0.805902  0.204840  1
  Te  Te7  1  0.194098  0.194098  0.795160  1
  Te  Te8  1  0.429894  0.053680  0.207312  1
  Te  Te9  1  0.570106  0.946320  0.792688  1
  Te  Te10  1  0.946320  0.570106  0.792688  1
  Te  Te11  1  0.053680  0.429894  0.207312  1
