# generated using pymatgen
data_TbErAl9Pd2Rh
_symmetry_space_group_name_H-M   'P 1'
_cell_length_a   7.61498006
_cell_length_b   7.61575276
_cell_length_c   9.45804600
_cell_angle_alpha   90.00000000
_cell_angle_beta   90.00000000
_cell_angle_gamma   119.57208112
_symmetry_Int_Tables_number   1
_chemical_formula_structural   TbErAl9Pd2Rh
_chemical_formula_sum   'Tb2 Er2 Al18 Pd4 Rh2'
_cell_volume   477.05695530
_cell_formula_units_Z   2
loop_
 _symmetry_equiv_pos_site_id
 _symmetry_equiv_pos_as_xyz
  1  'x, y, z'
loop_
 _atom_site_type_symbol
 _atom_site_label
 _atom_site_symmetry_multiplicity
 _atom_site_fract_x
 _atom_site_fract_y
 _atom_site_fract_z
 _atom_site_occupancy
  Tb  Tb0  1  0.994265  0.668535  0.750000  1
  Tb  Tb1  1  0.005735  0.331465  0.250000  1
  Er  Er2  1  0.668574  0.994289  0.750000  1
  Er  Er3  1  0.331426  0.005711  0.250000  1
  Al  Al4  1  0.125979  0.126101  0.750000  1
  Al  Al5  1  0.874021  0.873899  0.250000  1
  Al  Al6  1  0.999717  0.330901  0.576436  1
  Al  Al7  1  0.000283  0.669099  0.423564  1
  Al  Al8  1  0.000283  0.669099  0.076436  1
  Al  Al9  1  0.331492  0.000028  0.923796  1
  Al  Al10  1  0.999717  0.330901  0.923564  1
  Al  Al11  1  0.668508  0.999972  0.076204  1
  Al  Al12  1  0.668508  0.999972  0.423796  1
  Al  Al13  1  0.331492  0.000028  0.576204  1
  Al  Al14  1  0.330120  0.329842  0.055672  1
  Al  Al15  1  0.669880  0.670158  0.944328  1
  Al  Al16  1  0.669880  0.670158  0.555672  1
  Al  Al17  1  0.330120  0.329842  0.444328  1
  Al  Al18  1  0.340385  0.547641  0.750000  1
  Al  Al19  1  0.659615  0.452359  0.250000  1
  Al  Al20  1  0.547376  0.339980  0.750000  1
  Al  Al21  1  0.452624  0.660020  0.250000  1
  Pd  Pd22  1  0.672470  0.327212  0.500001  1
  Pd  Pd23  1  0.327530  0.672788  0.499999  1
  Pd  Pd24  1  0.327530  0.672788  0.000001  1
  Pd  Pd25  1  0.672470  0.327212  0.999999  1
  Rh  Rh26  1  0.000000  0.000000  0.500000  1
  Rh  Rh27  1  0.000000  0.000000  0.000000  1
