# generated using pymatgen
data_LaLu3(ScIr)4
_symmetry_space_group_name_H-M   'P 1'
_cell_length_a   4.23536800
_cell_length_b   7.14396204
_cell_length_c   8.74117968
_cell_angle_alpha   90.76831879
_cell_angle_beta   90.00000000
_cell_angle_gamma   90.00000000
_symmetry_Int_Tables_number   1
_chemical_formula_structural   LaLu3(ScIr)4
_chemical_formula_sum   'La1 Lu3 Sc4 Ir4'
_cell_volume   264.46078803
_cell_formula_units_Z   1
loop_
 _symmetry_equiv_pos_site_id
 _symmetry_equiv_pos_as_xyz
  1  'x, y, z'
loop_
 _atom_site_type_symbol
 _atom_site_label
 _atom_site_symmetry_multiplicity
 _atom_site_fract_x
 _atom_site_fract_y
 _atom_site_fract_z
 _atom_site_occupancy
  La  La0  1  0.750000  0.508746  0.822577  1
  Lu  Lu1  1  0.250000  0.978523  0.327540  1
  Lu  Lu2  1  0.250000  0.480817  0.176102  1
  Lu  Lu3  1  0.750000  0.019103  0.666717  1
  Sc  Sc4  1  0.250000  0.358465  0.554683  1
  Sc  Sc5  1  0.250000  0.862275  0.938394  1
  Sc  Sc6  1  0.750000  0.646511  0.429547  1
  Sc  Sc7  1  0.750000  0.141108  0.071550  1
  Ir  Ir8  1  0.250000  0.234098  0.899055  1
  Ir  Ir9  1  0.250000  0.747162  0.604621  1
  Ir  Ir10  1  0.750000  0.763621  0.118989  1
  Ir  Ir11  1  0.750000  0.259573  0.390227  1
