# generated using pymatgen
data_Dy10Tl7In(CoNi)2
_symmetry_space_group_name_H-M   'P 1'
_cell_length_a   3.58370000
_cell_length_b   8.14257202
_cell_length_c   18.14745316
_cell_angle_alpha   90.01170818
_cell_angle_beta   90.00000000
_cell_angle_gamma   90.00000000
_symmetry_Int_Tables_number   1
_chemical_formula_structural   Dy10Tl7In(CoNi)2
_chemical_formula_sum   'Dy10 Tl7 In1 Co2 Ni2'
_cell_volume   529.55238746
_cell_formula_units_Z   1
loop_
 _symmetry_equiv_pos_site_id
 _symmetry_equiv_pos_as_xyz
  1  'x, y, z'
loop_
 _atom_site_type_symbol
 _atom_site_label
 _atom_site_symmetry_multiplicity
 _atom_site_fract_x
 _atom_site_fract_y
 _atom_site_fract_z
 _atom_site_occupancy
  Dy  Dy0  1  0.500000  0.385382  0.592062  1
  Dy  Dy1  1  0.500000  0.885442  0.908015  1
  Dy  Dy2  1  0.500000  0.115403  0.092008  1
  Dy  Dy3  1  0.500000  0.763664  0.721341  1
  Dy  Dy4  1  0.500000  0.244231  0.780421  1
  Dy  Dy5  1  0.500000  0.498034  0.000439  1
  Dy  Dy6  1  0.500000  0.735406  0.221332  1
  Dy  Dy7  1  0.500000  0.255648  0.279808  1
  Dy  Dy8  1  0.500000  0.000393  0.498960  1
  Dy  Dy9  1  0.500000  0.613662  0.406476  1
  Tl  Tl10  1  0.000000  0.794585  0.067394  1
  Tl  Tl11  1  0.000000  0.923830  0.346952  1
  Tl  Tl12  1  0.000000  0.075290  0.651429  1
  Tl  Tl13  1  0.000000  0.576851  0.847637  1
  Tl  Tl14  1  0.000000  0.703023  0.565565  1
  Tl  Tl15  1  0.000000  0.202325  0.933027  1
  Tl  Tl16  1  0.000000  0.297343  0.432983  1
  In  In17  1  0.000000  0.424707  0.152718  1
  Co  Co18  1  0.000000  0.980381  0.804387  1
  Co  Co19  1  0.000000  0.519307  0.302044  1
  Ni  Ni20  1  0.000000  0.479164  0.697554  1
  Ni  Ni21  1  0.000000  0.025930  0.197451  1
