# generated using pymatgen
data_Y11Ho4Er(CdPd)4
_symmetry_space_group_name_H-M   'P 1'
_cell_length_a   9.68618495
_cell_length_b   9.71198620
_cell_length_c   9.71254667
_cell_angle_alpha   60.11217162
_cell_angle_beta   60.08527435
_cell_angle_gamma   60.08347796
_symmetry_Int_Tables_number   1
_chemical_formula_structural   Y11Ho4Er(CdPd)4
_chemical_formula_sum   'Y11 Ho4 Er1 Cd4 Pd4'
_cell_volume   647.43979170
_cell_formula_units_Z   1
loop_
 _symmetry_equiv_pos_site_id
 _symmetry_equiv_pos_as_xyz
  1  'x, y, z'
loop_
 _atom_site_type_symbol
 _atom_site_label
 _atom_site_symmetry_multiplicity
 _atom_site_fract_x
 _atom_site_fract_y
 _atom_site_fract_z
 _atom_site_occupancy
  Y  Y0  1  0.189346  0.810656  0.810642  1
  Y  Y1  1  0.189538  0.810787  0.189989  1
  Y  Y2  1  0.809683  0.189987  0.810777  1
  Y  Y3  1  0.189536  0.189994  0.810784  1
  Y  Y4  1  0.809676  0.810784  0.189984  1
  Y  Y5  1  0.934562  0.565435  0.565423  1
  Y  Y6  1  0.564451  0.935543  0.935545  1
  Y  Y7  1  0.565616  0.935486  0.564001  1
  Y  Y8  1  0.934882  0.564003  0.935484  1
  Y  Y9  1  0.565626  0.563993  0.935482  1
  Y  Y10  1  0.934886  0.935485  0.564007  1
  Ho  Ho11  1  0.352317  0.353498  0.353483  1
  Ho  Ho12  1  0.353769  0.355341  0.937124  1
  Ho  Ho13  1  0.353761  0.937124  0.355346  1
  Ho  Ho14  1  0.940708  0.353491  0.353483  1
  Er  Er15  1  0.809696  0.190329  0.190389  1
  Cd  Cd16  1  0.582720  0.581660  0.581643  1
  Cd  Cd17  1  0.582415  0.581197  0.253946  1
  Cd  Cd18  1  0.582448  0.253933  0.581208  1
  Cd  Cd19  1  0.253940  0.581672  0.581660  1
  Pd  Pd20  1  0.145070  0.145773  0.145774  1
  Pd  Pd21  1  0.145981  0.144732  0.563315  1
  Pd  Pd22  1  0.145980  0.563317  0.144733  1
  Pd  Pd23  1  0.563393  0.145780  0.145776  1
