# generated using pymatgen
data_Tb3Tm3Si24OsRu7
_symmetry_space_group_name_H-M   'P 1'
_cell_length_a   10.10547079
_cell_length_b   10.10384276
_cell_length_c   8.13600035
_cell_angle_alpha   89.93528586
_cell_angle_beta   90.05572693
_cell_angle_gamma   132.52117652
_symmetry_Int_Tables_number   1
_chemical_formula_structural   Tb3Tm3Si24OsRu7
_chemical_formula_sum   'Tb3 Tm3 Si24 Os1 Ru7'
_cell_volume   612.26232859
_cell_formula_units_Z   1
loop_
 _symmetry_equiv_pos_site_id
 _symmetry_equiv_pos_as_xyz
  1  'x, y, z'
loop_
 _atom_site_type_symbol
 _atom_site_label
 _atom_site_symmetry_multiplicity
 _atom_site_fract_x
 _atom_site_fract_y
 _atom_site_fract_z
 _atom_site_occupancy
  Tb  Tb0  1  0.997527  0.497432  0.249739  1
  Tb  Tb1  1  0.498006  0.997600  0.249617  1
  Tb  Tb2  1  0.002325  0.501990  0.750442  1
  Tm  Tm3  1  0.500083  0.499929  0.500143  1
  Tm  Tm4  1  0.000022  0.999948  0.999878  1
  Tm  Tm5  1  0.502245  0.002382  0.750164  1
  Si  Si6  1  0.795000  0.204163  0.500766  1
  Si  Si7  1  0.295028  0.705657  0.999264  1
  Si  Si8  1  0.205642  0.795110  0.500709  1
  Si  Si9  1  0.704805  0.294090  0.999246  1
  Si  Si10  1  0.331696  0.331945  0.833410  1
  Si  Si11  1  0.668077  0.668301  0.166743  1
  Si  Si12  1  0.167444  0.167304  0.332235  1
  Si  Si13  1  0.832762  0.832448  0.667594  1
  Si  Si14  1  0.121658  0.888109  0.728698  1
  Si  Si15  1  0.111781  0.877808  0.270775  1
  Si  Si16  1  0.613302  0.379335  0.227528  1
  Si  Si17  1  0.620521  0.387121  0.773538  1
  Si  Si18  1  0.878303  0.111995  0.270114  1
  Si  Si19  1  0.888538  0.121851  0.728883  1
  Si  Si20  1  0.387799  0.621919  0.772028  1
  Si  Si21  1  0.377664  0.612188  0.228426  1
  Si  Si22  1  0.343270  0.110659  0.505534  1
  Si  Si23  1  0.888523  0.655160  0.495206  1
  Si  Si24  1  0.387910  0.155362  0.003165  1
  Si  Si25  1  0.846279  0.612826  0.996075  1
  Si  Si26  1  0.655191  0.887915  0.494913  1
  Si  Si27  1  0.112792  0.346537  0.505835  1
  Si  Si28  1  0.611944  0.844870  0.995033  1
  Si  Si29  1  0.153692  0.387294  0.004368  1
  Os  Os30  1  0.666325  0.328936  0.501610  1
  Ru  Ru31  1  0.171084  0.833614  0.998789  1
  Ru  Ru32  1  0.333769  0.671282  0.501242  1
  Ru  Ru33  1  0.828866  0.166264  0.998332  1
  Ru  Ru34  1  0.126972  0.127468  0.626596  1
  Ru  Ru35  1  0.872852  0.873068  0.373101  1
  Ru  Ru36  1  0.374619  0.374567  0.127745  1
  Ru  Ru37  1  0.625688  0.625552  0.872517  1
