# generated using pymatgen
data_PrSmEr6(Si3Rh)4
_symmetry_space_group_name_H-M   'P 1'
_cell_length_a   8.18220400
_cell_length_b   8.18220578
_cell_length_c   7.96171500
_cell_angle_alpha   90.00000000
_cell_angle_beta   90.00000000
_cell_angle_gamma   120.00000089
_symmetry_Int_Tables_number   1
_chemical_formula_structural   PrSmEr6(Si3Rh)4
_chemical_formula_sum   'Pr1 Sm1 Er6 Si12 Rh4'
_cell_volume   461.61292031
_cell_formula_units_Z   1
loop_
 _symmetry_equiv_pos_site_id
 _symmetry_equiv_pos_as_xyz
  1  'x, y, z'
loop_
 _atom_site_type_symbol
 _atom_site_label
 _atom_site_symmetry_multiplicity
 _atom_site_fract_x
 _atom_site_fract_y
 _atom_site_fract_z
 _atom_site_occupancy
  Pr  Pr0  1  0.000000  0.000000  0.250000  1
  Sm  Sm1  1  0.000000  0.000000  0.750000  1
  Er  Er2  1  0.492461  0.507539  0.250000  1
  Er  Er3  1  0.492461  0.984920  0.250000  1
  Er  Er4  1  0.015080  0.507539  0.250000  1
  Er  Er5  1  0.507546  0.492454  0.750000  1
  Er  Er6  1  0.984907  0.492454  0.750000  1
  Er  Er7  1  0.507546  0.015093  0.750000  1
  Si  Si8  1  0.831727  0.168273  0.503620  1
  Si  Si9  1  0.831727  0.663453  0.503620  1
  Si  Si10  1  0.336547  0.168273  0.503620  1
  Si  Si11  1  0.831727  0.168273  0.996380  1
  Si  Si12  1  0.831727  0.663453  0.996380  1
  Si  Si13  1  0.336547  0.168273  0.996380  1
  Si  Si14  1  0.168313  0.831687  0.000889  1
  Si  Si15  1  0.663374  0.831687  0.000889  1
  Si  Si16  1  0.168313  0.336626  0.000889  1
  Si  Si17  1  0.168313  0.831687  0.499111  1
  Si  Si18  1  0.663374  0.831687  0.499111  1
  Si  Si19  1  0.168313  0.336626  0.499111  1
  Rh  Rh20  1  0.666667  0.333333  0.467734  1
  Rh  Rh21  1  0.666667  0.333333  0.032266  1
  Rh  Rh22  1  0.333333  0.666667  0.966775  1
  Rh  Rh23  1  0.333333  0.666667  0.533225  1
