# generated using pymatgen
data_Sc8Ti9Si8Ge8W3
_symmetry_space_group_name_H-M   'P 1'
_cell_length_a   6.68764362
_cell_length_b   6.81033305
_cell_length_c   13.12818500
_cell_angle_alpha   90.00000000
_cell_angle_beta   90.00000000
_cell_angle_gamma   90.12784316
_symmetry_Int_Tables_number   1
_chemical_formula_structural   Sc8Ti9Si8Ge8W3
_chemical_formula_sum   'Sc8 Ti9 Si8 Ge8 W3'
_cell_volume   597.92275209
_cell_formula_units_Z   1
loop_
 _symmetry_equiv_pos_site_id
 _symmetry_equiv_pos_as_xyz
  1  'x, y, z'
loop_
 _atom_site_type_symbol
 _atom_site_label
 _atom_site_symmetry_multiplicity
 _atom_site_fract_x
 _atom_site_fract_y
 _atom_site_fract_z
 _atom_site_occupancy
  Sc  Sc0  1  0.495161  0.677725  0.597825  1
  Sc  Sc1  1  0.998146  0.826009  0.902240  1
  Sc  Sc2  1  0.504197  0.323040  0.098919  1
  Sc  Sc3  1  0.003801  0.176691  0.400411  1
  Sc  Sc4  1  0.504197  0.323040  0.401081  1
  Sc  Sc5  1  0.003801  0.176691  0.099589  1
  Sc  Sc6  1  0.495161  0.677725  0.902175  1
  Sc  Sc7  1  0.998146  0.826009  0.597760  1
  Ti  Ti8  1  0.655911  0.168749  0.629810  1
  Ti  Ti9  1  0.162252  0.328298  0.870550  1
  Ti  Ti10  1  0.338920  0.829532  0.129463  1
  Ti  Ti11  1  0.839906  0.668864  0.370760  1
  Ti  Ti12  1  0.338920  0.829532  0.370537  1
  Ti  Ti13  1  0.839906  0.668864  0.129240  1
  Ti  Ti14  1  0.655911  0.168749  0.870190  1
  Ti  Ti15  1  0.162252  0.328298  0.629450  1
  Ti  Ti16  1  0.836179  0.492065  0.750000  1
  Si  Si17  1  0.460142  0.384980  0.750000  1
  Si  Si18  1  0.959273  0.115803  0.750000  1
  Si  Si19  1  0.540142  0.615675  0.250000  1
  Si  Si20  1  0.039937  0.884325  0.250000  1
  Si  Si21  1  0.700381  0.859854  0.750000  1
  Si  Si22  1  0.200906  0.638744  0.750000  1
  Si  Si23  1  0.300349  0.139453  0.250000  1
  Si  Si24  1  0.799405  0.360729  0.250000  1
  Ge  Ge25  1  0.679662  0.961967  0.459846  1
  Ge  Ge26  1  0.177839  0.536815  0.039819  1
  Ge  Ge27  1  0.321365  0.038836  0.960845  1
  Ge  Ge28  1  0.821841  0.463362  0.540675  1
  Ge  Ge29  1  0.321365  0.038836  0.539155  1
  Ge  Ge30  1  0.821841  0.463362  0.959325  1
  Ge  Ge31  1  0.679662  0.961967  0.040154  1
  Ge  Ge32  1  0.177839  0.536815  0.460181  1
  W  W33  1  0.335907  0.008493  0.750000  1
  W  W34  1  0.165033  0.509136  0.250000  1
  W  W35  1  0.664342  0.990970  0.250000  1
