# generated using pymatgen
data_Sc5Si4Mo2P8Ir17
_symmetry_space_group_name_H-M   'P 1'
_cell_length_a   12.69437386
_cell_length_b   12.71103798
_cell_length_c   3.93130000
_cell_angle_alpha   90.00000000
_cell_angle_beta   90.00000000
_cell_angle_gamma   120.87273016
_symmetry_Int_Tables_number   1
_chemical_formula_structural   Sc5Si4Mo2P8Ir17
_chemical_formula_sum   'Sc5 Si4 Mo2 P8 Ir17'
_cell_volume   544.46788574
_cell_formula_units_Z   1
loop_
 _symmetry_equiv_pos_site_id
 _symmetry_equiv_pos_as_xyz
  1  'x, y, z'
loop_
 _atom_site_type_symbol
 _atom_site_label
 _atom_site_symmetry_multiplicity
 _atom_site_fract_x
 _atom_site_fract_y
 _atom_site_fract_z
 _atom_site_occupancy
  Sc  Sc0  1  0.328111  0.669559  0.000000  1
  Sc  Sc1  1  0.669556  0.330180  0.000000  1
  Sc  Sc2  1  0.813927  0.001987  0.500000  1
  Sc  Sc3  1  0.003877  0.814204  0.500000  1
  Sc  Sc4  1  0.185427  0.186652  0.500000  1
  Si  Si5  1  0.169438  0.485340  0.500000  1
  Si  Si6  1  0.514242  0.686598  0.500000  1
  Si  Si7  1  0.318459  0.836612  0.500000  1
  Si  Si8  1  0.686667  0.515330  0.500000  1
  Mo  Mo9  1  0.452454  0.005672  0.000000  1
  Mo  Mo10  1  0.998852  0.447887  0.000000  1
  P  P11  1  0.174660  0.999589  0.000000  1
  P  P12  1  0.998759  0.174195  0.000000  1
  P  P13  1  0.821366  0.820130  0.000000  1
  P  P14  1  0.836895  0.318685  0.500000  1
  P  P15  1  0.484758  0.169249  0.500000  1
  P  P16  1  0.633851  0.994745  0.000000  1
  P  P17  1  0.000718  0.635794  0.000000  1
  P  P18  1  0.356617  0.359367  0.000000  1
  Ir  Ir19  1  0.546323  0.541949  0.000000  1
  Ir  Ir20  1  0.357967  0.485692  0.500000  1
  Ir  Ir21  1  0.519074  0.877572  0.500000  1
  Ir  Ir22  1  0.132234  0.644061  0.500000  1
  Ir  Ir23  1  0.869855  0.510346  0.500000  1
  Ir  Ir24  1  0.645651  0.142222  0.500000  1
  Ir  Ir25  1  0.489692  0.353668  0.500000  1
  Ir  Ir26  1  0.178921  0.371672  0.000000  1
  Ir  Ir27  1  0.626605  0.804100  0.000000  1
  Ir  Ir28  1  0.190456  0.822913  0.000000  1
  Ir  Ir29  1  0.809732  0.627995  0.000000  1
  Ir  Ir30  1  0.817788  0.184827  0.000000  1
  Ir  Ir31  1  0.370515  0.182655  0.000000  1
  Ir  Ir32  1  0.281427  0.005032  0.500000  1
  Ir  Ir33  1  0.997400  0.277055  0.500000  1
  Ir  Ir34  1  0.719310  0.718070  0.500000  1
  Ir  Ir35  1  0.998417  0.998400  0.000000  1
