# generated using pymatgen
data_NdMn4NbP3
_symmetry_space_group_name_H-M   'P 1'
_cell_length_a   3.67085400
_cell_length_b   11.06257800
_cell_length_c   12.57928300
_cell_angle_alpha   90.00000000
_cell_angle_beta   90.00000000
_cell_angle_gamma   90.00000000
_symmetry_Int_Tables_number   1
_chemical_formula_structural   NdMn4NbP3
_chemical_formula_sum   'Nd4 Mn16 Nb4 P12'
_cell_volume   510.83347074
_cell_formula_units_Z   4
loop_
 _symmetry_equiv_pos_site_id
 _symmetry_equiv_pos_as_xyz
  1  'x, y, z'
loop_
 _atom_site_type_symbol
 _atom_site_label
 _atom_site_symmetry_multiplicity
 _atom_site_fract_x
 _atom_site_fract_y
 _atom_site_fract_z
 _atom_site_occupancy
  Nd  Nd0  1  0.250000  0.587840  0.707494  1
  Nd  Nd1  1  0.250000  0.912160  0.207494  1
  Nd  Nd2  1  0.750000  0.412160  0.292506  1
  Nd  Nd3  1  0.750000  0.087840  0.792506  1
  Mn  Mn4  1  0.250000  0.410875  0.494267  1
  Mn  Mn5  1  0.250000  0.089125  0.994267  1
  Mn  Mn6  1  0.750000  0.589125  0.505733  1
  Mn  Mn7  1  0.750000  0.910875  0.005733  1
  Mn  Mn8  1  0.250000  0.211387  0.177720  1
  Mn  Mn9  1  0.250000  0.288613  0.677720  1
  Mn  Mn10  1  0.750000  0.788613  0.822280  1
  Mn  Mn11  1  0.750000  0.711387  0.322280  1
  Mn  Mn12  1  0.250000  0.884791  0.695587  1
  Mn  Mn13  1  0.250000  0.615209  0.195587  1
  Mn  Mn14  1  0.750000  0.115209  0.304413  1
  Mn  Mn15  1  0.750000  0.384791  0.804413  1
  Mn  Mn16  1  0.250000  0.465048  0.934279  1
  Mn  Mn17  1  0.250000  0.034952  0.434279  1
  Mn  Mn18  1  0.750000  0.534952  0.065721  1
  Mn  Mn19  1  0.750000  0.965048  0.565721  1
  Nb  Nb20  1  0.250000  0.708402  0.983897  1
  Nb  Nb21  1  0.250000  0.791598  0.483897  1
  Nb  Nb22  1  0.750000  0.291598  0.016103  1
  Nb  Nb23  1  0.750000  0.208402  0.516103  1
  P  P24  1  0.250000  0.417578  0.114677  1
  P  P25  1  0.250000  0.082422  0.614677  1
  P  P26  1  0.750000  0.582422  0.885323  1
  P  P27  1  0.750000  0.917578  0.385323  1
  P  P28  1  0.250000  0.271365  0.866702  1
  P  P29  1  0.250000  0.228635  0.366702  1
  P  P30  1  0.750000  0.728635  0.133298  1
  P  P31  1  0.750000  0.771365  0.633298  1
  P  P32  1  0.250000  0.588320  0.384244  1
  P  P33  1  0.250000  0.911680  0.884244  1
  P  P34  1  0.750000  0.411680  0.615756  1
  P  P35  1  0.750000  0.088320  0.115756  1
