# generated using pymatgen
data_La2Fe3P7Ru9
_symmetry_space_group_name_H-M   'P 1'
_cell_length_a   9.39695000
_cell_length_b   9.39695037
_cell_length_c   3.89300400
_cell_angle_alpha   90.00000000
_cell_angle_beta   90.00000000
_cell_angle_gamma   119.99999071
_symmetry_Int_Tables_number   1
_chemical_formula_structural   La2Fe3P7Ru9
_chemical_formula_sum   'La2 Fe3 P7 Ru9'
_cell_volume   297.70722285
_cell_formula_units_Z   1
loop_
 _symmetry_equiv_pos_site_id
 _symmetry_equiv_pos_as_xyz
  1  'x, y, z'
loop_
 _atom_site_type_symbol
 _atom_site_label
 _atom_site_symmetry_multiplicity
 _atom_site_fract_x
 _atom_site_fract_y
 _atom_site_fract_z
 _atom_site_occupancy
  La  La0  1  0.333333  0.666667  0.000000  1
  La  La1  1  0.666667  0.333333  0.500000  1
  Fe  Fe2  1  0.154188  0.889167  0.000000  1
  Fe  Fe3  1  0.110833  0.265021  0.000000  1
  Fe  Fe4  1  0.734979  0.845812  0.000000  1
  P  P5  1  0.406941  0.101682  0.000000  1
  P  P6  1  0.898318  0.305260  0.000000  1
  P  P7  1  0.694740  0.593059  0.000000  1
  P  P8  1  0.109022  0.718987  0.500000  1
  P  P9  1  0.281013  0.390035  0.500000  1
  P  P10  1  0.609965  0.890978  0.500000  1
  P  P11  1  0.000000  0.000000  0.000000  1
  Ru  Ru12  1  0.418296  0.359555  0.000000  1
  Ru  Ru13  1  0.640445  0.058739  0.000000  1
  Ru  Ru14  1  0.941261  0.581704  0.000000  1
  Ru  Ru15  1  0.383805  0.948076  0.500000  1
  Ru  Ru16  1  0.051924  0.435728  0.500000  1
  Ru  Ru17  1  0.564272  0.616195  0.500000  1
  Ru  Ru18  1  0.202960  0.114115  0.500000  1
  Ru  Ru19  1  0.885885  0.088847  0.500000  1
  Ru  Ru20  1  0.911153  0.797040  0.500000  1
