# generated using pymatgen
data_Ho3Tm13Cd4TcNi3
_symmetry_space_group_name_H-M   'P 1'
_cell_length_a   9.50527008
_cell_length_b   9.50374980
_cell_length_c   9.49486635
_cell_angle_alpha   59.45791019
_cell_angle_beta   59.42997306
_cell_angle_gamma   59.43085615
_symmetry_Int_Tables_number   1
_chemical_formula_structural   Ho3Tm13Cd4TcNi3
_chemical_formula_sum   'Ho3 Tm13 Cd4 Tc1 Ni3'
_cell_volume   598.77041639
_cell_formula_units_Z   1
loop_
 _symmetry_equiv_pos_site_id
 _symmetry_equiv_pos_as_xyz
  1  'x, y, z'
loop_
 _atom_site_type_symbol
 _atom_site_label
 _atom_site_symmetry_multiplicity
 _atom_site_fract_x
 _atom_site_fract_y
 _atom_site_fract_z
 _atom_site_occupancy
  Ho  Ho0  1  0.940418  0.554957  0.939785  1
  Ho  Ho1  1  0.566079  0.566573  0.934933  1
  Ho  Ho2  1  0.939119  0.939152  0.556036  1
  Tm  Tm3  1  0.346593  0.346537  0.346500  1
  Tm  Tm4  1  0.352709  0.352544  0.954724  1
  Tm  Tm5  1  0.352539  0.953703  0.353031  1
  Tm  Tm6  1  0.953957  0.351960  0.352782  1
  Tm  Tm7  1  0.811373  0.186243  0.187044  1
  Tm  Tm8  1  0.186496  0.811564  0.811227  1
  Tm  Tm9  1  0.186987  0.811173  0.186961  1
  Tm  Tm10  1  0.811672  0.185776  0.811347  1
  Tm  Tm11  1  0.187430  0.186537  0.810813  1
  Tm  Tm12  1  0.811423  0.811502  0.186033  1
  Tm  Tm13  1  0.936566  0.564680  0.563863  1
  Tm  Tm14  1  0.553268  0.941521  0.940615  1
  Tm  Tm15  1  0.565237  0.936327  0.564879  1
  Cd  Cd16  1  0.579694  0.580009  0.579296  1
  Cd  Cd17  1  0.579247  0.579938  0.255915  1
  Cd  Cd18  1  0.579315  0.255538  0.579719  1
  Cd  Cd19  1  0.255764  0.579303  0.579469  1
  Tc  Tc20  1  0.146122  0.144365  0.143771  1
  Ni  Ni21  1  0.141979  0.142679  0.575602  1
  Ni  Ni22  1  0.140134  0.576138  0.143332  1
  Ni  Ni23  1  0.575876  0.141279  0.142322  1
