# generated using pymatgen
data_Yb5Pa3VPd24
_symmetry_space_group_name_H-M   'P 1'
_cell_length_a   8.31999002
_cell_length_b   8.31999032
_cell_length_c   8.31999000
_cell_angle_alpha   90.37058000
_cell_angle_beta   90.37058001
_cell_angle_gamma   90.37057877
_symmetry_Int_Tables_number   1
_chemical_formula_structural   Yb5Pa3VPd24
_chemical_formula_sum   'Yb5 Pa3 V1 Pd24'
_cell_volume   575.89201939
_cell_formula_units_Z   1
loop_
 _symmetry_equiv_pos_site_id
 _symmetry_equiv_pos_as_xyz
  1  'x, y, z'
loop_
 _atom_site_type_symbol
 _atom_site_label
 _atom_site_symmetry_multiplicity
 _atom_site_fract_x
 _atom_site_fract_y
 _atom_site_fract_z
 _atom_site_occupancy
  Yb  Yb0  1  0.749222  0.749222  0.749222  1
  Yb  Yb1  1  0.749632  0.749632  0.253967  1
  Yb  Yb2  1  0.749632  0.253967  0.749632  1
  Yb  Yb3  1  0.253967  0.749632  0.749632  1
  Yb  Yb4  1  0.249337  0.249337  0.249337  1
  Pa  Pa5  1  0.255001  0.255001  0.746006  1
  Pa  Pa6  1  0.255001  0.746006  0.255001  1
  Pa  Pa7  1  0.746006  0.255001  0.255001  1
  V  V8  1  0.994082  0.994082  0.994082  1
  Pd  Pd9  1  0.496318  0.496318  0.748816  1
  Pd  Pd10  1  0.498333  0.254285  0.498333  1
  Pd  Pd11  1  0.254285  0.498333  0.498333  1
  Pd  Pd12  1  0.498333  0.498333  0.254285  1
  Pd  Pd13  1  0.496318  0.748816  0.496318  1
  Pd  Pd14  1  0.748816  0.496318  0.496318  1
  Pd  Pd15  1  0.003895  0.003895  0.705780  1
  Pd  Pd16  1  0.999318  0.286235  0.999318  1
  Pd  Pd17  1  0.286235  0.999318  0.999318  1
  Pd  Pd18  1  0.999318  0.999318  0.286235  1
  Pd  Pd19  1  0.003895  0.705780  0.003895  1
  Pd  Pd20  1  0.705780  0.003895  0.003895  1
  Pd  Pd21  1  0.010039  0.495257  0.740557  1
  Pd  Pd22  1  0.497307  0.259615  0.000864  1
  Pd  Pd23  1  0.259615  0.000864  0.497307  1
  Pd  Pd24  1  0.000864  0.259615  0.497307  1
  Pd  Pd25  1  0.495257  0.010039  0.740557  1
  Pd  Pd26  1  0.259615  0.497307  0.000864  1
  Pd  Pd27  1  0.000864  0.497307  0.259615  1
  Pd  Pd28  1  0.495257  0.740557  0.010039  1
  Pd  Pd29  1  0.010039  0.740557  0.495257  1
  Pd  Pd30  1  0.497307  0.000864  0.259615  1
  Pd  Pd31  1  0.740557  0.010039  0.495257  1
  Pd  Pd32  1  0.740557  0.495257  0.010039  1
