# generated using pymatgen
data_TaBeNb5B3Ru10
_symmetry_space_group_name_H-M   'P 1'
_cell_length_a   9.46494401
_cell_length_b   9.46332314
_cell_length_c   3.05271100
_cell_angle_alpha   90.00000000
_cell_angle_beta   90.00000000
_cell_angle_gamma   90.17610224
_symmetry_Int_Tables_number   1
_chemical_formula_structural   TaBeNb5B3Ru10
_chemical_formula_sum   'Ta1 Be1 Nb5 B3 Ru10'
_cell_volume   273.42949448
_cell_formula_units_Z   1
loop_
 _symmetry_equiv_pos_site_id
 _symmetry_equiv_pos_as_xyz
  1  'x, y, z'
loop_
 _atom_site_type_symbol
 _atom_site_label
 _atom_site_symmetry_multiplicity
 _atom_site_fract_x
 _atom_site_fract_y
 _atom_site_fract_z
 _atom_site_occupancy
  Ta  Ta0  1  0.998828  0.999491  0.000000  1
  Be  Be1  1  0.621176  0.878878  0.000000  1
  Nb  Nb2  1  0.823865  0.676279  0.000000  1
  Nb  Nb3  1  0.175960  0.323978  0.000000  1
  Nb  Nb4  1  0.324893  0.824456  0.000000  1
  Nb  Nb5  1  0.675712  0.175003  0.000000  1
  Nb  Nb6  1  0.500580  0.501307  0.000000  1
  B  B7  1  0.379678  0.120431  0.000000  1
  B  B8  1  0.121518  0.621409  0.000000  1
  B  B9  1  0.878528  0.378582  0.000000  1
  Ru  Ru10  1  0.569488  0.712722  0.500000  1
  Ru  Ru11  1  0.427072  0.282273  0.500000  1
  Ru  Ru12  1  0.072901  0.781389  0.500000  1
  Ru  Ru13  1  0.929388  0.219117  0.500000  1
  Ru  Ru14  1  0.280425  0.570685  0.500000  1
  Ru  Ru15  1  0.719105  0.427007  0.500000  1
  Ru  Ru16  1  0.217236  0.072749  0.500000  1
  Ru  Ru17  1  0.787437  0.930490  0.500000  1
  Ru  Ru18  1  0.496685  0.003268  0.500000  1
  Ru  Ru19  1  0.999528  0.500485  0.500000  1
