# generated using pymatgen
data_Sc6Ta3Al12Os7W
_symmetry_space_group_name_H-M   'P 1'
_cell_length_a   8.87590903
_cell_length_b   8.87590921
_cell_length_c   8.86453265
_cell_angle_alpha   59.95753994
_cell_angle_beta   59.95753682
_cell_angle_gamma   60.00000540
_symmetry_Int_Tables_number   1
_chemical_formula_structural   Sc6Ta3Al12Os7W
_chemical_formula_sum   'Sc6 Ta3 Al12 Os7 W1'
_cell_volume   493.50041962
_cell_formula_units_Z   1
loop_
 _symmetry_equiv_pos_site_id
 _symmetry_equiv_pos_as_xyz
  1  'x, y, z'
loop_
 _atom_site_type_symbol
 _atom_site_label
 _atom_site_symmetry_multiplicity
 _atom_site_fract_x
 _atom_site_fract_y
 _atom_site_fract_z
 _atom_site_occupancy
  Sc  Sc0  1  0.710901  0.710901  0.291238  1
  Sc  Sc1  1  0.286960  0.710901  0.291238  1
  Sc  Sc2  1  0.710901  0.286960  0.291238  1
  Sc  Sc3  1  0.291893  0.291893  0.707363  1
  Sc  Sc4  1  0.708852  0.291893  0.707363  1
  Sc  Sc5  1  0.291893  0.708852  0.707363  1
  Ta  Ta6  1  0.879508  0.362297  0.878685  1
  Ta  Ta7  1  0.362297  0.879508  0.878685  1
  Ta  Ta8  1  0.879508  0.879508  0.878685  1
  Al  Al9  1  0.120883  0.120883  0.637351  1
  Al  Al10  1  0.121706  0.635991  0.120597  1
  Al  Al11  1  0.635991  0.121706  0.120597  1
  Al  Al12  1  0.121706  0.121706  0.120597  1
  Al  Al13  1  0.661279  0.661279  0.016164  1
  Al  Al14  1  0.660493  0.018653  0.660363  1
  Al  Al15  1  0.018653  0.660493  0.660363  1
  Al  Al16  1  0.660493  0.660493  0.660363  1
  Al  Al17  1  0.334569  0.334569  0.996294  1
  Al  Al18  1  0.334686  0.995422  0.335205  1
  Al  Al19  1  0.995422  0.334686  0.335205  1
  Al  Al20  1  0.334686  0.334686  0.335205  1
  Os  Os21  1  0.997455  0.997455  0.007634  1
  Os  Os22  1  0.996194  0.996194  0.501744  1
  Os  Os23  1  0.505868  0.996194  0.501744  1
  Os  Os24  1  0.996194  0.505868  0.501744  1
  Os  Os25  1  0.503153  0.503153  0.997367  1
  Os  Os26  1  0.996326  0.503153  0.997367  1
  Os  Os27  1  0.503153  0.996326  0.997367  1
  W  W28  1  0.878376  0.878376  0.364869  1
