# generated using pymatgen
data_RbRe3(S2Cl)2
_symmetry_space_group_name_H-M   'P 1'
_cell_length_a   18.37988000
_cell_length_b   6.34844342
_cell_length_c   9.81817600
_cell_angle_alpha   64.99415562
_cell_angle_beta   90.00000000
_cell_angle_gamma   90.00000000
_symmetry_Int_Tables_number   1
_chemical_formula_structural   RbRe3(S2Cl)2
_chemical_formula_sum   'Rb4 Re12 S16 Cl8'
_cell_volume   1038.23529576
_cell_formula_units_Z   4
loop_
 _symmetry_equiv_pos_site_id
 _symmetry_equiv_pos_as_xyz
  1  'x, y, z'
loop_
 _atom_site_type_symbol
 _atom_site_label
 _atom_site_symmetry_multiplicity
 _atom_site_fract_x
 _atom_site_fract_y
 _atom_site_fract_z
 _atom_site_occupancy
  Rb  Rb0  1  0.309644  0.041100  0.953837  1
  Rb  Rb1  1  0.190356  0.041100  0.453837  1
  Rb  Rb2  1  0.690356  0.958900  0.046163  1
  Rb  Rb3  1  0.809644  0.958900  0.546163  1
  Re  Re4  1  0.505070  0.778712  0.425762  1
  Re  Re5  1  0.994930  0.778712  0.925762  1
  Re  Re6  1  0.494930  0.221288  0.574238  1
  Re  Re7  1  0.005070  0.221288  0.074238  1
  Re  Re8  1  0.438530  0.178199  0.341650  1
  Re  Re9  1  0.061470  0.178199  0.841650  1
  Re  Re10  1  0.561470  0.821801  0.658350  1
  Re  Re11  1  0.938530  0.821801  0.158350  1
  Re  Re12  1  0.581684  0.146396  0.387407  1
  Re  Re13  1  0.918316  0.146396  0.887407  1
  Re  Re14  1  0.418316  0.853604  0.612593  1
  Re  Re15  1  0.081684  0.853604  0.112593  1
  S  S16  1  0.523235  0.093301  0.181788  1
  S  S17  1  0.976765  0.093301  0.681788  1
  S  S18  1  0.476765  0.906699  0.818212  1
  S  S19  1  0.023235  0.906699  0.318212  1
  S  S20  1  0.375078  0.822313  0.388778  1
  S  S21  1  0.124922  0.822313  0.888778  1
  S  S22  1  0.624922  0.177687  0.611222  1
  S  S23  1  0.875078  0.177687  0.111222  1
  S  S24  1  0.634576  0.764718  0.471133  1
  S  S25  1  0.865424  0.764718  0.971133  1
  S  S26  1  0.365424  0.235282  0.528867  1
  S  S27  1  0.134576  0.235282  0.028867  1
  S  S28  1  0.485114  0.492840  0.696160  1
  S  S29  1  0.014886  0.492840  0.196160  1
  S  S30  1  0.514886  0.507160  0.303840  1
  S  S31  1  0.985114  0.507160  0.803840  1
  Cl  Cl32  1  0.356923  0.399342  0.139338  1
  Cl  Cl33  1  0.143077  0.399342  0.639338  1
  Cl  Cl34  1  0.643077  0.600658  0.860662  1
  Cl  Cl35  1  0.856923  0.600658  0.360662  1
  Cl  Cl36  1  0.691578  0.322163  0.249054  1
  Cl  Cl37  1  0.808422  0.322163  0.749054  1
  Cl  Cl38  1  0.308422  0.677837  0.750946  1
  Cl  Cl39  1  0.191578  0.677837  0.250946  1
