# generated using pymatgen
data_HfRuCl9
_symmetry_space_group_name_H-M   'P 1'
_cell_length_a   11.68308200
_cell_length_b   6.80804440
_cell_length_c   9.29500870
_cell_angle_alpha   75.33299528
_cell_angle_beta   90.00000000
_cell_angle_gamma   90.00000000
_symmetry_Int_Tables_number   1
_chemical_formula_structural   HfRuCl9
_chemical_formula_sum   'Hf2 Ru2 Cl18'
_cell_volume   715.22362257
_cell_formula_units_Z   2
loop_
 _symmetry_equiv_pos_site_id
 _symmetry_equiv_pos_as_xyz
  1  'x, y, z'
loop_
 _atom_site_type_symbol
 _atom_site_label
 _atom_site_symmetry_multiplicity
 _atom_site_fract_x
 _atom_site_fract_y
 _atom_site_fract_z
 _atom_site_occupancy
  Hf  Hf0  1  0.250000  0.757444  0.466737  1
  Hf  Hf1  1  0.750000  0.242556  0.533263  1
  Ru  Ru2  1  0.250000  0.646027  0.851863  1
  Ru  Ru3  1  0.750000  0.353973  0.148137  1
  Cl  Cl4  1  0.612688  0.440779  0.317152  1
  Cl  Cl5  1  0.112688  0.559221  0.682848  1
  Cl  Cl6  1  0.387312  0.559221  0.682848  1
  Cl  Cl7  1  0.887312  0.440779  0.317152  1
  Cl  Cl8  1  0.750000  0.676833  0.010589  1
  Cl  Cl9  1  0.250000  0.323167  0.989411  1
  Cl  Cl10  1  0.750000  0.519994  0.637859  1
  Cl  Cl11  1  0.250000  0.480006  0.362141  1
  Cl  Cl12  1  0.750000  0.029800  0.330479  1
  Cl  Cl13  1  0.250000  0.970200  0.669521  1
  Cl  Cl14  1  0.891970  0.249460  0.022533  1
  Cl  Cl15  1  0.391970  0.750540  0.977467  1
  Cl  Cl16  1  0.108030  0.750540  0.977467  1
  Cl  Cl17  1  0.608030  0.249460  0.022533  1
  Cl  Cl18  1  0.903908  0.056956  0.657504  1
  Cl  Cl19  1  0.403908  0.943044  0.342496  1
  Cl  Cl20  1  0.096092  0.943044  0.342496  1
  Cl  Cl21  1  0.596092  0.056956  0.657504  1
