# generated using pymatgen
data_Y7Er9(CoHg)4
_symmetry_space_group_name_H-M   'P 1'
_cell_length_a   9.42847101
_cell_length_b   9.42847098
_cell_length_c   9.42513700
_cell_angle_alpha   60.01170006
_cell_angle_beta   60.01170017
_cell_angle_gamma   60.11410839
_symmetry_Int_Tables_number   1
_chemical_formula_structural   Y7Er9(CoHg)4
_chemical_formula_sum   'Y7 Er9 Co4 Hg4'
_cell_volume   593.06903751
_cell_formula_units_Z   1
loop_
 _symmetry_equiv_pos_site_id
 _symmetry_equiv_pos_as_xyz
  1  'x, y, z'
loop_
 _atom_site_type_symbol
 _atom_site_label
 _atom_site_symmetry_multiplicity
 _atom_site_fract_x
 _atom_site_fract_y
 _atom_site_fract_z
 _atom_site_occupancy
  Y  Y0  1  0.062046  0.062046  0.437954  1
  Y  Y1  1  0.190253  0.810122  0.811174  1
  Y  Y2  1  0.810122  0.190253  0.188450  1
  Y  Y3  1  0.810122  0.190253  0.811174  1
  Y  Y4  1  0.190253  0.810122  0.188450  1
  Y  Y5  1  0.810240  0.810240  0.189760  1
  Y  Y6  1  0.190108  0.190108  0.809892  1
  Er  Er7  1  0.596833  0.596833  0.596268  1
  Er  Er8  1  0.596833  0.596833  0.210065  1
  Er  Er9  1  0.598350  0.207616  0.597017  1
  Er  Er10  1  0.207616  0.598350  0.597017  1
  Er  Er11  1  0.061301  0.438086  0.438671  1
  Er  Er12  1  0.438086  0.061301  0.061942  1
  Er  Er13  1  0.438086  0.061301  0.438671  1
  Er  Er14  1  0.061301  0.438086  0.061942  1
  Er  Er15  1  0.437680  0.437680  0.062320  1
  Co  Co16  1  0.391058  0.391058  0.391766  1
  Co  Co17  1  0.391058  0.391058  0.826120  1
  Co  Co18  1  0.394440  0.825915  0.389823  1
  Co  Co19  1  0.825915  0.394440  0.389823  1
  Hg  Hg20  1  0.832989  0.832989  0.833422  1
  Hg  Hg21  1  0.832989  0.832989  0.500599  1
  Hg  Hg22  1  0.833168  0.499152  0.833840  1
  Hg  Hg23  1  0.499152  0.833168  0.833840  1
