# generated using pymatgen
data_Tm4Tc3B8Ru
_symmetry_space_group_name_H-M   'P 1'
_cell_length_a   5.88593378
_cell_length_b   5.24660600
_cell_length_c   6.38251903
_cell_angle_alpha   90.00000000
_cell_angle_beta   90.12925499
_cell_angle_gamma   90.00000000
_symmetry_Int_Tables_number   1
_chemical_formula_structural   Tm4Tc3B8Ru
_chemical_formula_sum   'Tm4 Tc3 B8 Ru1'
_cell_volume   197.09918841
_cell_formula_units_Z   1
loop_
 _symmetry_equiv_pos_site_id
 _symmetry_equiv_pos_as_xyz
  1  'x, y, z'
loop_
 _atom_site_type_symbol
 _atom_site_label
 _atom_site_symmetry_multiplicity
 _atom_site_fract_x
 _atom_site_fract_y
 _atom_site_fract_z
 _atom_site_occupancy
  Tm  Tm0  1  0.014528  0.250000  0.338117  1
  Tm  Tm1  1  0.513798  0.250000  0.162872  1
  Tm  Tm2  1  0.986020  0.750000  0.662766  1
  Tm  Tm3  1  0.485062  0.750000  0.836269  1
  Tc  Tc4  1  0.182278  0.250000  0.815117  1
  Tc  Tc5  1  0.680345  0.250000  0.684675  1
  Tc  Tc6  1  0.819408  0.750000  0.185859  1
  B  B7  1  0.368362  0.079263  0.535661  1
  B  B8  1  0.868450  0.422050  0.964601  1
  B  B9  1  0.632475  0.579944  0.464804  1
  B  B10  1  0.131817  0.920222  0.034693  1
  B  B11  1  0.632475  0.920056  0.464804  1
  B  B12  1  0.131817  0.579778  0.034693  1
  B  B13  1  0.368362  0.420737  0.535661  1
  B  B14  1  0.868450  0.077950  0.964601  1
  Ru  Ru15  1  0.316351  0.750000  0.314807  1
