# generated using pymatgen
data_Li2HoThSi2Ge
_symmetry_space_group_name_H-M   'P 1'
_cell_length_a   9.32814844
_cell_length_b   9.32814850
_cell_length_c   6.81340000
_cell_angle_alpha   90.00000000
_cell_angle_beta   90.00000000
_cell_angle_gamma   152.95831050
_symmetry_Int_Tables_number   1
_chemical_formula_structural   Li2HoThSi2Ge
_chemical_formula_sum   'Li4 Ho2 Th2 Si4 Ge2'
_cell_volume   269.53873163
_cell_formula_units_Z   2
loop_
 _symmetry_equiv_pos_site_id
 _symmetry_equiv_pos_as_xyz
  1  'x, y, z'
loop_
 _atom_site_type_symbol
 _atom_site_label
 _atom_site_symmetry_multiplicity
 _atom_site_fract_x
 _atom_site_fract_y
 _atom_site_fract_z
 _atom_site_occupancy
  Li  Li0  1  0.809649  0.190351  0.561064  1
  Li  Li1  1  0.190351  0.809649  0.438936  1
  Li  Li2  1  0.190351  0.809649  0.061064  1
  Li  Li3  1  0.809649  0.190351  0.938936  1
  Ho  Ho4  1  0.348172  0.651828  0.250000  1
  Ho  Ho5  1  0.651828  0.348172  0.750000  1
  Th  Th6  1  0.552541  0.447459  0.250000  1
  Th  Th7  1  0.447459  0.552541  0.750000  1
  Si  Si8  1  0.940109  0.059891  0.070106  1
  Si  Si9  1  0.059891  0.940109  0.929894  1
  Si  Si10  1  0.059891  0.940109  0.570106  1
  Si  Si11  1  0.940109  0.059891  0.429894  1
  Ge  Ge12  1  0.723185  0.276815  0.250000  1
  Ge  Ge13  1  0.276815  0.723185  0.750000  1
