# generated using pymatgen
data_Nd4Ti5V3O20
_symmetry_space_group_name_H-M   'P 1'
_cell_length_a   5.89251400
_cell_length_b   7.69776789
_cell_length_c   8.81797518
_cell_angle_alpha   89.90167950
_cell_angle_beta   90.00000000
_cell_angle_gamma   90.00000000
_symmetry_Int_Tables_number   1
_chemical_formula_structural   Nd4Ti5V3O20
_chemical_formula_sum   'Nd4 Ti5 V3 O20'
_cell_volume   399.97575558
_cell_formula_units_Z   1
loop_
 _symmetry_equiv_pos_site_id
 _symmetry_equiv_pos_as_xyz
  1  'x, y, z'
loop_
 _atom_site_type_symbol
 _atom_site_label
 _atom_site_symmetry_multiplicity
 _atom_site_fract_x
 _atom_site_fract_y
 _atom_site_fract_z
 _atom_site_occupancy
  Nd  Nd0  1  0.997385  0.361322  0.672012  1
  Nd  Nd1  1  0.997385  0.638678  0.327988  1
  Nd  Nd2  1  0.999241  0.857759  0.830024  1
  Nd  Nd3  1  0.999241  0.142241  0.169976  1
  Ti  Ti4  1  0.502940  0.117909  0.857223  1
  Ti  Ti5  1  0.502940  0.882091  0.142777  1
  Ti  Ti6  1  0.497879  0.617013  0.642964  1
  Ti  Ti7  1  0.497879  0.382987  0.357036  1
  Ti  Ti8  1  0.236999  0.000000  0.500000  1
  V  V9  1  0.249074  0.500000  0.000000  1
  V  V10  1  0.745682  0.000000  0.500000  1
  V  V11  1  0.751705  0.500000  0.000000  1
  O  O12  1  0.256631  0.899719  0.291342  1
  O  O13  1  0.256631  0.100281  0.708658  1
  O  O14  1  0.747363  0.396508  0.215298  1
  O  O15  1  0.747363  0.603492  0.784702  1
  O  O16  1  0.746858  0.107266  0.720043  1
  O  O17  1  0.746858  0.892734  0.279957  1
  O  O18  1  0.251957  0.600672  0.785999  1
  O  O19  1  0.251957  0.399328  0.214001  1
  O  O20  1  0.501373  0.336871  0.926175  1
  O  O21  1  0.501373  0.663129  0.073825  1
  O  O22  1  0.492406  0.835437  0.577573  1
  O  O23  1  0.492406  0.164563  0.422427  1
  O  O24  1  0.281553  0.000000  0.000000  1
  O  O25  1  0.715865  0.500000  0.500000  1
  O  O26  1  0.713761  0.000000  0.000000  1
  O  O27  1  0.282804  0.500000  0.500000  1
  O  O28  1  0.016896  0.166792  0.444855  1
  O  O29  1  0.016896  0.833208  0.555145  1
  O  O30  1  0.000349  0.665968  0.055700  1
  O  O31  1  0.000349  0.334032  0.944300  1
