# generated using pymatgen
data_U4Mo3WC8
_symmetry_space_group_name_H-M   'P 1'
_cell_length_a   3.22237500
_cell_length_b   5.63351704
_cell_length_c   11.09522607
_cell_angle_alpha   89.98718405
_cell_angle_beta   90.00000000
_cell_angle_gamma   90.00000000
_symmetry_Int_Tables_number   1
_chemical_formula_structural   U4Mo3WC8
_chemical_formula_sum   'U4 Mo3 W1 C8'
_cell_volume   201.41501181
_cell_formula_units_Z   1
loop_
 _symmetry_equiv_pos_site_id
 _symmetry_equiv_pos_as_xyz
  1  'x, y, z'
loop_
 _atom_site_type_symbol
 _atom_site_label
 _atom_site_symmetry_multiplicity
 _atom_site_fract_x
 _atom_site_fract_y
 _atom_site_fract_z
 _atom_site_occupancy
  U  U0  1  0.250000  0.079775  0.858451  1
  U  U1  1  0.250000  0.580420  0.642071  1
  U  U2  1  0.750000  0.920056  0.142150  1
  U  U3  1  0.750000  0.420637  0.358017  1
  Mo  Mo4  1  0.250000  0.421224  0.101121  1
  Mo  Mo5  1  0.250000  0.921265  0.398265  1
  Mo  Mo6  1  0.750000  0.578590  0.898413  1
  W  W7  1  0.750000  0.078770  0.601588  1
  C  C8  1  0.250000  0.162859  0.244421  1
  C  C9  1  0.250000  0.662285  0.255266  1
  C  C10  1  0.750000  0.837772  0.755123  1
  C  C11  1  0.750000  0.336097  0.743858  1
  C  C12  1  0.250000  0.750528  0.992657  1
  C  C13  1  0.250000  0.250461  0.508062  1
  C  C14  1  0.750000  0.249231  0.007410  1
  C  C15  1  0.750000  0.750030  0.493127  1
