# generated using pymatgen
data_TbYSn2PdPt3
_symmetry_space_group_name_H-M   'P 1'
_cell_length_a   4.56872200
_cell_length_b   4.56872173
_cell_length_c   9.14740200
_cell_angle_alpha   90.00000000
_cell_angle_beta   90.00000000
_cell_angle_gamma   120.00000197
_symmetry_Int_Tables_number   1
_chemical_formula_structural   TbYSn2PdPt3
_chemical_formula_sum   'Tb1 Y1 Sn2 Pd1 Pt3'
_cell_volume   165.35518895
_cell_formula_units_Z   1
loop_
 _symmetry_equiv_pos_site_id
 _symmetry_equiv_pos_as_xyz
  1  'x, y, z'
loop_
 _atom_site_type_symbol
 _atom_site_label
 _atom_site_symmetry_multiplicity
 _atom_site_fract_x
 _atom_site_fract_y
 _atom_site_fract_z
 _atom_site_occupancy
  Tb  Tb0  1  0.333333  0.666667  0.250103  1
  Y  Y1  1  0.666667  0.333333  0.746833  1
  Sn  Sn2  1  0.000000  0.000000  0.501577  1
  Sn  Sn3  1  0.000000  0.000000  0.002496  1
  Pd  Pd4  1  0.333333  0.666667  0.911744  1
  Pt  Pt5  1  0.666667  0.333333  0.087066  1
  Pt  Pt6  1  0.666667  0.333333  0.408853  1
  Pt  Pt7  1  0.333333  0.666667  0.591326  1
