# generated using pymatgen
data_ScNb3(SiPt)4
_symmetry_space_group_name_H-M   'P 1'
_cell_length_a   3.86931400
_cell_length_b   6.49756908
_cell_length_c   7.47464647
_cell_angle_alpha   89.81287922
_cell_angle_beta   90.00000000
_cell_angle_gamma   90.00000000
_symmetry_Int_Tables_number   1
_chemical_formula_structural   ScNb3(SiPt)4
_chemical_formula_sum   'Sc1 Nb3 Si4 Pt4'
_cell_volume   187.92009368
_cell_formula_units_Z   1
loop_
 _symmetry_equiv_pos_site_id
 _symmetry_equiv_pos_as_xyz
  1  'x, y, z'
loop_
 _atom_site_type_symbol
 _atom_site_label
 _atom_site_symmetry_multiplicity
 _atom_site_fract_x
 _atom_site_fract_y
 _atom_site_fract_z
 _atom_site_occupancy
  Sc  Sc0  1  0.250000  0.526540  0.173438  1
  Nb  Nb1  1  0.750000  0.468713  0.823646  1
  Nb  Nb2  1  0.250000  0.030696  0.334261  1
  Nb  Nb3  1  0.750000  0.974250  0.671269  1
  Si  Si4  1  0.250000  0.764431  0.869738  1
  Si  Si5  1  0.250000  0.263874  0.627304  1
  Si  Si6  1  0.750000  0.229917  0.122319  1
  Si  Si7  1  0.750000  0.746091  0.380033  1
  Pt  Pt8  1  0.250000  0.648185  0.559222  1
  Pt  Pt9  1  0.250000  0.146048  0.938969  1
  Pt  Pt10  1  0.750000  0.843792  0.066776  1
  Pt  Pt11  1  0.750000  0.357464  0.433025  1
