# generated using pymatgen
data_Tb3Sc2GaPt3
_symmetry_space_group_name_H-M   'P 1'
_cell_length_a   7.17417500
_cell_length_b   7.22139484
_cell_length_c   4.35347400
_cell_angle_alpha   90.00000000
_cell_angle_beta   90.00000000
_cell_angle_gamma   119.78393483
_symmetry_Int_Tables_number   1
_chemical_formula_structural   Tb3Sc2GaPt3
_chemical_formula_sum   'Tb3 Sc2 Ga1 Pt3'
_cell_volume   195.74969136
_cell_formula_units_Z   1
loop_
 _symmetry_equiv_pos_site_id
 _symmetry_equiv_pos_as_xyz
  1  'x, y, z'
loop_
 _atom_site_type_symbol
 _atom_site_label
 _atom_site_symmetry_multiplicity
 _atom_site_fract_x
 _atom_site_fract_y
 _atom_site_fract_z
 _atom_site_occupancy
  Tb  Tb0  1  0.429680  0.000000  0.000000  1
  Tb  Tb1  1  0.982946  0.393056  0.000000  1
  Tb  Tb2  1  0.589890  0.606944  0.000000  1
  Sc  Sc3  1  0.243130  0.252227  0.500000  1
  Sc  Sc4  1  0.990903  0.747773  0.500000  1
  Ga  Ga5  1  0.755990  0.000000  0.500000  1
  Pt  Pt6  1  0.019036  0.000000  0.000000  1
  Pt  Pt7  1  0.658412  0.328399  0.500000  1
  Pt  Pt8  1  0.330013  0.671601  0.500000  1
