# generated using pymatgen
data_Pm2PuRu3
_symmetry_space_group_name_H-M   'P 1'
_cell_length_a   5.30084099
_cell_length_b   5.30084027
_cell_length_c   5.30083907
_cell_angle_alpha   67.17117109
_cell_angle_beta   67.17117520
_cell_angle_gamma   67.17116242
_symmetry_Int_Tables_number   1
_chemical_formula_structural   Pm2PuRu3
_chemical_formula_sum   'Pm2 Pu1 Ru3'
_cell_volume   121.48330396
_cell_formula_units_Z   1
loop_
 _symmetry_equiv_pos_site_id
 _symmetry_equiv_pos_as_xyz
  1  'x, y, z'
loop_
 _atom_site_type_symbol
 _atom_site_label
 _atom_site_symmetry_multiplicity
 _atom_site_fract_x
 _atom_site_fract_y
 _atom_site_fract_z
 _atom_site_occupancy
  Pm  Pm0  1  0.750319  0.750319  0.750319  1
  Pm  Pm1  1  0.499681  0.499681  0.499681  1
  Pu  Pu2  1  0.125000  0.125000  0.125000  1
  Ru  Ru3  1  0.625000  0.125000  0.125000  1
  Ru  Ru4  1  0.125000  0.625000  0.125000  1
  Ru  Ru5  1  0.125000  0.125000  0.625000  1
