# generated using pymatgen
data_K2CaPuO6
_symmetry_space_group_name_H-M   'P 1'
_cell_length_a   6.11191496
_cell_length_b   6.11189946
_cell_length_c   6.11187800
_cell_angle_alpha   60.00158758
_cell_angle_beta   60.00124457
_cell_angle_gamma   90.00263431
_symmetry_Int_Tables_number   1
_chemical_formula_structural   K2CaPuO6
_chemical_formula_sum   'K2 Ca1 Pu1 O6'
_cell_volume   161.44395577
_cell_formula_units_Z   1
loop_
 _symmetry_equiv_pos_site_id
 _symmetry_equiv_pos_as_xyz
  1  'x, y, z'
loop_
 _atom_site_type_symbol
 _atom_site_label
 _atom_site_symmetry_multiplicity
 _atom_site_fract_x
 _atom_site_fract_y
 _atom_site_fract_z
 _atom_site_occupancy
  K  K0  1  0.249999  0.750001  0.500000  1
  K  K1  1  0.750002  0.249999  0.500002  1
  Ca  Ca2  1  0.499999  0.499999  0.000001  1
  Pu  Pu3  1  0.999999  0.000000  0.999999  1
  O  O4  1  0.771087  0.228913  0.999999  1
  O  O5  1  0.228914  0.228913  0.000001  1
  O  O6  1  0.228913  0.771084  0.000000  1
  O  O7  1  0.771084  0.771084  0.000000  1
  O  O8  1  0.771087  0.771087  0.457826  1
  O  O9  1  0.228914  0.228913  0.542172  1
