# generated using pymatgen
data_Ce12Si12TcIr3
_symmetry_space_group_name_H-M   'P 1'
_cell_length_a   4.32166900
_cell_length_b   10.45004523
_cell_length_c   12.80149221
_cell_angle_alpha   90.10324054
_cell_angle_beta   90.00000000
_cell_angle_gamma   90.00000000
_symmetry_Int_Tables_number   1
_chemical_formula_structural   Ce12Si12TcIr3
_chemical_formula_sum   'Ce12 Si12 Tc1 Ir3'
_cell_volume   578.13539951
_cell_formula_units_Z   1
loop_
 _symmetry_equiv_pos_site_id
 _symmetry_equiv_pos_as_xyz
  1  'x, y, z'
loop_
 _atom_site_type_symbol
 _atom_site_label
 _atom_site_symmetry_multiplicity
 _atom_site_fract_x
 _atom_site_fract_y
 _atom_site_fract_z
 _atom_site_occupancy
  Ce  Ce0  1  0.250000  0.902039  0.027507  1
  Ce  Ce1  1  0.250000  0.596176  0.528609  1
  Ce  Ce2  1  0.750000  0.096184  0.972623  1
  Ce  Ce3  1  0.750000  0.403573  0.473458  1
  Ce  Ce4  1  0.250000  0.914932  0.594996  1
  Ce  Ce5  1  0.250000  0.585738  0.094313  1
  Ce  Ce6  1  0.750000  0.084119  0.405223  1
  Ce  Ce7  1  0.750000  0.416257  0.905635  1
  Ce  Ce8  1  0.250000  0.663349  0.806407  1
  Ce  Ce9  1  0.250000  0.835786  0.306816  1
  Ce  Ce10  1  0.750000  0.336938  0.193728  1
  Ce  Ce11  1  0.750000  0.165103  0.691668  1
  Si  Si12  1  0.250000  0.996780  0.811838  1
  Si  Si13  1  0.250000  0.503079  0.311280  1
  Si  Si14  1  0.750000  0.002554  0.188967  1
  Si  Si15  1  0.750000  0.496790  0.689195  1
  Si  Si16  1  0.250000  0.236988  0.843525  1
  Si  Si17  1  0.250000  0.264175  0.342934  1
  Si  Si18  1  0.750000  0.764650  0.157122  1
  Si  Si19  1  0.750000  0.736352  0.656609  1
  Si  Si20  1  0.250000  0.217049  0.538265  1
  Si  Si21  1  0.250000  0.282465  0.040199  1
  Si  Si22  1  0.750000  0.783415  0.459694  1
  Si  Si23  1  0.750000  0.716906  0.959883  1
  Tc  Tc24  1  0.250000  0.380480  0.687205  1
  Ir  Ir25  1  0.250000  0.118410  0.187643  1
  Ir  Ir26  1  0.750000  0.618272  0.311546  1
  Ir  Ir27  1  0.750000  0.881440  0.813111  1
