# generated using pymatgen
data_Tb12Tc3Hg2
_symmetry_space_group_name_H-M   'P 1'
_cell_length_a   8.45517535
_cell_length_b   8.45514177
_cell_length_c   8.45517500
_cell_angle_alpha   109.83738837
_cell_angle_beta   109.82180084
_cell_angle_gamma   108.75697386
_symmetry_Int_Tables_number   1
_chemical_formula_structural   Tb12Tc3Hg2
_chemical_formula_sum   'Tb12 Tc3 Hg2'
_cell_volume   465.25694976
_cell_formula_units_Z   1
loop_
 _symmetry_equiv_pos_site_id
 _symmetry_equiv_pos_as_xyz
  1  'x, y, z'
loop_
 _atom_site_type_symbol
 _atom_site_label
 _atom_site_symmetry_multiplicity
 _atom_site_fract_x
 _atom_site_fract_y
 _atom_site_fract_z
 _atom_site_occupancy
  Tb  Tb0  1  0.185012  0.430324  0.245312  1
  Tb  Tb1  1  0.814988  0.569676  0.754688  1
  Tb  Tb2  1  0.184939  0.939689  0.754750  1
  Tb  Tb3  1  0.939646  0.185397  0.754230  1
  Tb  Tb4  1  0.815061  0.060311  0.245250  1
  Tb  Tb5  1  0.060354  0.814603  0.245770  1
  Tb  Tb6  1  0.431167  0.185397  0.245751  1
  Tb  Tb7  1  0.568833  0.814603  0.754249  1
  Tb  Tb8  1  0.318910  0.318818  0.637812  1
  Tb  Tb9  1  0.681090  0.681182  0.362188  1
  Tb  Tb10  1  0.681007  0.318818  0.999908  1
  Tb  Tb11  1  0.318993  0.681182  0.000092  1
  Tc  Tc12  1  0.337371  0.337398  0.000027  1
  Tc  Tc13  1  0.662629  0.662602  0.999973  1
  Tc  Tc14  1  0.000000  0.000000  0.000000  1
  Hg  Hg15  1  0.000000  0.500000  0.500000  1
  Hg  Hg16  1  0.500000  0.000000  0.500000  1
