# generated using pymatgen
data_DyPa2Co2Si7
_symmetry_space_group_name_H-M   'P 1'
_cell_length_a   12.38477200
_cell_length_b   12.38477155
_cell_length_c   4.06125000
_cell_angle_alpha   90.00000000
_cell_angle_beta   90.00000000
_cell_angle_gamma   161.20451074
_symmetry_Int_Tables_number   1
_chemical_formula_structural   DyPa2Co2Si7
_chemical_formula_sum   'Dy1 Pa2 Co2 Si7'
_cell_volume   200.70092317
_cell_formula_units_Z   1
loop_
 _symmetry_equiv_pos_site_id
 _symmetry_equiv_pos_as_xyz
  1  'x, y, z'
loop_
 _atom_site_type_symbol
 _atom_site_label
 _atom_site_symmetry_multiplicity
 _atom_site_fract_x
 _atom_site_fract_y
 _atom_site_fract_z
 _atom_site_occupancy
  Dy  Dy0  1  0.467929  0.532071  0.500000  1
  Pa  Pa1  1  0.098885  0.901115  0.500000  1
  Pa  Pa2  1  0.783415  0.216585  0.000000  1
  Co  Co3  1  0.653511  0.346489  0.000000  1
  Co  Co4  1  0.911721  0.088279  0.000000  1
  Si  Si5  1  0.370665  0.629335  0.000000  1
  Si  Si6  1  0.559159  0.440841  0.000000  1
  Si  Si7  1  0.870503  0.129497  0.500000  1
  Si  Si8  1  0.006372  0.993628  0.000000  1
  Si  Si9  1  0.195514  0.804486  0.000000  1
  Si  Si10  1  0.283497  0.716503  0.500000  1
  Si  Si11  1  0.695527  0.304473  0.500000  1
