# generated using pymatgen
data_Er12Fe4SnPt
_symmetry_space_group_name_H-M   'P 1'
_cell_length_a   8.27218556
_cell_length_b   8.27218611
_cell_length_c   8.27218645
_cell_angle_alpha   110.79063870
_cell_angle_beta   110.81915719
_cell_angle_gamma   106.83558408
_symmetry_Int_Tables_number   1
_chemical_formula_structural   Er12Fe4SnPt
_chemical_formula_sum   'Er12 Fe4 Sn1 Pt1'
_cell_volume   435.06401562
_cell_formula_units_Z   1
loop_
 _symmetry_equiv_pos_site_id
 _symmetry_equiv_pos_as_xyz
  1  'x, y, z'
loop_
 _atom_site_type_symbol
 _atom_site_label
 _atom_site_symmetry_multiplicity
 _atom_site_fract_x
 _atom_site_fract_y
 _atom_site_fract_z
 _atom_site_occupancy
  Er  Er0  1  0.312562  0.614543  0.301980  1
  Er  Er1  1  0.687438  0.385458  0.698020  1
  Er  Er2  1  0.312562  0.010583  0.698020  1
  Er  Er3  1  0.687438  0.989417  0.301980  1
  Er  Er4  1  0.417335  0.216845  0.200491  1
  Er  Er5  1  0.582665  0.783155  0.799509  1
  Er  Er6  1  0.016354  0.216845  0.799509  1
  Er  Er7  1  0.983646  0.783155  0.200491  1
  Er  Er8  1  0.185997  0.287493  0.473490  1
  Er  Er9  1  0.814003  0.712507  0.526510  1
  Er  Er10  1  0.185997  0.712507  0.898503  1
  Er  Er11  1  0.814003  0.287493  0.101497  1
  Fe  Fe12  1  0.108147  0.608147  0.500000  1
  Fe  Fe13  1  0.891854  0.391854  0.500000  1
  Fe  Fe14  1  0.384765  0.000000  0.384765  1
  Fe  Fe15  1  0.615235  0.000000  0.615235  1
  Sn  Sn16  1  0.500000  0.500000  0.000000  1
  Pt  Pt17  1  0.000000  0.000000  0.000000  1
