# generated using pymatgen
data_Tm20Tc3IrAu8
_symmetry_space_group_name_H-M   'P 1'
_cell_length_a   11.14229600
_cell_length_b   11.14229600
_cell_length_c   6.34506300
_cell_angle_alpha   90.00000000
_cell_angle_beta   90.00000000
_cell_angle_gamma   90.00000000
_symmetry_Int_Tables_number   1
_chemical_formula_structural   Tm20Tc3IrAu8
_chemical_formula_sum   'Tm20 Tc3 Ir1 Au8'
_cell_volume   787.74439466
_cell_formula_units_Z   1
loop_
 _symmetry_equiv_pos_site_id
 _symmetry_equiv_pos_as_xyz
  1  'x, y, z'
loop_
 _atom_site_type_symbol
 _atom_site_label
 _atom_site_symmetry_multiplicity
 _atom_site_fract_x
 _atom_site_fract_y
 _atom_site_fract_z
 _atom_site_occupancy
  Tm  Tm0  1  0.301126  0.082530  0.355972  1
  Tm  Tm1  1  0.301257  0.917779  0.856525  1
  Tm  Tm2  1  0.698743  0.082221  0.856525  1
  Tm  Tm3  1  0.698874  0.917470  0.355972  1
  Tm  Tm4  1  0.582221  0.801257  0.856525  1
  Tm  Tm5  1  0.582530  0.198874  0.355972  1
  Tm  Tm6  1  0.417470  0.801126  0.355972  1
  Tm  Tm7  1  0.417779  0.198743  0.856525  1
  Tm  Tm8  1  0.200334  0.416995  0.645111  1
  Tm  Tm9  1  0.199444  0.583170  0.140540  1
  Tm  Tm10  1  0.800556  0.416830  0.140540  1
  Tm  Tm11  1  0.799666  0.583005  0.645111  1
  Tm  Tm12  1  0.916830  0.699444  0.140540  1
  Tm  Tm13  1  0.916995  0.299666  0.645111  1
  Tm  Tm14  1  0.083005  0.700334  0.645111  1
  Tm  Tm15  1  0.083170  0.300556  0.140540  1
  Tm  Tm16  1  0.000000  0.000000  0.499323  1
  Tm  Tm17  1  0.000000  0.000000  0.999335  1
  Tm  Tm18  1  0.500000  0.500000  0.999335  1
  Tm  Tm19  1  0.500000  0.500000  0.499323  1
  Tc  Tc20  1  0.500000  0.000000  0.112315  1
  Tc  Tc21  1  0.500000  0.000000  0.611800  1
  Tc  Tc22  1  0.000000  0.500000  0.889683  1
  Ir  Ir23  1  0.000000  0.500000  0.393064  1
  Au  Au24  1  0.845322  0.155522  0.250570  1
  Au  Au25  1  0.844865  0.844593  0.750237  1
  Au  Au26  1  0.155135  0.155407  0.750237  1
  Au  Au27  1  0.154678  0.844478  0.250570  1
  Au  Au28  1  0.655407  0.344865  0.750237  1
  Au  Au29  1  0.655522  0.654678  0.250570  1
  Au  Au30  1  0.344478  0.345322  0.250570  1
  Au  Au31  1  0.344593  0.655135  0.750237  1
