# generated using pymatgen
data_Nb10SnPt4
_symmetry_space_group_name_H-M   'P 1'
_cell_length_a   10.09980200
_cell_length_b   10.09980200
_cell_length_c   5.21375700
_cell_angle_alpha   90.00000000
_cell_angle_beta   90.00000000
_cell_angle_gamma   90.00000000
_symmetry_Int_Tables_number   1
_chemical_formula_structural   Nb10SnPt4
_chemical_formula_sum   'Nb20 Sn2 Pt8'
_cell_volume   531.83449883
_cell_formula_units_Z   2
loop_
 _symmetry_equiv_pos_site_id
 _symmetry_equiv_pos_as_xyz
  1  'x, y, z'
loop_
 _atom_site_type_symbol
 _atom_site_label
 _atom_site_symmetry_multiplicity
 _atom_site_fract_x
 _atom_site_fract_y
 _atom_site_fract_z
 _atom_site_occupancy
  Nb  Nb0  1  0.893396  0.106604  0.500000  1
  Nb  Nb1  1  0.106604  0.893396  0.500000  1
  Nb  Nb2  1  0.393396  0.393396  0.000000  1
  Nb  Nb3  1  0.606604  0.606604  0.000000  1
  Nb  Nb4  1  0.962557  0.372930  0.500000  1
  Nb  Nb5  1  0.037443  0.627070  0.500000  1
  Nb  Nb6  1  0.462557  0.127070  0.000000  1
  Nb  Nb7  1  0.537443  0.872930  0.000000  1
  Nb  Nb8  1  0.372930  0.962557  0.500000  1
  Nb  Nb9  1  0.627070  0.037443  0.500000  1
  Nb  Nb10  1  0.127070  0.462557  0.000000  1
  Nb  Nb11  1  0.872930  0.537443  0.000000  1
  Nb  Nb12  1  0.682949  0.317051  0.246909  1
  Nb  Nb13  1  0.317051  0.682949  0.246909  1
  Nb  Nb14  1  0.182949  0.182949  0.746909  1
  Nb  Nb15  1  0.817051  0.817051  0.746909  1
  Nb  Nb16  1  0.317051  0.682949  0.753091  1
  Nb  Nb17  1  0.682949  0.317051  0.753091  1
  Nb  Nb18  1  0.817051  0.817051  0.253091  1
  Nb  Nb19  1  0.182949  0.182949  0.253091  1
  Sn  Sn20  1  0.500000  0.500000  0.500000  1
  Sn  Sn21  1  0.000000  0.000000  0.000000  1
  Pt  Pt22  1  0.229377  0.434563  0.500000  1
  Pt  Pt23  1  0.770623  0.565437  0.500000  1
  Pt  Pt24  1  0.729377  0.065437  0.000000  1
  Pt  Pt25  1  0.270623  0.934563  0.000000  1
  Pt  Pt26  1  0.434563  0.229377  0.500000  1
  Pt  Pt27  1  0.565437  0.770623  0.500000  1
  Pt  Pt28  1  0.065437  0.729377  0.000000  1
  Pt  Pt29  1  0.934563  0.270623  0.000000  1
