# generated using pymatgen
data_Hf2Ti2Zn3
_symmetry_space_group_name_H-M   'P 1'
_cell_length_a   5.16563800
_cell_length_b   5.16563960
_cell_length_c   5.16162800
_cell_angle_alpha   90.00000000
_cell_angle_beta   90.00000000
_cell_angle_gamma   120.00000259
_symmetry_Int_Tables_number   1
_chemical_formula_structural   Hf2Ti2Zn3
_chemical_formula_sum   'Hf2 Ti2 Zn3'
_cell_volume   119.27938536
_cell_formula_units_Z   1
loop_
 _symmetry_equiv_pos_site_id
 _symmetry_equiv_pos_as_xyz
  1  'x, y, z'
loop_
 _atom_site_type_symbol
 _atom_site_label
 _atom_site_symmetry_multiplicity
 _atom_site_fract_x
 _atom_site_fract_y
 _atom_site_fract_z
 _atom_site_occupancy
  Hf  Hf0  1  0.333333  0.666667  0.500000  1
  Hf  Hf1  1  0.666667  0.333333  0.500000  1
  Ti  Ti2  1  0.000000  0.000000  0.267268  1
  Ti  Ti3  1  0.000000  0.000000  0.732732  1
  Zn  Zn4  1  0.500000  0.000000  0.000000  1
  Zn  Zn5  1  0.000000  0.500000  0.000000  1
  Zn  Zn6  1  0.500000  0.500000  0.000000  1
