# generated using pymatgen
data_Ho20FeNi3Sb8
_symmetry_space_group_name_H-M   'P 1'
_cell_length_a   7.89312870
_cell_length_b   8.78277000
_cell_length_c   12.14659207
_cell_angle_alpha   90.00000000
_cell_angle_beta   89.95182786
_cell_angle_gamma   90.00000000
_symmetry_Int_Tables_number   1
_chemical_formula_structural   Ho20FeNi3Sb8
_chemical_formula_sum   'Ho20 Fe1 Ni3 Sb8'
_cell_volume   842.04439011
_cell_formula_units_Z   1
loop_
 _symmetry_equiv_pos_site_id
 _symmetry_equiv_pos_as_xyz
  1  'x, y, z'
loop_
 _atom_site_type_symbol
 _atom_site_label
 _atom_site_symmetry_multiplicity
 _atom_site_fract_x
 _atom_site_fract_y
 _atom_site_fract_z
 _atom_site_occupancy
  Ho  Ho0  1  0.319636  0.539288  0.432849  1
  Ho  Ho1  1  0.873754  0.250000  0.802721  1
  Ho  Ho2  1  0.178791  0.542780  0.935849  1
  Ho  Ho3  1  0.319636  0.960712  0.432849  1
  Ho  Ho4  1  0.122800  0.750000  0.194865  1
  Ho  Ho5  1  0.846546  0.750000  0.798743  1
  Ho  Ho6  1  0.374441  0.750000  0.694252  1
  Ho  Ho7  1  0.954774  0.750000  0.501321  1
  Ho  Ho8  1  0.456751  0.250000  0.998407  1
  Ho  Ho9  1  0.678792  0.459732  0.565916  1
  Ho  Ho10  1  0.821691  0.033257  0.064687  1
  Ho  Ho11  1  0.660985  0.750000  0.289992  1
  Ho  Ho12  1  0.546641  0.750000  0.001843  1
  Ho  Ho13  1  0.044343  0.250000  0.500423  1
  Ho  Ho14  1  0.678792  0.040268  0.565916  1
  Ho  Ho15  1  0.178791  0.957220  0.935849  1
  Ho  Ho16  1  0.625618  0.250000  0.304976  1
  Ho  Ho17  1  0.340481  0.250000  0.708315  1
  Ho  Ho18  1  0.821691  0.466743  0.064687  1
  Ho  Ho19  1  0.155975  0.250000  0.204412  1
  Fe  Fe20  1  0.928194  0.750000  0.013227  1
  Ni  Ni21  1  0.569358  0.750000  0.508132  1
  Ni  Ni22  1  0.072919  0.250000  0.986869  1
  Ni  Ni23  1  0.429121  0.250000  0.490389  1
  Sb  Sb24  1  0.929319  0.490510  0.328244  1
  Sb  Sb25  1  0.429446  0.507339  0.173251  1
  Sb  Sb26  1  0.429446  0.992661  0.173251  1
  Sb  Sb27  1  0.569958  0.492594  0.826731  1
  Sb  Sb28  1  0.071016  0.508801  0.673030  1
  Sb  Sb29  1  0.569958  0.007406  0.826731  1
  Sb  Sb30  1  0.929319  0.009490  0.328244  1
  Sb  Sb31  1  0.071016  0.991199  0.673030  1
