# generated using pymatgen
data_Ca2URh3
_symmetry_space_group_name_H-M   'P 1'
_cell_length_a   5.28115793
_cell_length_b   5.28115844
_cell_length_c   5.28115867
_cell_angle_alpha   67.83712650
_cell_angle_beta   67.83712099
_cell_angle_gamma   67.83712544
_symmetry_Int_Tables_number   1
_chemical_formula_structural   Ca2URh3
_chemical_formula_sum   'Ca2 U1 Rh3'
_cell_volume   121.50163720
_cell_formula_units_Z   1
loop_
 _symmetry_equiv_pos_site_id
 _symmetry_equiv_pos_as_xyz
  1  'x, y, z'
loop_
 _atom_site_type_symbol
 _atom_site_label
 _atom_site_symmetry_multiplicity
 _atom_site_fract_x
 _atom_site_fract_y
 _atom_site_fract_z
 _atom_site_occupancy
  Ca  Ca0  1  0.375554  0.375554  0.375554  1
  Ca  Ca1  1  0.624446  0.624446  0.624446  1
  U  U2  1  0.000000  0.000000  0.000000  1
  Rh  Rh3  1  0.500000  0.000000  0.000000  1
  Rh  Rh4  1  0.000000  0.500000  0.000000  1
  Rh  Rh5  1  0.000000  0.000000  0.500001  1
