# generated using pymatgen
data_Tb4Lu4Re3TcB24
_symmetry_space_group_name_H-M   'P 1'
_cell_length_a   3.65279400
_cell_length_b   9.11509286
_cell_length_c   11.50788301
_cell_angle_alpha   90.02313903
_cell_angle_beta   90.00000000
_cell_angle_gamma   90.00000000
_symmetry_Int_Tables_number   1
_chemical_formula_structural   Tb4Lu4Re3TcB24
_chemical_formula_sum   'Tb4 Lu4 Re3 Tc1 B24'
_cell_volume   383.16133758
_cell_formula_units_Z   1
loop_
 _symmetry_equiv_pos_site_id
 _symmetry_equiv_pos_as_xyz
  1  'x, y, z'
loop_
 _atom_site_type_symbol
 _atom_site_label
 _atom_site_symmetry_multiplicity
 _atom_site_fract_x
 _atom_site_fract_y
 _atom_site_fract_z
 _atom_site_occupancy
  Tb  Tb0  1  0.000000  0.323226  0.413897  1
  Tb  Tb1  1  0.000000  0.677099  0.585839  1
  Tb  Tb2  1  0.000000  0.822857  0.086056  1
  Tb  Tb3  1  0.000000  0.177294  0.913974  1
  Lu  Lu4  1  0.000000  0.942481  0.369919  1
  Lu  Lu5  1  0.000000  0.056614  0.629646  1
  Lu  Lu6  1  0.000000  0.443870  0.130490  1
  Lu  Lu7  1  0.000000  0.556620  0.870271  1
  Re  Re8  1  0.000000  0.360514  0.680219  1
  Re  Re9  1  0.000000  0.139528  0.180313  1
  Re  Re10  1  0.000000  0.860537  0.819754  1
  Tc  Tc11  1  0.000000  0.639637  0.319666  1
  B  B12  1  0.500000  0.553934  0.432179  1
  B  B13  1  0.500000  0.446246  0.567537  1
  B  B14  1  0.500000  0.053860  0.067565  1
  B  B15  1  0.500000  0.946308  0.932384  1
  B  B16  1  0.500000  0.750601  0.417938  1
  B  B17  1  0.500000  0.249007  0.581846  1
  B  B18  1  0.500000  0.251126  0.081940  1
  B  B19  1  0.500000  0.749100  0.918114  1
  B  B20  1  0.500000  0.792749  0.265384  1
  B  B21  1  0.500000  0.206853  0.734467  1
  B  B22  1  0.500000  0.293108  0.234710  1
  B  B23  1  0.500000  0.706873  0.765476  1
  B  B24  1  0.500000  0.630056  0.184964  1
  B  B25  1  0.500000  0.370143  0.815218  1
  B  B26  1  0.500000  0.129724  0.315285  1
  B  B27  1  0.500000  0.870064  0.684723  1
  B  B28  1  0.500000  0.981588  0.212785  1
  B  B29  1  0.500000  0.018296  0.787069  1
  B  B30  1  0.500000  0.482064  0.287300  1
  B  B31  1  0.500000  0.518310  0.712908  1
  B  B32  1  0.500000  0.597742  0.027232  1
  B  B33  1  0.500000  0.402497  0.973118  1
  B  B34  1  0.500000  0.097305  0.472766  1
  B  B35  1  0.500000  0.902170  0.527048  1
