# generated using pymatgen
data_Y2HoIn3Pd2Au
_symmetry_space_group_name_H-M   'P 1'
_cell_length_a   7.81355218
_cell_length_b   7.80374377
_cell_length_c   3.82762700
_cell_angle_alpha   90.00000000
_cell_angle_beta   90.00000000
_cell_angle_gamma   120.01716589
_symmetry_Int_Tables_number   1
_chemical_formula_structural   Y2HoIn3Pd2Au
_chemical_formula_sum   'Y2 Ho1 In3 Pd2 Au1'
_cell_volume   202.08617830
_cell_formula_units_Z   1
loop_
 _symmetry_equiv_pos_site_id
 _symmetry_equiv_pos_as_xyz
  1  'x, y, z'
loop_
 _atom_site_type_symbol
 _atom_site_label
 _atom_site_symmetry_multiplicity
 _atom_site_fract_x
 _atom_site_fract_y
 _atom_site_fract_z
 _atom_site_occupancy
  Y  Y0  1  0.992919  0.590811  0.000000  1
  Y  Y1  1  0.409175  0.401969  0.000000  1
  Ho  Ho2  1  0.598045  0.007845  0.000000  1
  In  In3  1  0.741447  0.738548  0.500000  1
  In  In4  1  0.996869  0.258458  0.500000  1
  In  In5  1  0.261461  0.002969  0.500000  1
  Pd  Pd6  1  0.998979  0.999974  0.000000  1
  Pd  Pd7  1  0.666086  0.330603  0.500000  1
  Au  Au8  1  0.335021  0.668823  0.500000  1
