# generated using pymatgen
data_Er7Lu3(Ga2Bi)2
_symmetry_space_group_name_H-M   'P 1'
_cell_length_a   8.63783302
_cell_length_b   8.66844492
_cell_length_c   6.47262300
_cell_angle_alpha   89.99924883
_cell_angle_beta   90.00038050
_cell_angle_gamma   120.11730334
_symmetry_Int_Tables_number   1
_chemical_formula_structural   Er7Lu3(Ga2Bi)2
_chemical_formula_sum   'Er7 Lu3 Ga4 Bi2'
_cell_volume   419.22037328
_cell_formula_units_Z   1
loop_
 _symmetry_equiv_pos_site_id
 _symmetry_equiv_pos_as_xyz
  1  'x, y, z'
loop_
 _atom_site_type_symbol
 _atom_site_label
 _atom_site_symmetry_multiplicity
 _atom_site_fract_x
 _atom_site_fract_y
 _atom_site_fract_z
 _atom_site_occupancy
  Er  Er0  1  0.981804  0.748346  0.749791  1
  Er  Er1  1  0.981804  0.233459  0.250209  1
  Er  Er2  1  0.768419  0.768727  0.250314  1
  Er  Er3  1  0.768419  0.999692  0.749686  1
  Er  Er4  1  0.233700  0.251166  0.749673  1
  Er  Er5  1  0.233700  0.982534  0.250327  1
  Er  Er6  1  0.329697  0.664850  0.000000  1
  Lu  Lu7  1  0.329516  0.664759  0.500000  1
  Lu  Lu8  1  0.693162  0.346580  0.000000  1
  Lu  Lu9  1  0.692634  0.346316  0.500000  1
  Ga  Ga10  1  0.001153  0.600687  0.250417  1
  Ga  Ga11  1  0.001153  0.400466  0.749583  1
  Ga  Ga12  1  0.596414  0.600891  0.749405  1
  Ga  Ga13  1  0.596414  0.995522  0.250595  1
  Bi  Bi14  1  0.396007  0.007058  0.749299  1
  Bi  Bi15  1  0.396007  0.388949  0.250701  1
