# generated using pymatgen
data_TbNdB6Ru
_symmetry_space_group_name_H-M   'P 1'
_cell_length_a   3.73185400
_cell_length_b   9.25460700
_cell_length_c   11.66835600
_cell_angle_alpha   90.00000000
_cell_angle_beta   90.00000000
_cell_angle_gamma   90.00000000
_symmetry_Int_Tables_number   1
_chemical_formula_structural   TbNdB6Ru
_chemical_formula_sum   'Tb4 Nd4 B24 Ru4'
_cell_volume   402.98816934
_cell_formula_units_Z   4
loop_
 _symmetry_equiv_pos_site_id
 _symmetry_equiv_pos_as_xyz
  1  'x, y, z'
loop_
 _atom_site_type_symbol
 _atom_site_label
 _atom_site_symmetry_multiplicity
 _atom_site_fract_x
 _atom_site_fract_y
 _atom_site_fract_z
 _atom_site_occupancy
  Tb  Tb0  1  0.000000  0.943863  0.371627  1
  Tb  Tb1  1  0.000000  0.056137  0.628373  1
  Tb  Tb2  1  0.000000  0.443863  0.128373  1
  Tb  Tb3  1  0.000000  0.556137  0.871627  1
  Nd  Nd4  1  0.000000  0.323680  0.414124  1
  Nd  Nd5  1  0.000000  0.676320  0.585876  1
  Nd  Nd6  1  0.000000  0.823680  0.085876  1
  Nd  Nd7  1  0.000000  0.176320  0.914124  1
  B  B8  1  0.500000  0.556124  0.430598  1
  B  B9  1  0.500000  0.443876  0.569402  1
  B  B10  1  0.500000  0.056124  0.069402  1
  B  B11  1  0.500000  0.943876  0.930598  1
  B  B12  1  0.500000  0.748603  0.417789  1
  B  B13  1  0.500000  0.251397  0.582211  1
  B  B14  1  0.500000  0.248603  0.082211  1
  B  B15  1  0.500000  0.751397  0.917789  1
  B  B16  1  0.500000  0.789918  0.267178  1
  B  B17  1  0.500000  0.210082  0.732822  1
  B  B18  1  0.500000  0.289918  0.232822  1
  B  B19  1  0.500000  0.710082  0.767178  1
  B  B20  1  0.500000  0.631617  0.185669  1
  B  B21  1  0.500000  0.368383  0.814331  1
  B  B22  1  0.500000  0.131617  0.314331  1
  B  B23  1  0.500000  0.868383  0.685669  1
  B  B24  1  0.500000  0.986705  0.213629  1
  B  B25  1  0.500000  0.013295  0.786371  1
  B  B26  1  0.500000  0.486705  0.286371  1
  B  B27  1  0.500000  0.513295  0.713629  1
  B  B28  1  0.500000  0.604719  0.028830  1
  B  B29  1  0.500000  0.395281  0.971170  1
  B  B30  1  0.500000  0.104719  0.471170  1
  B  B31  1  0.500000  0.895281  0.528830  1
  Ru  Ru32  1  0.000000  0.639109  0.320152  1
  Ru  Ru33  1  0.000000  0.360891  0.679848  1
  Ru  Ru34  1  0.000000  0.139109  0.179848  1
  Ru  Ru35  1  0.000000  0.860891  0.820152  1
