# generated using pymatgen
data_Tb4MnB4Ir9
_symmetry_space_group_name_H-M   'P 1'
_cell_length_a   10.82944525
_cell_length_b   10.82944422
_cell_length_c   10.82944514
_cell_angle_alpha   29.57439820
_cell_angle_beta   29.57439765
_cell_angle_gamma   29.57440108
_symmetry_Int_Tables_number   1
_chemical_formula_structural   Tb4MnB4Ir9
_chemical_formula_sum   'Tb4 Mn1 B4 Ir9'
_cell_volume   273.86804963
_cell_formula_units_Z   1
loop_
 _symmetry_equiv_pos_site_id
 _symmetry_equiv_pos_as_xyz
  1  'x, y, z'
loop_
 _atom_site_type_symbol
 _atom_site_label
 _atom_site_symmetry_multiplicity
 _atom_site_fract_x
 _atom_site_fract_y
 _atom_site_fract_z
 _atom_site_occupancy
  Tb  Tb0  1  0.151246  0.151246  0.151246  1
  Tb  Tb1  1  0.949835  0.949835  0.949835  1
  Tb  Tb2  1  0.848754  0.848754  0.848754  1
  Tb  Tb3  1  0.050165  0.050165  0.050165  1
  Mn  Mn4  1  0.500000  0.500000  0.500000  1
  B  B5  1  0.616071  0.616071  0.616071  1
  B  B6  1  0.717468  0.717468  0.717468  1
  B  B7  1  0.383929  0.383929  0.383929  1
  B  B8  1  0.282532  0.282532  0.282532  1
  Ir  Ir9  1  0.403403  0.900135  0.403403  1
  Ir  Ir10  1  0.900135  0.403403  0.403403  1
  Ir  Ir11  1  0.500000  0.500000  0.000000  1
  Ir  Ir12  1  0.500000  0.000000  0.500000  1
  Ir  Ir13  1  0.000000  0.500000  0.500000  1
  Ir  Ir14  1  0.596597  0.099865  0.596597  1
  Ir  Ir15  1  0.596597  0.596597  0.099865  1
  Ir  Ir16  1  0.099865  0.596597  0.596597  1
  Ir  Ir17  1  0.403403  0.403403  0.900135  1
