# generated using pymatgen
data_La6Nd3Y(Sn3Cl)2
_symmetry_space_group_name_H-M   'P 1'
_cell_length_a   9.56877600
_cell_length_b   9.56877541
_cell_length_c   6.83637600
_cell_angle_alpha   90.00000000
_cell_angle_beta   90.00000000
_cell_angle_gamma   119.99999511
_symmetry_Int_Tables_number   1
_chemical_formula_structural   La6Nd3Y(Sn3Cl)2
_chemical_formula_sum   'La6 Nd3 Y1 Sn6 Cl2'
_cell_volume   542.08743828
_cell_formula_units_Z   1
loop_
 _symmetry_equiv_pos_site_id
 _symmetry_equiv_pos_as_xyz
  1  'x, y, z'
loop_
 _atom_site_type_symbol
 _atom_site_label
 _atom_site_symmetry_multiplicity
 _atom_site_fract_x
 _atom_site_fract_y
 _atom_site_fract_z
 _atom_site_occupancy
  La  La0  1  0.738375  0.999901  0.750354  1
  La  La1  1  0.738375  0.738474  0.249646  1
  La  La2  1  0.000099  0.261625  0.249646  1
  La  La3  1  0.000099  0.738474  0.750354  1
  La  La4  1  0.261526  0.261625  0.750354  1
  La  La5  1  0.261526  0.999901  0.249646  1
  Nd  Nd6  1  0.666667  0.333333  0.000000  1
  Nd  Nd7  1  0.333333  0.666667  0.500000  1
  Nd  Nd8  1  0.666667  0.333333  0.500000  1
  Y  Y9  1  0.333333  0.666667  0.000000  1
  Sn  Sn10  1  0.608265  0.610521  0.751761  1
  Sn  Sn11  1  0.002256  0.610521  0.248239  1
  Sn  Sn12  1  0.608265  0.997744  0.248239  1
  Sn  Sn13  1  0.389479  0.997744  0.751761  1
  Sn  Sn14  1  0.002256  0.391735  0.751761  1
  Sn  Sn15  1  0.389479  0.391735  0.248239  1
  Cl  Cl16  1  0.000000  0.000000  0.500000  1
  Cl  Cl17  1  0.000000  0.000000  0.000000  1
