# generated using pymatgen
data_Mn4Be7
_symmetry_space_group_name_H-M   'P 1'
_cell_length_a   10.61849741
_cell_length_b   10.61849774
_cell_length_c   11.35840200
_cell_angle_alpha   103.44825367
_cell_angle_beta   103.44825409
_cell_angle_gamma   22.73177202
_symmetry_Int_Tables_number   1
_chemical_formula_structural   Mn4Be7
_chemical_formula_sum   'Mn20 Be35'
_cell_volume   480.75457131
_cell_formula_units_Z   5
loop_
 _symmetry_equiv_pos_site_id
 _symmetry_equiv_pos_as_xyz
  1  'x, y, z'
loop_
 _atom_site_type_symbol
 _atom_site_label
 _atom_site_symmetry_multiplicity
 _atom_site_fract_x
 _atom_site_fract_y
 _atom_site_fract_z
 _atom_site_occupancy
  Mn  Mn0  1  0.358325  0.358325  0.083417  1
  Mn  Mn1  1  0.486673  0.486673  0.107272  1
  Mn  Mn2  1  0.695528  0.695528  0.148605  1
  Mn  Mn3  1  0.823619  0.823619  0.177433  1
  Mn  Mn4  1  0.035512  0.035512  0.221620  1
  Mn  Mn5  1  0.160350  0.160350  0.247327  1
  Mn  Mn6  1  0.010020  0.010020  0.410251  1
  Mn  Mn7  1  0.876027  0.876027  0.403682  1
  Mn  Mn8  1  0.445128  0.445128  0.457289  1
  Mn  Mn9  1  0.215471  0.215471  0.474583  1
  Mn  Mn10  1  0.784529  0.784529  0.525417  1
  Mn  Mn11  1  0.554871  0.554871  0.542711  1
  Mn  Mn12  1  0.123973  0.123973  0.596319  1
  Mn  Mn13  1  0.989979  0.989979  0.589749  1
  Mn  Mn14  1  0.839650  0.839650  0.752673  1
  Mn  Mn15  1  0.964488  0.964488  0.778380  1
  Mn  Mn16  1  0.176381  0.176381  0.822567  1
  Mn  Mn17  1  0.304472  0.304472  0.851395  1
  Mn  Mn18  1  0.513327  0.513327  0.892729  1
  Mn  Mn19  1  0.641675  0.641675  0.916584  1
  Be  Be20  1  0.000000  0.000000  0.000000  1
  Be  Be21  1  0.499999  0.000000  0.000000  1
  Be  Be22  1  0.000000  0.499999  0.000000  1
  Be  Be23  1  0.168388  0.168388  0.032748  1
  Be  Be24  1  0.831396  0.344195  0.070391  1
  Be  Be25  1  0.344195  0.831396  0.070391  1
  Be  Be26  1  0.923117  0.923117  0.096069  1
  Be  Be27  1  0.259398  0.259398  0.162956  1
  Be  Be28  1  0.597438  0.597438  0.231128  1
  Be  Be29  1  0.681310  0.181693  0.258348  1
  Be  Be30  1  0.181693  0.681310  0.258348  1
  Be  Be31  1  0.351161  0.351161  0.291013  1
  Be  Be32  1  0.519673  0.519673  0.326260  1
  Be  Be33  1  0.521670  0.012685  0.326533  1
  Be  Be34  1  0.012685  0.521670  0.326533  1
  Be  Be35  1  0.688300  0.688300  0.361283  1
  Be  Be36  1  0.868417  0.347236  0.399410  1
  Be  Be37  1  0.347236  0.868417  0.399410  1
  Be  Be38  1  0.330196  0.330196  0.463840  1
  Be  Be39  1  0.669804  0.669804  0.536160  1
  Be  Be40  1  0.652764  0.131583  0.600590  1
  Be  Be41  1  0.131583  0.652764  0.600590  1
  Be  Be42  1  0.311701  0.311701  0.638718  1
  Be  Be43  1  0.987315  0.478330  0.673467  1
  Be  Be44  1  0.478330  0.987315  0.673467  1
  Be  Be45  1  0.480327  0.480327  0.673740  1
  Be  Be46  1  0.648839  0.648839  0.708987  1
  Be  Be47  1  0.818306  0.318690  0.741652  1
  Be  Be48  1  0.318690  0.818306  0.741652  1
  Be  Be49  1  0.402562  0.402562  0.768873  1
  Be  Be50  1  0.740601  0.740601  0.837044  1
  Be  Be51  1  0.076883  0.076883  0.903932  1
  Be  Be52  1  0.655805  0.168604  0.929609  1
  Be  Be53  1  0.168604  0.655805  0.929609  1
  Be  Be54  1  0.831612  0.831612  0.967253  1
