# generated using pymatgen
data_AgMoO3F
_symmetry_space_group_name_H-M   'P 1'
_cell_length_a   3.75596600
_cell_length_b   6.76097360
_cell_length_c   7.63069801
_cell_angle_alpha   68.12792679
_cell_angle_beta   90.00000000
_cell_angle_gamma   90.00000000
_symmetry_Int_Tables_number   1
_chemical_formula_structural   AgMoO3F
_chemical_formula_sum   'Ag2 Mo2 O6 F2'
_cell_volume   179.82560576
_cell_formula_units_Z   2
loop_
 _symmetry_equiv_pos_site_id
 _symmetry_equiv_pos_as_xyz
  1  'x, y, z'
loop_
 _atom_site_type_symbol
 _atom_site_label
 _atom_site_symmetry_multiplicity
 _atom_site_fract_x
 _atom_site_fract_y
 _atom_site_fract_z
 _atom_site_occupancy
  Ag  Ag0  1  0.250000  0.869677  0.727482  1
  Ag  Ag1  1  0.750000  0.130323  0.272518  1
  Mo  Mo2  1  0.250000  0.603660  0.289735  1
  Mo  Mo3  1  0.750000  0.396340  0.710265  1
  O  O4  1  0.250000  0.354339  0.261410  1
  O  O5  1  0.750000  0.645661  0.738590  1
  O  O6  1  0.250000  0.781371  0.057357  1
  O  O7  1  0.750000  0.218629  0.942643  1
  O  O8  1  0.250000  0.414757  0.628095  1
  O  O9  1  0.750000  0.585243  0.371905  1
  F  F10  1  0.250000  0.863301  0.384652  1
  F  F11  1  0.750000  0.136699  0.615348  1
