# generated using pymatgen
data_LiLa3Pd2Au3
_symmetry_space_group_name_H-M   'P 1'
_cell_length_a   7.86835900
_cell_length_b   7.86835944
_cell_length_c   3.78573500
_cell_angle_alpha   90.00000000
_cell_angle_beta   90.00000000
_cell_angle_gamma   120.00000235
_symmetry_Int_Tables_number   1
_chemical_formula_structural   LiLa3Pd2Au3
_chemical_formula_sum   'Li1 La3 Pd2 Au3'
_cell_volume   202.97810303
_cell_formula_units_Z   1
loop_
 _symmetry_equiv_pos_site_id
 _symmetry_equiv_pos_as_xyz
  1  'x, y, z'
loop_
 _atom_site_type_symbol
 _atom_site_label
 _atom_site_symmetry_multiplicity
 _atom_site_fract_x
 _atom_site_fract_y
 _atom_site_fract_z
 _atom_site_occupancy
  Li  Li0  1  0.000000  0.000000  0.500000  1
  La  La1  1  0.408437  0.408437  0.500000  1
  La  La2  1  0.591563  0.000000  0.500000  1
  La  La3  1  0.000000  0.591563  0.500000  1
  Pd  Pd4  1  0.666667  0.333333  0.000000  1
  Pd  Pd5  1  0.333333  0.666667  0.000000  1
  Au  Au6  1  0.750361  0.750361  0.000000  1
  Au  Au7  1  0.249639  0.000000  0.000000  1
  Au  Au8  1  0.000000  0.249639  0.000000  1
