# generated using pymatgen
data_TbPr19Si15Tc
_symmetry_space_group_name_H-M   'P 1'
_cell_length_a   7.91433460
_cell_length_b   7.91387016
_cell_length_c   15.29667111
_cell_angle_alpha   90.27443199
_cell_angle_beta   89.90067469
_cell_angle_gamma   90.14732767
_symmetry_Int_Tables_number   1
_chemical_formula_structural   TbPr19Si15Tc
_chemical_formula_sum   'Tb1 Pr19 Si15 Tc1'
_cell_volume   958.06107568
_cell_formula_units_Z   1
loop_
 _symmetry_equiv_pos_site_id
 _symmetry_equiv_pos_as_xyz
  1  'x, y, z'
loop_
 _atom_site_type_symbol
 _atom_site_label
 _atom_site_symmetry_multiplicity
 _atom_site_fract_x
 _atom_site_fract_y
 _atom_site_fract_z
 _atom_site_occupancy
  Tb  Tb0  1  0.309380  0.306996  0.998453  1
  Pr  Pr1  1  0.191926  0.808794  0.250046  1
  Pr  Pr2  1  0.824540  0.189950  0.748418  1
  Pr  Pr3  1  0.695614  0.689820  0.502600  1
  Pr  Pr4  1  0.370711  0.012074  0.451051  1
  Pr  Pr5  1  0.483325  0.883622  0.696531  1
  Pr  Pr6  1  0.510412  0.123875  0.198223  1
  Pr  Pr7  1  0.876970  0.488776  0.300618  1
  Pr  Pr8  1  0.129273  0.501781  0.799230  1
  Pr  Pr9  1  0.625558  0.988561  0.948917  1
  Pr  Pr10  1  0.007815  0.378016  0.551227  1
  Pr  Pr11  1  0.988662  0.624955  0.050742  1
  Pr  Pr12  1  0.132162  0.983008  0.872815  1
  Pr  Pr13  1  0.517025  0.629655  0.126054  1
  Pr  Pr14  1  0.471623  0.361240  0.629567  1
  Pr  Pr15  1  0.627985  0.515466  0.875415  1
  Pr  Pr16  1  0.375019  0.483174  0.373103  1
  Pr  Pr17  1  0.873311  0.020471  0.376057  1
  Pr  Pr18  1  0.982162  0.127290  0.123974  1
  Pr  Pr19  1  0.025620  0.880714  0.627482  1
  Si  Si20  1  0.331768  0.691710  0.952624  1
  Si  Si21  1  0.663906  0.301766  0.451087  1
  Si  Si22  1  0.694283  0.332208  0.049203  1
  Si  Si23  1  0.303415  0.668215  0.546824  1
  Si  Si24  1  0.805487  0.832081  0.202643  1
  Si  Si25  1  0.168027  0.197689  0.297297  1
  Si  Si26  1  0.830645  0.801990  0.800190  1
  Si  Si27  1  0.288970  0.925470  0.057887  1
  Si  Si28  1  0.580034  0.787403  0.310395  1
  Si  Si29  1  0.418113  0.212654  0.815018  1
  Si  Si30  1  0.778470  0.582830  0.692345  1
  Si  Si31  1  0.213049  0.420073  0.187443  1
  Si  Si32  1  0.704980  0.075705  0.558265  1
  Si  Si33  1  0.924089  0.288100  0.942156  1
  Si  Si34  1  0.079030  0.714657  0.440660  1
  Tc  Tc35  1  0.196640  0.169210  0.695442  1
