# generated using pymatgen
data_Er4B16IrRu2Rh
_symmetry_space_group_name_H-M   'P 1'
_cell_length_a   3.54836800
_cell_length_b   5.94644632
_cell_length_c   11.51947627
_cell_angle_alpha   89.90563560
_cell_angle_beta   90.00000000
_cell_angle_gamma   90.00000000
_symmetry_Int_Tables_number   1
_chemical_formula_structural   Er4B16IrRu2Rh
_chemical_formula_sum   'Er4 B16 Ir1 Ru2 Rh1'
_cell_volume   243.06269135
_cell_formula_units_Z   1
loop_
 _symmetry_equiv_pos_site_id
 _symmetry_equiv_pos_as_xyz
  1  'x, y, z'
loop_
 _atom_site_type_symbol
 _atom_site_label
 _atom_site_symmetry_multiplicity
 _atom_site_fract_x
 _atom_site_fract_y
 _atom_site_fract_z
 _atom_site_occupancy
  Er  Er0  1  0.000000  0.630225  0.351960  1
  Er  Er1  1  0.000000  0.369602  0.647731  1
  Er  Er2  1  0.000000  0.131493  0.150777  1
  Er  Er3  1  0.000000  0.868435  0.849380  1
  B  B4  1  0.500000  0.790579  0.188228  1
  B  B5  1  0.500000  0.208912  0.811906  1
  B  B6  1  0.500000  0.290801  0.313915  1
  B  B7  1  0.500000  0.709326  0.686066  1
  B  B8  1  0.500000  0.863717  0.029317  1
  B  B9  1  0.500000  0.135817  0.970826  1
  B  B10  1  0.500000  0.364521  0.469482  1
  B  B11  1  0.500000  0.635495  0.530257  1
  B  B12  1  0.500000  0.887650  0.453357  1
  B  B13  1  0.500000  0.112325  0.546550  1
  B  B14  1  0.500000  0.387354  0.047512  1
  B  B15  1  0.500000  0.612608  0.951983  1
  B  B16  1  0.500000  0.975614  0.307925  1
  B  B17  1  0.500000  0.024157  0.691806  1
  B  B18  1  0.500000  0.477788  0.193823  1
  B  B19  1  0.500000  0.522606  0.806204  1
  Ir  Ir20  1  0.000000  0.356380  0.904576  1
  Ru  Ru21  1  0.000000  0.141017  0.407325  1
  Ru  Ru22  1  0.000000  0.858598  0.593274  1
  Rh  Rh23  1  0.000000  0.644980  0.095817  1
