# generated using pymatgen
data_CsTa2Br11
_symmetry_space_group_name_H-M   'P 1'
_cell_length_a   7.79009850
_cell_length_b   7.86358761
_cell_length_c   19.17596030
_cell_angle_alpha   79.33474782
_cell_angle_beta   79.14579062
_cell_angle_gamma   88.78001927
_symmetry_Int_Tables_number   1
_chemical_formula_structural   CsTa2Br11
_chemical_formula_sum   'Cs2 Ta4 Br22'
_cell_volume   1133.62641523
_cell_formula_units_Z   2
loop_
 _symmetry_equiv_pos_site_id
 _symmetry_equiv_pos_as_xyz
  1  'x, y, z'
loop_
 _atom_site_type_symbol
 _atom_site_label
 _atom_site_symmetry_multiplicity
 _atom_site_fract_x
 _atom_site_fract_y
 _atom_site_fract_z
 _atom_site_occupancy
  Cs  Cs0  1  0.747781  0.748873  0.503254  1
  Cs  Cs1  1  0.252219  0.251127  0.496746  1
  Ta  Ta2  1  0.323303  0.820168  0.342139  1
  Ta  Ta3  1  0.676697  0.179832  0.657861  1
  Ta  Ta4  1  0.835277  0.333568  0.085158  1
  Ta  Ta5  1  0.164723  0.666432  0.914842  1
  Br  Br6  1  0.254239  0.769465  0.486420  1
  Br  Br7  1  0.745761  0.230535  0.513580  1
  Br  Br8  1  0.566348  0.024994  0.345770  1
  Br  Br9  1  0.433652  0.975006  0.654230  1
  Br  Br10  1  0.534490  0.569767  0.353337  1
  Br  Br11  1  0.465510  0.430233  0.646663  1
  Br  Br12  1  0.384576  0.860961  0.209974  1
  Br  Br13  1  0.615424  0.139039  0.790026  1
  Br  Br14  1  0.074728  0.606796  0.353214  1
  Br  Br15  1  0.925272  0.393204  0.646786  1
  Br  Br16  1  0.109213  0.066215  0.342508  1
  Br  Br17  1  0.890787  0.933785  0.657492  1
  Br  Br18  1  0.898240  0.044243  0.145124  1
  Br  Br19  1  0.101760  0.955757  0.854876  1
  Br  Br20  1  0.540355  0.380807  0.147358  1
  Br  Br21  1  0.459645  0.619193  0.852642  1
  Br  Br22  1  0.728640  0.223906  0.987257  1
  Br  Br23  1  0.271360  0.776094  0.012743  1
  Br  Br24  1  0.972962  0.476820  0.166410  1
  Br  Br25  1  0.027038  0.523180  0.833590  1
  Br  Br26  1  0.161635  0.345559  0.999622  1
  Br  Br27  1  0.838365  0.654441  0.000378  1
