# generated using pymatgen
data_CaLaYb6(Si3Pd)4
_symmetry_space_group_name_H-M   'P 1'
_cell_length_a   8.25499600
_cell_length_b   8.25499492
_cell_length_c   8.40792200
_cell_angle_alpha   90.00000000
_cell_angle_beta   90.00000000
_cell_angle_gamma   120.00000432
_symmetry_Int_Tables_number   1
_chemical_formula_structural   CaLaYb6(Si3Pd)4
_chemical_formula_sum   'Ca1 La1 Yb6 Si12 Pd4'
_cell_volume   496.19566362
_cell_formula_units_Z   1
loop_
 _symmetry_equiv_pos_site_id
 _symmetry_equiv_pos_as_xyz
  1  'x, y, z'
loop_
 _atom_site_type_symbol
 _atom_site_label
 _atom_site_symmetry_multiplicity
 _atom_site_fract_x
 _atom_site_fract_y
 _atom_site_fract_z
 _atom_site_occupancy
  Ca  Ca0  1  0.000000  0.000000  0.250000  1
  La  La1  1  0.000000  0.000000  0.750000  1
  Yb  Yb2  1  0.500783  0.001566  0.250000  1
  Yb  Yb3  1  0.499253  0.998507  0.750000  1
  Yb  Yb4  1  0.998434  0.499217  0.250000  1
  Yb  Yb5  1  0.001493  0.500747  0.750000  1
  Yb  Yb6  1  0.500783  0.499217  0.250000  1
  Yb  Yb7  1  0.499253  0.500747  0.750000  1
  Si  Si8  1  0.165230  0.330458  0.001551  1
  Si  Si9  1  0.834802  0.669604  0.000776  1
  Si  Si10  1  0.669542  0.834770  0.001551  1
  Si  Si11  1  0.834802  0.669604  0.499224  1
  Si  Si12  1  0.330396  0.165198  0.000776  1
  Si  Si13  1  0.165230  0.330458  0.498449  1
  Si  Si14  1  0.165230  0.834770  0.001551  1
  Si  Si15  1  0.330396  0.165198  0.499224  1
  Si  Si16  1  0.834802  0.165198  0.000776  1
  Si  Si17  1  0.669542  0.834770  0.498449  1
  Si  Si18  1  0.834802  0.165198  0.499224  1
  Si  Si19  1  0.165230  0.834770  0.498449  1
  Pd  Pd20  1  0.333333  0.666667  0.004140  1
  Pd  Pd21  1  0.666667  0.333333  0.999738  1
  Pd  Pd22  1  0.666667  0.333333  0.500262  1
  Pd  Pd23  1  0.333333  0.666667  0.495860  1
