# generated using pymatgen
data_CeHo3(Co3Si5)2
_symmetry_space_group_name_H-M   'P 1'
_cell_length_a   7.87771241
_cell_length_b   7.87368998
_cell_length_c   7.87368999
_cell_angle_alpha   138.71494396
_cell_angle_beta   105.32098895
_cell_angle_gamma   89.09528792
_symmetry_Int_Tables_number   1
_chemical_formula_structural   CeHo3(Co3Si5)2
_chemical_formula_sum   'Ce1 Ho3 Co6 Si10'
_cell_volume   297.69024749
_cell_formula_units_Z   1
loop_
 _symmetry_equiv_pos_site_id
 _symmetry_equiv_pos_as_xyz
  1  'x, y, z'
loop_
 _atom_site_type_symbol
 _atom_site_label
 _atom_site_symmetry_multiplicity
 _atom_site_fract_x
 _atom_site_fract_y
 _atom_site_fract_z
 _atom_site_occupancy
  Ce  Ce0  1  0.601616  0.866337  0.735279  1
  Ho  Ho1  1  0.867785  0.633066  0.234719  1
  Ho  Ho2  1  0.132605  0.367120  0.765485  1
  Ho  Ho3  1  0.396611  0.132272  0.264339  1
  Co  Co4  1  0.998888  0.750356  0.750871  1
  Co  Co5  1  0.998888  0.248017  0.248532  1
  Co  Co6  1  0.255217  0.864471  0.390745  1
  Co  Co7  1  0.749744  0.137209  0.612535  1
  Co  Co8  1  0.472869  0.362851  0.110018  1
  Co  Co9  1  0.524697  0.637893  0.886804  1
  Si  Si10  1  0.502405  0.752049  0.248199  1
  Si  Si11  1  0.502405  0.254207  0.750357  1
  Si  Si12  1  0.227307  0.976854  0.747845  1
  Si  Si13  1  0.770070  0.517316  0.749477  1
  Si  Si14  1  0.770070  0.020593  0.252754  1
  Si  Si15  1  0.227307  0.479462  0.250453  1
  Si  Si16  1  0.054116  0.897629  0.156486  1
  Si  Si17  1  0.948088  0.103255  0.844834  1
  Si  Si18  1  0.744280  0.398643  0.345637  1
  Si  Si19  1  0.255032  0.600402  0.654630  1
