# generated using pymatgen
data_Rb12Na8Ti(SiP4)3
_symmetry_space_group_name_H-M   'P 1'
_cell_length_a   10.44670730
_cell_length_b   10.44670733
_cell_length_c   15.33575319
_cell_angle_alpha   90.03578385
_cell_angle_beta   90.03578355
_cell_angle_gamma   142.38821408
_symmetry_Int_Tables_number   1
_chemical_formula_structural   Rb12Na8Ti(SiP4)3
_chemical_formula_sum   'Rb12 Na8 Ti1 Si3 P12'
_cell_volume   1021.43868896
_cell_formula_units_Z   1
loop_
 _symmetry_equiv_pos_site_id
 _symmetry_equiv_pos_as_xyz
  1  'x, y, z'
loop_
 _atom_site_type_symbol
 _atom_site_label
 _atom_site_symmetry_multiplicity
 _atom_site_fract_x
 _atom_site_fract_y
 _atom_site_fract_z
 _atom_site_occupancy
  Rb  Rb0  1  0.938454  0.606417  0.827458  1
  Rb  Rb1  1  0.562397  0.894180  0.326711  1
  Rb  Rb2  1  0.393583  0.061546  0.172542  1
  Rb  Rb3  1  0.061311  0.392596  0.172466  1
  Rb  Rb4  1  0.891238  0.555342  0.324448  1
  Rb  Rb5  1  0.444658  0.108762  0.675552  1
  Rb  Rb6  1  0.607404  0.938689  0.827534  1
  Rb  Rb7  1  0.271622  0.273295  0.315806  1
  Rb  Rb8  1  0.768185  0.768561  0.181528  1
  Rb  Rb9  1  0.231439  0.231815  0.818472  1
  Rb  Rb10  1  0.726705  0.728378  0.684194  1
  Rb  Rb11  1  0.105820  0.437603  0.673289  1
  Na  Na12  1  0.921339  0.078661  0.000000  1
  Na  Na13  1  0.578754  0.421246  0.500000  1
  Na  Na14  1  0.078710  0.921290  0.000000  1
  Na  Na15  1  0.420037  0.579963  0.500000  1
  Na  Na16  1  0.755291  0.244709  0.000000  1
  Na  Na17  1  0.745610  0.254390  0.500000  1
  Na  Na18  1  0.244693  0.755307  0.000000  1
  Na  Na19  1  0.255656  0.744344  0.500000  1
  Ti  Ti20  1  0.081048  0.918952  0.500000  1
  Si  Si21  1  0.583893  0.416107  0.000000  1
  Si  Si22  1  0.917632  0.082368  0.500000  1
  Si  Si23  1  0.415962  0.584038  0.000000  1
  P  P24  1  0.847710  0.546856  0.090196  1
  P  P25  1  0.453144  0.152290  0.909804  1
  P  P26  1  0.654127  0.952648  0.590335  1
  P  P27  1  0.948327  0.643842  0.593178  1
  P  P28  1  0.152251  0.453203  0.909861  1
  P  P29  1  0.546797  0.847749  0.090139  1
  P  P30  1  0.356158  0.051673  0.406822  1
  P  P31  1  0.184887  0.192199  0.583257  1
  P  P32  1  0.678023  0.678018  0.922168  1
  P  P33  1  0.321982  0.321977  0.077832  1
  P  P34  1  0.047352  0.345873  0.409665  1
  P  P35  1  0.807801  0.815113  0.416743  1
