# generated using pymatgen
data_Li4Ca2Mg(GeN3)2
_symmetry_space_group_name_H-M   'P 1'
_cell_length_a   5.85485362
_cell_length_b   5.85485371
_cell_length_c   5.74306626
_cell_angle_alpha   88.42698854
_cell_angle_beta   88.42698378
_cell_angle_gamma   118.23614857
_symmetry_Int_Tables_number   1
_chemical_formula_structural   Li4Ca2Mg(GeN3)2
_chemical_formula_sum   'Li4 Ca2 Mg1 Ge2 N6'
_cell_volume   173.19380468
_cell_formula_units_Z   1
loop_
 _symmetry_equiv_pos_site_id
 _symmetry_equiv_pos_as_xyz
  1  'x, y, z'
loop_
 _atom_site_type_symbol
 _atom_site_label
 _atom_site_symmetry_multiplicity
 _atom_site_fract_x
 _atom_site_fract_y
 _atom_site_fract_z
 _atom_site_occupancy
  Li  Li0  1  0.988758  0.333979  0.370244  1
  Li  Li1  1  0.333979  0.988758  0.370244  1
  Li  Li2  1  0.011242  0.666021  0.629756  1
  Li  Li3  1  0.666021  0.011242  0.629756  1
  Ca  Ca4  1  0.321829  0.678171  0.000000  1
  Ca  Ca5  1  0.678171  0.321829  0.000000  1
  Mg  Mg6  1  0.000000  0.000000  0.000000  1
  Ge  Ge7  1  0.313710  0.313710  0.634709  1
  Ge  Ge8  1  0.686290  0.686290  0.365291  1
  N  N9  1  0.632465  0.632465  0.702346  1
  N  N10  1  0.367535  0.367535  0.297654  1
  N  N11  1  0.015420  0.317010  0.753824  1
  N  N12  1  0.317010  0.015420  0.753824  1
  N  N13  1  0.984580  0.682990  0.246176  1
  N  N14  1  0.682990  0.984580  0.246176  1
