# generated using pymatgen
data_Er11Tm9(Bi2Os)4
_symmetry_space_group_name_H-M   'P 1'
_cell_length_a   7.88130118
_cell_length_b   8.97370200
_cell_length_c   12.41259705
_cell_angle_alpha   90.00000000
_cell_angle_beta   89.99306996
_cell_angle_gamma   90.00000000
_symmetry_Int_Tables_number   1
_chemical_formula_structural   Er11Tm9(Bi2Os)4
_chemical_formula_sum   'Er11 Tm9 Bi8 Os4'
_cell_volume   877.87407025
_cell_formula_units_Z   1
loop_
 _symmetry_equiv_pos_site_id
 _symmetry_equiv_pos_as_xyz
  1  'x, y, z'
loop_
 _atom_site_type_symbol
 _atom_site_label
 _atom_site_symmetry_multiplicity
 _atom_site_fract_x
 _atom_site_fract_y
 _atom_site_fract_z
 _atom_site_occupancy
  Er  Er0  1  0.338675  0.250000  0.290768  1
  Er  Er1  1  0.161508  0.250000  0.790883  1
  Er  Er2  1  0.838637  0.750000  0.209144  1
  Er  Er3  1  0.123851  0.750000  0.810043  1
  Er  Er4  1  0.875778  0.250000  0.189993  1
  Er  Er5  1  0.624047  0.250000  0.689825  1
  Er  Er6  1  0.375745  0.750000  0.310154  1
  Er  Er7  1  0.558713  0.750000  0.995523  1
  Er  Er8  1  0.441559  0.250000  0.004192  1
  Er  Er9  1  0.058582  0.250000  0.504438  1
  Er  Er10  1  0.941223  0.750000  0.495890  1
  Tm  Tm11  1  0.661108  0.750000  0.708723  1
  Tm  Tm12  1  0.828316  0.457516  0.935023  1
  Tm  Tm13  1  0.171868  0.542535  0.064788  1
  Tm  Tm14  1  0.328389  0.542640  0.565210  1
  Tm  Tm15  1  0.171868  0.957465  0.064788  1
  Tm  Tm16  1  0.671855  0.457591  0.435277  1
  Tm  Tm17  1  0.828316  0.042484  0.935023  1
  Tm  Tm18  1  0.671855  0.042409  0.435277  1
  Tm  Tm19  1  0.328389  0.957360  0.565210  1
  Bi  Bi20  1  0.934104  0.006601  0.672155  1
  Bi  Bi21  1  0.065494  0.993266  0.328009  1
  Bi  Bi22  1  0.434784  0.992992  0.827778  1
  Bi  Bi23  1  0.065494  0.506734  0.328009  1
  Bi  Bi24  1  0.565420  0.006673  0.171998  1
  Bi  Bi25  1  0.934104  0.493399  0.672155  1
  Bi  Bi26  1  0.565420  0.493327  0.171998  1
  Bi  Bi27  1  0.434784  0.507008  0.827778  1
  Os  Os28  1  0.924932  0.750000  0.991222  1
  Os  Os29  1  0.074925  0.250000  0.008957  1
  Os  Os30  1  0.425136  0.250000  0.508525  1
  Os  Os31  1  0.575119  0.750000  0.491242  1
