# generated using pymatgen
data_HfZr5Ti4Al12Rh7
_symmetry_space_group_name_H-M   'P 1'
_cell_length_a   8.78630609
_cell_length_b   8.78630554
_cell_length_c   8.77321100
_cell_angle_alpha   60.04928390
_cell_angle_beta   60.04928595
_cell_angle_gamma   59.82660618
_symmetry_Int_Tables_number   1
_chemical_formula_structural   HfZr5Ti4Al12Rh7
_chemical_formula_sum   'Hf1 Zr5 Ti4 Al12 Rh7'
_cell_volume   478.63686263
_cell_formula_units_Z   1
loop_
 _symmetry_equiv_pos_site_id
 _symmetry_equiv_pos_as_xyz
  1  'x, y, z'
loop_
 _atom_site_type_symbol
 _atom_site_label
 _atom_site_symmetry_multiplicity
 _atom_site_fract_x
 _atom_site_fract_y
 _atom_site_fract_z
 _atom_site_occupancy
  Hf  Hf0  1  0.691012  0.691012  0.308988  1
  Zr  Zr1  1  0.311267  0.689661  0.309761  1
  Zr  Zr2  1  0.689661  0.311267  0.309761  1
  Zr  Zr3  1  0.306579  0.306579  0.693421  1
  Zr  Zr4  1  0.689661  0.311267  0.689311  1
  Zr  Zr5  1  0.311267  0.689661  0.689311  1
  Ti  Ti6  1  0.880132  0.880132  0.359220  1
  Ti  Ti7  1  0.879941  0.359737  0.880160  1
  Ti  Ti8  1  0.359737  0.879941  0.880160  1
  Ti  Ti9  1  0.880132  0.880132  0.880514  1
  Al  Al10  1  0.119848  0.119848  0.640297  1
  Al  Al11  1  0.118961  0.640646  0.120196  1
  Al  Al12  1  0.640646  0.118961  0.120196  1
  Al  Al13  1  0.119848  0.119848  0.120007  1
  Al  Al14  1  0.663966  0.663966  0.009055  1
  Al  Al15  1  0.663866  0.007924  0.664104  1
  Al  Al16  1  0.007924  0.663866  0.664104  1
  Al  Al17  1  0.663966  0.663966  0.663011  1
  Al  Al18  1  0.335477  0.335477  0.993613  1
  Al  Al19  1  0.335798  0.992989  0.335607  1
  Al  Al20  1  0.992989  0.335798  0.335607  1
  Al  Al21  1  0.335477  0.335477  0.335434  1
  Rh  Rh22  1  0.000335  0.000335  0.999665  1
  Rh  Rh23  1  0.998314  0.998314  0.501686  1
  Rh  Rh24  1  0.502856  0.997747  0.500450  1
  Rh  Rh25  1  0.997747  0.502856  0.500450  1
  Rh  Rh26  1  0.501984  0.501984  0.998016  1
  Rh  Rh27  1  0.997747  0.502856  0.998946  1
  Rh  Rh28  1  0.502856  0.997747  0.998946  1
