# generated using pymatgen
data_Tb7Y3(NiTe)4
_symmetry_space_group_name_H-M   'P 1'
_cell_length_a   7.79929826
_cell_length_b   7.79929831
_cell_length_c   14.94446116
_cell_angle_alpha   90.01603027
_cell_angle_beta   89.98396884
_cell_angle_gamma   149.99562069
_symmetry_Int_Tables_number   1
_chemical_formula_structural   Tb7Y3(NiTe)4
_chemical_formula_sum   'Tb7 Y3 Ni4 Te4'
_cell_volume   454.58886865
_cell_formula_units_Z   1
loop_
 _symmetry_equiv_pos_site_id
 _symmetry_equiv_pos_as_xyz
  1  'x, y, z'
loop_
 _atom_site_type_symbol
 _atom_site_label
 _atom_site_symmetry_multiplicity
 _atom_site_fract_x
 _atom_site_fract_y
 _atom_site_fract_z
 _atom_site_occupancy
  Tb  Tb0  1  0.959617  0.040383  0.124522  1
  Tb  Tb1  1  0.040534  0.959466  0.875253  1
  Tb  Tb2  1  0.040343  0.959657  0.624515  1
  Tb  Tb3  1  0.959680  0.040320  0.375486  1
  Tb  Tb4  1  0.740703  0.259297  0.628304  1
  Tb  Tb5  1  0.259052  0.740948  0.372105  1
  Tb  Tb6  1  0.259129  0.740871  0.127961  1
  Y  Y7  1  0.741429  0.258571  0.873012  1
  Y  Y8  1  0.605465  0.394535  0.249937  1
  Y  Y9  1  0.394603  0.605397  0.749950  1
  Ni  Ni10  1  0.411336  0.588664  0.249898  1
  Ni  Ni11  1  0.588702  0.411298  0.749840  1
  Ni  Ni12  1  0.814753  0.185247  0.249966  1
  Ni  Ni13  1  0.184930  0.815070  0.749820  1
  Te  Te14  1  0.614927  0.385073  0.040223  1
  Te  Te15  1  0.384877  0.615123  0.959178  1
  Te  Te16  1  0.385060  0.614940  0.540590  1
  Te  Te17  1  0.614857  0.385143  0.459440  1
