# generated using pymatgen
data_Rb3Li2TaP3
_symmetry_space_group_name_H-M   'P 1'
_cell_length_a   9.92390763
_cell_length_b   9.92390787
_cell_length_c   15.86786300
_cell_angle_alpha   90.00000000
_cell_angle_beta   90.00000000
_cell_angle_gamma   142.54189443
_symmetry_Int_Tables_number   1
_chemical_formula_structural   Rb3Li2TaP3
_chemical_formula_sum   'Rb12 Li8 Ta4 P12'
_cell_volume   950.42280591
_cell_formula_units_Z   4
loop_
 _symmetry_equiv_pos_site_id
 _symmetry_equiv_pos_as_xyz
  1  'x, y, z'
loop_
 _atom_site_type_symbol
 _atom_site_label
 _atom_site_symmetry_multiplicity
 _atom_site_fract_x
 _atom_site_fract_y
 _atom_site_fract_z
 _atom_site_occupancy
  Rb  Rb0  1  0.950445  0.612149  0.829487  1
  Rb  Rb1  1  0.549555  0.887851  0.329487  1
  Rb  Rb2  1  0.387851  0.049555  0.170513  1
  Rb  Rb3  1  0.049555  0.387851  0.170513  1
  Rb  Rb4  1  0.887851  0.549555  0.329487  1
  Rb  Rb5  1  0.450445  0.112149  0.670513  1
  Rb  Rb6  1  0.612149  0.950445  0.829487  1
  Rb  Rb7  1  0.284323  0.284323  0.317134  1
  Rb  Rb8  1  0.784323  0.784323  0.182866  1
  Rb  Rb9  1  0.215677  0.215677  0.817134  1
  Rb  Rb10  1  0.715677  0.715677  0.682866  1
  Rb  Rb11  1  0.112149  0.450445  0.670513  1
  Li  Li12  1  0.918859  0.081141  0.000000  1
  Li  Li13  1  0.581141  0.418859  0.500000  1
  Li  Li14  1  0.081141  0.918859  0.000000  1
  Li  Li15  1  0.418859  0.581141  0.500000  1
  Li  Li16  1  0.749983  0.250017  0.000000  1
  Li  Li17  1  0.750017  0.249983  0.500000  1
  Li  Li18  1  0.250017  0.749983  0.000000  1
  Li  Li19  1  0.249983  0.750017  0.500000  1
  Ta  Ta20  1  0.583444  0.416556  0.000000  1
  Ta  Ta21  1  0.916556  0.083444  0.500000  1
  Ta  Ta22  1  0.416556  0.583444  0.000000  1
  Ta  Ta23  1  0.083444  0.916556  0.500000  1
  P  P24  1  0.883027  0.564856  0.084025  1
  P  P25  1  0.435144  0.116973  0.915975  1
  P  P26  1  0.616973  0.935144  0.584025  1
  P  P27  1  0.935144  0.616973  0.584025  1
  P  P28  1  0.116973  0.435144  0.915975  1
  P  P29  1  0.564856  0.883027  0.084025  1
  P  P30  1  0.383027  0.064856  0.415975  1
  P  P31  1  0.219330  0.219330  0.583738  1
  P  P32  1  0.719330  0.719330  0.916262  1
  P  P33  1  0.280670  0.280670  0.083738  1
  P  P34  1  0.064856  0.383027  0.415975  1
  P  P35  1  0.780670  0.780670  0.416262  1
