# generated using pymatgen
data_Lu4Cu(SiIr)6
_symmetry_space_group_name_H-M   'P 1'
_cell_length_a   7.08397584
_cell_length_b   7.08397617
_cell_length_c   7.08397598
_cell_angle_alpha   109.54078592
_cell_angle_beta   109.54078928
_cell_angle_gamma   109.33217416
_symmetry_Int_Tables_number   1
_chemical_formula_structural   Lu4Cu(SiIr)6
_chemical_formula_sum   'Lu4 Cu1 Si6 Ir6'
_cell_volume   273.65755650
_cell_formula_units_Z   1
loop_
 _symmetry_equiv_pos_site_id
 _symmetry_equiv_pos_as_xyz
  1  'x, y, z'
loop_
 _atom_site_type_symbol
 _atom_site_label
 _atom_site_symmetry_multiplicity
 _atom_site_fract_x
 _atom_site_fract_y
 _atom_site_fract_z
 _atom_site_occupancy
  Lu  Lu0  1  0.001634  0.998366  0.500000  1
  Lu  Lu1  1  0.001634  0.501634  0.003269  1
  Lu  Lu2  1  0.498366  0.998366  0.996731  1
  Lu  Lu3  1  0.498366  0.501634  0.500000  1
  Cu  Cu4  1  0.750000  0.250000  0.500000  1
  Si  Si5  1  0.678242  0.678242  0.000000  1
  Si  Si6  1  0.316779  0.996816  0.319963  1
  Si  Si7  1  0.003184  0.323148  0.319963  1
  Si  Si8  1  0.321758  0.321758  0.000000  1
  Si  Si9  1  0.676852  0.996816  0.680037  1
  Si  Si10  1  0.003184  0.683221  0.680037  1
  Ir  Ir11  1  0.747836  0.494535  0.253301  1
  Ir  Ir12  1  0.505465  0.252164  0.746699  1
  Ir  Ir13  1  0.241234  0.494535  0.746699  1
  Ir  Ir14  1  0.250000  0.750000  0.500000  1
  Ir  Ir15  1  0.505465  0.758766  0.253301  1
  Ir  Ir16  1  0.000000  0.000000  0.000000  1
