# generated using pymatgen
data_Rb6AlTe4I
_symmetry_space_group_name_H-M   'P 1'
_cell_length_a   11.71407900
_cell_length_b   11.71407739
_cell_length_c   8.76491700
_cell_angle_alpha   90.00000000
_cell_angle_beta   90.00000000
_cell_angle_gamma   119.99999608
_symmetry_Int_Tables_number   1
_chemical_formula_structural   Rb6AlTe4I
_chemical_formula_sum   'Rb12 Al2 Te8 I2'
_cell_volume   1041.58494526
_cell_formula_units_Z   2
loop_
 _symmetry_equiv_pos_site_id
 _symmetry_equiv_pos_as_xyz
  1  'x, y, z'
loop_
 _atom_site_type_symbol
 _atom_site_label
 _atom_site_symmetry_multiplicity
 _atom_site_fract_x
 _atom_site_fract_y
 _atom_site_fract_z
 _atom_site_occupancy
  Rb  Rb0  1  0.139305  0.860695  0.513799  1
  Rb  Rb1  1  0.721387  0.860695  0.513799  1
  Rb  Rb2  1  0.950766  0.475383  0.320873  1
  Rb  Rb3  1  0.524617  0.475383  0.320873  1
  Rb  Rb4  1  0.860695  0.721387  0.013799  1
  Rb  Rb5  1  0.278613  0.139305  0.013799  1
  Rb  Rb6  1  0.524617  0.049234  0.320873  1
  Rb  Rb7  1  0.139305  0.278613  0.513799  1
  Rb  Rb8  1  0.860695  0.139305  0.013799  1
  Rb  Rb9  1  0.049234  0.524617  0.820873  1
  Rb  Rb10  1  0.475383  0.950766  0.820873  1
  Rb  Rb11  1  0.475383  0.524617  0.820873  1
  Al  Al12  1  0.666667  0.333333  0.707799  1
  Al  Al13  1  0.333333  0.666667  0.207799  1
  Te  Te14  1  0.417142  0.208572  0.613074  1
  Te  Te15  1  0.582858  0.791428  0.113074  1
  Te  Te16  1  0.666667  0.333333  0.018070  1
  Te  Te17  1  0.791428  0.582858  0.613074  1
  Te  Te18  1  0.208572  0.417142  0.113074  1
  Te  Te19  1  0.333333  0.666667  0.518070  1
  Te  Te20  1  0.208572  0.791428  0.113074  1
  Te  Te21  1  0.791428  0.208572  0.613074  1
  I  I22  1  0.000000  0.000000  0.271496  1
  I  I23  1  0.000000  0.000000  0.771496  1
