# generated using pymatgen
data_Dy5Ho5CuPPb6
_symmetry_space_group_name_H-M   'P 1'
_cell_length_a   9.15746300
_cell_length_b   9.15746282
_cell_length_c   6.70404500
_cell_angle_alpha   89.99942080
_cell_angle_beta   89.99942161
_cell_angle_gamma   120.00058732
_symmetry_Int_Tables_number   1
_chemical_formula_structural   Dy5Ho5CuPPb6
_chemical_formula_sum   'Dy5 Ho5 Cu1 P1 Pb6'
_cell_volume   486.87258269
_cell_formula_units_Z   1
loop_
 _symmetry_equiv_pos_site_id
 _symmetry_equiv_pos_as_xyz
  1  'x, y, z'
loop_
 _atom_site_type_symbol
 _atom_site_label
 _atom_site_symmetry_multiplicity
 _atom_site_fract_x
 _atom_site_fract_y
 _atom_site_fract_z
 _atom_site_occupancy
  Dy  Dy0  1  0.246634  0.000015  0.737997  1
  Dy  Dy1  1  0.753373  0.999998  0.261999  1
  Dy  Dy2  1  0.000015  0.246634  0.737997  1
  Dy  Dy3  1  0.999998  0.753373  0.261999  1
  Dy  Dy4  1  0.753361  0.753361  0.737997  1
  Ho  Ho5  1  0.246593  0.246593  0.262050  1
  Ho  Ho6  1  0.333332  0.666653  0.499997  1
  Ho  Ho7  1  0.666653  0.333332  0.499997  1
  Ho  Ho8  1  0.666658  0.333330  0.000005  1
  Ho  Ho9  1  0.333330  0.666658  0.000005  1
  Cu  Cu10  1  0.000021  0.000021  0.000025  1
  P  P11  1  0.000056  0.000056  0.499938  1
  Pb  Pb12  1  0.605368  0.999990  0.749762  1
  Pb  Pb13  1  0.394614  0.000033  0.250241  1
  Pb  Pb14  1  0.999990  0.605368  0.749762  1
  Pb  Pb15  1  0.000033  0.394614  0.250241  1
  Pb  Pb16  1  0.394637  0.394637  0.749750  1
  Pb  Pb17  1  0.605331  0.605331  0.250237  1
