# generated using pymatgen
data_PrNdTi2Cr2O10
_symmetry_space_group_name_H-M   'P 1'
_cell_length_a   7.66515000
_cell_length_b   8.75986000
_cell_length_c   5.90212600
_cell_angle_alpha   90.00000000
_cell_angle_beta   90.00000000
_cell_angle_gamma   90.00000000
_symmetry_Int_Tables_number   1
_chemical_formula_structural   PrNdTi2Cr2O10
_chemical_formula_sum   'Pr2 Nd2 Ti4 Cr4 O20'
_cell_volume   396.30203282
_cell_formula_units_Z   2
loop_
 _symmetry_equiv_pos_site_id
 _symmetry_equiv_pos_as_xyz
  1  'x, y, z'
loop_
 _atom_site_type_symbol
 _atom_site_label
 _atom_site_symmetry_multiplicity
 _atom_site_fract_x
 _atom_site_fract_y
 _atom_site_fract_z
 _atom_site_occupancy
  Pr  Pr0  1  0.139760  0.171499  0.000000  1
  Pr  Pr1  1  0.639759  0.328501  0.000000  1
  Nd  Nd2  1  0.359446  0.671934  0.000000  1
  Nd  Nd3  1  0.859446  0.828066  0.000000  1
  Ti  Ti4  1  0.880844  0.143086  0.499999  1
  Ti  Ti5  1  0.380844  0.356915  0.499999  1
  Ti  Ti6  1  0.618905  0.643771  0.499999  1
  Ti  Ti7  1  0.118906  0.856230  0.499999  1
  Cr  Cr8  1  0.500308  0.999443  0.248803  1
  Cr  Cr9  1  0.000308  0.500557  0.248803  1
  Cr  Cr10  1  0.500308  0.999443  0.751196  1
  Cr  Cr11  1  0.000308  0.500557  0.751196  1
  O  O12  1  0.663160  0.053722  0.000000  1
  O  O13  1  0.163160  0.446278  0.000000  1
  O  O14  1  0.837984  0.556010  0.000000  1
  O  O15  1  0.337984  0.943989  0.000000  1
  O  O16  1  0.396874  0.213056  0.255678  1
  O  O17  1  0.896874  0.286944  0.255678  1
  O  O18  1  0.103944  0.713425  0.254515  1
  O  O19  1  0.603944  0.786575  0.254515  1
  O  O20  1  0.998953  0.999076  0.285593  1
  O  O21  1  0.498953  0.500924  0.285593  1
  O  O22  1  0.660600  0.072963  0.499999  1
  O  O23  1  0.160599  0.427037  0.499999  1
  O  O24  1  0.839141  0.573221  0.499999  1
  O  O25  1  0.339141  0.926779  0.499999  1
  O  O26  1  0.998953  0.999076  0.714406  1
  O  O27  1  0.498953  0.500924  0.714406  1
  O  O28  1  0.396874  0.213056  0.744321  1
  O  O29  1  0.896874  0.286944  0.744321  1
  O  O30  1  0.103944  0.713425  0.745484  1
  O  O31  1  0.603944  0.786575  0.745484  1
