# generated using pymatgen
data_Dy3Al9Si3Os4
_symmetry_space_group_name_H-M   'P 1'
_cell_length_a   8.70413400
_cell_length_b   8.68037924
_cell_length_c   9.54606100
_cell_angle_alpha   90.00000000
_cell_angle_beta   90.00000000
_cell_angle_gamma   120.09056751
_symmetry_Int_Tables_number   1
_chemical_formula_structural   Dy3Al9Si3Os4
_chemical_formula_sum   'Dy6 Al18 Si6 Os8'
_cell_volume   624.05380523
_cell_formula_units_Z   2
loop_
 _symmetry_equiv_pos_site_id
 _symmetry_equiv_pos_as_xyz
  1  'x, y, z'
loop_
 _atom_site_type_symbol
 _atom_site_label
 _atom_site_symmetry_multiplicity
 _atom_site_fract_x
 _atom_site_fract_y
 _atom_site_fract_z
 _atom_site_occupancy
  Dy  Dy0  1  0.192979  0.385956  0.250000  1
  Dy  Dy1  1  0.807021  0.614044  0.750000  1
  Dy  Dy2  1  0.610782  0.808079  0.250000  1
  Dy  Dy3  1  0.389218  0.191921  0.750000  1
  Dy  Dy4  1  0.197298  0.808079  0.250000  1
  Dy  Dy5  1  0.802702  0.191921  0.750000  1
  Al  Al6  1  0.164951  0.329902  0.578557  1
  Al  Al7  1  0.835049  0.670098  0.421443  1
  Al  Al8  1  0.670456  0.834514  0.576953  1
  Al  Al9  1  0.835049  0.670098  0.078557  1
  Al  Al10  1  0.329544  0.165486  0.423047  1
  Al  Al11  1  0.164951  0.329902  0.921443  1
  Al  Al12  1  0.164058  0.834514  0.576953  1
  Al  Al13  1  0.329544  0.165486  0.076953  1
  Al  Al14  1  0.835942  0.165486  0.423047  1
  Al  Al15  1  0.670456  0.834514  0.923047  1
  Al  Al16  1  0.835942  0.165486  0.076953  1
  Al  Al17  1  0.164058  0.834514  0.923047  1
  Al  Al18  1  0.872351  0.433024  0.250000  1
  Al  Al19  1  0.127649  0.566976  0.750000  1
  Al  Al20  1  0.560673  0.433024  0.250000  1
  Al  Al21  1  0.439327  0.566976  0.750000  1
  Al  Al22  1  0.999441  0.998882  0.250000  1
  Al  Al23  1  0.000559  0.001118  0.750000  1
  Si  Si24  1  0.331973  0.663946  0.039052  1
  Si  Si25  1  0.668027  0.336054  0.960948  1
  Si  Si26  1  0.668027  0.336054  0.539052  1
  Si  Si27  1  0.331973  0.663946  0.460948  1
  Si  Si28  1  0.563536  0.127074  0.250000  1
  Si  Si29  1  0.436464  0.872926  0.750000  1
  Os  Os30  1  0.500000  0.000000  0.000000  1
  Os  Os31  1  0.000000  0.500000  0.000000  1
  Os  Os32  1  0.500000  0.000000  0.500000  1
  Os  Os33  1  0.500000  0.500000  0.000000  1
  Os  Os34  1  0.000000  0.500000  0.500000  1
  Os  Os35  1  0.500000  0.500000  0.500000  1
  Os  Os36  1  0.000000  0.000000  0.000000  1
  Os  Os37  1  0.000000  0.000000  0.500000  1
