# generated using pymatgen
data_Zr18BeCu(NiP4)2
_symmetry_space_group_name_H-M   'P 1'
_cell_length_a   12.09446432
_cell_length_b   12.09446470
_cell_length_c   3.68577400
_cell_angle_alpha   90.00000000
_cell_angle_beta   90.00000000
_cell_angle_gamma   90.25246359
_symmetry_Int_Tables_number   1
_chemical_formula_structural   Zr18BeCu(NiP4)2
_chemical_formula_sum   'Zr18 Be1 Cu1 Ni2 P8'
_cell_volume   539.13530808
_cell_formula_units_Z   1
loop_
 _symmetry_equiv_pos_site_id
 _symmetry_equiv_pos_as_xyz
  1  'x, y, z'
loop_
 _atom_site_type_symbol
 _atom_site_label
 _atom_site_symmetry_multiplicity
 _atom_site_fract_x
 _atom_site_fract_y
 _atom_site_fract_z
 _atom_site_occupancy
  Zr  Zr0  1  0.002021  0.001989  0.000000  1
  Zr  Zr1  1  0.498011  0.497979  0.000000  1
  Zr  Zr2  1  0.104464  0.184855  0.500000  1
  Zr  Zr3  1  0.179992  0.896810  0.500000  1
  Zr  Zr4  1  0.820490  0.104335  0.500000  1
  Zr  Zr5  1  0.901204  0.819879  0.500000  1
  Zr  Zr6  1  0.395665  0.679510  0.500000  1
  Zr  Zr7  1  0.603190  0.320008  0.500000  1
  Zr  Zr8  1  0.680121  0.598796  0.500000  1
  Zr  Zr9  1  0.315145  0.395536  0.500000  1
  Zr  Zr10  1  0.098335  0.401665  0.000000  1
  Zr  Zr11  1  0.402900  0.903049  0.000000  1
  Zr  Zr12  1  0.596951  0.097100  0.000000  1
  Zr  Zr13  1  0.904357  0.595643  0.000000  1
  Zr  Zr14  1  0.380826  0.119174  0.500000  1
  Zr  Zr15  1  0.118669  0.618604  0.500000  1
  Zr  Zr16  1  0.881396  0.381331  0.500000  1
  Zr  Zr17  1  0.617448  0.882552  0.500000  1
  Be  Be18  1  0.259490  0.240510  0.000000  1
  Cu  Cu19  1  0.744477  0.755523  0.000000  1
  Ni  Ni20  1  0.245271  0.745941  0.000000  1
  Ni  Ni21  1  0.754059  0.254729  0.000000  1
  P  P22  1  0.225058  0.059930  0.000000  1
  P  P23  1  0.056025  0.774968  0.000000  1
  P  P24  1  0.944982  0.225855  0.000000  1
  P  P25  1  0.776210  0.946001  0.000000  1
  P  P26  1  0.274145  0.555018  0.000000  1
  P  P27  1  0.725032  0.443975  0.000000  1
  P  P28  1  0.553999  0.723790  0.000000  1
  P  P29  1  0.440070  0.274942  0.000000  1
