# generated using pymatgen
data_Ho3In3GePt2
_symmetry_space_group_name_H-M   'P 1'
_cell_length_a   7.47938600
_cell_length_b   7.47938576
_cell_length_c   4.11587800
_cell_angle_alpha   90.00000000
_cell_angle_beta   90.00000000
_cell_angle_gamma   119.99999341
_symmetry_Int_Tables_number   1
_chemical_formula_structural   Ho3In3GePt2
_chemical_formula_sum   'Ho3 In3 Ge1 Pt2'
_cell_volume   199.39994483
_cell_formula_units_Z   1
loop_
 _symmetry_equiv_pos_site_id
 _symmetry_equiv_pos_as_xyz
  1  'x, y, z'
loop_
 _atom_site_type_symbol
 _atom_site_label
 _atom_site_symmetry_multiplicity
 _atom_site_fract_x
 _atom_site_fract_y
 _atom_site_fract_z
 _atom_site_occupancy
  Ho  Ho0  1  0.598498  0.009569  0.500000  1
  Ho  Ho1  1  0.411071  0.401502  0.500000  1
  Ho  Ho2  1  0.990431  0.588929  0.500000  1
  In  In3  1  0.748923  0.742097  0.000000  1
  In  In4  1  0.993174  0.251077  0.000000  1
  In  In5  1  0.257903  0.006826  0.000000  1
  Ge  Ge6  1  0.333333  0.666667  0.000000  1
  Pt  Pt7  1  0.666667  0.333333  0.000000  1
  Pt  Pt8  1  0.000000  0.000000  0.500000  1
