# generated using pymatgen
data_Tm5ThMn2(Co4P3)4
_symmetry_space_group_name_H-M   'P 1'
_cell_length_a   3.68329300
_cell_length_b   10.52784300
_cell_length_c   12.16975400
_cell_angle_alpha   90.00000000
_cell_angle_beta   90.00000000
_cell_angle_gamma   90.00000000
_symmetry_Int_Tables_number   1
_chemical_formula_structural   Tm5ThMn2(Co4P3)4
_chemical_formula_sum   'Tm5 Th1 Mn2 Co16 P12'
_cell_volume   471.90813812
_cell_formula_units_Z   1
loop_
 _symmetry_equiv_pos_site_id
 _symmetry_equiv_pos_as_xyz
  1  'x, y, z'
loop_
 _atom_site_type_symbol
 _atom_site_label
 _atom_site_symmetry_multiplicity
 _atom_site_fract_x
 _atom_site_fract_y
 _atom_site_fract_z
 _atom_site_occupancy
  Tm  Tm0  1  0.500000  0.000000  0.477195  1
  Tm  Tm1  1  0.500000  0.818603  0.204892  1
  Tm  Tm2  1  0.500000  0.181397  0.204892  1
  Tm  Tm3  1  0.000000  0.682871  0.796938  1
  Tm  Tm4  1  0.000000  0.317129  0.796938  1
  Th  Th5  1  0.000000  0.500000  0.525690  1
  Mn  Mn6  1  0.500000  0.500000  0.155074  1
  Mn  Mn7  1  0.000000  0.000000  0.841325  1
  Co  Co8  1  0.500000  0.500000  0.702978  1
  Co  Co9  1  0.000000  0.000000  0.296725  1
  Co  Co10  1  0.000000  0.500000  0.986102  1
  Co  Co11  1  0.500000  0.000000  0.014533  1
  Co  Co12  1  0.500000  0.332697  0.993418  1
  Co  Co13  1  0.500000  0.667303  0.993418  1
  Co  Co14  1  0.000000  0.166527  0.006061  1
  Co  Co15  1  0.000000  0.833473  0.006061  1
  Co  Co16  1  0.500000  0.294297  0.430381  1
  Co  Co17  1  0.500000  0.705703  0.430381  1
  Co  Co18  1  0.000000  0.200085  0.569773  1
  Co  Co19  1  0.000000  0.799915  0.569773  1
  Co  Co20  1  0.500000  0.880076  0.710991  1
  Co  Co21  1  0.500000  0.119924  0.710991  1
  Co  Co22  1  0.000000  0.621969  0.288876  1
  Co  Co23  1  0.000000  0.378031  0.288876  1
  P  P24  1  0.500000  0.500000  0.882257  1
  P  P25  1  0.000000  0.000000  0.118182  1
  P  P26  1  0.500000  0.500000  0.339113  1
  P  P27  1  0.000000  0.000000  0.654307  1
  P  P28  1  0.500000  0.305105  0.619284  1
  P  P29  1  0.500000  0.694895  0.619284  1
  P  P30  1  0.000000  0.186913  0.382955  1
  P  P31  1  0.000000  0.813087  0.382955  1
  P  P32  1  0.500000  0.847493  0.892917  1
  P  P33  1  0.500000  0.152507  0.892917  1
  P  P34  1  0.000000  0.654256  0.106772  1
  P  P35  1  0.000000  0.345744  0.106772  1
