# generated using pymatgen
data_HoLu3(Tc3Ge4)2
_symmetry_space_group_name_H-M   'P 1'
_cell_length_a   6.92608939
_cell_length_b   6.92675062
_cell_length_c   12.90412700
_cell_angle_alpha   90.09997970
_cell_angle_beta   89.72914219
_cell_angle_gamma   90.00882693
_symmetry_Int_Tables_number   1
_chemical_formula_structural   HoLu3(Tc3Ge4)2
_chemical_formula_sum   'Ho2 Lu6 Tc12 Ge16'
_cell_volume   619.07141978
_cell_formula_units_Z   2
loop_
 _symmetry_equiv_pos_site_id
 _symmetry_equiv_pos_as_xyz
  1  'x, y, z'
loop_
 _atom_site_type_symbol
 _atom_site_label
 _atom_site_symmetry_multiplicity
 _atom_site_fract_x
 _atom_site_fract_y
 _atom_site_fract_z
 _atom_site_occupancy
  Ho  Ho0  1  0.505994  0.841242  0.721416  1
  Ho  Ho1  1  0.340042  0.996118  0.471710  1
  Lu  Lu2  1  0.004428  0.658931  0.027724  1
  Lu  Lu3  1  0.994604  0.342684  0.527476  1
  Lu  Lu4  1  0.658283  0.005248  0.972403  1
  Lu  Lu5  1  0.158964  0.495672  0.777438  1
  Lu  Lu6  1  0.842401  0.505711  0.277927  1
  Lu  Lu7  1  0.496360  0.159507  0.222492  1
  Tc  Tc8  1  0.314257  0.479780  0.375643  1
  Tc  Tc9  1  0.810168  0.026779  0.369129  1
  Tc  Tc10  1  0.978467  0.181015  0.125448  1
  Tc  Tc11  1  0.022972  0.808122  0.630240  1
  Tc  Tc12  1  0.478027  0.313222  0.623734  1
  Tc  Tc13  1  0.180314  0.979657  0.876356  1
  Tc  Tc14  1  0.667223  0.665481  0.498947  1
  Tc  Tc15  1  0.835467  0.167138  0.750551  1
  Tc  Tc16  1  0.165559  0.834325  0.249001  1
  Tc  Tc17  1  0.334646  0.335000  0.000415  1
  Tc  Tc18  1  0.523666  0.683125  0.122217  1
  Tc  Tc19  1  0.687300  0.523543  0.879800  1
  Ge  Ge20  1  0.019045  0.726551  0.433970  1
  Ge  Ge21  1  0.977818  0.279738  0.932905  1
  Ge  Ge22  1  0.729803  0.020890  0.564459  1
  Ge  Ge23  1  0.222658  0.477848  0.182355  1
  Ge  Ge24  1  0.776473  0.519032  0.684692  1
  Ge  Ge25  1  0.478114  0.225729  0.817498  1
  Ge  Ge26  1  0.521960  0.776515  0.315143  1
  Ge  Ge27  1  0.279602  0.977037  0.068099  1
  Ge  Ge28  1  0.811463  0.881657  0.182254  1
  Ge  Ge29  1  0.311119  0.613169  0.566749  1
  Ge  Ge30  1  0.689063  0.381549  0.067424  1
  Ge  Ge31  1  0.615651  0.313686  0.432541  1
  Ge  Ge32  1  0.382255  0.688124  0.933719  1
  Ge  Ge33  1  0.115807  0.189322  0.315716  1
  Ge  Ge34  1  0.186258  0.115714  0.683792  1
  Ge  Ge35  1  0.883767  0.811143  0.818613  1
