# generated using pymatgen
data_Nd2(Se2O7)3
_symmetry_space_group_name_H-M   'P 1'
_cell_length_a   7.28803491
_cell_length_b   10.58169356
_cell_length_c   13.92351800
_cell_angle_alpha   87.33654549
_cell_angle_beta   82.60946396
_cell_angle_gamma   81.91152307
_symmetry_Int_Tables_number   1
_chemical_formula_structural   Nd2(Se2O7)3
_chemical_formula_sum   'Nd4 Se12 O42'
_cell_volume   1053.82430327
_cell_formula_units_Z   2
loop_
 _symmetry_equiv_pos_site_id
 _symmetry_equiv_pos_as_xyz
  1  'x, y, z'
loop_
 _atom_site_type_symbol
 _atom_site_label
 _atom_site_symmetry_multiplicity
 _atom_site_fract_x
 _atom_site_fract_y
 _atom_site_fract_z
 _atom_site_occupancy
  Nd  Nd0  1  0.745217  0.585333  0.209106  1
  Nd  Nd1  1  0.254783  0.414667  0.790894  1
  Nd  Nd2  1  0.294468  0.093569  0.214653  1
  Nd  Nd3  1  0.705532  0.906431  0.785347  1
  Se  Se4  1  0.245940  0.457823  0.269356  1
  Se  Se5  1  0.754060  0.542177  0.730644  1
  Se  Se6  1  0.952691  0.315495  0.392174  1
  Se  Se7  1  0.047309  0.684505  0.607826  1
  Se  Se8  1  0.542407  0.836874  0.399899  1
  Se  Se9  1  0.457593  0.163126  0.600101  1
  Se  Se10  1  0.813430  0.943536  0.240738  1
  Se  Se11  1  0.186570  0.056464  0.759262  1
  Se  Se12  1  0.582310  0.204701  0.956249  1
  Se  Se13  1  0.417690  0.795299  0.043751  1
  Se  Se14  1  0.947608  0.298311  0.039602  1
  Se  Se15  1  0.052392  0.701689  0.960398  1
  O  O16  1  0.083166  0.556989  0.220753  1
  O  O17  1  0.916834  0.443011  0.779247  1
  O  O18  1  0.431206  0.521881  0.283949  1
  O  O19  1  0.568794  0.478119  0.716051  1
  O  O20  1  0.298631  0.321079  0.212885  1
  O  O21  1  0.701369  0.678921  0.787115  1
  O  O22  1  0.146016  0.418041  0.389760  1
  O  O23  1  0.853984  0.581959  0.610240  1
  O  O24  1  0.876927  0.307454  0.506070  1
  O  O25  1  0.123073  0.692546  0.493930  1
  O  O26  1  0.060376  0.178915  0.345460  1
  O  O27  1  0.939624  0.821085  0.654540  1
  O  O28  1  0.812334  0.396007  0.318880  1
  O  O29  1  0.187666  0.603993  0.681120  1
  O  O30  1  0.611925  0.691470  0.357348  1
  O  O31  1  0.388075  0.308530  0.642652  1
  O  O32  1  0.946948  0.818946  0.897270  1
  O  O33  1  0.053052  0.181054  0.102730  1
  O  O34  1  0.216906  0.606902  0.895398  1
  O  O35  1  0.783094  0.393098  0.104602  1
  O  O36  1  0.910114  0.628724  0.037711  1
  O  O37  1  0.089886  0.371276  0.962289  1
  O  O38  1  0.170767  0.788227  0.040204  1
  O  O39  1  0.829233  0.211773  0.959796  1
  O  O40  1  0.522806  0.802466  0.933501  1
  O  O41  1  0.477194  0.197534  0.066499  1
  O  O42  1  0.492908  0.667498  0.107513  1
  O  O43  1  0.507092  0.332502  0.892487  1
  O  O44  1  0.398600  0.928956  0.102454  1
  O  O45  1  0.601400  0.071044  0.897546  1
  O  O46  1  0.966218  0.034766  0.769347  1
  O  O47  1  0.033782  0.965234  0.230653  1
  O  O48  1  0.209826  0.188453  0.813996  1
  O  O49  1  0.790174  0.811547  0.186004  1
  O  O50  1  0.338319  0.933268  0.786827  1
  O  O51  1  0.661681  0.066732  0.213173  1
  O  O52  1  0.239451  0.087439  0.631401  1
  O  O53  1  0.760549  0.912561  0.368599  1
  O  O54  1  0.493756  0.156670  0.483382  1
  O  O55  1  0.506244  0.843330  0.516618  1
  O  O56  1  0.611312  0.076708  0.663746  1
  O  O57  1  0.388688  0.923292  0.336254  1
