# generated using pymatgen
data_Tb4Dy6Ho2TlCo5
_symmetry_space_group_name_H-M   'P 1'
_cell_length_a   8.28765952
_cell_length_b   8.28765817
_cell_length_c   8.28765900
_cell_angle_alpha   107.05701332
_cell_angle_beta   110.69390922
_cell_angle_gamma   110.68938810
_symmetry_Int_Tables_number   1
_chemical_formula_structural   Tb4Dy6Ho2TlCo5
_chemical_formula_sum   'Tb4 Dy6 Ho2 Tl1 Co5'
_cell_volume   437.62088973
_cell_formula_units_Z   1
loop_
 _symmetry_equiv_pos_site_id
 _symmetry_equiv_pos_as_xyz
  1  'x, y, z'
loop_
 _atom_site_type_symbol
 _atom_site_label
 _atom_site_symmetry_multiplicity
 _atom_site_fract_x
 _atom_site_fract_y
 _atom_site_fract_z
 _atom_site_occupancy
  Tb  Tb0  1  0.478650  0.292381  0.186269  1
  Tb  Tb1  1  0.106113  0.292381  0.813731  1
  Tb  Tb2  1  0.894366  0.707680  0.186686  1
  Tb  Tb3  1  0.520994  0.707680  0.813314  1
  Dy  Dy4  1  0.693453  0.379229  0.685776  1
  Dy  Dy5  1  0.693453  0.007675  0.314224  1
  Dy  Dy6  1  0.191570  0.208005  0.399585  1
  Dy  Dy7  1  0.808420  0.791985  0.600415  1
  Dy  Dy8  1  0.191570  0.791985  0.983564  1
  Dy  Dy9  1  0.808420  0.208005  0.016436  1
  Ho  Ho10  1  0.306701  0.621211  0.314511  1
  Ho  Ho11  1  0.306701  0.992190  0.685489  1
  Tl  Tl12  1  0.000297  0.500297  0.500000  1
  Co  Co13  1  0.499907  0.612373  0.112467  1
  Co  Co14  1  0.499907  0.387439  0.887533  1
  Co  Co15  1  0.378066  0.999762  0.378303  1
  Co  Co16  1  0.621460  0.999762  0.621697  1
  Co  Co17  1  0.999958  0.999958  0.000000  1
