# generated using pymatgen
data_Dy4Tl2Hg3Rh
_symmetry_space_group_name_H-M   'P 1'
_cell_length_a   8.14766900
_cell_length_b   8.14766864
_cell_length_c   3.74479600
_cell_angle_alpha   90.00000000
_cell_angle_beta   90.00000000
_cell_angle_gamma   89.33326505
_symmetry_Int_Tables_number   1
_chemical_formula_structural   Dy4Tl2Hg3Rh
_chemical_formula_sum   'Dy4 Tl2 Hg3 Rh1'
_cell_volume   248.57960574
_cell_formula_units_Z   1
loop_
 _symmetry_equiv_pos_site_id
 _symmetry_equiv_pos_as_xyz
  1  'x, y, z'
loop_
 _atom_site_type_symbol
 _atom_site_label
 _atom_site_symmetry_multiplicity
 _atom_site_fract_x
 _atom_site_fract_y
 _atom_site_fract_z
 _atom_site_occupancy
  Dy  Dy0  1  0.136656  0.317689  0.500000  1
  Dy  Dy1  1  0.694020  0.194020  0.500000  1
  Dy  Dy2  1  0.817689  0.636656  0.500000  1
  Dy  Dy3  1  0.332484  0.832484  0.500000  1
  Tl  Tl4  1  0.997941  0.003717  0.000000  1
  Tl  Tl5  1  0.503717  0.497941  0.000000  1
  Hg  Hg6  1  0.125528  0.625528  0.000000  1
  Hg  Hg7  1  0.637247  0.879539  0.000000  1
  Hg  Hg8  1  0.379539  0.137247  0.000000  1
  Rh  Rh9  1  0.875180  0.375180  0.000000  1
