# generated using pymatgen
data_Ca(LaSn)2
_symmetry_space_group_name_H-M   'P 1'
_cell_length_a   8.31683200
_cell_length_b   8.31683200
_cell_length_c   4.74330400
_cell_angle_alpha   90.00000000
_cell_angle_beta   90.00000000
_cell_angle_gamma   90.00000000
_symmetry_Int_Tables_number   1
_chemical_formula_structural   Ca(LaSn)2
_chemical_formula_sum   'Ca2 La4 Sn4'
_cell_volume   328.09288868
_cell_formula_units_Z   2
loop_
 _symmetry_equiv_pos_site_id
 _symmetry_equiv_pos_as_xyz
  1  'x, y, z'
loop_
 _atom_site_type_symbol
 _atom_site_label
 _atom_site_symmetry_multiplicity
 _atom_site_fract_x
 _atom_site_fract_y
 _atom_site_fract_z
 _atom_site_occupancy
  Ca  Ca0  1  0.000000  0.000000  0.000000  1
  Ca  Ca1  1  0.500000  0.500000  0.000000  1
  La  La2  1  0.324167  0.175832  0.500000  1
  La  La3  1  0.824167  0.324167  0.500000  1
  La  La4  1  0.175832  0.675832  0.500000  1
  La  La5  1  0.675832  0.824167  0.500000  1
  Sn  Sn6  1  0.623763  0.123763  0.000000  1
  Sn  Sn7  1  0.123763  0.376236  0.000000  1
  Sn  Sn8  1  0.876237  0.623763  0.000000  1
  Sn  Sn9  1  0.376236  0.876237  0.000000  1
