# generated using pymatgen
data_Ho5IrRu
_symmetry_space_group_name_H-M   'P 1'
_cell_length_a   6.36932701
_cell_length_b   7.26146576
_cell_length_c   8.45095878
_cell_angle_alpha   96.86162223
_cell_angle_beta   112.13812164
_cell_angle_gamma   89.99999972
_symmetry_Int_Tables_number   1
_chemical_formula_structural   Ho5IrRu
_chemical_formula_sum   'Ho10 Ir2 Ru2'
_cell_volume   359.02308960
_cell_formula_units_Z   2
loop_
 _symmetry_equiv_pos_site_id
 _symmetry_equiv_pos_as_xyz
  1  'x, y, z'
loop_
 _atom_site_type_symbol
 _atom_site_label
 _atom_site_symmetry_multiplicity
 _atom_site_fract_x
 _atom_site_fract_y
 _atom_site_fract_z
 _atom_site_occupancy
  Ho  Ho0  1  0.978987  0.917550  0.186270  1
  Ho  Ho1  1  0.792717  0.582450  0.813730  1
  Ho  Ho2  1  0.024255  0.085367  0.814882  1
  Ho  Ho3  1  0.209373  0.414633  0.185118  1
  Ho  Ho4  1  0.642107  0.816224  0.435044  1
  Ho  Ho5  1  0.207063  0.683776  0.564956  1
  Ho  Ho6  1  0.355940  0.185990  0.563141  1
  Ho  Ho7  1  0.792799  0.314010  0.436859  1
  Ho  Ho8  1  0.421878  0.750000  0.000000  1
  Ho  Ho9  1  0.576509  0.250000  0.000000  1
  Ir  Ir10  1  0.823503  0.577140  0.221315  1
  Ir  Ir11  1  0.602189  0.922860  0.778685  1
  Ru  Ru12  1  0.175902  0.424965  0.779125  1
  Ru  Ru13  1  0.396777  0.075035  0.220875  1
