# generated using pymatgen
data_Tb3Er9Tc3Ir
_symmetry_space_group_name_H-M   'P 1'
_cell_length_a   6.25964500
_cell_length_b   7.37225696
_cell_length_c   9.04513500
_cell_angle_alpha   90.00000000
_cell_angle_beta   90.00000000
_cell_angle_gamma   89.94063891
_symmetry_Int_Tables_number   1
_chemical_formula_structural   Tb3Er9Tc3Ir
_chemical_formula_sum   'Tb3 Er9 Tc3 Ir1'
_cell_volume   417.41205551
_cell_formula_units_Z   1
loop_
 _symmetry_equiv_pos_site_id
 _symmetry_equiv_pos_as_xyz
  1  'x, y, z'
loop_
 _atom_site_type_symbol
 _atom_site_label
 _atom_site_symmetry_multiplicity
 _atom_site_fract_x
 _atom_site_fract_y
 _atom_site_fract_z
 _atom_site_occupancy
  Tb  Tb0  1  0.876060  0.540303  0.250000  1
  Tb  Tb1  1  0.623481  0.038229  0.250000  1
  Tb  Tb2  1  0.128921  0.458159  0.750000  1
  Er  Er3  1  0.334651  0.676504  0.063603  1
  Er  Er4  1  0.161770  0.175268  0.437217  1
  Er  Er5  1  0.662574  0.322528  0.561738  1
  Er  Er6  1  0.836778  0.825517  0.937689  1
  Er  Er7  1  0.662574  0.322528  0.938262  1
  Er  Er8  1  0.836778  0.825517  0.562311  1
  Er  Er9  1  0.334651  0.676504  0.436397  1
  Er  Er10  1  0.161770  0.175268  0.062783  1
  Er  Er11  1  0.373507  0.960274  0.750000  1
  Tc  Tc12  1  0.039850  0.883650  0.250000  1
  Tc  Tc13  1  0.462129  0.385940  0.250000  1
  Tc  Tc14  1  0.960372  0.116372  0.750000  1
  Ir  Ir15  1  0.544134  0.617440  0.750000  1
