# generated using pymatgen
data_Tb7TmSc12Si15Ag
_symmetry_space_group_name_H-M   'P 1'
_cell_length_a   7.14169817
_cell_length_b   7.38629253
_cell_length_c   14.08310511
_cell_angle_alpha   89.85616244
_cell_angle_beta   89.57906799
_cell_angle_gamma   90.21169609
_symmetry_Int_Tables_number   1
_chemical_formula_structural   Tb7TmSc12Si15Ag
_chemical_formula_sum   'Tb7 Tm1 Sc12 Si15 Ag1'
_cell_volume   742.86574539
_cell_formula_units_Z   1
loop_
 _symmetry_equiv_pos_site_id
 _symmetry_equiv_pos_as_xyz
  1  'x, y, z'
loop_
 _atom_site_type_symbol
 _atom_site_label
 _atom_site_symmetry_multiplicity
 _atom_site_fract_x
 _atom_site_fract_y
 _atom_site_fract_z
 _atom_site_occupancy
  Tb  Tb0  1  0.011361  0.175046  0.097561  1
  Tb  Tb1  1  0.988624  0.826400  0.903773  1
  Tb  Tb2  1  0.487925  0.676401  0.904289  1
  Tb  Tb3  1  0.990082  0.830488  0.597568  1
  Tb  Tb4  1  0.511395  0.324173  0.096264  1
  Tb  Tb5  1  0.007515  0.170977  0.399261  1
  Tb  Tb6  1  0.511149  0.322573  0.400534  1
  Tm  Tm7  1  0.495230  0.679388  0.600610  1
  Sc  Sc8  1  0.164219  0.501100  0.752747  1
  Sc  Sc9  1  0.837145  0.499437  0.251023  1
  Sc  Sc10  1  0.336588  0.999024  0.248797  1
  Sc  Sc11  1  0.665782  0.997165  0.751141  1
  Sc  Sc12  1  0.343856  0.173466  0.627155  1
  Sc  Sc13  1  0.663244  0.822869  0.373891  1
  Sc  Sc14  1  0.165915  0.675077  0.371225  1
  Sc  Sc15  1  0.669095  0.824333  0.124737  1
  Sc  Sc16  1  0.826128  0.326218  0.625497  1
  Sc  Sc17  1  0.329473  0.175134  0.875742  1
  Sc  Sc18  1  0.830721  0.323155  0.875594  1
  Sc  Sc19  1  0.168527  0.675938  0.125244  1
  Si  Si20  1  0.037405  0.122162  0.749883  1
  Si  Si21  1  0.963623  0.882247  0.248715  1
  Si  Si22  1  0.465710  0.615569  0.248120  1
  Si  Si23  1  0.535354  0.386621  0.751889  1
  Si  Si24  1  0.287686  0.874270  0.750185  1
  Si  Si25  1  0.711375  0.125823  0.248320  1
  Si  Si26  1  0.213507  0.371899  0.248643  1
  Si  Si27  1  0.787933  0.627159  0.751718  1
  Si  Si28  1  0.834509  0.538414  0.459707  1
  Si  Si29  1  0.337416  0.959925  0.461686  1
  Si  Si30  1  0.844150  0.535701  0.039048  1
  Si  Si31  1  0.658877  0.034978  0.538294  1
  Si  Si32  1  0.154619  0.464298  0.961828  1
  Si  Si33  1  0.656912  0.035543  0.960598  1
  Si  Si34  1  0.342908  0.964016  0.039855  1
  Ag  Ag35  1  0.164043  0.463014  0.538858  1
