# generated using pymatgen
data_V2Si2TcOs3
_symmetry_space_group_name_H-M   'P 1'
_cell_length_a   4.22962500
_cell_length_b   5.97637932
_cell_length_c   12.69245068
_cell_angle_alpha   90.03742115
_cell_angle_beta   90.00065011
_cell_angle_gamma   90.00011160
_symmetry_Int_Tables_number   1
_chemical_formula_structural   V2Si2TcOs3
_chemical_formula_sum   'V6 Si6 Tc3 Os9'
_cell_volume   320.83771182
_cell_formula_units_Z   3
loop_
 _symmetry_equiv_pos_site_id
 _symmetry_equiv_pos_as_xyz
  1  'x, y, z'
loop_
 _atom_site_type_symbol
 _atom_site_label
 _atom_site_symmetry_multiplicity
 _atom_site_fract_x
 _atom_site_fract_y
 _atom_site_fract_z
 _atom_site_occupancy
  V  V0  1  0.999991  0.497789  0.002297  1
  V  V1  1  0.499742  0.004702  0.161398  1
  V  V2  1  0.999705  0.496454  0.329319  1
  V  V3  1  0.500003  0.000071  0.499599  1
  V  V4  1  0.000267  0.499951  0.667538  1
  V  V5  1  0.500261  0.000159  0.839847  1
  Si  Si6  1  0.000002  0.000041  0.000615  1
  Si  Si7  1  0.499713  0.499483  0.165757  1
  Si  Si8  1  0.999710  0.999774  0.333376  1
  Si  Si9  1  0.500002  0.500835  0.500235  1
  Si  Si10  1  0.000288  0.999134  0.666286  1
  Si  Si11  1  0.500309  0.500859  0.833747  1
  Tc  Tc12  1  0.500007  0.250750  0.998352  1
  Tc  Tc13  1  0.500005  0.749659  0.999564  1
  Tc  Tc14  1  0.999777  0.249394  0.168580  1
  Os  Os15  1  0.999783  0.750554  0.168698  1
  Os  Os16  1  0.499779  0.250233  0.335656  1
  Os  Os17  1  0.499784  0.750450  0.334482  1
  Os  Os18  1  0.000005  0.249890  0.500733  1
  Os  Os19  1  0.000003  0.750171  0.499853  1
  Os  Os20  1  0.500215  0.249401  0.666025  1
  Os  Os21  1  0.500209  0.750254  0.665944  1
  Os  Os22  1  0.000224  0.249566  0.830674  1
  Os  Os23  1  0.000220  0.750432  0.831424  1
