# generated using pymatgen
data_La13Yb3(CdTc)4
_symmetry_space_group_name_H-M   'P 1'
_cell_length_a   10.08184262
_cell_length_b   10.06620029
_cell_length_c   10.08184300
_cell_angle_alpha   59.94858458
_cell_angle_beta   60.00000202
_cell_angle_gamma   59.94858581
_symmetry_Int_Tables_number   1
_chemical_formula_structural   La13Yb3(CdTc)4
_chemical_formula_sum   'La13 Yb3 Cd4 Tc4'
_cell_volume   722.92372371
_cell_formula_units_Z   1
loop_
 _symmetry_equiv_pos_site_id
 _symmetry_equiv_pos_as_xyz
  1  'x, y, z'
loop_
 _atom_site_type_symbol
 _atom_site_label
 _atom_site_symmetry_multiplicity
 _atom_site_fract_x
 _atom_site_fract_y
 _atom_site_fract_z
 _atom_site_occupancy
  La  La0  1  0.687100  0.690290  0.311305  1
  La  La1  1  0.155796  0.153223  0.535184  1
  La  La2  1  0.311305  0.690290  0.687100  1
  La  La3  1  0.155796  0.153223  0.155796  1
  La  La4  1  0.535184  0.153223  0.155796  1
  La  La5  1  0.311305  0.690290  0.311305  1
  La  La6  1  0.310847  0.307709  0.690722  1
  La  La7  1  0.690722  0.307709  0.690722  1
  La  La8  1  0.942363  0.559718  0.555556  1
  La  La9  1  0.555556  0.559718  0.942363  1
  La  La10  1  0.155768  0.532695  0.155768  1
  La  La11  1  0.690722  0.307709  0.310847  1
  La  La12  1  0.942363  0.559718  0.942363  1
  Yb  Yb13  1  0.943923  0.941181  0.557448  1
  Yb  Yb14  1  0.557448  0.941181  0.557448  1
  Yb  Yb15  1  0.557448  0.941181  0.943923  1
  Cd  Cd16  1  0.237127  0.921599  0.920637  1
  Cd  Cd17  1  0.920637  0.921599  0.920637  1
  Cd  Cd18  1  0.920637  0.921599  0.237127  1
  Cd  Cd19  1  0.921793  0.234620  0.921793  1
  Tc  Tc20  1  0.891775  0.372358  0.367933  1
  Tc  Tc21  1  0.367933  0.372358  0.891775  1
  Tc  Tc22  1  0.368519  0.894443  0.368519  1
  Tc  Tc23  1  0.367933  0.372358  0.367933  1
