# generated using pymatgen
data_Nd8Si12Rh3Au
_symmetry_space_group_name_H-M   'P 1'
_cell_length_a   8.26978700
_cell_length_b   8.26978621
_cell_length_c   8.47433100
_cell_angle_alpha   90.00000000
_cell_angle_beta   90.00000000
_cell_angle_gamma   119.99999917
_symmetry_Int_Tables_number   1
_chemical_formula_structural   Nd8Si12Rh3Au
_chemical_formula_sum   'Nd8 Si12 Rh3 Au1'
_cell_volume   501.90863162
_cell_formula_units_Z   1
loop_
 _symmetry_equiv_pos_site_id
 _symmetry_equiv_pos_as_xyz
  1  'x, y, z'
loop_
 _atom_site_type_symbol
 _atom_site_label
 _atom_site_symmetry_multiplicity
 _atom_site_fract_x
 _atom_site_fract_y
 _atom_site_fract_z
 _atom_site_occupancy
  Nd  Nd0  1  0.000000  0.000000  0.748817  1
  Nd  Nd1  1  0.000000  0.000000  0.251826  1
  Nd  Nd2  1  0.496079  0.503921  0.744899  1
  Nd  Nd3  1  0.496079  0.992159  0.744899  1
  Nd  Nd4  1  0.007841  0.503921  0.744899  1
  Nd  Nd5  1  0.499259  0.500741  0.255044  1
  Nd  Nd6  1  0.001482  0.500741  0.255044  1
  Nd  Nd7  1  0.499259  0.998518  0.255044  1
  Si  Si8  1  0.838935  0.161065  0.000748  1
  Si  Si9  1  0.838935  0.677869  0.000748  1
  Si  Si10  1  0.322131  0.161065  0.000748  1
  Si  Si11  1  0.832697  0.167303  0.499463  1
  Si  Si12  1  0.832697  0.665395  0.499463  1
  Si  Si13  1  0.334605  0.167303  0.499463  1
  Si  Si14  1  0.166250  0.833750  0.500664  1
  Si  Si15  1  0.667500  0.833750  0.500664  1
  Si  Si16  1  0.166250  0.332500  0.500664  1
  Si  Si17  1  0.168428  0.831572  0.999459  1
  Si  Si18  1  0.663143  0.831572  0.999459  1
  Si  Si19  1  0.168428  0.336857  0.999459  1
  Rh  Rh20  1  0.666667  0.333333  0.506124  1
  Rh  Rh21  1  0.333333  0.666667  0.493186  1
  Rh  Rh22  1  0.333333  0.666667  0.005703  1
  Au  Au23  1  0.666667  0.333333  0.993515  1
