# generated using pymatgen
data_DyMnFe3P3Ir
_symmetry_space_group_name_H-M   'P 1'
_cell_length_a   3.70380200
_cell_length_b   10.36132000
_cell_length_c   12.20954000
_cell_angle_alpha   90.00000000
_cell_angle_beta   90.00000000
_cell_angle_gamma   90.00000000
_symmetry_Int_Tables_number   1
_chemical_formula_structural   DyMnFe3P3Ir
_chemical_formula_sum   'Dy4 Mn4 Fe12 P12 Ir4'
_cell_volume   468.55669810
_cell_formula_units_Z   4
loop_
 _symmetry_equiv_pos_site_id
 _symmetry_equiv_pos_as_xyz
  1  'x, y, z'
loop_
 _atom_site_type_symbol
 _atom_site_label
 _atom_site_symmetry_multiplicity
 _atom_site_fract_x
 _atom_site_fract_y
 _atom_site_fract_z
 _atom_site_occupancy
  Dy  Dy0  1  0.250000  0.580509  0.712661  1
  Dy  Dy1  1  0.250000  0.919491  0.212661  1
  Dy  Dy2  1  0.750000  0.419491  0.287339  1
  Dy  Dy3  1  0.750000  0.080509  0.787339  1
  Mn  Mn4  1  0.250000  0.700570  0.988555  1
  Mn  Mn5  1  0.250000  0.799430  0.488555  1
  Mn  Mn6  1  0.750000  0.299430  0.011445  1
  Mn  Mn7  1  0.750000  0.200570  0.511445  1
  Fe  Fe8  1  0.250000  0.221707  0.171068  1
  Fe  Fe9  1  0.250000  0.278293  0.671068  1
  Fe  Fe10  1  0.750000  0.778293  0.828932  1
  Fe  Fe11  1  0.750000  0.721707  0.328932  1
  Fe  Fe12  1  0.250000  0.877883  0.694761  1
  Fe  Fe13  1  0.250000  0.622117  0.194761  1
  Fe  Fe14  1  0.750000  0.122117  0.305239  1
  Fe  Fe15  1  0.750000  0.377883  0.805239  1
  Fe  Fe16  1  0.250000  0.461932  0.936363  1
  Fe  Fe17  1  0.250000  0.038068  0.436363  1
  Fe  Fe18  1  0.750000  0.538068  0.063637  1
  Fe  Fe19  1  0.750000  0.961932  0.563637  1
  P  P20  1  0.250000  0.425306  0.112748  1
  P  P21  1  0.250000  0.074694  0.612748  1
  P  P22  1  0.750000  0.574694  0.887252  1
  P  P23  1  0.750000  0.925306  0.387252  1
  P  P24  1  0.250000  0.273947  0.855880  1
  P  P25  1  0.250000  0.226053  0.355880  1
  P  P26  1  0.750000  0.726053  0.144120  1
  P  P27  1  0.750000  0.773947  0.644120  1
  P  P28  1  0.250000  0.605878  0.377522  1
  P  P29  1  0.250000  0.894122  0.877522  1
  P  P30  1  0.750000  0.394122  0.622478  1
  P  P31  1  0.750000  0.105878  0.122478  1
  Ir  Ir32  1  0.250000  0.401333  0.479322  1
  Ir  Ir33  1  0.250000  0.098667  0.979322  1
  Ir  Ir34  1  0.750000  0.598667  0.520678  1
  Ir  Ir35  1  0.750000  0.901333  0.020678  1
