# generated using pymatgen
data_TmRuF7
_symmetry_space_group_name_H-M   'P 1'
_cell_length_a   5.56673100
_cell_length_b   5.87384780
_cell_length_c   8.21096700
_cell_angle_alpha   102.88351048
_cell_angle_beta   90.00000000
_cell_angle_gamma   90.00000000
_symmetry_Int_Tables_number   1
_chemical_formula_structural   TmRuF7
_chemical_formula_sum   'Tm2 Ru2 F14'
_cell_volume   261.72431366
_cell_formula_units_Z   2
loop_
 _symmetry_equiv_pos_site_id
 _symmetry_equiv_pos_as_xyz
  1  'x, y, z'
loop_
 _atom_site_type_symbol
 _atom_site_label
 _atom_site_symmetry_multiplicity
 _atom_site_fract_x
 _atom_site_fract_y
 _atom_site_fract_z
 _atom_site_occupancy
  Tm  Tm0  1  0.700476  0.649412  0.688394  1
  Tm  Tm1  1  0.200476  0.350588  0.311606  1
  Ru  Ru2  1  0.707912  0.816358  0.224664  1
  Ru  Ru3  1  0.207912  0.183642  0.775336  1
  F  F4  1  0.908572  0.465809  0.483875  1
  F  F5  1  0.408572  0.534191  0.516125  1
  F  F6  1  0.425448  0.918191  0.768027  1
  F  F7  1  0.925448  0.081809  0.231973  1
  F  F8  1  0.935677  0.961895  0.758013  1
  F  F9  1  0.435677  0.038105  0.241987  1
  F  F10  1  0.992115  0.454755  0.792519  1
  F  F11  1  0.492115  0.545245  0.207481  1
  F  F12  1  0.702460  0.766564  0.987339  1
  F  F13  1  0.202460  0.233436  0.012661  1
  F  F14  1  0.711445  0.872837  0.461992  1
  F  F15  1  0.211445  0.127163  0.538008  1
  F  F16  1  0.492254  0.388903  0.790269  1
  F  F17  1  0.992254  0.611097  0.209731  1
