# generated using pymatgen
data_Sr2YbIn5Au6
_symmetry_space_group_name_H-M   'P 1'
_cell_length_a   4.59762000
_cell_length_b   8.08048300
_cell_length_c   9.34199500
_cell_angle_alpha   90.00000000
_cell_angle_beta   90.00000000
_cell_angle_gamma   90.00000000
_symmetry_Int_Tables_number   1
_chemical_formula_structural   Sr2YbIn5Au6
_chemical_formula_sum   'Sr2 Yb1 In5 Au6'
_cell_volume   347.06436516
_cell_formula_units_Z   1
loop_
 _symmetry_equiv_pos_site_id
 _symmetry_equiv_pos_as_xyz
  1  'x, y, z'
loop_
 _atom_site_type_symbol
 _atom_site_label
 _atom_site_symmetry_multiplicity
 _atom_site_fract_x
 _atom_site_fract_y
 _atom_site_fract_z
 _atom_site_occupancy
  Sr  Sr0  1  0.500000  0.000000  0.725606  1
  Sr  Sr1  1  0.000000  0.500000  0.271071  1
  Yb  Yb2  1  0.000000  0.000000  0.356498  1
  In  In3  1  0.000000  0.305144  0.888317  1
  In  In4  1  0.500000  0.194884  0.116825  1
  In  In5  1  0.000000  0.694856  0.888317  1
  In  In6  1  0.500000  0.805116  0.116825  1
  In  In7  1  0.500000  0.500000  0.638900  1
  Au  Au8  1  0.000000  0.725423  0.590777  1
  Au  Au9  1  0.500000  0.758541  0.411924  1
  Au  Au10  1  0.500000  0.500000  0.960662  1
  Au  Au11  1  0.000000  0.000000  0.031576  1
  Au  Au12  1  0.500000  0.241459  0.411924  1
  Au  Au13  1  0.000000  0.274577  0.590777  1
