# generated using pymatgen
data_Nd7Y(TmIn5)4
_symmetry_space_group_name_H-M   'P 1'
_cell_length_a   6.63578590
_cell_length_b   10.44781306
_cell_length_c   12.35871300
_cell_angle_alpha   90.05409964
_cell_angle_beta   90.05357623
_cell_angle_gamma   90.08079998
_symmetry_Int_Tables_number   1
_chemical_formula_structural   Nd7Y(TmIn5)4
_chemical_formula_sum   'Nd7 Y1 Tm4 In20'
_cell_volume   856.82117276
_cell_formula_units_Z   1
loop_
 _symmetry_equiv_pos_site_id
 _symmetry_equiv_pos_as_xyz
  1  'x, y, z'
loop_
 _atom_site_type_symbol
 _atom_site_label
 _atom_site_symmetry_multiplicity
 _atom_site_fract_x
 _atom_site_fract_y
 _atom_site_fract_z
 _atom_site_occupancy
  Nd  Nd0  1  0.886275  0.488295  0.142755  1
  Nd  Nd1  1  0.613350  0.011542  0.642915  1
  Nd  Nd2  1  0.113338  0.988420  0.856761  1
  Nd  Nd3  1  0.386843  0.511554  0.357994  1
  Nd  Nd4  1  0.112994  0.511658  0.856933  1
  Nd  Nd5  1  0.387177  0.988396  0.357662  1
  Nd  Nd6  1  0.886346  0.011456  0.142696  1
  Y  Y7  1  0.612972  0.488165  0.642430  1
  Tm  Tm8  1  0.353565  0.749830  0.053406  1
  Tm  Tm9  1  0.147569  0.750456  0.553739  1
  Tm  Tm10  1  0.646905  0.249787  0.946249  1
  Tm  Tm11  1  0.853131  0.250472  0.446859  1
  In  In12  1  0.613182  0.747838  0.505891  1
  In  In13  1  0.886862  0.749823  0.003087  1
  In  In14  1  0.388483  0.250862  0.496954  1
  In  In15  1  0.112988  0.249879  0.996377  1
  In  In16  1  0.650985  0.749706  0.241800  1
  In  In17  1  0.848074  0.748401  0.740462  1
  In  In18  1  0.350025  0.251487  0.757848  1
  In  In19  1  0.150419  0.250102  0.258776  1
  In  In20  1  0.111520  0.749942  0.277361  1
  In  In21  1  0.388919  0.749487  0.777018  1
  In  In22  1  0.886054  0.252345  0.721848  1
  In  In23  1  0.611392  0.250032  0.222638  1
  In  In24  1  0.873177  0.543680  0.403470  1
  In  In25  1  0.626463  0.955602  0.902813  1
  In  In26  1  0.126552  0.044830  0.597294  1
  In  In27  1  0.373532  0.455983  0.097017  1
  In  In28  1  0.128101  0.456570  0.597815  1
  In  In29  1  0.373428  0.044226  0.097283  1
  In  In30  1  0.873134  0.955727  0.403040  1
  In  In31  1  0.626248  0.543440  0.900811  1
