# generated using pymatgen
data_DyTmRh2F14
_symmetry_space_group_name_H-M   'P 1'
_cell_length_a   5.48937000
_cell_length_b   8.82847792
_cell_length_c   11.86319622
_cell_angle_alpha   62.75041913
_cell_angle_beta   90.00000000
_cell_angle_gamma   90.00000000
_symmetry_Int_Tables_number   1
_chemical_formula_structural   DyTmRh2F14
_chemical_formula_sum   'Dy2 Tm2 Rh4 F28'
_cell_volume   511.11876355
_cell_formula_units_Z   2
loop_
 _symmetry_equiv_pos_site_id
 _symmetry_equiv_pos_as_xyz
  1  'x, y, z'
loop_
 _atom_site_type_symbol
 _atom_site_label
 _atom_site_symmetry_multiplicity
 _atom_site_fract_x
 _atom_site_fract_y
 _atom_site_fract_z
 _atom_site_occupancy
  Dy  Dy0  1  0.239103  0.187808  0.234235  1
  Dy  Dy1  1  0.739103  0.812192  0.265765  1
  Tm  Tm2  1  0.761029  0.814888  0.765048  1
  Tm  Tm3  1  0.261029  0.185112  0.734952  1
  Rh  Rh4  1  0.758104  0.274537  0.954089  1
  Rh  Rh5  1  0.258104  0.725463  0.545911  1
  Rh  Rh6  1  0.242400  0.727993  0.041767  1
  Rh  Rh7  1  0.742400  0.272007  0.458233  1
  F  F8  1  0.440547  0.705993  0.913940  1
  F  F9  1  0.940547  0.294007  0.586060  1
  F  F10  1  0.562616  0.295827  0.083042  1
  F  F11  1  0.062616  0.704173  0.416958  1
  F  F12  1  0.439854  0.276389  0.545826  1
  F  F13  1  0.939854  0.723611  0.954174  1
  F  F14  1  0.558581  0.720758  0.458405  1
  F  F15  1  0.058581  0.279242  0.041595  1
  F  F16  1  0.772808  0.521014  0.858544  1
  F  F17  1  0.272808  0.478986  0.641456  1
  F  F18  1  0.226146  0.482061  0.139282  1
  F  F19  1  0.726146  0.517939  0.360718  1
  F  F20  1  0.756001  0.029227  0.047927  1
  F  F21  1  0.256001  0.970773  0.452073  1
  F  F22  1  0.244649  0.973887  0.948628  1
  F  F23  1  0.744649  0.026113  0.551372  1
  F  F24  1  0.964239  0.727875  0.638289  1
  F  F25  1  0.464239  0.272125  0.861711  1
  F  F26  1  0.035710  0.273261  0.364827  1
  F  F27  1  0.535710  0.726739  0.135173  1
  F  F28  1  0.051416  0.746241  0.174058  1
  F  F29  1  0.551416  0.253759  0.325942  1
  F  F30  1  0.952655  0.253495  0.823525  1
  F  F31  1  0.452655  0.746505  0.676475  1
  F  F32  1  0.411214  0.968738  0.230757  1
  F  F33  1  0.911214  0.031262  0.269243  1
  F  F34  1  0.582926  0.028543  0.768107  1
  F  F35  1  0.082926  0.971457  0.731893  1
