# generated using pymatgen
data_DyHo6Lu3(In2Pt)4
_symmetry_space_group_name_H-M   'P 1'
_cell_length_a   3.60620100
_cell_length_b   8.12109873
_cell_length_c   18.11113172
_cell_angle_alpha   89.96124030
_cell_angle_beta   90.00000000
_cell_angle_gamma   90.00000000
_symmetry_Int_Tables_number   1
_chemical_formula_structural   DyHo6Lu3(In2Pt)4
_chemical_formula_sum   'Dy1 Ho6 Lu3 In8 Pt4'
_cell_volume   530.40817550
_cell_formula_units_Z   1
loop_
 _symmetry_equiv_pos_site_id
 _symmetry_equiv_pos_as_xyz
  1  'x, y, z'
loop_
 _atom_site_type_symbol
 _atom_site_label
 _atom_site_symmetry_multiplicity
 _atom_site_fract_x
 _atom_site_fract_y
 _atom_site_fract_z
 _atom_site_occupancy
  Dy  Dy0  1  0.000000  0.500206  0.500164  1
  Ho  Ho1  1  0.000000  0.617331  0.084648  1
  Ho  Ho2  1  0.000000  0.243203  0.220020  1
  Ho  Ho3  1  0.000000  0.757649  0.780262  1
  Ho  Ho4  1  0.000000  0.257404  0.719195  1
  Ho  Ho5  1  0.000000  0.742152  0.281072  1
  Ho  Ho6  1  0.000000  0.999586  0.999555  1
  Lu  Lu7  1  0.000000  0.116897  0.414255  1
  Lu  Lu8  1  0.000000  0.883174  0.585958  1
  Lu  Lu9  1  0.000000  0.383168  0.913737  1
  In  In10  1  0.500000  0.420354  0.351680  1
  In  In11  1  0.500000  0.579388  0.648961  1
  In  In12  1  0.500000  0.078920  0.850960  1
  In  In13  1  0.500000  0.923575  0.149591  1
  In  In14  1  0.500000  0.293217  0.064900  1
  In  In15  1  0.500000  0.704713  0.933472  1
  In  In16  1  0.500000  0.203134  0.564715  1
  In  In17  1  0.500000  0.797046  0.435495  1
  Pt  Pt18  1  0.500000  0.026358  0.305226  1
  Pt  Pt19  1  0.500000  0.973793  0.694992  1
  Pt  Pt20  1  0.500000  0.473126  0.804500  1
  Pt  Pt21  1  0.500000  0.525606  0.196641  1
