# generated using pymatgen
data_Na2PuS3
_symmetry_space_group_name_H-M   'P 1'
_cell_length_a   6.99223899
_cell_length_b   6.99223904
_cell_length_c   7.03108253
_cell_angle_alpha   80.34599770
_cell_angle_beta   80.34599151
_cell_angle_gamma   119.97853525
_symmetry_Int_Tables_number   1
_chemical_formula_structural   Na2PuS3
_chemical_formula_sum   'Na4 Pu2 S6'
_cell_volume   280.53276850
_cell_formula_units_Z   2
loop_
 _symmetry_equiv_pos_site_id
 _symmetry_equiv_pos_as_xyz
  1  'x, y, z'
loop_
 _atom_site_type_symbol
 _atom_site_label
 _atom_site_symmetry_multiplicity
 _atom_site_fract_x
 _atom_site_fract_y
 _atom_site_fract_z
 _atom_site_occupancy
  Na  Na0  1  0.000000  0.000000  0.000000  1
  Na  Na1  1  0.500000  0.500000  0.500000  1
  Na  Na2  1  0.841348  0.158652  0.500000  1
  Na  Na3  1  0.158652  0.841348  0.500000  1
  Pu  Pu4  1  0.332663  0.667337  0.000000  1
  Pu  Pu5  1  0.667337  0.332663  0.000000  1
  S  S6  1  0.563979  0.924291  0.223893  1
  S  S7  1  0.716674  0.716674  0.774760  1
  S  S8  1  0.436021  0.075709  0.776107  1
  S  S9  1  0.075709  0.436021  0.776107  1
  S  S10  1  0.924291  0.563979  0.223893  1
  S  S11  1  0.283326  0.283326  0.225240  1
