# generated using pymatgen
data_DyEr2RuBr3
_symmetry_space_group_name_H-M   'P 1'
_cell_length_a   4.07174200
_cell_length_b   8.50956372
_cell_length_c   11.83123606
_cell_angle_alpha   92.91369541
_cell_angle_beta   90.00000000
_cell_angle_gamma   90.00000000
_symmetry_Int_Tables_number   1
_chemical_formula_structural   DyEr2RuBr3
_chemical_formula_sum   'Dy2 Er4 Ru2 Br6'
_cell_volume   409.40756404
_cell_formula_units_Z   2
loop_
 _symmetry_equiv_pos_site_id
 _symmetry_equiv_pos_as_xyz
  1  'x, y, z'
loop_
 _atom_site_type_symbol
 _atom_site_label
 _atom_site_symmetry_multiplicity
 _atom_site_fract_x
 _atom_site_fract_y
 _atom_site_fract_z
 _atom_site_occupancy
  Dy  Dy0  1  0.750000  0.274332  0.606721  1
  Dy  Dy1  1  0.250000  0.725668  0.393279  1
  Er  Er2  1  0.750000  0.863801  0.635458  1
  Er  Er3  1  0.250000  0.136199  0.364542  1
  Er  Er4  1  0.750000  0.893267  0.173882  1
  Er  Er5  1  0.250000  0.106733  0.826118  1
  Ru  Ru6  1  0.750000  0.941895  0.403775  1
  Ru  Ru7  1  0.250000  0.058105  0.596225  1
  Br  Br8  1  0.750000  0.426869  0.368415  1
  Br  Br9  1  0.250000  0.573131  0.631585  1
  Br  Br10  1  0.750000  0.875506  0.896806  1
  Br  Br11  1  0.250000  0.124494  0.103194  1
  Br  Br12  1  0.750000  0.343319  0.864516  1
  Br  Br13  1  0.250000  0.656681  0.135484  1
