# generated using pymatgen
data_Tb2Ho4Co17TcP12
_symmetry_space_group_name_H-M   'P 1'
_cell_length_a   3.69958800
_cell_length_b   10.51836900
_cell_length_c   12.21272200
_cell_angle_alpha   90.00000000
_cell_angle_beta   90.00000000
_cell_angle_gamma   90.00000000
_symmetry_Int_Tables_number   1
_chemical_formula_structural   Tb2Ho4Co17TcP12
_chemical_formula_sum   'Tb2 Ho4 Co17 Tc1 P12'
_cell_volume   475.24136635
_cell_formula_units_Z   1
loop_
 _symmetry_equiv_pos_site_id
 _symmetry_equiv_pos_as_xyz
  1  'x, y, z'
loop_
 _atom_site_type_symbol
 _atom_site_label
 _atom_site_symmetry_multiplicity
 _atom_site_fract_x
 _atom_site_fract_y
 _atom_site_fract_z
 _atom_site_occupancy
  Tb  Tb0  1  0.000000  0.500000  0.523769  1
  Tb  Tb1  1  0.500000  0.000000  0.478173  1
  Ho  Ho2  1  0.500000  0.817495  0.206677  1
  Ho  Ho3  1  0.500000  0.182505  0.206677  1
  Ho  Ho4  1  0.000000  0.682909  0.794881  1
  Ho  Ho5  1  0.000000  0.317091  0.794881  1
  Co  Co6  1  0.000000  0.000000  0.840342  1
  Co  Co7  1  0.500000  0.500000  0.703746  1
  Co  Co8  1  0.000000  0.000000  0.295649  1
  Co  Co9  1  0.000000  0.500000  0.987382  1
  Co  Co10  1  0.500000  0.000000  0.014635  1
  Co  Co11  1  0.500000  0.331882  0.991281  1
  Co  Co12  1  0.500000  0.668118  0.991281  1
  Co  Co13  1  0.000000  0.166523  0.005607  1
  Co  Co14  1  0.000000  0.833477  0.005607  1
  Co  Co15  1  0.500000  0.296748  0.430376  1
  Co  Co16  1  0.500000  0.703252  0.430376  1
  Co  Co17  1  0.000000  0.203259  0.569250  1
  Co  Co18  1  0.000000  0.796741  0.569250  1
  Co  Co19  1  0.500000  0.879130  0.709524  1
  Co  Co20  1  0.500000  0.120870  0.709524  1
  Co  Co21  1  0.000000  0.620767  0.291469  1
  Co  Co22  1  0.000000  0.379233  0.291469  1
  Tc  Tc23  1  0.500000  0.500000  0.156548  1
  P  P24  1  0.500000  0.500000  0.881495  1
  P  P25  1  0.000000  0.000000  0.117306  1
  P  P26  1  0.500000  0.500000  0.348381  1
  P  P27  1  0.000000  0.000000  0.656518  1
  P  P28  1  0.500000  0.310557  0.616622  1
  P  P29  1  0.500000  0.689443  0.616622  1
  P  P30  1  0.000000  0.188900  0.384009  1
  P  P31  1  0.000000  0.811100  0.384009  1
  P  P32  1  0.500000  0.849231  0.892063  1
  P  P33  1  0.500000  0.150769  0.892063  1
  P  P34  1  0.000000  0.655864  0.106269  1
  P  P35  1  0.000000  0.344136  0.106269  1
