# generated using pymatgen
data_LaTb5(SiPd5)2
_symmetry_space_group_name_H-M   'P 1'
_cell_length_a   8.30831583
_cell_length_b   8.30831593
_cell_length_c   8.30831595
_cell_angle_alpha   127.54390677
_cell_angle_beta   126.13636602
_cell_angle_gamma   78.51693727
_symmetry_Int_Tables_number   1
_chemical_formula_structural   LaTb5(SiPd5)2
_chemical_formula_sum   'La1 Tb5 Si2 Pd10'
_cell_volume   355.55513482
_cell_formula_units_Z   1
loop_
 _symmetry_equiv_pos_site_id
 _symmetry_equiv_pos_as_xyz
  1  'x, y, z'
loop_
 _atom_site_type_symbol
 _atom_site_label
 _atom_site_symmetry_multiplicity
 _atom_site_fract_x
 _atom_site_fract_y
 _atom_site_fract_z
 _atom_site_occupancy
  La  La0  1  0.617538  0.750000  0.867538  1
  Tb  Tb1  1  0.825272  0.050570  0.774702  1
  Tb  Tb2  1  0.224131  0.449430  0.774702  1
  Tb  Tb3  1  0.177704  0.951255  0.226449  1
  Tb  Tb4  1  0.389490  0.250000  0.139490  1
  Tb  Tb5  1  0.775195  0.548745  0.226449  1
  Si  Si6  1  0.210845  0.750000  0.460845  1
  Si  Si7  1  0.782458  0.250000  0.532458  1
  Pd  Pd8  1  0.834356  0.597631  0.640373  1
  Pd  Pd9  1  0.542742  0.306017  0.640373  1
  Pd  Pd10  1  0.453188  0.098362  0.764330  1
  Pd  Pd11  1  0.834356  0.193983  0.236725  1
  Pd  Pd12  1  0.165968  0.401638  0.354826  1
  Pd  Pd13  1  0.453188  0.688858  0.354826  1
  Pd  Pd14  1  0.542742  0.902369  0.236725  1
  Pd  Pd15  1  0.165968  0.811142  0.764330  1
  Pd  Pd16  1  0.002431  0.005177  0.507608  1
  Pd  Pd17  1  0.002431  0.494823  0.997254  1
