# generated using pymatgen
data_Cs3K2BaNbAs4
_symmetry_space_group_name_H-M   'P 1'
_cell_length_a   11.10546033
_cell_length_b   11.10546104
_cell_length_c   8.12813218
_cell_angle_alpha   88.76696683
_cell_angle_beta   88.76698049
_cell_angle_gamma   120.52291696
_symmetry_Int_Tables_number   1
_chemical_formula_structural   Cs3K2BaNbAs4
_chemical_formula_sum   'Cs6 K4 Ba2 Nb2 As8'
_cell_volume   862.72603359
_cell_formula_units_Z   2
loop_
 _symmetry_equiv_pos_site_id
 _symmetry_equiv_pos_as_xyz
  1  'x, y, z'
loop_
 _atom_site_type_symbol
 _atom_site_label
 _atom_site_symmetry_multiplicity
 _atom_site_fract_x
 _atom_site_fract_y
 _atom_site_fract_z
 _atom_site_occupancy
  Cs  Cs0  1  0.866464  0.138336  0.792812  1
  Cs  Cs1  1  0.292610  0.152436  0.831511  1
  Cs  Cs2  1  0.856003  0.719080  0.777282  1
  Cs  Cs3  1  0.138336  0.866464  0.292812  1
  Cs  Cs4  1  0.719080  0.856003  0.277282  1
  Cs  Cs5  1  0.152436  0.292610  0.331511  1
  K  K6  1  0.467251  0.527095  0.610700  1
  K  K7  1  0.058022  0.527988  0.609029  1
  K  K8  1  0.527095  0.467251  0.110700  1
  K  K9  1  0.527988  0.058022  0.109029  1
  Ba  Ba10  1  0.464007  0.935447  0.599777  1
  Ba  Ba11  1  0.935447  0.464007  0.099777  1
  Nb  Nb12  1  0.668390  0.331025  0.496784  1
  Nb  Nb13  1  0.331025  0.668390  0.996784  1
  As  As14  1  0.682498  0.335173  0.807075  1
  As  As15  1  0.335173  0.682498  0.307075  1
  As  As16  1  0.204556  0.788010  0.888538  1
  As  As17  1  0.575745  0.792797  0.876327  1
  As  As18  1  0.200200  0.416866  0.917363  1
  As  As19  1  0.788010  0.204556  0.388538  1
  As  As20  1  0.416866  0.200200  0.417363  1
  As  As21  1  0.792797  0.575745  0.376327  1
