# generated using pymatgen
data_Dy16Zr4(Ir3Rh)3
_symmetry_space_group_name_H-M   'P 1'
_cell_length_a   10.84309800
_cell_length_b   10.84309800
_cell_length_c   6.28037700
_cell_angle_alpha   90.00000000
_cell_angle_beta   90.00000000
_cell_angle_gamma   90.00000000
_symmetry_Int_Tables_number   1
_chemical_formula_structural   Dy16Zr4(Ir3Rh)3
_chemical_formula_sum   'Dy16 Zr4 Ir9 Rh3'
_cell_volume   738.40134715
_cell_formula_units_Z   1
loop_
 _symmetry_equiv_pos_site_id
 _symmetry_equiv_pos_as_xyz
  1  'x, y, z'
loop_
 _atom_site_type_symbol
 _atom_site_label
 _atom_site_symmetry_multiplicity
 _atom_site_fract_x
 _atom_site_fract_y
 _atom_site_fract_z
 _atom_site_occupancy
  Dy  Dy0  1  0.289261  0.087127  0.376547  1
  Dy  Dy1  1  0.289198  0.912346  0.876367  1
  Dy  Dy2  1  0.710802  0.087654  0.876367  1
  Dy  Dy3  1  0.710739  0.912873  0.376547  1
  Dy  Dy4  1  0.587654  0.789198  0.876367  1
  Dy  Dy5  1  0.587127  0.210739  0.376547  1
  Dy  Dy6  1  0.412873  0.789261  0.376547  1
  Dy  Dy7  1  0.412346  0.210802  0.876367  1
  Dy  Dy8  1  0.209860  0.412602  0.622309  1
  Dy  Dy9  1  0.210491  0.587750  0.124470  1
  Dy  Dy10  1  0.789509  0.412250  0.124470  1
  Dy  Dy11  1  0.790140  0.587398  0.622309  1
  Dy  Dy12  1  0.912250  0.710491  0.124470  1
  Dy  Dy13  1  0.912602  0.290140  0.622309  1
  Dy  Dy14  1  0.087398  0.709860  0.622309  1
  Dy  Dy15  1  0.087750  0.289509  0.124470  1
  Zr  Zr16  1  0.000000  0.000000  0.500079  1
  Zr  Zr17  1  0.000000  0.000000  0.999984  1
  Zr  Zr18  1  0.500000  0.500000  0.999984  1
  Zr  Zr19  1  0.500000  0.500000  0.500079  1
  Ir  Ir20  1  0.853983  0.144741  0.250000  1
  Ir  Ir21  1  0.854388  0.854693  0.749935  1
  Ir  Ir22  1  0.145612  0.145307  0.749935  1
  Ir  Ir23  1  0.146017  0.855259  0.250000  1
  Ir  Ir24  1  0.645307  0.354388  0.749935  1
  Ir  Ir25  1  0.644741  0.646017  0.250000  1
  Ir  Ir26  1  0.355259  0.353983  0.250000  1
  Ir  Ir27  1  0.354693  0.645612  0.749935  1
  Ir  Ir28  1  0.000000  0.500000  0.375983  1
  Rh  Rh29  1  0.500000  0.000000  0.123649  1
  Rh  Rh30  1  0.500000  0.000000  0.623988  1
  Rh  Rh31  1  0.000000  0.500000  0.877739  1
