# generated using pymatgen
data_Tb5Er2LuAu4
_symmetry_space_group_name_H-M   'P 1'
_cell_length_a   4.92964800
_cell_length_b   7.16173597
_cell_length_c   8.92790303
_cell_angle_alpha   90.23534233
_cell_angle_beta   90.00000000
_cell_angle_gamma   90.00000000
_symmetry_Int_Tables_number   1
_chemical_formula_structural   Tb5Er2LuAu4
_chemical_formula_sum   'Tb5 Er2 Lu1 Au4'
_cell_volume   315.19550590
_cell_formula_units_Z   1
loop_
 _symmetry_equiv_pos_site_id
 _symmetry_equiv_pos_as_xyz
  1  'x, y, z'
loop_
 _atom_site_type_symbol
 _atom_site_label
 _atom_site_symmetry_multiplicity
 _atom_site_fract_x
 _atom_site_fract_y
 _atom_site_fract_z
 _atom_site_occupancy
  Tb  Tb0  1  0.750000  0.648259  0.418937  1
  Tb  Tb1  1  0.250000  0.483847  0.176572  1
  Tb  Tb2  1  0.250000  0.987538  0.323387  1
  Tb  Tb3  1  0.750000  0.514550  0.823302  1
  Tb  Tb4  1  0.750000  0.015636  0.677995  1
  Er  Er5  1  0.250000  0.852202  0.921592  1
  Er  Er6  1  0.250000  0.352356  0.580862  1
  Lu  Lu7  1  0.750000  0.148147  0.078288  1
  Au  Au8  1  0.250000  0.252049  0.900308  1
  Au  Au9  1  0.250000  0.753682  0.603421  1
  Au  Au10  1  0.750000  0.748792  0.096420  1
  Au  Au11  1  0.750000  0.242942  0.398915  1
