# generated using pymatgen
data_Er4ReRu7
_symmetry_space_group_name_H-M   'P 1'
_cell_length_a   5.18547659
_cell_length_b   5.42208495
_cell_length_c   8.93328300
_cell_angle_alpha   90.00000000
_cell_angle_beta   90.00000000
_cell_angle_gamma   121.52124000
_symmetry_Int_Tables_number   1
_chemical_formula_structural   Er4ReRu7
_chemical_formula_sum   'Er4 Re1 Ru7'
_cell_volume   214.10813802
_cell_formula_units_Z   1
loop_
 _symmetry_equiv_pos_site_id
 _symmetry_equiv_pos_as_xyz
  1  'x, y, z'
loop_
 _atom_site_type_symbol
 _atom_site_label
 _atom_site_symmetry_multiplicity
 _atom_site_fract_x
 _atom_site_fract_y
 _atom_site_fract_z
 _atom_site_occupancy
  Er  Er0  1  0.332098  0.666050  0.432934  1
  Er  Er1  1  0.658118  0.329058  0.565214  1
  Er  Er2  1  0.658118  0.329058  0.934786  1
  Er  Er3  1  0.332098  0.666050  0.067066  1
  Re  Re4  1  0.679799  0.839900  0.750000  1
  Ru  Ru5  1  0.978730  0.989365  0.499758  1
  Ru  Ru6  1  0.978730  0.989365  0.000242  1
  Ru  Ru7  1  0.834571  0.169176  0.250000  1
  Ru  Ru8  1  0.834571  0.665395  0.250000  1
  Ru  Ru9  1  0.348707  0.174353  0.250000  1
  Ru  Ru10  1  0.182229  0.830974  0.750000  1
  Ru  Ru11  1  0.182229  0.351256  0.750000  1
