# generated using pymatgen
data_La3Pr(Pb2O7)2
_symmetry_space_group_name_H-M   'P 1'
_cell_length_a   7.85073736
_cell_length_b   7.85073589
_cell_length_c   7.85073747
_cell_angle_alpha   59.87360812
_cell_angle_beta   59.87361020
_cell_angle_gamma   59.87360776
_symmetry_Int_Tables_number   1
_chemical_formula_structural   La3Pr(Pb2O7)2
_chemical_formula_sum   'La3 Pr1 Pb4 O14'
_cell_volume   341.16854247
_cell_formula_units_Z   1
loop_
 _symmetry_equiv_pos_site_id
 _symmetry_equiv_pos_as_xyz
  1  'x, y, z'
loop_
 _atom_site_type_symbol
 _atom_site_label
 _atom_site_symmetry_multiplicity
 _atom_site_fract_x
 _atom_site_fract_y
 _atom_site_fract_z
 _atom_site_occupancy
  La  La0  1  0.625000  0.625000  0.125000  1
  La  La1  1  0.625000  0.125000  0.625000  1
  La  La2  1  0.125000  0.625000  0.625000  1
  Pr  Pr3  1  0.625000  0.625000  0.625000  1
  Pb  Pb4  1  0.125000  0.125000  0.125000  1
  Pb  Pb5  1  0.625000  0.125000  0.125000  1
  Pb  Pb6  1  0.125000  0.625000  0.125000  1
  Pb  Pb7  1  0.125000  0.125000  0.625000  1
  O  O8  1  0.031586  0.466598  0.466598  1
  O  O9  1  0.783402  0.783402  0.218414  1
  O  O10  1  0.783284  0.216342  0.216342  1
  O  O11  1  0.466598  0.031586  0.466598  1
  O  O12  1  0.749875  0.749875  0.749875  1
  O  O13  1  0.033658  0.033658  0.466716  1
  O  O14  1  0.033658  0.466716  0.033658  1
  O  O15  1  0.216342  0.783284  0.216342  1
  O  O16  1  0.216342  0.216342  0.783284  1
  O  O17  1  0.783402  0.218414  0.783402  1
  O  O18  1  0.500125  0.500125  0.500125  1
  O  O19  1  0.466716  0.033658  0.033658  1
  O  O20  1  0.466598  0.466598  0.031586  1
  O  O21  1  0.218414  0.783402  0.783402  1
