# generated using pymatgen
data_Dy9Y3Pd4
_symmetry_space_group_name_H-M   'P 1'
_cell_length_a   6.46977485
_cell_length_b   7.04270719
_cell_length_c   9.71748000
_cell_angle_alpha   90.00000000
_cell_angle_beta   90.00000000
_cell_angle_gamma   89.87494722
_symmetry_Int_Tables_number   1
_chemical_formula_structural   Dy9Y3Pd4
_chemical_formula_sum   'Dy9 Y3 Pd4'
_cell_volume   442.77329684
_cell_formula_units_Z   1
loop_
 _symmetry_equiv_pos_site_id
 _symmetry_equiv_pos_as_xyz
  1  'x, y, z'
loop_
 _atom_site_type_symbol
 _atom_site_label
 _atom_site_symmetry_multiplicity
 _atom_site_fract_x
 _atom_site_fract_y
 _atom_site_fract_z
 _atom_site_occupancy
  Dy  Dy0  1  0.633948  0.024372  0.250000  1
  Dy  Dy1  1  0.173876  0.181139  0.059788  1
  Dy  Dy2  1  0.826119  0.818748  0.940566  1
  Dy  Dy3  1  0.673569  0.318696  0.940379  1
  Dy  Dy4  1  0.826119  0.818748  0.559434  1
  Dy  Dy5  1  0.326659  0.681529  0.060001  1
  Dy  Dy6  1  0.173876  0.181139  0.440212  1
  Dy  Dy7  1  0.326659  0.681529  0.439999  1
  Dy  Dy8  1  0.673569  0.318696  0.559621  1
  Y  Y9  1  0.366872  0.976806  0.750000  1
  Y  Y10  1  0.133047  0.476621  0.750000  1
  Y  Y11  1  0.866767  0.523271  0.250000  1
  Pd  Pd12  1  0.436007  0.387646  0.250000  1
  Pd  Pd13  1  0.564971  0.610802  0.750000  1
  Pd  Pd14  1  0.934683  0.110659  0.750000  1
  Pd  Pd15  1  0.063258  0.889599  0.250000  1
