# generated using pymatgen
data_NdMnPtO6
_symmetry_space_group_name_H-M   'P 1'
_cell_length_a   5.15810004
_cell_length_b   5.15823005
_cell_length_c   5.11257449
_cell_angle_alpha   90.08887761
_cell_angle_beta   90.09074590
_cell_angle_gamma   119.85142595
_symmetry_Int_Tables_number   1
_chemical_formula_structural   NdMnPtO6
_chemical_formula_sum   'Nd1 Mn1 Pt1 O6'
_cell_volume   117.97958785
_cell_formula_units_Z   1
loop_
 _symmetry_equiv_pos_site_id
 _symmetry_equiv_pos_as_xyz
  1  'x, y, z'
loop_
 _atom_site_type_symbol
 _atom_site_label
 _atom_site_symmetry_multiplicity
 _atom_site_fract_x
 _atom_site_fract_y
 _atom_site_fract_z
 _atom_site_occupancy
  Nd  Nd0  1  0.481814  0.518204  0.499988  1
  Mn  Mn1  1  0.148967  0.850991  0.000053  1
  Pt  Pt2  1  0.815186  0.184810  0.999976  1
  O  O3  1  0.472946  0.879192  0.211560  1
  O  O4  1  0.124218  0.149393  0.210009  1
  O  O5  1  0.853774  0.529714  0.211207  1
  O  O6  1  0.470270  0.146221  0.788800  1
  O  O7  1  0.850623  0.875804  0.789977  1
  O  O8  1  0.120808  0.527074  0.788430  1
