# generated using pymatgen
data_CaLaHo(Si3Pd10)2
_symmetry_space_group_name_H-M   'P 1'
_cell_length_a   8.75230794
_cell_length_b   8.75230845
_cell_length_c   8.75230700
_cell_angle_alpha   60.00000170
_cell_angle_beta   59.99999977
_cell_angle_gamma   59.99999960
_symmetry_Int_Tables_number   1
_chemical_formula_structural   CaLaHo(Si3Pd10)2
_chemical_formula_sum   'Ca1 La1 Ho1 Si6 Pd20'
_cell_volume   474.08122097
_cell_formula_units_Z   1
loop_
 _symmetry_equiv_pos_site_id
 _symmetry_equiv_pos_as_xyz
  1  'x, y, z'
loop_
 _atom_site_type_symbol
 _atom_site_label
 _atom_site_symmetry_multiplicity
 _atom_site_fract_x
 _atom_site_fract_y
 _atom_site_fract_z
 _atom_site_occupancy
  Ca  Ca0  1  0.250000  0.250000  0.250000  1
  La  La1  1  0.750000  0.750000  0.750000  1
  Ho  Ho2  1  0.000000  0.000000  0.000000  1
  Si  Si3  1  0.732319  0.267681  0.267681  1
  Si  Si4  1  0.267681  0.732319  0.732319  1
  Si  Si5  1  0.267681  0.732319  0.267681  1
  Si  Si6  1  0.732319  0.267681  0.732319  1
  Si  Si7  1  0.267681  0.267681  0.732319  1
  Si  Si8  1  0.732319  0.732319  0.267681  1
  Pd  Pd9  1  0.384584  0.384584  0.384584  1
  Pd  Pd10  1  0.614852  0.614852  0.614852  1
  Pd  Pd11  1  0.384584  0.384584  0.846248  1
  Pd  Pd12  1  0.384584  0.846248  0.384584  1
  Pd  Pd13  1  0.614852  0.614852  0.155444  1
  Pd  Pd14  1  0.614852  0.155444  0.614852  1
  Pd  Pd15  1  0.846248  0.384584  0.384584  1
  Pd  Pd16  1  0.155444  0.614852  0.614852  1
  Pd  Pd17  1  0.344482  0.999747  0.999747  1
  Pd  Pd18  1  0.656024  0.999747  0.999747  1
  Pd  Pd19  1  0.999747  0.344482  0.656024  1
  Pd  Pd20  1  0.999747  0.656024  0.344482  1
  Pd  Pd21  1  0.999747  0.344482  0.999747  1
  Pd  Pd22  1  0.656024  0.999747  0.344482  1
  Pd  Pd23  1  0.999747  0.656024  0.999747  1
  Pd  Pd24  1  0.344482  0.999747  0.656024  1
  Pd  Pd25  1  0.999747  0.999747  0.344482  1
  Pd  Pd26  1  0.999747  0.999747  0.656024  1
  Pd  Pd27  1  0.656024  0.344482  0.999747  1
  Pd  Pd28  1  0.344482  0.656024  0.999747  1
