# generated using pymatgen
data_ErHfZr2F15
_symmetry_space_group_name_H-M   'P 1'
_cell_length_a   8.16618477
_cell_length_b   8.16618458
_cell_length_c   8.15945299
_cell_angle_alpha   79.80537454
_cell_angle_beta   79.80537745
_cell_angle_gamma   100.09428609
_symmetry_Int_Tables_number   1
_chemical_formula_structural   ErHfZr2F15
_chemical_formula_sum   'Er2 Hf2 Zr4 F30'
_cell_volume   514.95342013
_cell_formula_units_Z   2
loop_
 _symmetry_equiv_pos_site_id
 _symmetry_equiv_pos_as_xyz
  1  'x, y, z'
loop_
 _atom_site_type_symbol
 _atom_site_label
 _atom_site_symmetry_multiplicity
 _atom_site_fract_x
 _atom_site_fract_y
 _atom_site_fract_z
 _atom_site_occupancy
  Er  Er0  1  0.178236  0.821764  0.250000  1
  Er  Er1  1  0.821764  0.178236  0.750000  1
  Hf  Hf2  1  0.750964  0.249036  0.250000  1
  Hf  Hf3  1  0.249036  0.750964  0.750000  1
  Zr  Zr4  1  0.749081  0.678001  0.674597  1
  Zr  Zr5  1  0.321999  0.250919  0.825403  1
  Zr  Zr6  1  0.250919  0.321999  0.325403  1
  Zr  Zr7  1  0.678001  0.749081  0.174597  1
  F  F8  1  0.316144  0.350214  0.053158  1
  F  F9  1  0.937654  0.813022  0.151430  1
  F  F10  1  0.845173  0.459443  0.683181  1
  F  F11  1  0.459443  0.845173  0.183181  1
  F  F12  1  0.813022  0.937654  0.651430  1
  F  F13  1  0.350214  0.316144  0.553157  1
  F  F14  1  0.683856  0.649786  0.946842  1
  F  F15  1  0.062346  0.186978  0.848570  1
  F  F16  1  0.154827  0.540557  0.316819  1
  F  F17  1  0.540557  0.154827  0.816819  1
  F  F18  1  0.186978  0.062346  0.348570  1
  F  F19  1  0.649786  0.683856  0.446842  1
  F  F20  1  0.774561  0.279813  0.998246  1
  F  F21  1  0.004890  0.275808  0.220315  1
  F  F22  1  0.775913  0.504174  0.223873  1
  F  F23  1  0.504174  0.775913  0.723873  1
  F  F24  1  0.275808  0.004890  0.720315  1
  F  F25  1  0.279813  0.774561  0.498246  1
  F  F26  1  0.225439  0.720187  0.001754  1
  F  F27  1  0.995110  0.724192  0.779685  1
  F  F28  1  0.224087  0.495826  0.776127  1
  F  F29  1  0.495826  0.224087  0.276127  1
  F  F30  1  0.724192  0.995110  0.279685  1
  F  F31  1  0.720187  0.225439  0.501754  1
  F  F32  1  0.466516  0.533484  0.250000  1
  F  F33  1  0.747825  0.955911  0.970048  1
  F  F34  1  0.044089  0.252175  0.529952  1
  F  F35  1  0.252175  0.044089  0.029952  1
  F  F36  1  0.955911  0.747825  0.470048  1
  F  F37  1  0.533484  0.466516  0.750000  1
