# generated using pymatgen
data_Gd4Ge10OsRu5
_symmetry_space_group_name_H-M   'P 1'
_cell_length_a   8.48187102
_cell_length_b   8.43228891
_cell_length_c   8.43229000
_cell_angle_alpha   140.01429327
_cell_angle_beta   108.45831185
_cell_angle_gamma   85.17078234
_symmetry_Int_Tables_number   1
_chemical_formula_structural   Gd4Ge10OsRu5
_chemical_formula_sum   'Gd4 Ge10 Os1 Ru5'
_cell_volume   354.97606845
_cell_formula_units_Z   1
loop_
 _symmetry_equiv_pos_site_id
 _symmetry_equiv_pos_as_xyz
  1  'x, y, z'
loop_
 _atom_site_type_symbol
 _atom_site_label
 _atom_site_symmetry_multiplicity
 _atom_site_fract_x
 _atom_site_fract_y
 _atom_site_fract_z
 _atom_site_occupancy
  Gd  Gd0  1  0.906406  0.138367  0.768038  1
  Gd  Gd1  1  0.094505  0.862379  0.232126  1
  Gd  Gd2  1  0.629937  0.358167  0.271770  1
  Gd  Gd3  1  0.370930  0.641670  0.729261  1
  Ge  Ge4  1  0.000304  0.750065  0.749985  1
  Ge  Ge5  1  0.000304  0.250318  0.250238  1
  Ge  Ge6  1  0.704338  0.448797  0.739962  1
  Ge  Ge7  1  0.294790  0.037287  0.746459  1
  Ge  Ge8  1  0.294790  0.548331  0.257503  1
  Ge  Ge9  1  0.704338  0.964377  0.255541  1
  Ge  Ge10  1  0.241164  0.413986  0.827180  1
  Ge  Ge11  1  0.585281  0.909869  0.675412  1
  Ge  Ge12  1  0.413683  0.090652  0.323029  1
  Ge  Ge13  1  0.759439  0.585533  0.173905  1
  Os  Os14  1  0.760951  0.850597  0.910355  1
  Ru  Ru15  1  0.500622  0.249605  0.749435  1
  Ru  Ru16  1  0.950603  0.353776  0.596828  1
  Ru  Ru17  1  0.050012  0.646173  0.403839  1
  Ru  Ru18  1  0.236982  0.148865  0.088116  1
  Ru  Ru19  1  0.500622  0.751187  0.251017  1
