# generated using pymatgen
data_CeY4Er3(Si3Rh)4
_symmetry_space_group_name_H-M   'P 1'
_cell_length_a   8.16113200
_cell_length_b   8.16113232
_cell_length_c   7.95142500
_cell_angle_alpha   90.00000000
_cell_angle_beta   90.00000000
_cell_angle_gamma   119.99999872
_symmetry_Int_Tables_number   1
_chemical_formula_structural   CeY4Er3(Si3Rh)4
_chemical_formula_sum   'Ce1 Y4 Er3 Si12 Rh4'
_cell_volume   458.64474892
_cell_formula_units_Z   1
loop_
 _symmetry_equiv_pos_site_id
 _symmetry_equiv_pos_as_xyz
  1  'x, y, z'
loop_
 _atom_site_type_symbol
 _atom_site_label
 _atom_site_symmetry_multiplicity
 _atom_site_fract_x
 _atom_site_fract_y
 _atom_site_fract_z
 _atom_site_occupancy
  Ce  Ce0  1  0.000000  0.000000  0.250000  1
  Y  Y1  1  0.000000  0.000000  0.750000  1
  Y  Y2  1  0.491862  0.508138  0.250000  1
  Y  Y3  1  0.491862  0.983726  0.250000  1
  Y  Y4  1  0.016274  0.508138  0.250000  1
  Er  Er5  1  0.508924  0.491076  0.750000  1
  Er  Er6  1  0.982153  0.491076  0.750000  1
  Er  Er7  1  0.508924  0.017847  0.750000  1
  Si  Si8  1  0.832946  0.167054  0.502241  1
  Si  Si9  1  0.832946  0.665893  0.502241  1
  Si  Si10  1  0.334107  0.167054  0.502241  1
  Si  Si11  1  0.832946  0.167054  0.997759  1
  Si  Si12  1  0.832946  0.665893  0.997759  1
  Si  Si13  1  0.334107  0.167054  0.997759  1
  Si  Si14  1  0.167769  0.832231  0.999546  1
  Si  Si15  1  0.664464  0.832231  0.999546  1
  Si  Si16  1  0.167769  0.335536  0.999546  1
  Si  Si17  1  0.167769  0.832231  0.500454  1
  Si  Si18  1  0.664464  0.832231  0.500454  1
  Si  Si19  1  0.167769  0.335536  0.500454  1
  Rh  Rh20  1  0.666667  0.333333  0.472761  1
  Rh  Rh21  1  0.666667  0.333333  0.027239  1
  Rh  Rh22  1  0.333333  0.666667  0.960366  1
  Rh  Rh23  1  0.333333  0.666667  0.539634  1
