# generated using pymatgen
data_Lu4SnPt11
_symmetry_space_group_name_H-M   'P 1'
_cell_length_a   4.14978800
_cell_length_b   5.79417630
_cell_length_c   11.55909800
_cell_angle_alpha   88.00662771
_cell_angle_beta   90.00000000
_cell_angle_gamma   90.00000000
_symmetry_Int_Tables_number   1
_chemical_formula_structural   Lu4SnPt11
_chemical_formula_sum   'Lu4 Sn1 Pt11'
_cell_volume   277.76573616
_cell_formula_units_Z   1
loop_
 _symmetry_equiv_pos_site_id
 _symmetry_equiv_pos_as_xyz
  1  'x, y, z'
loop_
 _atom_site_type_symbol
 _atom_site_label
 _atom_site_symmetry_multiplicity
 _atom_site_fract_x
 _atom_site_fract_y
 _atom_site_fract_z
 _atom_site_occupancy
  Lu  Lu0  1  0.500000  0.758723  0.376628  1
  Lu  Lu1  1  0.500000  0.713597  0.861066  1
  Lu  Lu2  1  0.500000  0.286403  0.138934  1
  Lu  Lu3  1  0.500000  0.241277  0.623372  1
  Sn  Sn4  1  0.000000  0.000000  0.000000  1
  Pt  Pt5  1  0.000000  0.021284  0.249455  1
  Pt  Pt6  1  0.000000  0.978716  0.750545  1
  Pt  Pt7  1  0.000000  0.500000  0.000000  1
  Pt  Pt8  1  0.000000  0.500000  0.500000  1
  Pt  Pt9  1  0.000000  0.520207  0.249847  1
  Pt  Pt10  1  0.000000  0.479793  0.750153  1
  Pt  Pt11  1  0.500000  0.258540  0.377164  1
  Pt  Pt12  1  0.500000  0.224613  0.881633  1
  Pt  Pt13  1  0.500000  0.775387  0.118367  1
  Pt  Pt14  1  0.500000  0.741460  0.622836  1
  Pt  Pt15  1  0.000000  0.000000  0.500000  1
