# generated using pymatgen
data_NdTh7(MnSi3)4
_symmetry_space_group_name_H-M   'P 1'
_cell_length_a   8.24064200
_cell_length_b   8.24064259
_cell_length_c   8.26131600
_cell_angle_alpha   90.00000000
_cell_angle_beta   90.00000000
_cell_angle_gamma   119.99999762
_symmetry_Int_Tables_number   1
_chemical_formula_structural   NdTh7(MnSi3)4
_chemical_formula_sum   'Nd1 Th7 Mn4 Si12'
_cell_volume   485.84977131
_cell_formula_units_Z   1
loop_
 _symmetry_equiv_pos_site_id
 _symmetry_equiv_pos_as_xyz
  1  'x, y, z'
loop_
 _atom_site_type_symbol
 _atom_site_label
 _atom_site_symmetry_multiplicity
 _atom_site_fract_x
 _atom_site_fract_y
 _atom_site_fract_z
 _atom_site_occupancy
  Nd  Nd0  1  0.000000  0.000000  0.250000  1
  Th  Th1  1  0.499587  0.500413  0.750000  1
  Th  Th2  1  0.500508  0.499492  0.250000  1
  Th  Th3  1  0.000825  0.500413  0.750000  1
  Th  Th4  1  0.998984  0.499492  0.250000  1
  Th  Th5  1  0.499587  0.999175  0.750000  1
  Th  Th6  1  0.500508  0.001016  0.250000  1
  Th  Th7  1  0.000000  0.000000  0.750000  1
  Mn  Mn8  1  0.666667  0.333333  0.996924  1
  Mn  Mn9  1  0.333333  0.666667  0.001406  1
  Mn  Mn10  1  0.333333  0.666667  0.498594  1
  Mn  Mn11  1  0.666667  0.333333  0.503076  1
  Si  Si12  1  0.831444  0.168556  0.999628  1
  Si  Si13  1  0.168553  0.831447  0.000381  1
  Si  Si14  1  0.337112  0.168556  0.999628  1
  Si  Si15  1  0.168553  0.831447  0.499619  1
  Si  Si16  1  0.662893  0.831447  0.000381  1
  Si  Si17  1  0.831444  0.168556  0.500372  1
  Si  Si18  1  0.831444  0.662888  0.999628  1
  Si  Si19  1  0.662893  0.831447  0.499619  1
  Si  Si20  1  0.168553  0.337107  0.000381  1
  Si  Si21  1  0.337112  0.168556  0.500372  1
  Si  Si22  1  0.168553  0.337107  0.499619  1
  Si  Si23  1  0.831444  0.662888  0.500372  1
