# generated using pymatgen
data_Tm16Al4FeRh3
_symmetry_space_group_name_H-M   'P 1'
_cell_length_a   9.35315329
_cell_length_b   9.35315301
_cell_length_c   9.39132406
_cell_angle_alpha   60.13436111
_cell_angle_beta   60.13436407
_cell_angle_gamma   60.00000426
_symmetry_Int_Tables_number   1
_chemical_formula_structural   Tm16Al4FeRh3
_chemical_formula_sum   'Tm16 Al4 Fe1 Rh3'
_cell_volume   582.11254592
_cell_formula_units_Z   1
loop_
 _symmetry_equiv_pos_site_id
 _symmetry_equiv_pos_as_xyz
  1  'x, y, z'
loop_
 _atom_site_type_symbol
 _atom_site_label
 _atom_site_symmetry_multiplicity
 _atom_site_fract_x
 _atom_site_fract_y
 _atom_site_fract_z
 _atom_site_occupancy
  Tm  Tm0  1  0.062813  0.062813  0.434972  1
  Tm  Tm1  1  0.439402  0.062813  0.434972  1
  Tm  Tm2  1  0.063345  0.437819  0.061018  1
  Tm  Tm3  1  0.051716  0.652353  0.643578  1
  Tm  Tm4  1  0.437819  0.437819  0.061018  1
  Tm  Tm5  1  0.652353  0.051716  0.643578  1
  Tm  Tm6  1  0.188436  0.806480  0.198605  1
  Tm  Tm7  1  0.194979  0.194979  0.804479  1
  Tm  Tm8  1  0.806480  0.806480  0.198605  1
  Tm  Tm9  1  0.437819  0.063345  0.061018  1
  Tm  Tm10  1  0.806480  0.188436  0.198605  1
  Tm  Tm11  1  0.062813  0.439402  0.434972  1
  Tm  Tm12  1  0.805563  0.194979  0.804479  1
  Tm  Tm13  1  0.194979  0.805563  0.804479  1
  Tm  Tm14  1  0.645886  0.645886  0.062344  1
  Tm  Tm15  1  0.652353  0.652353  0.643578  1
  Al  Al16  1  0.420891  0.420891  0.423601  1
  Al  Al17  1  0.734616  0.420891  0.423601  1
  Al  Al18  1  0.420891  0.734616  0.423601  1
  Al  Al19  1  0.422127  0.422127  0.733619  1
  Fe  Fe20  1  0.859944  0.859944  0.420169  1
  Rh  Rh21  1  0.856770  0.856770  0.861705  1
  Rh  Rh22  1  0.424756  0.856770  0.861705  1
  Rh  Rh23  1  0.856770  0.424756  0.861705  1
