# generated using pymatgen
data_Tm15ThMgCd3Pt4
_symmetry_space_group_name_H-M   'P 1'
_cell_length_a   9.56246814
_cell_length_b   9.56246865
_cell_length_c   9.56246741
_cell_angle_alpha   60.49185186
_cell_angle_beta   60.49184594
_cell_angle_gamma   60.49185476
_symmetry_Int_Tables_number   1
_chemical_formula_structural   Tm15ThMgCd3Pt4
_chemical_formula_sum   'Tm15 Th1 Mg1 Cd3 Pt4'
_cell_volume   625.16713108
_cell_formula_units_Z   1
loop_
 _symmetry_equiv_pos_site_id
 _symmetry_equiv_pos_as_xyz
  1  'x, y, z'
loop_
 _atom_site_type_symbol
 _atom_site_label
 _atom_site_symmetry_multiplicity
 _atom_site_fract_x
 _atom_site_fract_y
 _atom_site_fract_z
 _atom_site_occupancy
  Tm  Tm0  1  0.353314  0.353314  0.939867  1
  Tm  Tm1  1  0.353314  0.939867  0.353314  1
  Tm  Tm2  1  0.939867  0.353314  0.353314  1
  Tm  Tm3  1  0.812656  0.188952  0.188952  1
  Tm  Tm4  1  0.190912  0.811366  0.811366  1
  Tm  Tm5  1  0.188952  0.812656  0.188952  1
  Tm  Tm6  1  0.811366  0.190912  0.811366  1
  Tm  Tm7  1  0.188952  0.188952  0.812656  1
  Tm  Tm8  1  0.811366  0.811366  0.190912  1
  Tm  Tm9  1  0.935102  0.567986  0.567986  1
  Tm  Tm10  1  0.563601  0.937327  0.937327  1
  Tm  Tm11  1  0.567986  0.935102  0.567986  1
  Tm  Tm12  1  0.937327  0.563601  0.937327  1
  Tm  Tm13  1  0.567986  0.567986  0.935102  1
  Tm  Tm14  1  0.937327  0.937327  0.563601  1
  Th  Th15  1  0.350265  0.350265  0.350265  1
  Mg  Mg16  1  0.576908  0.576908  0.576908  1
  Cd  Cd17  1  0.583954  0.583954  0.250433  1
  Cd  Cd18  1  0.583954  0.250433  0.583954  1
  Cd  Cd19  1  0.250433  0.583954  0.583954  1
  Pt  Pt20  1  0.144235  0.144235  0.144235  1
  Pt  Pt21  1  0.139494  0.139494  0.571240  1
  Pt  Pt22  1  0.139494  0.571240  0.139494  1
  Pt  Pt23  1  0.571240  0.139494  0.139494  1
