# generated using pymatgen
data_Ho4Ga20OsRu5
_symmetry_space_group_name_H-M   'P 1'
_cell_length_a   8.91272900
_cell_length_b   8.91272900
_cell_length_c   6.41272000
_cell_angle_alpha   90.00000000
_cell_angle_beta   90.00000000
_cell_angle_gamma   90.00000000
_symmetry_Int_Tables_number   1
_chemical_formula_structural   Ho4Ga20OsRu5
_chemical_formula_sum   'Ho4 Ga20 Os1 Ru5'
_cell_volume   509.40555997
_cell_formula_units_Z   1
loop_
 _symmetry_equiv_pos_site_id
 _symmetry_equiv_pos_as_xyz
  1  'x, y, z'
loop_
 _atom_site_type_symbol
 _atom_site_label
 _atom_site_symmetry_multiplicity
 _atom_site_fract_x
 _atom_site_fract_y
 _atom_site_fract_z
 _atom_site_occupancy
  Ho  Ho0  1  0.682558  0.183543  0.000000  1
  Ho  Ho1  1  0.317442  0.816457  0.000000  1
  Ho  Ho2  1  0.816457  0.682558  0.000000  1
  Ho  Ho3  1  0.183543  0.317442  0.000000  1
  Ga  Ga4  1  0.938736  0.206665  0.293012  1
  Ga  Ga5  1  0.706918  0.438674  0.293683  1
  Ga  Ga6  1  0.500000  0.000000  0.285806  1
  Ga  Ga7  1  0.561326  0.706918  0.706317  1
  Ga  Ga8  1  0.293082  0.561326  0.706317  1
  Ga  Ga9  1  0.793335  0.938736  0.293012  1
  Ga  Ga10  1  0.938736  0.206665  0.706988  1
  Ga  Ga11  1  0.293082  0.561326  0.293683  1
  Ga  Ga12  1  0.061264  0.793335  0.293012  1
  Ga  Ga13  1  0.706918  0.438674  0.706317  1
  Ga  Ga14  1  0.438674  0.293082  0.706317  1
  Ga  Ga15  1  0.061264  0.793335  0.706988  1
  Ga  Ga16  1  0.206665  0.061264  0.706988  1
  Ga  Ga17  1  0.793335  0.938736  0.706988  1
  Ga  Ga18  1  0.206665  0.061264  0.293012  1
  Ga  Ga19  1  0.000000  0.500000  0.714194  1
  Ga  Ga20  1  0.000000  0.500000  0.285806  1
  Ga  Ga21  1  0.561326  0.706918  0.293683  1
  Ga  Ga22  1  0.438674  0.293082  0.293683  1
  Ga  Ga23  1  0.500000  0.000000  0.714194  1
  Os  Os24  1  0.500000  0.500000  0.000000  1
  Ru  Ru25  1  0.678086  0.178260  0.500000  1
  Ru  Ru26  1  0.821740  0.678086  0.500000  1
  Ru  Ru27  1  0.178260  0.321914  0.500000  1
  Ru  Ru28  1  0.000000  0.000000  0.000000  1
  Ru  Ru29  1  0.321914  0.821740  0.500000  1
