# generated using pymatgen
data_Pr4IrPb2Au3
_symmetry_space_group_name_H-M   'P 1'
_cell_length_a   3.76992500
_cell_length_b   8.35750901
_cell_length_c   8.35750837
_cell_angle_alpha   89.68457319
_cell_angle_beta   90.00000000
_cell_angle_gamma   90.00000000
_symmetry_Int_Tables_number   1
_chemical_formula_structural   Pr4IrPb2Au3
_chemical_formula_sum   'Pr4 Ir1 Pb2 Au3'
_cell_volume   263.31754824
_cell_formula_units_Z   1
loop_
 _symmetry_equiv_pos_site_id
 _symmetry_equiv_pos_as_xyz
  1  'x, y, z'
loop_
 _atom_site_type_symbol
 _atom_site_label
 _atom_site_symmetry_multiplicity
 _atom_site_fract_x
 _atom_site_fract_y
 _atom_site_fract_z
 _atom_site_occupancy
  Pr  Pr0  1  0.500000  0.168578  0.668578  1
  Pr  Pr1  1  0.500000  0.812720  0.312720  1
  Pr  Pr2  1  0.500000  0.350513  0.177278  1
  Pr  Pr3  1  0.500000  0.677278  0.850513  1
  Ir  Ir4  1  0.000000  0.621810  0.121810  1
  Pb  Pb5  1  0.000000  0.000408  0.003255  1
  Pb  Pb6  1  0.000000  0.503255  0.500408  1
  Au  Au7  1  0.000000  0.374151  0.874151  1
  Au  Au8  1  0.000000  0.871346  0.619943  1
  Au  Au9  1  0.000000  0.119943  0.371346  1
