# generated using pymatgen
data_Ho4Tm16CoBi8Os3
_symmetry_space_group_name_H-M   'P 1'
_cell_length_a   7.89172512
_cell_length_b   8.96182900
_cell_length_c   12.37685978
_cell_angle_alpha   90.00000000
_cell_angle_beta   89.78430686
_cell_angle_gamma   90.00000000
_symmetry_Int_Tables_number   1
_chemical_formula_structural   Ho4Tm16CoBi8Os3
_chemical_formula_sum   'Ho4 Tm16 Co1 Bi8 Os3'
_cell_volume   875.33843043
_cell_formula_units_Z   1
loop_
 _symmetry_equiv_pos_site_id
 _symmetry_equiv_pos_as_xyz
  1  'x, y, z'
loop_
 _atom_site_type_symbol
 _atom_site_label
 _atom_site_symmetry_multiplicity
 _atom_site_fract_x
 _atom_site_fract_y
 _atom_site_fract_z
 _atom_site_occupancy
  Ho  Ho0  1  0.879797  0.750000  0.806637  1
  Ho  Ho1  1  0.616023  0.750000  0.313425  1
  Ho  Ho2  1  0.058558  0.750000  0.496933  1
  Ho  Ho3  1  0.441280  0.750000  0.995726  1
  Tm  Tm4  1  0.344892  0.750000  0.701044  1
  Tm  Tm5  1  0.658640  0.250000  0.292613  1
  Tm  Tm6  1  0.841716  0.250000  0.791223  1
  Tm  Tm7  1  0.156073  0.750000  0.206488  1
  Tm  Tm8  1  0.118770  0.250000  0.192304  1
  Tm  Tm9  1  0.379652  0.250000  0.691527  1
  Tm  Tm10  1  0.672744  0.541366  0.563607  1
  Tm  Tm11  1  0.326950  0.459411  0.437106  1
  Tm  Tm12  1  0.172784  0.456617  0.936190  1
  Tm  Tm13  1  0.326950  0.040589  0.437106  1
  Tm  Tm14  1  0.826377  0.542796  0.064443  1
  Tm  Tm15  1  0.672744  0.958634  0.563607  1
  Tm  Tm16  1  0.826377  0.957204  0.064443  1
  Tm  Tm17  1  0.172784  0.043383  0.936190  1
  Tm  Tm18  1  0.943100  0.250000  0.503212  1
  Tm  Tm19  1  0.559907  0.250000  0.003584  1
  Co  Co20  1  0.430313  0.750000  0.492381  1
  Bi  Bi21  1  0.568605  0.507776  0.827144  1
  Bi  Bi22  1  0.430282  0.491519  0.173008  1
  Bi  Bi23  1  0.070574  0.491386  0.671926  1
  Bi  Bi24  1  0.430282  0.008481  0.173008  1
  Bi  Bi25  1  0.931011  0.508218  0.328448  1
  Bi  Bi26  1  0.568605  0.992224  0.827144  1
  Bi  Bi27  1  0.931011  0.991782  0.328448  1
  Bi  Bi28  1  0.070574  0.008614  0.671926  1
  Os  Os29  1  0.074809  0.750000  0.990299  1
  Os  Os30  1  0.924246  0.250000  0.009473  1
  Os  Os31  1  0.573568  0.250000  0.509386  1
