# generated using pymatgen
data_Rb3Ga(IO3)6
_symmetry_space_group_name_H-M   'P 1'
_cell_length_a   7.12401687
_cell_length_b   7.14204718
_cell_length_c   10.79745182
_cell_angle_alpha   88.43776493
_cell_angle_beta   108.83674520
_cell_angle_gamma   106.73969055
_symmetry_Int_Tables_number   1
_chemical_formula_structural   Rb3Ga(IO3)6
_chemical_formula_sum   'Rb3 Ga1 I6 O18'
_cell_volume   496.60670285
_cell_formula_units_Z   1
loop_
 _symmetry_equiv_pos_site_id
 _symmetry_equiv_pos_as_xyz
  1  'x, y, z'
loop_
 _atom_site_type_symbol
 _atom_site_label
 _atom_site_symmetry_multiplicity
 _atom_site_fract_x
 _atom_site_fract_y
 _atom_site_fract_z
 _atom_site_occupancy
  Rb  Rb0  1  0.000000  0.000000  0.000000  1
  Rb  Rb1  1  0.828956  0.023310  0.600553  1
  Rb  Rb2  1  0.171044  0.976690  0.399447  1
  Ga  Ga3  1  0.500000  0.500000  0.000000  1
  I  I4  1  0.016095  0.470561  0.188514  1
  I  I5  1  0.983905  0.529439  0.811486  1
  I  I6  1  0.553432  0.947890  0.187847  1
  I  I7  1  0.446568  0.052110  0.812153  1
  I  I8  1  0.414176  0.550564  0.646827  1
  I  I9  1  0.585824  0.449436  0.353173  1
  O  O10  1  0.808897  0.536270  0.049623  1
  O  O11  1  0.191103  0.463730  0.950377  1
  O  O12  1  0.953566  0.548586  0.326101  1
  O  O13  1  0.046434  0.451414  0.673899  1
  O  O14  1  0.913695  0.203506  0.184344  1
  O  O15  1  0.086305  0.796494  0.815656  1
  O  O16  1  0.567026  0.796316  0.052993  1
  O  O17  1  0.432974  0.203684  0.947007  1
  O  O18  1  0.286072  0.839490  0.185687  1
  O  O19  1  0.713928  0.160510  0.814313  1
  O  O20  1  0.694641  0.838624  0.329351  1
  O  O21  1  0.305359  0.161376  0.670649  1
  O  O22  1  0.526160  0.595923  0.829025  1
  O  O23  1  0.473840  0.404077  0.170975  1
  O  O24  1  0.665788  0.567168  0.624895  1
  O  O25  1  0.334212  0.432832  0.375105  1
  O  O26  1  0.411871  0.803096  0.614968  1
  O  O27  1  0.588129  0.196904  0.385032  1
