# generated using pymatgen
data_Ce3Mg2ZnIr2Au
_symmetry_space_group_name_H-M   'P 1'
_cell_length_a   7.46656397
_cell_length_b   7.45163903
_cell_length_c   4.00031000
_cell_angle_alpha   90.00000000
_cell_angle_beta   90.00000000
_cell_angle_gamma   119.93390228
_symmetry_Int_Tables_number   1
_chemical_formula_structural   Ce3Mg2ZnIr2Au
_chemical_formula_sum   'Ce3 Mg2 Zn1 Ir2 Au1'
_cell_volume   192.87935848
_cell_formula_units_Z   1
loop_
 _symmetry_equiv_pos_site_id
 _symmetry_equiv_pos_as_xyz
  1  'x, y, z'
loop_
 _atom_site_type_symbol
 _atom_site_label
 _atom_site_symmetry_multiplicity
 _atom_site_fract_x
 _atom_site_fract_y
 _atom_site_fract_z
 _atom_site_occupancy
  Ce  Ce0  1  0.000000  0.565285  0.000000  1
  Ce  Ce1  1  0.417885  0.422805  0.000000  1
  Ce  Ce2  1  0.582115  0.004920  0.000000  1
  Mg  Mg3  1  0.246168  0.000407  0.500000  1
  Mg  Mg4  1  0.753832  0.754239  0.500000  1
  Zn  Zn5  1  0.000000  0.251820  0.500000  1
  Ir  Ir6  1  0.332248  0.665455  0.500000  1
  Ir  Ir7  1  0.667752  0.333206  0.500000  1
  Au  Au8  1  0.000000  0.001862  0.000000  1
