# generated using pymatgen
data_Lu12GaFe3Sb
_symmetry_space_group_name_H-M   'P 1'
_cell_length_a   8.12761778
_cell_length_b   8.12767701
_cell_length_c   8.12761900
_cell_angle_alpha   108.18462248
_cell_angle_beta   109.46708637
_cell_angle_gamma   110.77199941
_symmetry_Int_Tables_number   1
_chemical_formula_structural   Lu12GaFe3Sb
_chemical_formula_sum   'Lu12 Ga1 Fe3 Sb1'
_cell_volume   413.09619126
_cell_formula_units_Z   1
loop_
 _symmetry_equiv_pos_site_id
 _symmetry_equiv_pos_as_xyz
  1  'x, y, z'
loop_
 _atom_site_type_symbol
 _atom_site_label
 _atom_site_symmetry_multiplicity
 _atom_site_fract_x
 _atom_site_fract_y
 _atom_site_fract_z
 _atom_site_occupancy
  Lu  Lu0  1  0.312361  0.304123  0.616488  1
  Lu  Lu1  1  0.687639  0.695877  0.383512  1
  Lu  Lu2  1  0.687636  0.304123  0.991762  1
  Lu  Lu3  1  0.312364  0.695877  0.008238  1
  Lu  Lu4  1  0.191117  0.419426  0.228310  1
  Lu  Lu5  1  0.808883  0.580574  0.771690  1
  Lu  Lu6  1  0.191121  0.962808  0.771689  1
  Lu  Lu7  1  0.941612  0.189709  0.751906  1
  Lu  Lu8  1  0.808879  0.037192  0.228311  1
  Lu  Lu9  1  0.058388  0.810291  0.248094  1
  Lu  Lu10  1  0.437802  0.189709  0.248095  1
  Lu  Lu11  1  0.562198  0.810291  0.751905  1
  Ga  Ga12  1  0.500000  0.000000  0.500000  1
  Fe  Fe13  1  0.382255  0.382239  0.999984  1
  Fe  Fe14  1  0.617745  0.617761  0.000016  1
  Fe  Fe15  1  0.000000  0.000000  0.000000  1
  Sb  Sb16  1  0.000000  0.500000  0.500000  1
