# generated using pymatgen
data_Ho16Hg4RuRh3
_symmetry_space_group_name_H-M   'P 1'
_cell_length_a   9.55595635
_cell_length_b   9.55636644
_cell_length_c   9.57231909
_cell_angle_alpha   59.87234347
_cell_angle_beta   59.86741417
_cell_angle_gamma   59.80547416
_symmetry_Int_Tables_number   1
_chemical_formula_structural   Ho16Hg4RuRh3
_chemical_formula_sum   'Ho16 Hg4 Ru1 Rh3'
_cell_volume   615.98782433
_cell_formula_units_Z   1
loop_
 _symmetry_equiv_pos_site_id
 _symmetry_equiv_pos_as_xyz
  1  'x, y, z'
loop_
 _atom_site_type_symbol
 _atom_site_label
 _atom_site_symmetry_multiplicity
 _atom_site_fract_x
 _atom_site_fract_y
 _atom_site_fract_z
 _atom_site_occupancy
  Ho  Ho0  1  0.937103  0.937163  0.561679  1
  Ho  Ho1  1  0.562000  0.561999  0.936910  1
  Ho  Ho2  1  0.690247  0.690265  0.310715  1
  Ho  Ho3  1  0.148885  0.552637  0.147598  1
  Ho  Ho4  1  0.688021  0.312297  0.690953  1
  Ho  Ho5  1  0.149993  0.149980  0.148929  1
  Ho  Ho6  1  0.552618  0.148886  0.147607  1
  Ho  Ho7  1  0.690968  0.310356  0.310235  1
  Ho  Ho8  1  0.147216  0.147147  0.554316  1
  Ho  Ho9  1  0.310344  0.690973  0.310245  1
  Ho  Ho10  1  0.312263  0.688031  0.690947  1
  Ho  Ho11  1  0.937767  0.563280  0.562605  1
  Ho  Ho12  1  0.940522  0.561000  0.936098  1
  Ho  Ho13  1  0.563309  0.937746  0.562639  1
  Ho  Ho14  1  0.560985  0.940545  0.936102  1
  Ho  Ho15  1  0.310729  0.310721  0.692202  1
  Hg  Hg16  1  0.914954  0.914946  0.255089  1
  Hg  Hg17  1  0.255514  0.914830  0.914714  1
  Hg  Hg18  1  0.915313  0.915320  0.914967  1
  Hg  Hg19  1  0.914824  0.255503  0.914717  1
  Ru  Ru20  1  0.355751  0.355685  0.927062  1
  Rh  Rh21  1  0.356259  0.926763  0.357194  1
  Rh  Rh22  1  0.926746  0.356253  0.357229  1
  Rh  Rh23  1  0.357671  0.357672  0.359246  1
