# generated using pymatgen
data_Li6Hg3(SbS3)4
_symmetry_space_group_name_H-M   'P 1'
_cell_length_a   9.02231499
_cell_length_b   9.02231447
_cell_length_c   9.02231570
_cell_angle_alpha   107.36333320
_cell_angle_beta   107.36333316
_cell_angle_gamma   107.36332687
_symmetry_Int_Tables_number   1
_chemical_formula_structural   Li6Hg3(SbS3)4
_chemical_formula_sum   'Li6 Hg3 Sb4 S12'
_cell_volume   605.48088098
_cell_formula_units_Z   1
loop_
 _symmetry_equiv_pos_site_id
 _symmetry_equiv_pos_as_xyz
  1  'x, y, z'
loop_
 _atom_site_type_symbol
 _atom_site_label
 _atom_site_symmetry_multiplicity
 _atom_site_fract_x
 _atom_site_fract_y
 _atom_site_fract_z
 _atom_site_occupancy
  Li  Li0  1  0.230223  0.702770  0.080646  1
  Li  Li1  1  0.702770  0.080646  0.230223  1
  Li  Li2  1  0.080646  0.230223  0.702770  1
  Li  Li3  1  0.183260  0.458863  0.400176  1
  Li  Li4  1  0.458863  0.400176  0.183260  1
  Li  Li5  1  0.400176  0.183260  0.458863  1
  Hg  Hg6  1  0.926045  0.784300  0.314882  1
  Hg  Hg7  1  0.784300  0.314882  0.926045  1
  Hg  Hg8  1  0.314882  0.926045  0.784300  1
  Sb  Sb9  1  0.619040  0.834337  0.553001  1
  Sb  Sb10  1  0.834337  0.553001  0.619040  1
  Sb  Sb11  1  0.553001  0.619040  0.834337  1
  Sb  Sb12  1  0.980071  0.980071  0.980071  1
  S  S13  1  0.815204  0.992974  0.454109  1
  S  S14  1  0.992974  0.454109  0.815204  1
  S  S15  1  0.454109  0.815204  0.992974  1
  S  S16  1  0.056067  0.652299  0.512255  1
  S  S17  1  0.652299  0.512255  0.056067  1
  S  S18  1  0.512255  0.056067  0.652299  1
  S  S19  1  0.147224  0.930252  0.216942  1
  S  S20  1  0.930252  0.216942  0.147224  1
  S  S21  1  0.216942  0.147224  0.930252  1
  S  S22  1  0.366598  0.619204  0.298257  1
  S  S23  1  0.619204  0.298257  0.366598  1
  S  S24  1  0.298257  0.366598  0.619204  1
