# generated using pymatgen
data_Ca3Tb(Ga2Ag)4
_symmetry_space_group_name_H-M   'P 1'
_cell_length_a   4.36938500
_cell_length_b   7.06726384
_cell_length_c   10.50942763
_cell_angle_alpha   89.10431263
_cell_angle_beta   90.00000000
_cell_angle_gamma   90.00000000
_symmetry_Int_Tables_number   1
_chemical_formula_structural   Ca3Tb(Ga2Ag)4
_chemical_formula_sum   'Ca3 Tb1 Ga8 Ag4'
_cell_volume   324.48723231
_cell_formula_units_Z   1
loop_
 _symmetry_equiv_pos_site_id
 _symmetry_equiv_pos_as_xyz
  1  'x, y, z'
loop_
 _atom_site_type_symbol
 _atom_site_label
 _atom_site_symmetry_multiplicity
 _atom_site_fract_x
 _atom_site_fract_y
 _atom_site_fract_z
 _atom_site_occupancy
  Ca  Ca0  1  0.250000  0.775513  0.826137  1
  Ca  Ca1  1  0.750000  0.224993  0.175651  1
  Ca  Ca2  1  0.750000  0.724936  0.325776  1
  Tb  Tb3  1  0.250000  0.280330  0.671272  1
  Ga  Ga4  1  0.250000  0.926635  0.149513  1
  Ga  Ga5  1  0.750000  0.075865  0.845905  1
  Ga  Ga6  1  0.750000  0.573597  0.650684  1
  Ga  Ga7  1  0.250000  0.422688  0.354955  1
  Ga  Ga8  1  0.250000  0.700728  0.534752  1
  Ga  Ga9  1  0.750000  0.295528  0.468379  1
  Ga  Ga10  1  0.750000  0.800086  0.032018  1
  Ga  Ga11  1  0.250000  0.204063  0.963450  1
  Ag  Ag12  1  0.250000  0.542104  0.099312  1
  Ag  Ag13  1  0.750000  0.457016  0.900843  1
  Ag  Ag14  1  0.750000  0.957170  0.600359  1
  Ag  Ag15  1  0.250000  0.038750  0.400994  1
