# generated using pymatgen
data_Dy4(PbO4)3
_symmetry_space_group_name_H-M   'P 1'
_cell_length_a   6.47442215
_cell_length_b   6.56318094
_cell_length_c   6.74391124
_cell_angle_alpha   100.53819385
_cell_angle_beta   98.23832581
_cell_angle_gamma   99.69069139
_symmetry_Int_Tables_number   1
_chemical_formula_structural   Dy4(PbO4)3
_chemical_formula_sum   'Dy4 Pb3 O12'
_cell_volume   273.19705661
_cell_formula_units_Z   1
loop_
 _symmetry_equiv_pos_site_id
 _symmetry_equiv_pos_as_xyz
  1  'x, y, z'
loop_
 _atom_site_type_symbol
 _atom_site_label
 _atom_site_symmetry_multiplicity
 _atom_site_fract_x
 _atom_site_fract_y
 _atom_site_fract_z
 _atom_site_occupancy
  Dy  Dy0  1  0.394386  0.699285  0.862232  1
  Dy  Dy1  1  0.695049  0.868899  0.389086  1
  Dy  Dy2  1  0.605614  0.300715  0.137768  1
  Dy  Dy3  1  0.304951  0.131101  0.610914  1
  Pb  Pb4  1  0.000000  0.000000  0.000000  1
  Pb  Pb5  1  0.850864  0.398787  0.675699  1
  Pb  Pb6  1  0.149136  0.601213  0.324301  1
  O  O7  1  0.044730  0.675690  0.893536  1
  O  O8  1  0.680508  0.935065  0.062951  1
  O  O9  1  0.922917  0.076512  0.686792  1
  O  O10  1  0.955270  0.324310  0.106464  1
  O  O11  1  0.319492  0.064935  0.937049  1
  O  O12  1  0.077083  0.923488  0.313208  1
  O  O13  1  0.578498  0.184154  0.428789  1
  O  O14  1  0.176050  0.423322  0.578600  1
  O  O15  1  0.423181  0.585333  0.175134  1
  O  O16  1  0.421502  0.815846  0.571211  1
  O  O17  1  0.823950  0.576678  0.421400  1
  O  O18  1  0.576819  0.414667  0.824866  1
