# generated using pymatgen
data_Lu20CoBi8Pt3
_symmetry_space_group_name_H-M   'P 1'
_cell_length_a   7.88815836
_cell_length_b   8.92985800
_cell_length_c   12.15404995
_cell_angle_alpha   90.00000000
_cell_angle_beta   89.90946894
_cell_angle_gamma   90.00000000
_symmetry_Int_Tables_number   1
_chemical_formula_structural   Lu20CoBi8Pt3
_chemical_formula_sum   'Lu20 Co1 Bi8 Pt3'
_cell_volume   856.13183904
_cell_formula_units_Z   1
loop_
 _symmetry_equiv_pos_site_id
 _symmetry_equiv_pos_as_xyz
  1  'x, y, z'
loop_
 _atom_site_type_symbol
 _atom_site_label
 _atom_site_symmetry_multiplicity
 _atom_site_fract_x
 _atom_site_fract_y
 _atom_site_fract_z
 _atom_site_occupancy
  Lu  Lu0  1  0.343837  0.750000  0.700856  1
  Lu  Lu1  1  0.663517  0.250000  0.289186  1
  Lu  Lu2  1  0.834665  0.250000  0.787463  1
  Lu  Lu3  1  0.165432  0.750000  0.212861  1
  Lu  Lu4  1  0.877486  0.750000  0.803812  1
  Lu  Lu5  1  0.123473  0.250000  0.196299  1
  Lu  Lu6  1  0.376660  0.250000  0.697466  1
  Lu  Lu7  1  0.613602  0.750000  0.311130  1
  Lu  Lu8  1  0.674466  0.552231  0.564138  1
  Lu  Lu9  1  0.327880  0.463842  0.436310  1
  Lu  Lu10  1  0.174717  0.452655  0.933026  1
  Lu  Lu11  1  0.327880  0.036158  0.436310  1
  Lu  Lu12  1  0.822454  0.546529  0.067624  1
  Lu  Lu13  1  0.674466  0.947769  0.564138  1
  Lu  Lu14  1  0.822454  0.953471  0.067624  1
  Lu  Lu15  1  0.174717  0.047345  0.933026  1
  Lu  Lu16  1  0.061064  0.750000  0.500079  1
  Lu  Lu17  1  0.944554  0.250000  0.499287  1
  Lu  Lu18  1  0.552273  0.250000  0.997785  1
  Lu  Lu19  1  0.443899  0.750000  0.999986  1
  Co  Co20  1  0.427237  0.750000  0.489808  1
  Bi  Bi21  1  0.568627  0.512431  0.827848  1
  Bi  Bi22  1  0.431260  0.488123  0.171605  1
  Bi  Bi23  1  0.068650  0.489138  0.671389  1
  Bi  Bi24  1  0.431260  0.011877  0.171605  1
  Bi  Bi25  1  0.931275  0.511877  0.328751  1
  Bi  Bi26  1  0.568627  0.987569  0.827848  1
  Bi  Bi27  1  0.931275  0.988123  0.328751  1
  Bi  Bi28  1  0.068650  0.010862  0.671389  1
  Pt  Pt29  1  0.075128  0.750000  0.990480  1
  Pt  Pt30  1  0.920929  0.250000  0.011341  1
  Pt  Pt31  1  0.577583  0.250000  0.510777  1
