# generated using pymatgen
data_LaTb5YP12Pd17
_symmetry_space_group_name_H-M   'P 1'
_cell_length_a   12.34895579
_cell_length_b   12.34895633
_cell_length_c   13.62356868
_cell_angle_alpha   68.21535819
_cell_angle_beta   68.21535723
_cell_angle_gamma   18.77423264
_symmetry_Int_Tables_number   1
_chemical_formula_structural   LaTb5YP12Pd17
_chemical_formula_sum   'La1 Tb5 Y1 P12 Pd17'
_cell_volume   619.53110618
_cell_formula_units_Z   1
loop_
 _symmetry_equiv_pos_site_id
 _symmetry_equiv_pos_as_xyz
  1  'x, y, z'
loop_
 _atom_site_type_symbol
 _atom_site_label
 _atom_site_symmetry_multiplicity
 _atom_site_fract_x
 _atom_site_fract_y
 _atom_site_fract_z
 _atom_site_occupancy
  La  La0  1  0.582202  0.582202  0.738644  1
  Tb  Tb1  1  0.500052  0.500052  0.499448  1
  Tb  Tb2  1  0.364594  0.364594  0.001399  1
  Tb  Tb3  1  0.634941  0.634941  0.000979  1
  Tb  Tb4  1  0.233815  0.233815  0.313231  1
  Tb  Tb5  1  0.766795  0.766795  0.685578  1
  Y  Y6  1  0.418298  0.418298  0.261133  1
  P  P7  1  0.061898  0.061898  0.927357  1
  P  P8  1  0.937867  0.937867  0.076641  1
  P  P9  1  0.886794  0.886794  0.829452  1
  P  P10  1  0.113129  0.113129  0.170554  1
  P  P11  1  0.190267  0.190267  0.620770  1
  P  P12  1  0.811655  0.811655  0.377543  1
  P  P13  1  0.364750  0.364750  0.581221  1
  P  P14  1  0.635626  0.635626  0.418463  1
  P  P15  1  0.010414  0.010414  0.664128  1
  P  P16  1  0.987641  0.987641  0.331329  1
  P  P17  1  0.231878  0.231878  0.883463  1
  P  P18  1  0.768763  0.768763  0.118251  1
  Pd  Pd19  1  0.839247  0.839247  0.194188  1
  Pd  Pd20  1  0.162172  0.162172  0.807301  1
  Pd  Pd21  1  0.026166  0.026166  0.125125  1
  Pd  Pd22  1  0.971930  0.971930  0.878356  1
  Pd  Pd23  1  0.888756  0.888756  0.455565  1
  Pd  Pd24  1  0.111644  0.111644  0.539697  1
  Pd  Pd25  1  0.499402  0.499402  0.002492  1
  Pd  Pd26  1  0.545542  0.545542  0.255203  1
  Pd  Pd27  1  0.452527  0.452527  0.746066  1
  Pd  Pd28  1  0.296755  0.296755  0.489400  1
  Pd  Pd29  1  0.705110  0.705110  0.508079  1
  Pd  Pd30  1  0.667769  0.667769  0.225028  1
  Pd  Pd31  1  0.331968  0.331968  0.774786  1
  Pd  Pd32  1  0.909022  0.909022  0.640705  1
  Pd  Pd33  1  0.090398  0.090398  0.357244  1
  Pd  Pd34  1  0.216397  0.216397  0.069159  1
  Pd  Pd35  1  0.783813  0.783813  0.932019  1
