# generated using pymatgen
data_PaPt8
_symmetry_space_group_name_H-M   'P 1'
_cell_length_a   6.39043268
_cell_length_b   6.39043259
_cell_length_c   6.39043254
_cell_angle_alpha   96.04509434
_cell_angle_beta   96.04510223
_cell_angle_gamma   142.12739398
_symmetry_Int_Tables_number   1
_chemical_formula_structural   PaPt8
_chemical_formula_sum   'Pa1 Pt8'
_cell_volume   151.54092793
_cell_formula_units_Z   1
loop_
 _symmetry_equiv_pos_site_id
 _symmetry_equiv_pos_as_xyz
  1  'x, y, z'
loop_
 _atom_site_type_symbol
 _atom_site_label
 _atom_site_symmetry_multiplicity
 _atom_site_fract_x
 _atom_site_fract_y
 _atom_site_fract_z
 _atom_site_occupancy
  Pa  Pa0  1  0.000000  0.000000  0.000000  1
  Pt  Pt1  1  0.666635  0.333364  0.000000  1
  Pt  Pt2  1  0.333364  0.666635  0.000000  1
  Pt  Pt3  1  0.666635  0.666635  0.333271  1
  Pt  Pt4  1  0.333403  0.000000  0.333403  1
  Pt  Pt5  1  0.000000  0.333403  0.333403  1
  Pt  Pt6  1  0.666596  0.000000  0.666596  1
  Pt  Pt7  1  0.000000  0.666596  0.666596  1
  Pt  Pt8  1  0.333365  0.333365  0.666729  1
