# generated using pymatgen
data_Sr15Ac(ThPt4)4
_symmetry_space_group_name_H-M   'P 1'
_cell_length_a   7.97370858
_cell_length_b   8.09381535
_cell_length_c   15.53189600
_cell_angle_alpha   90.05034556
_cell_angle_beta   90.37696582
_cell_angle_gamma   90.19330276
_symmetry_Int_Tables_number   1
_chemical_formula_structural   Sr15Ac(ThPt4)4
_chemical_formula_sum   'Sr15 Ac1 Th4 Pt16'
_cell_volume   1002.36542411
_cell_formula_units_Z   1
loop_
 _symmetry_equiv_pos_site_id
 _symmetry_equiv_pos_as_xyz
  1  'x, y, z'
loop_
 _atom_site_type_symbol
 _atom_site_label
 _atom_site_symmetry_multiplicity
 _atom_site_fract_x
 _atom_site_fract_y
 _atom_site_fract_z
 _atom_site_occupancy
  Sr  Sr0  1  0.159811  0.331644  0.380604  1
  Sr  Sr1  1  0.340531  0.832803  0.618079  1
  Sr  Sr2  1  0.841751  0.666949  0.883773  1
  Sr  Sr3  1  0.495420  0.325102  0.903523  1
  Sr  Sr4  1  0.991775  0.177805  0.597816  1
  Sr  Sr5  1  0.507076  0.677784  0.402525  1
  Sr  Sr6  1  0.007325  0.821600  0.094676  1
  Sr  Sr7  1  0.506843  0.677415  0.095538  1
  Sr  Sr8  1  0.008201  0.818923  0.409549  1
  Sr  Sr9  1  0.491926  0.319340  0.593918  1
  Sr  Sr10  1  0.994531  0.182978  0.905198  1
  Sr  Sr11  1  0.180526  0.484953  0.750666  1
  Sr  Sr12  1  0.679635  0.017895  0.750552  1
  Sr  Sr13  1  0.823025  0.522370  0.251999  1
  Sr  Sr14  1  0.310731  0.980134  0.250036  1
  Ac  Ac15  1  0.340283  0.839494  0.879594  1
  Th  Th16  1  0.837004  0.664340  0.624362  1
  Th  Th17  1  0.662152  0.160994  0.375744  1
  Th  Th18  1  0.157976  0.339225  0.122267  1
  Th  Th19  1  0.658597  0.164545  0.122382  1
  Pt  Pt20  1  0.325808  0.062138  0.044100  1
  Pt  Pt21  1  0.803224  0.447238  0.464211  1
  Pt  Pt22  1  0.697569  0.947797  0.532647  1
  Pt  Pt23  1  0.189611  0.538251  0.969092  1
  Pt  Pt24  1  0.665466  0.978529  0.966100  1
  Pt  Pt25  1  0.132162  0.537579  0.547140  1
  Pt  Pt26  1  0.365018  0.037846  0.452044  1
  Pt  Pt27  1  0.835746  0.439876  0.048080  1
  Pt  Pt28  1  0.552863  0.632709  0.749489  1
  Pt  Pt29  1  0.038692  0.869437  0.743602  1
  Pt  Pt30  1  0.463141  0.357630  0.243478  1
  Pt  Pt31  1  0.946093  0.138305  0.240606  1
  Pt  Pt32  1  0.287072  0.119931  0.754910  1
  Pt  Pt33  1  0.793233  0.386523  0.740207  1
  Pt  Pt34  1  0.696489  0.893370  0.250906  1
  Pt  Pt35  1  0.212695  0.606545  0.240586  1
