# generated using pymatgen
data_Dy5RhPb3
_symmetry_space_group_name_H-M   'P 1'
_cell_length_a   9.20790700
_cell_length_b   9.20790742
_cell_length_c   6.83811100
_cell_angle_alpha   90.00000000
_cell_angle_beta   90.00000000
_cell_angle_gamma   120.00000926
_symmetry_Int_Tables_number   1
_chemical_formula_structural   Dy5RhPb3
_chemical_formula_sum   'Dy10 Rh2 Pb6'
_cell_volume   502.09813228
_cell_formula_units_Z   2
loop_
 _symmetry_equiv_pos_site_id
 _symmetry_equiv_pos_as_xyz
  1  'x, y, z'
loop_
 _atom_site_type_symbol
 _atom_site_label
 _atom_site_symmetry_multiplicity
 _atom_site_fract_x
 _atom_site_fract_y
 _atom_site_fract_z
 _atom_site_occupancy
  Dy  Dy0  1  0.237144  0.000000  0.250000  1
  Dy  Dy1  1  0.762856  0.000000  0.750000  1
  Dy  Dy2  1  0.000000  0.237144  0.250000  1
  Dy  Dy3  1  0.000000  0.762856  0.750000  1
  Dy  Dy4  1  0.762856  0.762856  0.250000  1
  Dy  Dy5  1  0.237144  0.237144  0.750000  1
  Dy  Dy6  1  0.333333  0.666667  0.000000  1
  Dy  Dy7  1  0.666667  0.333333  0.000000  1
  Dy  Dy8  1  0.666667  0.333333  0.500000  1
  Dy  Dy9  1  0.333333  0.666667  0.500000  1
  Rh  Rh10  1  0.000000  0.000000  0.000000  1
  Rh  Rh11  1  0.000000  0.000000  0.500000  1
  Pb  Pb12  1  0.595385  0.000000  0.250000  1
  Pb  Pb13  1  0.404615  0.000000  0.750000  1
  Pb  Pb14  1  0.000000  0.595385  0.250000  1
  Pb  Pb15  1  0.000000  0.404615  0.750000  1
  Pb  Pb16  1  0.404615  0.404615  0.250000  1
  Pb  Pb17  1  0.595385  0.595385  0.750000  1
