# generated using pymatgen
data_Hf6Fe5Si12Tc
_symmetry_space_group_name_H-M   'P 1'
_cell_length_a   9.72872451
_cell_length_b   9.72872472
_cell_length_c   9.72872496
_cell_angle_alpha   149.24715517
_cell_angle_beta   132.80445599
_cell_angle_gamma   57.39261417
_symmetry_Int_Tables_number   1
_chemical_formula_structural   Hf6Fe5Si12Tc
_chemical_formula_sum   'Hf6 Fe5 Si12 Tc1'
_cell_volume   342.94314335
_cell_formula_units_Z   1
loop_
 _symmetry_equiv_pos_site_id
 _symmetry_equiv_pos_as_xyz
  1  'x, y, z'
loop_
 _atom_site_type_symbol
 _atom_site_label
 _atom_site_symmetry_multiplicity
 _atom_site_fract_x
 _atom_site_fract_y
 _atom_site_fract_z
 _atom_site_occupancy
  Hf  Hf0  1  0.857843  0.596837  0.261008  1
  Hf  Hf1  1  0.141506  0.402218  0.739287  1
  Hf  Hf2  1  0.664171  0.403163  0.261008  1
  Hf  Hf3  1  0.337069  0.597782  0.739287  1
  Hf  Hf4  1  0.141713  0.141470  0.000243  1
  Hf  Hf5  1  0.858772  0.858530  0.000243  1
  Fe  Fe6  1  0.000574  0.000146  0.499489  1
  Fe  Fe7  1  0.499342  0.498915  0.499489  1
  Fe  Fe8  1  0.499342  0.999854  0.000428  1
  Fe  Fe9  1  0.254745  0.000000  0.254745  1
  Fe  Fe10  1  0.000574  0.501085  0.000428  1
  Si  Si11  1  0.488740  0.139590  0.349150  1
  Si  Si12  1  0.507383  0.856968  0.650416  1
  Si  Si13  1  0.209559  0.860410  0.349150  1
  Si  Si14  1  0.793448  0.143032  0.650416  1
  Si  Si15  1  0.704141  0.702801  0.001340  1
  Si  Si16  1  0.298540  0.297199  0.001340  1
  Si  Si17  1  0.490208  0.732928  0.223135  1
  Si  Si18  1  0.490208  0.267072  0.757280  1
  Si  Si19  1  0.008937  0.262357  0.271294  1
  Si  Si20  1  0.213474  0.714557  0.498918  1
  Si  Si21  1  0.008937  0.737643  0.746581  1
  Si  Si22  1  0.784361  0.285443  0.498918  1
  Tc  Tc23  1  0.746409  0.000000  0.746409  1
