# generated using pymatgen
data_TiNbSiPIr2
_symmetry_space_group_name_H-M   'P 1'
_cell_length_a   3.79790500
_cell_length_b   6.38409400
_cell_length_c   7.24779800
_cell_angle_alpha   90.00000000
_cell_angle_beta   90.00000000
_cell_angle_gamma   90.00000000
_symmetry_Int_Tables_number   1
_chemical_formula_structural   TiNbSiPIr2
_chemical_formula_sum   'Ti2 Nb2 Si2 P2 Ir4'
_cell_volume   175.73143320
_cell_formula_units_Z   2
loop_
 _symmetry_equiv_pos_site_id
 _symmetry_equiv_pos_as_xyz
  1  'x, y, z'
loop_
 _atom_site_type_symbol
 _atom_site_label
 _atom_site_symmetry_multiplicity
 _atom_site_fract_x
 _atom_site_fract_y
 _atom_site_fract_z
 _atom_site_occupancy
  Ti  Ti0  1  0.750000  0.976319  0.175691  1
  Ti  Ti1  1  0.750000  0.476319  0.324309  1
  Nb  Nb2  1  0.250000  0.027095  0.828458  1
  Nb  Nb3  1  0.250000  0.527095  0.671542  1
  Si  Si4  1  0.750000  0.234902  0.622898  1
  Si  Si5  1  0.750000  0.734902  0.877102  1
  P  P6  1  0.250000  0.761550  0.376270  1
  P  P7  1  0.250000  0.261550  0.123730  1
  Ir  Ir8  1  0.250000  0.145688  0.429635  1
  Ir  Ir9  1  0.250000  0.645688  0.070365  1
  Ir  Ir10  1  0.750000  0.854445  0.557229  1
  Ir  Ir11  1  0.750000  0.354445  0.942771  1
