# generated using pymatgen
data_Nd3Cr(P3Ir4)2
_symmetry_space_group_name_H-M   'P 1'
_cell_length_a   4.00054000
_cell_length_b   11.29437400
_cell_length_c   12.87868200
_cell_angle_alpha   90.00000000
_cell_angle_beta   90.00000000
_cell_angle_gamma   90.00000000
_symmetry_Int_Tables_number   1
_chemical_formula_structural   Nd3Cr(P3Ir4)2
_chemical_formula_sum   'Nd6 Cr2 P12 Ir16'
_cell_volume   581.90515113
_cell_formula_units_Z   2
loop_
 _symmetry_equiv_pos_site_id
 _symmetry_equiv_pos_as_xyz
  1  'x, y, z'
loop_
 _atom_site_type_symbol
 _atom_site_label
 _atom_site_symmetry_multiplicity
 _atom_site_fract_x
 _atom_site_fract_y
 _atom_site_fract_z
 _atom_site_occupancy
  Nd  Nd0  1  0.000000  0.500000  0.517168  1
  Nd  Nd1  1  0.500000  0.000000  0.482832  1
  Nd  Nd2  1  0.500000  0.817802  0.203112  1
  Nd  Nd3  1  0.500000  0.182198  0.203112  1
  Nd  Nd4  1  0.000000  0.682198  0.796888  1
  Nd  Nd5  1  0.000000  0.317802  0.796888  1
  Cr  Cr6  1  0.500000  0.500000  0.157189  1
  Cr  Cr7  1  0.000000  0.000000  0.842811  1
  P  P8  1  0.500000  0.500000  0.879396  1
  P  P9  1  0.000000  0.000000  0.120604  1
  P  P10  1  0.500000  0.500000  0.335553  1
  P  P11  1  0.000000  0.000000  0.664447  1
  P  P12  1  0.500000  0.312864  0.617219  1
  P  P13  1  0.500000  0.687136  0.617219  1
  P  P14  1  0.000000  0.187136  0.382781  1
  P  P15  1  0.000000  0.812864  0.382781  1
  P  P16  1  0.500000  0.846291  0.889854  1
  P  P17  1  0.500000  0.153709  0.889854  1
  P  P18  1  0.000000  0.653709  0.110146  1
  P  P19  1  0.000000  0.346291  0.110146  1
  Ir  Ir20  1  0.500000  0.500000  0.699094  1
  Ir  Ir21  1  0.000000  0.000000  0.300906  1
  Ir  Ir22  1  0.000000  0.500000  0.994265  1
  Ir  Ir23  1  0.500000  0.000000  0.005735  1
  Ir  Ir24  1  0.500000  0.332773  0.987843  1
  Ir  Ir25  1  0.500000  0.667227  0.987843  1
  Ir  Ir26  1  0.000000  0.167227  0.012157  1
  Ir  Ir27  1  0.000000  0.832773  0.012157  1
  Ir  Ir28  1  0.500000  0.290951  0.429286  1
  Ir  Ir29  1  0.500000  0.709049  0.429286  1
  Ir  Ir30  1  0.000000  0.209049  0.570714  1
  Ir  Ir31  1  0.000000  0.790951  0.570714  1
  Ir  Ir32  1  0.500000  0.875788  0.713306  1
  Ir  Ir33  1  0.500000  0.124212  0.713306  1
  Ir  Ir34  1  0.000000  0.624212  0.286694  1
  Ir  Ir35  1  0.000000  0.375788  0.286694  1
