# generated using pymatgen
data_Hf4P6PbO24
_symmetry_space_group_name_H-M   'P 1'
_cell_length_a   8.64370958
_cell_length_b   8.64371066
_cell_length_c   9.42670100
_cell_angle_alpha   62.71160664
_cell_angle_beta   117.28838212
_cell_angle_gamma   119.99999716
_symmetry_Int_Tables_number   1
_chemical_formula_structural   Hf4P6PbO24
_chemical_formula_sum   'Hf4 P6 Pb1 O24'
_cell_volume   517.46250822
_cell_formula_units_Z   1
loop_
 _symmetry_equiv_pos_site_id
 _symmetry_equiv_pos_as_xyz
  1  'x, y, z'
loop_
 _atom_site_type_symbol
 _atom_site_label
 _atom_site_symmetry_multiplicity
 _atom_site_fract_x
 _atom_site_fract_y
 _atom_site_fract_z
 _atom_site_occupancy
  Hf  Hf0  1  0.352903  0.647094  0.058723  1
  Hf  Hf1  1  0.149798  0.850210  0.449379  1
  Hf  Hf2  1  0.850202  0.149790  0.550622  1
  Hf  Hf3  1  0.647097  0.352905  0.941277  1
  P  P4  1  0.753499  0.539855  0.244709  1
  P  P5  1  0.031038  0.246508  0.244675  1
  P  P6  1  0.460163  0.968957  0.244696  1
  P  P7  1  0.539837  0.031041  0.755305  1
  P  P8  1  0.968964  0.753494  0.755325  1
  P  P9  1  0.246499  0.460145  0.755293  1
  Pb  Pb10  1  0.000002  0.000002  0.999999  1
  O  O11  1  0.847570  0.229365  0.098914  1
  O  O12  1  0.480798  0.152473  0.098974  1
  O  O13  1  0.770650  0.519210  0.098996  1
  O  O14  1  0.560267  0.541753  0.200826  1
  O  O15  1  0.182296  0.439728  0.200844  1
  O  O16  1  0.458297  0.817713  0.200831  1
  O  O17  1  0.907396  0.730154  0.271905  1
  O  O18  1  0.094620  0.092603  0.271891  1
  O  O19  1  0.269860  0.905392  0.271875  1
  O  O20  1  0.788326  0.383136  0.408750  1
  O  O21  1  0.003467  0.211649  0.408688  1
  O  O22  1  0.616869  0.996466  0.408739  1
  O  O23  1  0.383131  0.003533  0.591262  1
  O  O24  1  0.996535  0.788353  0.591312  1
  O  O25  1  0.211675  0.616864  0.591254  1
  O  O26  1  0.730140  0.094606  0.728126  1
  O  O27  1  0.905380  0.907398  0.728110  1
  O  O28  1  0.092602  0.269846  0.728095  1
  O  O29  1  0.541703  0.182286  0.799170  1
  O  O30  1  0.817703  0.560273  0.799155  1
  O  O31  1  0.439733  0.458247  0.799175  1
  O  O32  1  0.229348  0.480789  0.901005  1
  O  O33  1  0.519203  0.847527  0.901026  1
  O  O34  1  0.152429  0.770635  0.901086  1
