# generated using pymatgen
data_Sc12Re2PtBr16
_symmetry_space_group_name_H-M   'P 1'
_cell_length_a   9.01897330
_cell_length_b   11.08549267
_cell_length_c   11.71681972
_cell_angle_alpha   117.05285739
_cell_angle_beta   101.84738720
_cell_angle_gamma   101.42008499
_symmetry_Int_Tables_number   1
_chemical_formula_structural   Sc12Re2PtBr16
_chemical_formula_sum   'Sc12 Re2 Pt1 Br16'
_cell_volume   962.30764932
_cell_formula_units_Z   1
loop_
 _symmetry_equiv_pos_site_id
 _symmetry_equiv_pos_as_xyz
  1  'x, y, z'
loop_
 _atom_site_type_symbol
 _atom_site_label
 _atom_site_symmetry_multiplicity
 _atom_site_fract_x
 _atom_site_fract_y
 _atom_site_fract_z
 _atom_site_occupancy
  Sc  Sc0  1  0.082489  0.252956  0.348257  1
  Sc  Sc1  1  0.917511  0.747044  0.651743  1
  Sc  Sc2  1  0.775144  0.538051  0.317466  1
  Sc  Sc3  1  0.224856  0.461949  0.682534  1
  Sc  Sc4  1  0.285287  0.747865  0.651973  1
  Sc  Sc5  1  0.714713  0.252135  0.348027  1
  Sc  Sc6  1  0.142869  0.537948  0.318008  1
  Sc  Sc7  1  0.857131  0.462052  0.681992  1
  Sc  Sc8  1  0.401716  0.352030  0.264170  1
  Sc  Sc9  1  0.598284  0.647970  0.735830  1
  Sc  Sc10  1  0.456287  0.299249  0.521340  1
  Sc  Sc11  1  0.543713  0.700751  0.478660  1
  Re  Re12  1  0.334193  0.500188  0.499465  1
  Re  Re13  1  0.665808  0.499812  0.500535  1
  Pt  Pt14  1  0.000000  0.500000  0.500000  1
  Br  Br15  1  0.397871  0.744448  0.888820  1
  Br  Br16  1  0.602129  0.255552  0.111180  1
  Br  Br17  1  0.191968  0.973558  0.787570  1
  Br  Br18  1  0.808032  0.026442  0.212430  1
  Br  Br19  1  0.335620  0.087396  0.246460  1
  Br  Br20  1  0.664380  0.912604  0.753540  1
  Br  Br21  1  0.555328  0.437102  0.803871  1
  Br  Br22  1  0.444672  0.562898  0.196129  1
  Br  Br23  1  0.310400  0.831210  0.462311  1
  Br  Br24  1  0.689600  0.168790  0.537689  1
  Br  Br25  1  0.165886  0.167487  0.533438  1
  Br  Br26  1  0.834114  0.832513  0.466562  1
  Br  Br27  1  0.926073  0.578941  0.156781  1
  Br  Br28  1  0.073927  0.421059  0.843219  1
  Br  Br29  1  0.925592  0.742699  0.888751  1
  Br  Br30  1  0.074408  0.257301  0.111249  1
