# generated using pymatgen
data_Ho20Si12Se
_symmetry_space_group_name_H-M   'P 1'
_cell_length_a   6.35291319
_cell_length_b   8.45672168
_cell_length_c   14.72852000
_cell_angle_alpha   90.00000678
_cell_angle_beta   90.00000000
_cell_angle_gamma   89.96293578
_symmetry_Int_Tables_number   1
_chemical_formula_structural   Ho20Si12Se
_chemical_formula_sum   'Ho20 Si12 Se1'
_cell_volume   791.28690140
_cell_formula_units_Z   1
loop_
 _symmetry_equiv_pos_site_id
 _symmetry_equiv_pos_as_xyz
  1  'x, y, z'
loop_
 _atom_site_type_symbol
 _atom_site_label
 _atom_site_symmetry_multiplicity
 _atom_site_fract_x
 _atom_site_fract_y
 _atom_site_fract_z
 _atom_site_occupancy
  Ho  Ho0  1  0.500001  0.000000  0.333729  1
  Ho  Ho1  1  0.499999  0.500003  0.831199  1
  Ho  Ho2  1  0.499999  0.500003  0.168801  1
  Ho  Ho3  1  0.500001  0.000000  0.666271  1
  Ho  Ho4  1  0.999998  0.500001  0.169337  1
  Ho  Ho5  1  0.000001  0.999999  0.662698  1
  Ho  Ho6  1  0.000001  0.999999  0.337302  1
  Ho  Ho7  1  0.999998  0.500001  0.830663  1
  Ho  Ho8  1  0.761164  0.257560  0.000000  1
  Ho  Ho9  1  0.746420  0.743260  0.500000  1
  Ho  Ho10  1  0.750434  0.377335  0.380439  1
  Ho  Ho11  1  0.762172  0.870781  0.870886  1
  Ho  Ho12  1  0.762172  0.870781  0.129114  1
  Ho  Ho13  1  0.750434  0.377335  0.619561  1
  Ho  Ho14  1  0.238827  0.742439  0.000000  1
  Ho  Ho15  1  0.253586  0.256743  0.500000  1
  Ho  Ho16  1  0.237827  0.129217  0.129113  1
  Ho  Ho17  1  0.249569  0.622665  0.619561  1
  Ho  Ho18  1  0.249569  0.622665  0.380439  1
  Ho  Ho19  1  0.237827  0.129217  0.870887  1
  Si  Si20  1  0.752941  0.606471  0.000000  1
  Si  Si21  1  0.745893  0.105092  0.500000  1
  Si  Si22  1  0.754352  0.197997  0.199339  1
  Si  Si23  1  0.751515  0.696042  0.695124  1
  Si  Si24  1  0.751515  0.696042  0.304876  1
  Si  Si25  1  0.754352  0.197997  0.800661  1
  Si  Si26  1  0.247056  0.393523  0.000000  1
  Si  Si27  1  0.254110  0.894911  0.500000  1
  Si  Si28  1  0.248485  0.303958  0.304876  1
  Si  Si29  1  0.245648  0.802004  0.800661  1
  Si  Si30  1  0.245648  0.802004  0.199339  1
  Si  Si31  1  0.248485  0.303958  0.695124  1
  Se  Se32  1  0.500002  0.999998  0.000000  1
