# generated using pymatgen
data_Lu4Ga4IrRh3
_symmetry_space_group_name_H-M   'P 1'
_cell_length_a   6.69869407
_cell_length_b   4.26295200
_cell_length_c   7.74766108
_cell_angle_alpha   90.00000000
_cell_angle_beta   90.01636462
_cell_angle_gamma   90.00000000
_symmetry_Int_Tables_number   1
_chemical_formula_structural   Lu4Ga4IrRh3
_chemical_formula_sum   'Lu4 Ga4 Ir1 Rh3'
_cell_volume   221.24383764
_cell_formula_units_Z   1
loop_
 _symmetry_equiv_pos_site_id
 _symmetry_equiv_pos_as_xyz
  1  'x, y, z'
loop_
 _atom_site_type_symbol
 _atom_site_label
 _atom_site_symmetry_multiplicity
 _atom_site_fract_x
 _atom_site_fract_y
 _atom_site_fract_z
 _atom_site_occupancy
  Lu  Lu0  1  0.474112  0.250001  0.185356  1
  Lu  Lu1  1  0.974497  0.250001  0.314154  1
  Lu  Lu2  1  0.026264  0.749999  0.686336  1
  Lu  Lu3  1  0.524142  0.749999  0.814247  1
  Ga  Ga4  1  0.153208  0.749999  0.066936  1
  Ga  Ga5  1  0.653268  0.749999  0.433932  1
  Ga  Ga6  1  0.346897  0.250001  0.566157  1
  Ga  Ga7  1  0.846336  0.250001  0.933898  1
  Ir  Ir8  1  0.234834  0.250001  0.884898  1
  Rh  Rh9  1  0.765889  0.749999  0.114638  1
  Rh  Rh10  1  0.265455  0.749999  0.385643  1
  Rh  Rh11  1  0.735098  0.250001  0.613800  1
