# generated using pymatgen
data_TbTm5Co14(P3Ir)4
_symmetry_space_group_name_H-M   'P 1'
_cell_length_a   3.71349200
_cell_length_b   10.60756000
_cell_length_c   12.35080700
_cell_angle_alpha   90.00000000
_cell_angle_beta   90.00000000
_cell_angle_gamma   90.00000000
_symmetry_Int_Tables_number   1
_chemical_formula_structural   TbTm5Co14(P3Ir)4
_chemical_formula_sum   'Tb1 Tm5 Co14 P12 Ir4'
_cell_volume   486.51174022
_cell_formula_units_Z   1
loop_
 _symmetry_equiv_pos_site_id
 _symmetry_equiv_pos_as_xyz
  1  'x, y, z'
loop_
 _atom_site_type_symbol
 _atom_site_label
 _atom_site_symmetry_multiplicity
 _atom_site_fract_x
 _atom_site_fract_y
 _atom_site_fract_z
 _atom_site_occupancy
  Tb  Tb0  1  0.000000  0.500000  0.520191  1
  Tm  Tm1  1  0.500000  0.000000  0.479974  1
  Tm  Tm2  1  0.500000  0.813859  0.206127  1
  Tm  Tm3  1  0.500000  0.186141  0.206127  1
  Tm  Tm4  1  0.000000  0.686571  0.794108  1
  Tm  Tm5  1  0.000000  0.313429  0.794108  1
  Co  Co6  1  0.000000  0.500000  0.988669  1
  Co  Co7  1  0.500000  0.000000  0.011839  1
  Co  Co8  1  0.500000  0.331831  0.993318  1
  Co  Co9  1  0.500000  0.668169  0.993318  1
  Co  Co10  1  0.000000  0.167606  0.006795  1
  Co  Co11  1  0.000000  0.832394  0.006795  1
  Co  Co12  1  0.500000  0.299221  0.428469  1
  Co  Co13  1  0.500000  0.700779  0.428469  1
  Co  Co14  1  0.000000  0.199163  0.571209  1
  Co  Co15  1  0.000000  0.800837  0.571209  1
  Co  Co16  1  0.500000  0.880266  0.711203  1
  Co  Co17  1  0.500000  0.119734  0.711203  1
  Co  Co18  1  0.000000  0.620172  0.288096  1
  Co  Co19  1  0.000000  0.379828  0.288096  1
  P  P20  1  0.500000  0.500000  0.889949  1
  P  P21  1  0.000000  0.000000  0.111001  1
  P  P22  1  0.500000  0.500000  0.350058  1
  P  P23  1  0.000000  0.000000  0.648205  1
  P  P24  1  0.500000  0.302309  0.613836  1
  P  P25  1  0.500000  0.697691  0.613836  1
  P  P26  1  0.000000  0.196943  0.386531  1
  P  P27  1  0.000000  0.803057  0.386531  1
  P  P28  1  0.500000  0.844297  0.893899  1
  P  P29  1  0.500000  0.155703  0.893899  1
  P  P30  1  0.000000  0.656318  0.105944  1
  P  P31  1  0.000000  0.343682  0.105944  1
  Ir  Ir32  1  0.500000  0.500000  0.160078  1
  Ir  Ir33  1  0.000000  0.000000  0.839053  1
  Ir  Ir34  1  0.500000  0.500000  0.705066  1
  Ir  Ir35  1  0.000000  0.000000  0.296844  1
