# generated using pymatgen
data_Hf2Ta(CrP)3
_symmetry_space_group_name_H-M   'P 1'
_cell_length_a   6.57082968
_cell_length_b   6.59105531
_cell_length_c   3.35897900
_cell_angle_alpha   90.00000000
_cell_angle_beta   90.00000000
_cell_angle_gamma   120.10187327
_symmetry_Int_Tables_number   1
_chemical_formula_structural   Hf2Ta(CrP)3
_chemical_formula_sum   'Hf2 Ta1 Cr3 P3'
_cell_volume   125.85380446
_cell_formula_units_Z   1
loop_
 _symmetry_equiv_pos_site_id
 _symmetry_equiv_pos_as_xyz
  1  'x, y, z'
loop_
 _atom_site_type_symbol
 _atom_site_label
 _atom_site_symmetry_multiplicity
 _atom_site_fract_x
 _atom_site_fract_y
 _atom_site_fract_z
 _atom_site_occupancy
  Hf  Hf0  1  0.403561  0.405511  0.500000  1
  Hf  Hf1  1  0.596439  0.001950  0.500000  1
  Ta  Ta2  1  0.000000  0.596249  0.500000  1
  Cr  Cr3  1  0.246840  0.995058  0.000000  1
  Cr  Cr4  1  0.753160  0.748218  0.000000  1
  Cr  Cr5  1  0.000000  0.251481  0.000000  1
  P  P6  1  0.670799  0.337115  0.000000  1
  P  P7  1  0.329201  0.666319  0.000000  1
  P  P8  1  0.000000  0.998099  0.500000  1
