# generated using pymatgen
data_Tb2DyCu3(Ni5B)2
_symmetry_space_group_name_H-M   'P 1'
_cell_length_a   4.98047800
_cell_length_b   4.98047882
_cell_length_c   10.89324900
_cell_angle_alpha   90.00000000
_cell_angle_beta   90.00000000
_cell_angle_gamma   119.99998124
_symmetry_Int_Tables_number   1
_chemical_formula_structural   Tb2DyCu3(Ni5B)2
_chemical_formula_sum   'Tb2 Dy1 Cu3 Ni10 B2'
_cell_volume   234.00776500
_cell_formula_units_Z   1
loop_
 _symmetry_equiv_pos_site_id
 _symmetry_equiv_pos_as_xyz
  1  'x, y, z'
loop_
 _atom_site_type_symbol
 _atom_site_label
 _atom_site_symmetry_multiplicity
 _atom_site_fract_x
 _atom_site_fract_y
 _atom_site_fract_z
 _atom_site_occupancy
  Tb  Tb0  1  0.000000  0.000000  0.334168  1
  Tb  Tb1  1  0.000000  0.000000  0.669561  1
  Dy  Dy2  1  0.000000  0.000000  0.999683  1
  Cu  Cu3  1  0.333333  0.666667  0.317193  1
  Cu  Cu4  1  0.666667  0.333333  0.316926  1
  Cu  Cu5  1  0.666667  0.333333  0.683103  1
  Ni  Ni6  1  0.499578  0.999156  0.500540  1
  Ni  Ni7  1  0.499578  0.500422  0.500540  1
  Ni  Ni8  1  0.000844  0.500422  0.500540  1
  Ni  Ni9  1  0.333333  0.666667  0.681238  1
  Ni  Ni10  1  0.500077  0.000155  0.130263  1
  Ni  Ni11  1  0.500077  0.499923  0.130263  1
  Ni  Ni12  1  0.999845  0.499923  0.130263  1
  Ni  Ni13  1  0.498940  0.997879  0.868839  1
  Ni  Ni14  1  0.498940  0.501060  0.868839  1
  Ni  Ni15  1  0.002121  0.501060  0.868839  1
  B  B16  1  0.333333  0.666667  0.000006  1
  B  B17  1  0.666667  0.333333  0.999193  1
