# generated using pymatgen
data_Tm2LuB2Ir5
_symmetry_space_group_name_H-M   'P 1'
_cell_length_a   9.83527400
_cell_length_b   9.83527400
_cell_length_c   3.18591600
_cell_angle_alpha   90.00000000
_cell_angle_beta   90.00000000
_cell_angle_gamma   90.00000000
_symmetry_Int_Tables_number   1
_chemical_formula_structural   Tm2LuB2Ir5
_chemical_formula_sum   'Tm4 Lu2 B4 Ir10'
_cell_volume   308.18198475
_cell_formula_units_Z   2
loop_
 _symmetry_equiv_pos_site_id
 _symmetry_equiv_pos_as_xyz
  1  'x, y, z'
loop_
 _atom_site_type_symbol
 _atom_site_label
 _atom_site_symmetry_multiplicity
 _atom_site_fract_x
 _atom_site_fract_y
 _atom_site_fract_z
 _atom_site_occupancy
  Tm  Tm0  1  0.176604  0.676915  0.000000  1
  Tm  Tm1  1  0.323085  0.176604  0.000000  1
  Tm  Tm2  1  0.823396  0.323085  0.000000  1
  Tm  Tm3  1  0.676915  0.823396  0.000000  1
  Lu  Lu4  1  0.500000  0.500000  0.000000  1
  Lu  Lu5  1  0.000000  0.000000  0.000000  1
  B  B6  1  0.380544  0.880859  0.000000  1
  B  B7  1  0.119141  0.380544  0.000000  1
  B  B8  1  0.880859  0.619456  0.000000  1
  B  B9  1  0.619456  0.119141  0.000000  1
  Ir  Ir10  1  0.228716  0.930778  0.500000  1
  Ir  Ir11  1  0.930778  0.771284  0.500000  1
  Ir  Ir12  1  0.429716  0.729025  0.500000  1
  Ir  Ir13  1  0.570284  0.270975  0.500000  1
  Ir  Ir14  1  0.729025  0.570284  0.500000  1
  Ir  Ir15  1  0.270975  0.429716  0.500000  1
  Ir  Ir16  1  0.069222  0.228716  0.500000  1
  Ir  Ir17  1  0.000000  0.500000  0.500000  1
  Ir  Ir18  1  0.500000  0.000000  0.500000  1
  Ir  Ir19  1  0.771284  0.069222  0.500000  1
