# generated using pymatgen
data_NaSr4Bi2As
_symmetry_space_group_name_H-M   'P 1'
_cell_length_a   8.60468600
_cell_length_b   9.97069500
_cell_length_c   13.33904500
_cell_angle_alpha   90.00000000
_cell_angle_beta   90.00000000
_cell_angle_gamma   90.00000000
_symmetry_Int_Tables_number   1
_chemical_formula_structural   NaSr4Bi2As
_chemical_formula_sum   'Na4 Sr16 Bi8 As4'
_cell_volume   1144.41935975
_cell_formula_units_Z   4
loop_
 _symmetry_equiv_pos_site_id
 _symmetry_equiv_pos_as_xyz
  1  'x, y, z'
loop_
 _atom_site_type_symbol
 _atom_site_label
 _atom_site_symmetry_multiplicity
 _atom_site_fract_x
 _atom_site_fract_y
 _atom_site_fract_z
 _atom_site_occupancy
  Na  Na0  1  0.027618  0.750000  0.501996  1
  Na  Na1  1  0.972382  0.250000  0.498004  1
  Na  Na2  1  0.527618  0.250000  0.998004  1
  Na  Na3  1  0.472382  0.750000  0.001996  1
  Sr  Sr4  1  0.854150  0.750000  0.796198  1
  Sr  Sr5  1  0.145850  0.250000  0.203802  1
  Sr  Sr6  1  0.354150  0.250000  0.703802  1
  Sr  Sr7  1  0.645850  0.750000  0.296198  1
  Sr  Sr8  1  0.700992  0.510689  0.560129  1
  Sr  Sr9  1  0.299008  0.489311  0.439871  1
  Sr  Sr10  1  0.200992  0.489311  0.939871  1
  Sr  Sr11  1  0.299008  0.010689  0.439871  1
  Sr  Sr12  1  0.799008  0.510689  0.060129  1
  Sr  Sr13  1  0.700992  0.989311  0.560129  1
  Sr  Sr14  1  0.799008  0.989311  0.060129  1
  Sr  Sr15  1  0.200992  0.010689  0.939871  1
  Sr  Sr16  1  0.343191  0.750000  0.709519  1
  Sr  Sr17  1  0.656809  0.250000  0.290481  1
  Sr  Sr18  1  0.843191  0.250000  0.790481  1
  Sr  Sr19  1  0.156809  0.750000  0.209519  1
  Bi  Bi20  1  0.568042  0.503945  0.829355  1
  Bi  Bi21  1  0.431958  0.496055  0.170645  1
  Bi  Bi22  1  0.068042  0.496055  0.670645  1
  Bi  Bi23  1  0.431958  0.003945  0.170645  1
  Bi  Bi24  1  0.931958  0.503945  0.329355  1
  Bi  Bi25  1  0.568042  0.996055  0.829355  1
  Bi  Bi26  1  0.931958  0.996055  0.329355  1
  Bi  Bi27  1  0.068042  0.003945  0.670645  1
  As  As28  1  0.022298  0.750000  0.996815  1
  As  As29  1  0.977702  0.250000  0.003185  1
  As  As30  1  0.522298  0.250000  0.503185  1
  As  As31  1  0.477702  0.750000  0.496815  1
