# generated using pymatgen
data_Tm2ScGa5
_symmetry_space_group_name_H-M   'P 1'
_cell_length_a   5.95775600
_cell_length_b   9.42343000
_cell_length_c   11.27935900
_cell_angle_alpha   90.00000000
_cell_angle_beta   90.00000000
_cell_angle_gamma   90.00000000
_symmetry_Int_Tables_number   1
_chemical_formula_structural   Tm2ScGa5
_chemical_formula_sum   'Tm8 Sc4 Ga20'
_cell_volume   633.25137457
_cell_formula_units_Z   4
loop_
 _symmetry_equiv_pos_site_id
 _symmetry_equiv_pos_as_xyz
  1  'x, y, z'
loop_
 _atom_site_type_symbol
 _atom_site_label
 _atom_site_symmetry_multiplicity
 _atom_site_fract_x
 _atom_site_fract_y
 _atom_site_fract_z
 _atom_site_occupancy
  Tm  Tm0  1  0.891860  0.509830  0.352206  1
  Tm  Tm1  1  0.608140  0.990170  0.852206  1
  Tm  Tm2  1  0.108140  0.009830  0.647794  1
  Tm  Tm3  1  0.391860  0.490170  0.147794  1
  Tm  Tm4  1  0.108140  0.490170  0.647794  1
  Tm  Tm5  1  0.391860  0.009830  0.147794  1
  Tm  Tm6  1  0.891860  0.990170  0.352206  1
  Tm  Tm7  1  0.608140  0.509830  0.852206  1
  Sc  Sc8  1  0.849314  0.750000  0.074203  1
  Sc  Sc9  1  0.650686  0.750000  0.574203  1
  Sc  Sc10  1  0.150686  0.250000  0.925797  1
  Sc  Sc11  1  0.349314  0.250000  0.425797  1
  Ga  Ga12  1  0.877727  0.050464  0.089807  1
  Ga  Ga13  1  0.622273  0.449536  0.589807  1
  Ga  Ga14  1  0.122273  0.550464  0.910193  1
  Ga  Ga15  1  0.377727  0.949536  0.410193  1
  Ga  Ga16  1  0.122273  0.949536  0.910193  1
  Ga  Ga17  1  0.377727  0.550464  0.410193  1
  Ga  Ga18  1  0.877727  0.449536  0.089807  1
  Ga  Ga19  1  0.622273  0.050464  0.589807  1
  Ga  Ga20  1  0.164329  0.750000  0.248328  1
  Ga  Ga21  1  0.335671  0.750000  0.748328  1
  Ga  Ga22  1  0.835671  0.250000  0.751672  1
  Ga  Ga23  1  0.664329  0.250000  0.251672  1
  Ga  Ga24  1  0.381754  0.750000  0.004370  1
  Ga  Ga25  1  0.118246  0.750000  0.504370  1
  Ga  Ga26  1  0.618246  0.250000  0.995630  1
  Ga  Ga27  1  0.881754  0.250000  0.495630  1
  Ga  Ga28  1  0.606214  0.750000  0.295721  1
  Ga  Ga29  1  0.893786  0.750000  0.795721  1
  Ga  Ga30  1  0.393786  0.250000  0.704279  1
  Ga  Ga31  1  0.106214  0.250000  0.204279  1
