# generated using pymatgen
data_ErSc5H18
_symmetry_space_group_name_H-M   'P 1'
_cell_length_a   5.88918700
_cell_length_b   5.89100054
_cell_length_c   6.18802894
_cell_angle_alpha   90.14829563
_cell_angle_beta   90.00000000
_cell_angle_gamma   119.98983380
_symmetry_Int_Tables_number   1
_chemical_formula_structural   ErSc5H18
_chemical_formula_sum   'Er1 Sc5 H18'
_cell_volume   185.93875396
_cell_formula_units_Z   1
loop_
 _symmetry_equiv_pos_site_id
 _symmetry_equiv_pos_as_xyz
  1  'x, y, z'
loop_
 _atom_site_type_symbol
 _atom_site_label
 _atom_site_symmetry_multiplicity
 _atom_site_fract_x
 _atom_site_fract_y
 _atom_site_fract_z
 _atom_site_occupancy
  Er  Er0  1  0.334692  0.000000  0.250000  1
  Sc  Sc1  1  0.662423  0.000000  0.750000  1
  Sc  Sc2  1  0.338861  0.340391  0.749965  1
  Sc  Sc3  1  0.998470  0.659609  0.750035  1
  Sc  Sc4  1  0.663961  0.664152  0.250136  1
  Sc  Sc5  1  0.999809  0.335848  0.249864  1
  H  H6  1  0.324467  0.964439  0.900856  1
  H  H7  1  0.644451  0.676470  0.908608  1
  H  H8  1  0.031872  0.357620  0.908370  1
  H  H9  1  0.317250  0.349226  0.409880  1
  H  H10  1  0.020012  0.671045  0.414838  1
  H  H11  1  0.657043  0.967837  0.412789  1
  H  H12  1  0.689206  0.032163  0.087211  1
  H  H13  1  0.348967  0.328955  0.085162  1
  H  H14  1  0.968023  0.650774  0.090120  1
  H  H15  1  0.674253  0.642380  0.591630  1
  H  H16  1  0.967981  0.323530  0.591392  1
  H  H17  1  0.360028  0.035561  0.599144  1
  H  H18  1  0.665367  0.332166  0.810538  1
  H  H19  1  0.678296  0.345626  0.309068  1
  H  H20  1  0.332669  0.654374  0.190932  1
  H  H21  1  0.333200  0.667834  0.689462  1
  H  H22  1  0.001753  0.000000  0.750000  1
  H  H23  1  0.986946  0.000000  0.250000  1
