# generated using pymatgen
data_Pr4HgPbAu4
_symmetry_space_group_name_H-M   'P 1'
_cell_length_a   8.33328700
_cell_length_b   8.33328700
_cell_length_c   3.85461700
_cell_angle_alpha   90.00000000
_cell_angle_beta   90.00000000
_cell_angle_gamma   90.00000000
_symmetry_Int_Tables_number   1
_chemical_formula_structural   Pr4HgPbAu4
_chemical_formula_sum   'Pr4 Hg1 Pb1 Au4'
_cell_volume   267.67875950
_cell_formula_units_Z   1
loop_
 _symmetry_equiv_pos_site_id
 _symmetry_equiv_pos_as_xyz
  1  'x, y, z'
loop_
 _atom_site_type_symbol
 _atom_site_label
 _atom_site_symmetry_multiplicity
 _atom_site_fract_x
 _atom_site_fract_y
 _atom_site_fract_z
 _atom_site_occupancy
  Pr  Pr0  1  0.670902  0.175992  0.500000  1
  Pr  Pr1  1  0.329098  0.824008  0.500000  1
  Pr  Pr2  1  0.175992  0.329098  0.500000  1
  Pr  Pr3  1  0.824008  0.670902  0.500000  1
  Hg  Hg4  1  0.500000  0.500000  0.000000  1
  Pb  Pb5  1  0.000000  0.000000  0.000000  1
  Au  Au6  1  0.126930  0.621776  0.000000  1
  Au  Au7  1  0.873070  0.378224  0.000000  1
  Au  Au8  1  0.621776  0.873070  0.000000  1
  Au  Au9  1  0.378224  0.126930  0.000000  1
