# generated using pymatgen
data_Pm2Ir3W
_symmetry_space_group_name_H-M   'P 1'
_cell_length_a   5.28244913
_cell_length_b   5.28244800
_cell_length_c   5.28244866
_cell_angle_alpha   65.18206966
_cell_angle_beta   65.18207297
_cell_angle_gamma   65.18205758
_symmetry_Int_Tables_number   1
_chemical_formula_structural   Pm2Ir3W
_chemical_formula_sum   'Pm2 Ir3 W1'
_cell_volume   116.00533405
_cell_formula_units_Z   1
loop_
 _symmetry_equiv_pos_site_id
 _symmetry_equiv_pos_as_xyz
  1  'x, y, z'
loop_
 _atom_site_type_symbol
 _atom_site_label
 _atom_site_symmetry_multiplicity
 _atom_site_fract_x
 _atom_site_fract_y
 _atom_site_fract_z
 _atom_site_occupancy
  Pm  Pm0  1  0.749852  0.749852  0.749852  1
  Pm  Pm1  1  0.500148  0.500148  0.500148  1
  Ir  Ir2  1  0.625000  0.125000  0.125000  1
  Ir  Ir3  1  0.125000  0.625000  0.125000  1
  Ir  Ir4  1  0.125000  0.125000  0.625000  1
  W  W5  1  0.125000  0.125000  0.125000  1
