# generated using pymatgen
data_Tb2Dy10Co6Sb
_symmetry_space_group_name_H-M   'P 1'
_cell_length_a   8.36316271
_cell_length_b   8.36287349
_cell_length_c   8.36287400
_cell_angle_alpha   109.47527195
_cell_angle_beta   109.47087981
_cell_angle_gamma   109.46611244
_symmetry_Int_Tables_number   1
_chemical_formula_structural   Tb2Dy10Co6Sb
_chemical_formula_sum   'Tb2 Dy10 Co6 Sb1'
_cell_volume   450.26399989
_cell_formula_units_Z   1
loop_
 _symmetry_equiv_pos_site_id
 _symmetry_equiv_pos_as_xyz
  1  'x, y, z'
loop_
 _atom_site_type_symbol
 _atom_site_label
 _atom_site_symmetry_multiplicity
 _atom_site_fract_x
 _atom_site_fract_y
 _atom_site_fract_z
 _atom_site_occupancy
  Tb  Tb0  1  0.108890  0.804759  0.304131  1
  Tb  Tb1  1  0.891110  0.195241  0.695869  1
  Dy  Dy2  1  0.804527  0.695230  0.500266  1
  Dy  Dy3  1  0.195473  0.304770  0.499734  1
  Dy  Dy4  1  0.195473  0.695739  0.890704  1
  Dy  Dy5  1  0.804527  0.304261  0.109296  1
  Dy  Dy6  1  0.695195  0.500354  0.804761  1
  Dy  Dy7  1  0.304805  0.499646  0.195239  1
  Dy  Dy8  1  0.695195  0.890435  0.194843  1
  Dy  Dy9  1  0.304805  0.109565  0.805157  1
  Dy  Dy10  1  0.500365  0.804717  0.695648  1
  Dy  Dy11  1  0.499635  0.195283  0.304352  1
  Co  Co12  1  0.886545  0.386682  0.499863  1
  Co  Co13  1  0.113455  0.613318  0.500137  1
  Co  Co14  1  0.386699  0.500111  0.886588  1
  Co  Co15  1  0.613301  0.499889  0.113412  1
  Co  Co16  1  0.500000  0.886630  0.386630  1
  Co  Co17  1  0.500000  0.113370  0.613370  1
  Sb  Sb18  1  0.000000  0.000000  0.000000  1
