# generated using pymatgen
data_LaDyBe2(Re2C)2
_symmetry_space_group_name_H-M   'P 1'
_cell_length_a   5.62896033
_cell_length_b   5.62896073
_cell_length_c   7.37211200
_cell_angle_alpha   90.00000000
_cell_angle_beta   90.00000000
_cell_angle_gamma   139.39447157
_symmetry_Int_Tables_number   1
_chemical_formula_structural   LaDyBe2(Re2C)2
_chemical_formula_sum   'La1 Dy1 Be2 Re4 C2'
_cell_volume   152.02939101
_cell_formula_units_Z   1
loop_
 _symmetry_equiv_pos_site_id
 _symmetry_equiv_pos_as_xyz
  1  'x, y, z'
loop_
 _atom_site_type_symbol
 _atom_site_label
 _atom_site_symmetry_multiplicity
 _atom_site_fract_x
 _atom_site_fract_y
 _atom_site_fract_z
 _atom_site_occupancy
  La  La0  1  0.532304  0.467696  0.250000  1
  Dy  Dy1  1  0.466977  0.533023  0.750000  1
  Be  Be2  1  0.255398  0.744602  0.250000  1
  Be  Be3  1  0.743444  0.256556  0.750000  1
  Re  Re4  1  0.818381  0.181619  0.059606  1
  Re  Re5  1  0.182904  0.817096  0.933809  1
  Re  Re6  1  0.182904  0.817096  0.566191  1
  Re  Re7  1  0.818381  0.181619  0.440394  1
  C  C8  1  0.999654  0.000346  0.989902  1
  C  C9  1  0.999654  0.000346  0.510098  1
