# generated using pymatgen
data_HoTm9(Ir2Rh)2
_symmetry_space_group_name_H-M   'P 1'
_cell_length_a   10.74422516
_cell_length_b   10.74195400
_cell_length_c   6.32310309
_cell_angle_alpha   90.00000000
_cell_angle_beta   90.01953764
_cell_angle_gamma   90.00000000
_symmetry_Int_Tables_number   1
_chemical_formula_structural   HoTm9(Ir2Rh)2
_chemical_formula_sum   'Ho2 Tm18 Ir8 Rh4'
_cell_volume   729.77440326
_cell_formula_units_Z   2
loop_
 _symmetry_equiv_pos_site_id
 _symmetry_equiv_pos_as_xyz
  1  'x, y, z'
loop_
 _atom_site_type_symbol
 _atom_site_label
 _atom_site_symmetry_multiplicity
 _atom_site_fract_x
 _atom_site_fract_y
 _atom_site_fract_z
 _atom_site_occupancy
  Ho  Ho0  1  0.290200  0.088691  0.377781  1
  Ho  Ho1  1  0.290200  0.911309  0.877781  1
  Tm  Tm2  1  0.709391  0.088400  0.878341  1
  Tm  Tm3  1  0.709391  0.911600  0.378341  1
  Tm  Tm4  1  0.588751  0.790477  0.878240  1
  Tm  Tm5  1  0.588751  0.209523  0.378240  1
  Tm  Tm6  1  0.411980  0.790246  0.378318  1
  Tm  Tm7  1  0.411980  0.209754  0.878318  1
  Tm  Tm8  1  0.209332  0.411721  0.621759  1
  Tm  Tm9  1  0.209332  0.588279  0.121759  1
  Tm  Tm10  1  0.790612  0.411693  0.121630  1
  Tm  Tm11  1  0.790612  0.588307  0.621630  1
  Tm  Tm12  1  0.911638  0.709372  0.121590  1
  Tm  Tm13  1  0.911638  0.290628  0.621590  1
  Tm  Tm14  1  0.087992  0.709075  0.621438  1
  Tm  Tm15  1  0.087992  0.290925  0.121438  1
  Tm  Tm16  1  0.999570  0.999881  0.500246  1
  Tm  Tm17  1  0.999570  0.000119  0.000246  1
  Tm  Tm18  1  0.500119  0.500002  0.000171  1
  Tm  Tm19  1  0.500119  0.499998  0.500171  1
  Ir  Ir20  1  0.845960  0.154027  0.249985  1
  Ir  Ir21  1  0.845960  0.845973  0.749985  1
  Ir  Ir22  1  0.153450  0.154707  0.750726  1
  Ir  Ir23  1  0.153450  0.845293  0.250726  1
  Ir  Ir24  1  0.653967  0.345976  0.749956  1
  Ir  Ir25  1  0.653967  0.654024  0.249956  1
  Ir  Ir26  1  0.346124  0.346586  0.249672  1
  Ir  Ir27  1  0.346124  0.653414  0.749672  1
  Rh  Rh28  1  0.500982  0.999967  0.123529  1
  Rh  Rh29  1  0.500982  0.000033  0.623529  1
  Rh  Rh30  1  0.999933  0.499956  0.876619  1
  Rh  Rh31  1  0.999933  0.500044  0.376619  1
