# generated using pymatgen
data_CaYbAs4F24
_symmetry_space_group_name_H-M   'P 1'
_cell_length_a   9.63512814
_cell_length_b   9.63512766
_cell_length_c   9.63512811
_cell_angle_alpha   131.63550775
_cell_angle_beta   131.63550474
_cell_angle_gamma   70.80532147
_symmetry_Int_Tables_number   1
_chemical_formula_structural   CaYbAs4F24
_chemical_formula_sum   'Ca1 Yb1 As4 F24'
_cell_volume   489.38355430
_cell_formula_units_Z   1
loop_
 _symmetry_equiv_pos_site_id
 _symmetry_equiv_pos_as_xyz
  1  'x, y, z'
loop_
 _atom_site_type_symbol
 _atom_site_label
 _atom_site_symmetry_multiplicity
 _atom_site_fract_x
 _atom_site_fract_y
 _atom_site_fract_z
 _atom_site_occupancy
  Ca  Ca0  1  0.750000  0.250000  0.500000  1
  Yb  Yb1  1  0.000000  0.000000  0.000000  1
  As  As2  1  0.781752  0.781752  0.000000  1
  As  As3  1  0.218248  0.218248  0.000000  1
  As  As4  1  0.973667  0.473667  0.500000  1
  As  As5  1  0.526333  0.026333  0.500000  1
  F  F6  1  0.863141  0.751993  0.199943  1
  F  F7  1  0.552050  0.663198  0.800057  1
  F  F8  1  0.416740  0.794452  0.307688  1
  F  F9  1  0.336802  0.136859  0.888853  1
  F  F10  1  0.248007  0.447950  0.111147  1
  F  F11  1  0.205548  0.513235  0.622287  1
  F  F12  1  0.644313  0.260129  0.681327  1
  F  F13  1  0.739871  0.421198  0.384185  1
  F  F14  1  0.037014  0.355687  0.615815  1
  F  F15  1  0.093166  0.278225  0.106409  1
  F  F16  1  0.171816  0.986756  0.893591  1
  F  F17  1  0.578802  0.962986  0.318673  1
  F  F18  1  0.721775  0.828184  0.814942  1
  F  F19  1  0.013244  0.906834  0.185058  1
  F  F20  1  0.306212  0.079225  0.326038  1
  F  F21  1  0.920775  0.246813  0.226988  1
  F  F22  1  0.019826  0.693788  0.773012  1
  F  F23  1  0.435615  0.277004  0.281978  1
  F  F24  1  0.995026  0.153636  0.718022  1
  F  F25  1  0.753187  0.980174  0.673962  1
  F  F26  1  0.722996  0.004974  0.158610  1
  F  F27  1  0.846364  0.564385  0.841390  1
  F  F28  1  0.486765  0.109051  0.692312  1
  F  F29  1  0.890949  0.583260  0.377713  1
