# generated using pymatgen
data_Mg4Al2Pd7Pt3
_symmetry_space_group_name_H-M   'P 1'
_cell_length_a   4.14190100
_cell_length_b   5.52043401
_cell_length_c   10.78554301
_cell_angle_alpha   89.99506567
_cell_angle_beta   90.00000000
_cell_angle_gamma   90.00000000
_symmetry_Int_Tables_number   1
_chemical_formula_structural   Mg4Al2Pd7Pt3
_chemical_formula_sum   'Mg4 Al2 Pd7 Pt3'
_cell_volume   246.61242286
_cell_formula_units_Z   1
loop_
 _symmetry_equiv_pos_site_id
 _symmetry_equiv_pos_as_xyz
  1  'x, y, z'
loop_
 _atom_site_type_symbol
 _atom_site_label
 _atom_site_symmetry_multiplicity
 _atom_site_fract_x
 _atom_site_fract_y
 _atom_site_fract_z
 _atom_site_occupancy
  Mg  Mg0  1  0.500000  0.165468  0.359251  1
  Mg  Mg1  1  0.500000  0.835084  0.640431  1
  Mg  Mg2  1  0.500000  0.665491  0.140508  1
  Mg  Mg3  1  0.500000  0.334050  0.859807  1
  Al  Al4  1  0.000000  0.999927  0.000033  1
  Al  Al5  1  0.000000  0.501205  0.499641  1
  Pd  Pd6  1  0.500000  0.321385  0.606180  1
  Pd  Pd7  1  0.000000  0.001451  0.500000  1
  Pd  Pd8  1  0.000000  0.499608  0.999798  1
  Pd  Pd9  1  0.000000  0.913311  0.239110  1
  Pd  Pd10  1  0.000000  0.086996  0.760780  1
  Pd  Pd11  1  0.000000  0.413136  0.261282  1
  Pd  Pd12  1  0.000000  0.586503  0.738017  1
  Pt  Pt13  1  0.500000  0.177911  0.105503  1
  Pt  Pt14  1  0.500000  0.821627  0.894256  1
  Pt  Pt15  1  0.500000  0.676846  0.395403  1
