# generated using pymatgen
data_Pr2Ga3Cu7
_symmetry_space_group_name_H-M   'P 1'
_cell_length_a   4.21084200
_cell_length_b   5.16431816
_cell_length_c   8.98952103
_cell_angle_alpha   89.39397038
_cell_angle_beta   90.00000000
_cell_angle_gamma   90.00000000
_symmetry_Int_Tables_number   1
_chemical_formula_structural   Pr2Ga3Cu7
_chemical_formula_sum   'Pr2 Ga3 Cu7'
_cell_volume   195.47633824
_cell_formula_units_Z   1
loop_
 _symmetry_equiv_pos_site_id
 _symmetry_equiv_pos_as_xyz
  1  'x, y, z'
loop_
 _atom_site_type_symbol
 _atom_site_label
 _atom_site_symmetry_multiplicity
 _atom_site_fract_x
 _atom_site_fract_y
 _atom_site_fract_z
 _atom_site_occupancy
  Pr  Pr0  1  0.000000  0.250365  0.750675  1
  Pr  Pr1  1  0.000000  0.749635  0.249325  1
  Ga  Ga2  1  0.500000  0.741423  0.744349  1
  Ga  Ga3  1  0.500000  0.258577  0.255651  1
  Ga  Ga4  1  0.500000  0.000000  0.000000  1
  Cu  Cu5  1  0.000000  0.253265  0.083219  1
  Cu  Cu6  1  0.000000  0.750269  0.581316  1
  Cu  Cu7  1  0.000000  0.746735  0.916781  1
  Cu  Cu8  1  0.000000  0.249731  0.418684  1
  Cu  Cu9  1  0.500000  0.500000  0.500000  1
  Cu  Cu10  1  0.500000  0.500000  0.000000  1
  Cu  Cu11  1  0.500000  0.000000  0.500000  1
