# generated using pymatgen
data_LiYThSi3Ag
_symmetry_space_group_name_H-M   'P 1'
_cell_length_a   9.30594600
_cell_length_b   9.30594648
_cell_length_c   7.09525200
_cell_angle_alpha   90.00000000
_cell_angle_beta   90.00000000
_cell_angle_gamma   153.38088482
_symmetry_Int_Tables_number   1
_chemical_formula_structural   LiYThSi3Ag
_chemical_formula_sum   'Li2 Y2 Th2 Si6 Ag2'
_cell_volume   275.31034582
_cell_formula_units_Z   2
loop_
 _symmetry_equiv_pos_site_id
 _symmetry_equiv_pos_as_xyz
  1  'x, y, z'
loop_
 _atom_site_type_symbol
 _atom_site_label
 _atom_site_symmetry_multiplicity
 _atom_site_fract_x
 _atom_site_fract_y
 _atom_site_fract_z
 _atom_site_occupancy
  Li  Li0  1  0.807956  0.192044  0.937779  1
  Li  Li1  1  0.807956  0.192044  0.562221  1
  Y  Y2  1  0.350601  0.649399  0.250000  1
  Y  Y3  1  0.650941  0.349059  0.750000  1
  Th  Th4  1  0.553073  0.446927  0.250000  1
  Th  Th5  1  0.447889  0.552111  0.750000  1
  Si  Si6  1  0.725340  0.274660  0.250000  1
  Si  Si7  1  0.277222  0.722778  0.750000  1
  Si  Si8  1  0.057394  0.942606  0.925812  1
  Si  Si9  1  0.940201  0.059799  0.066578  1
  Si  Si10  1  0.940201  0.059799  0.433422  1
  Si  Si11  1  0.057394  0.942606  0.574188  1
  Ag  Ag12  1  0.191913  0.808087  0.049791  1
  Ag  Ag13  1  0.191913  0.808087  0.450209  1
