# generated using pymatgen
data_Lu3ZnSn3RuRh
_symmetry_space_group_name_H-M   'P 1'
_cell_length_a   7.56606900
_cell_length_b   7.56606878
_cell_length_c   3.79569400
_cell_angle_alpha   90.00000000
_cell_angle_beta   90.00000000
_cell_angle_gamma   119.99999657
_symmetry_Int_Tables_number   1
_chemical_formula_structural   Lu3ZnSn3RuRh
_chemical_formula_sum   'Lu3 Zn1 Sn3 Ru1 Rh1'
_cell_volume   188.17521584
_cell_formula_units_Z   1
loop_
 _symmetry_equiv_pos_site_id
 _symmetry_equiv_pos_as_xyz
  1  'x, y, z'
loop_
 _atom_site_type_symbol
 _atom_site_label
 _atom_site_symmetry_multiplicity
 _atom_site_fract_x
 _atom_site_fract_y
 _atom_site_fract_z
 _atom_site_occupancy
  Lu  Lu0  1  0.387461  0.405638  0.500000  1
  Lu  Lu1  1  0.594362  0.981823  0.500000  1
  Lu  Lu2  1  0.018177  0.612539  0.500000  1
  Zn  Zn3  1  0.666667  0.333333  0.000000  1
  Sn  Sn4  1  0.736749  0.733832  0.000000  1
  Sn  Sn5  1  0.266168  0.002918  0.000000  1
  Sn  Sn6  1  0.997082  0.263251  0.000000  1
  Ru  Ru7  1  0.000000  0.000000  0.500000  1
  Rh  Rh8  1  0.333333  0.666667  0.000000  1
