# generated using pymatgen
data_Ac2ZrPa3N8
_symmetry_space_group_name_H-M   'P 1'
_cell_length_a   7.16323107
_cell_length_b   6.96468874
_cell_length_c   6.96459799
_cell_angle_alpha   118.12704741
_cell_angle_beta   89.98131578
_cell_angle_gamma   120.96911304
_symmetry_Int_Tables_number   1
_chemical_formula_structural   Ac2ZrPa3N8
_chemical_formula_sum   'Ac2 Zr1 Pa3 N8'
_cell_volume   248.89626013
_cell_formula_units_Z   1
loop_
 _symmetry_equiv_pos_site_id
 _symmetry_equiv_pos_as_xyz
  1  'x, y, z'
loop_
 _atom_site_type_symbol
 _atom_site_label
 _atom_site_symmetry_multiplicity
 _atom_site_fract_x
 _atom_site_fract_y
 _atom_site_fract_z
 _atom_site_occupancy
  Ac  Ac0  1  0.997449  0.994914  0.002585  1
  Ac  Ac1  1  0.752552  0.505086  0.247415  1
  Zr  Zr2  1  0.375000  0.750000  0.624999  1
  Pa  Pa3  1  0.375000  0.750000  0.125000  1
  Pa  Pa4  1  0.375000  0.249999  0.624999  1
  Pa  Pa5  1  0.874999  0.249999  0.625000  1
  N  N6  1  0.604557  0.209216  0.395144  1
  N  N7  1  0.186800  0.792154  0.394709  1
  N  N8  1  0.605388  0.792169  0.394886  1
  N  N9  1  0.144685  0.289590  0.436769  1
  N  N10  1  0.605314  0.210411  0.813231  1
  N  N11  1  0.144612  0.707830  0.855112  1
  N  N12  1  0.145444  0.290785  0.854856  1
  N  N13  1  0.563200  0.707845  0.855291  1
