# generated using pymatgen
data_Zr4Fe3CoSi3Ge
_symmetry_space_group_name_H-M   'P 1'
_cell_length_a   3.97992200
_cell_length_b   6.48272549
_cell_length_c   7.06969503
_cell_angle_alpha   90.20667189
_cell_angle_beta   90.00000000
_cell_angle_gamma   90.00000000
_symmetry_Int_Tables_number   1
_chemical_formula_structural   Zr4Fe3CoSi3Ge
_chemical_formula_sum   'Zr4 Fe3 Co1 Si3 Ge1'
_cell_volume   182.40218933
_cell_formula_units_Z   1
loop_
 _symmetry_equiv_pos_site_id
 _symmetry_equiv_pos_as_xyz
  1  'x, y, z'
loop_
 _atom_site_type_symbol
 _atom_site_label
 _atom_site_symmetry_multiplicity
 _atom_site_fract_x
 _atom_site_fract_y
 _atom_site_fract_z
 _atom_site_occupancy
  Zr  Zr0  1  0.250000  0.992931  0.298739  1
  Zr  Zr1  1  0.250000  0.498010  0.196606  1
  Zr  Zr2  1  0.750000  0.994598  0.700213  1
  Zr  Zr3  1  0.750000  0.504849  0.802821  1
  Fe  Fe4  1  0.250000  0.153122  0.939817  1
  Fe  Fe5  1  0.250000  0.659391  0.568578  1
  Fe  Fe6  1  0.750000  0.848390  0.068322  1
  Co  Co7  1  0.750000  0.352816  0.424280  1
  Si  Si8  1  0.250000  0.789567  0.898715  1
  Si  Si9  1  0.750000  0.711552  0.394107  1
  Si  Si10  1  0.750000  0.210745  0.102253  1
  Ge  Ge11  1  0.250000  0.284030  0.605550  1
