# generated using pymatgen
data_Na4Ni17(P4W)3
_symmetry_space_group_name_H-M   'P 1'
_cell_length_a   3.64881400
_cell_length_b   10.48699069
_cell_length_c   11.99143547
_cell_angle_alpha   89.69494141
_cell_angle_beta   90.00000000
_cell_angle_gamma   90.00000000
_symmetry_Int_Tables_number   1
_chemical_formula_structural   Na4Ni17(P4W)3
_chemical_formula_sum   'Na4 Ni17 P12 W3'
_cell_volume   458.84671490
_cell_formula_units_Z   1
loop_
 _symmetry_equiv_pos_site_id
 _symmetry_equiv_pos_as_xyz
  1  'x, y, z'
loop_
 _atom_site_type_symbol
 _atom_site_label
 _atom_site_symmetry_multiplicity
 _atom_site_fract_x
 _atom_site_fract_y
 _atom_site_fract_z
 _atom_site_occupancy
  Na  Na0  1  0.250000  0.579894  0.703162  1
  Na  Na1  1  0.250000  0.917473  0.206335  1
  Na  Na2  1  0.750000  0.415991  0.296396  1
  Na  Na3  1  0.750000  0.082652  0.792941  1
  Ni  Ni4  1  0.750000  0.214602  0.510990  1
  Ni  Ni5  1  0.250000  0.405873  0.487265  1
  Ni  Ni6  1  0.250000  0.091444  0.987302  1
  Ni  Ni7  1  0.750000  0.589300  0.512508  1
  Ni  Ni8  1  0.750000  0.909495  0.012942  1
  Ni  Ni9  1  0.250000  0.217276  0.178783  1
  Ni  Ni10  1  0.250000  0.278474  0.674528  1
  Ni  Ni11  1  0.750000  0.781412  0.822471  1
  Ni  Ni12  1  0.750000  0.718578  0.323751  1
  Ni  Ni13  1  0.250000  0.887438  0.701953  1
  Ni  Ni14  1  0.250000  0.615330  0.203748  1
  Ni  Ni15  1  0.750000  0.119595  0.301946  1
  Ni  Ni16  1  0.750000  0.383998  0.794812  1
  Ni  Ni17  1  0.250000  0.465576  0.930682  1
  Ni  Ni18  1  0.250000  0.037083  0.430928  1
  Ni  Ni19  1  0.750000  0.533341  0.069297  1
  Ni  Ni20  1  0.750000  0.969804  0.569182  1
  P  P21  1  0.250000  0.417551  0.116676  1
  P  P22  1  0.250000  0.083958  0.612202  1
  P  P23  1  0.750000  0.581077  0.882988  1
  P  P24  1  0.750000  0.917406  0.385109  1
  P  P25  1  0.250000  0.265947  0.863430  1
  P  P26  1  0.250000  0.234176  0.369823  1
  P  P27  1  0.750000  0.733053  0.135576  1
  P  P28  1  0.750000  0.766344  0.634255  1
  P  P29  1  0.250000  0.594047  0.390451  1
  P  P30  1  0.250000  0.905578  0.889517  1
  P  P31  1  0.750000  0.398514  0.607003  1
  P  P32  1  0.750000  0.096377  0.111887  1
  W  W33  1  0.250000  0.708008  0.988777  1
  W  W34  1  0.250000  0.791305  0.490416  1
  W  W35  1  0.750000  0.292028  0.009968  1
