# generated using pymatgen
data_Ti12Al8CoIr3N4
_symmetry_space_group_name_H-M   'P 1'
_cell_length_a   8.13086283
_cell_length_b   8.11448244
_cell_length_c   8.13086300
_cell_angle_alpha   59.93320414
_cell_angle_beta   60.00000336
_cell_angle_gamma   59.93320301
_symmetry_Int_Tables_number   1
_chemical_formula_structural   Ti12Al8CoIr3N4
_chemical_formula_sum   'Ti12 Al8 Co1 Ir3 N4'
_cell_volume   378.94824632
_cell_formula_units_Z   1
loop_
 _symmetry_equiv_pos_site_id
 _symmetry_equiv_pos_as_xyz
  1  'x, y, z'
loop_
 _atom_site_type_symbol
 _atom_site_label
 _atom_site_symmetry_multiplicity
 _atom_site_fract_x
 _atom_site_fract_y
 _atom_site_fract_z
 _atom_site_occupancy
  Ti  Ti0  1  0.814527  0.814646  0.185413  1
  Ti  Ti1  1  0.064587  0.435354  0.435473  1
  Ti  Ti2  1  0.435032  0.063954  0.065981  1
  Ti  Ti3  1  0.065981  0.063954  0.435032  1
  Ti  Ti4  1  0.064587  0.435354  0.064587  1
  Ti  Ti5  1  0.435032  0.063954  0.435032  1
  Ti  Ti6  1  0.185413  0.814646  0.185413  1
  Ti  Ti7  1  0.185413  0.814646  0.814527  1
  Ti  Ti8  1  0.814968  0.186046  0.184019  1
  Ti  Ti9  1  0.814968  0.186046  0.814968  1
  Ti  Ti10  1  0.435473  0.435354  0.064587  1
  Ti  Ti11  1  0.184019  0.186046  0.814968  1
  Al  Al12  1  0.415335  0.753992  0.415335  1
  Al  Al13  1  0.830131  0.843121  0.496620  1
  Al  Al14  1  0.496620  0.843121  0.830131  1
  Al  Al15  1  0.830131  0.843121  0.830131  1
  Al  Al16  1  0.753380  0.406879  0.419869  1
  Al  Al17  1  0.419869  0.406879  0.419869  1
  Al  Al18  1  0.419869  0.406879  0.753380  1
  Al  Al19  1  0.834665  0.496008  0.834665  1
  Co  Co20  1  0.625000  0.125000  0.625000  1
  Ir  Ir21  1  0.625000  0.625000  0.125000  1
  Ir  Ir22  1  0.125000  0.625000  0.625000  1
  Ir  Ir23  1  0.625000  0.625000  0.625000  1
  N  N24  1  0.125000  0.625000  0.125000  1
  N  N25  1  0.125000  0.125000  0.625000  1
  N  N26  1  0.625000  0.125000  0.125000  1
  N  N27  1  0.125000  0.125000  0.125000  1
