# generated using pymatgen
data_Ac2Mn2Se2O3
_symmetry_space_group_name_H-M   'P 1'
_cell_length_a   10.15738302
_cell_length_b   4.27113738
_cell_length_c   4.27132100
_cell_angle_alpha   89.99951820
_cell_angle_beta   102.13853121
_cell_angle_gamma   102.13795963
_symmetry_Int_Tables_number   1
_chemical_formula_structural   Ac2Mn2Se2O3
_chemical_formula_sum   'Ac2 Mn2 Se2 O3'
_cell_volume   176.92257778
_cell_formula_units_Z   1
loop_
 _symmetry_equiv_pos_site_id
 _symmetry_equiv_pos_as_xyz
  1  'x, y, z'
loop_
 _atom_site_type_symbol
 _atom_site_label
 _atom_site_symmetry_multiplicity
 _atom_site_fract_x
 _atom_site_fract_y
 _atom_site_fract_z
 _atom_site_occupancy
  Ac  Ac0  1  0.630448  0.315227  0.315225  1
  Ac  Ac1  1  0.369552  0.684772  0.684776  1
  Mn  Mn2  1  0.000000  0.499999  0.000000  1
  Mn  Mn3  1  0.000000  0.000000  0.500001  1
  Se  Se4  1  0.194251  0.097072  0.097071  1
  Se  Se5  1  0.805749  0.902927  0.902930  1
  O  O6  1  0.499997  0.749999  0.250000  1
  O  O7  1  0.000000  0.499999  0.500001  1
  O  O8  1  0.500003  0.250000  0.750001  1
