# generated using pymatgen
data_Er10Zn3CuBi2
_symmetry_space_group_name_H-M   'P 1'
_cell_length_a   8.57956321
_cell_length_b   8.57956189
_cell_length_c   8.53641640
_cell_angle_alpha   123.93921660
_cell_angle_beta   123.93920612
_cell_angle_gamma   83.62642333
_symmetry_Int_Tables_number   1
_chemical_formula_structural   Er10Zn3CuBi2
_chemical_formula_sum   'Er10 Zn3 Cu1 Bi2'
_cell_volume   413.69359187
_cell_formula_units_Z   1
loop_
 _symmetry_equiv_pos_site_id
 _symmetry_equiv_pos_as_xyz
  1  'x, y, z'
loop_
 _atom_site_type_symbol
 _atom_site_label
 _atom_site_symmetry_multiplicity
 _atom_site_fract_x
 _atom_site_fract_y
 _atom_site_fract_z
 _atom_site_occupancy
  Er  Er0  1  0.000376  0.999149  0.999525  1
  Er  Er1  1  0.499149  0.500376  0.999525  1
  Er  Er2  1  0.793605  0.293605  0.804498  1
  Er  Er3  1  0.294652  0.495426  0.506431  1
  Er  Er4  1  0.995426  0.794652  0.506431  1
  Er  Er5  1  0.711780  0.511005  0.506431  1
  Er  Er6  1  0.011005  0.211780  0.506431  1
  Er  Er7  1  0.510893  0.010893  0.804498  1
  Er  Er8  1  0.202337  0.702337  0.184618  1
  Er  Er9  1  0.482281  0.982281  0.184618  1
  Zn  Zn10  1  0.862416  0.362416  0.224831  1
  Zn  Zn11  1  0.359617  0.140183  0.499800  1
  Zn  Zn12  1  0.640183  0.859617  0.499800  1
  Cu  Cu13  1  0.131697  0.631697  0.763393  1
  Bi  Bi14  1  0.252292  0.252292  0.004584  1
  Bi  Bi15  1  0.752292  0.752292  0.004584  1
