# generated using pymatgen
data_Ta4Cu4Si4Mo
_symmetry_space_group_name_H-M   'P 1'
_cell_length_a   7.37433847
_cell_length_b   7.37433856
_cell_length_c   7.37433876
_cell_angle_alpha   93.48251333
_cell_angle_beta   93.48250541
_cell_angle_gamma   151.46342641
_symmetry_Int_Tables_number   1
_chemical_formula_structural   Ta4Cu4Si4Mo
_chemical_formula_sum   'Ta4 Cu4 Si4 Mo1'
_cell_volume   185.66683842
_cell_formula_units_Z   1
loop_
 _symmetry_equiv_pos_site_id
 _symmetry_equiv_pos_as_xyz
  1  'x, y, z'
loop_
 _atom_site_type_symbol
 _atom_site_label
 _atom_site_symmetry_multiplicity
 _atom_site_fract_x
 _atom_site_fract_y
 _atom_site_fract_z
 _atom_site_occupancy
  Ta  Ta0  1  0.127262  0.804686  0.931948  1
  Ta  Ta1  1  0.195314  0.127262  0.322576  1
  Ta  Ta2  1  0.804686  0.872738  0.677424  1
  Ta  Ta3  1  0.872738  0.195314  0.068052  1
  Cu  Cu4  1  0.395274  0.916620  0.311895  1
  Cu  Cu5  1  0.604726  0.083380  0.688105  1
  Cu  Cu6  1  0.916620  0.604726  0.521346  1
  Cu  Cu7  1  0.083380  0.395274  0.478654  1
  Si  Si8  1  0.250160  0.559422  0.809582  1
  Si  Si9  1  0.440578  0.250160  0.690739  1
  Si  Si10  1  0.559422  0.749840  0.309261  1
  Si  Si11  1  0.749840  0.440578  0.190418  1
  Mo  Mo12  1  0.500000  0.500000  0.000000  1
