# generated using pymatgen
data_Tb7Th3(Sn3C)2
_symmetry_space_group_name_H-M   'P 1'
_cell_length_a   9.16337567
_cell_length_b   9.13592248
_cell_length_c   6.57900000
_cell_angle_alpha   90.00000000
_cell_angle_beta   90.00000000
_cell_angle_gamma   120.37658925
_symmetry_Int_Tables_number   1
_chemical_formula_structural   Tb7Th3(Sn3C)2
_chemical_formula_sum   'Tb7 Th3 Sn6 C2'
_cell_volume   475.15776545
_cell_formula_units_Z   1
loop_
 _symmetry_equiv_pos_site_id
 _symmetry_equiv_pos_as_xyz
  1  'x, y, z'
loop_
 _atom_site_type_symbol
 _atom_site_label
 _atom_site_symmetry_multiplicity
 _atom_site_fract_x
 _atom_site_fract_y
 _atom_site_fract_z
 _atom_site_occupancy
  Tb  Tb0  1  0.332892  0.666707  0.500707  1
  Tb  Tb1  1  0.666734  0.332630  0.500706  1
  Tb  Tb2  1  0.666734  0.332630  0.999294  1
  Tb  Tb3  1  0.332892  0.666707  0.999293  1
  Tb  Tb4  1  0.219264  0.002156  0.750000  1
  Tb  Tb5  1  0.779482  0.000526  0.250000  1
  Tb  Tb6  1  0.001509  0.218482  0.750000  1
  Th  Th7  1  0.998657  0.781490  0.250000  1
  Th  Th8  1  0.783881  0.784410  0.750000  1
  Th  Th9  1  0.216459  0.218569  0.250000  1
  Sn  Sn10  1  0.597018  0.002434  0.750000  1
  Sn  Sn11  1  0.408648  0.000808  0.250000  1
  Sn  Sn12  1  0.002496  0.596465  0.750000  1
  Sn  Sn13  1  0.997992  0.403354  0.250000  1
  Sn  Sn14  1  0.401438  0.401197  0.750000  1
  Sn  Sn15  1  0.593792  0.596798  0.250000  1
  C  C16  1  0.000056  0.997319  0.497981  1
  C  C17  1  0.000056  0.997319  0.002019  1
