# generated using pymatgen
data_K2Cd2(SiO3)3
_symmetry_space_group_name_H-M   'P 1'
_cell_length_a   7.27361100
_cell_length_b   6.63028582
_cell_length_c   12.03474016
_cell_angle_alpha   60.81128806
_cell_angle_beta   90.00000000
_cell_angle_gamma   90.00000000
_symmetry_Int_Tables_number   1
_chemical_formula_structural   K2Cd2(SiO3)3
_chemical_formula_sum   'K4 Cd4 Si6 O18'
_cell_volume   506.68999004
_cell_formula_units_Z   2
loop_
 _symmetry_equiv_pos_site_id
 _symmetry_equiv_pos_as_xyz
  1  'x, y, z'
loop_
 _atom_site_type_symbol
 _atom_site_label
 _atom_site_symmetry_multiplicity
 _atom_site_fract_x
 _atom_site_fract_y
 _atom_site_fract_z
 _atom_site_occupancy
  K  K0  1  0.408901  0.444603  0.770812  1
  K  K1  1  0.591099  0.444603  0.270812  1
  K  K2  1  0.664227  0.834211  0.894386  1
  K  K3  1  0.335773  0.834211  0.394386  1
  Cd  Cd4  1  0.831963  0.877142  0.589578  1
  Cd  Cd5  1  0.168037  0.877142  0.089578  1
  Cd  Cd6  1  0.927487  0.340662  0.855905  1
  Cd  Cd7  1  0.072513  0.340662  0.355905  1
  Si  Si8  1  0.585266  0.111377  0.093596  1
  Si  Si9  1  0.414734  0.111377  0.593596  1
  Si  Si10  1  0.255752  0.432971  0.046423  1
  Si  Si11  1  0.744248  0.432971  0.546423  1
  Si  Si12  1  0.132271  0.872426  0.817890  1
  Si  Si13  1  0.867729  0.872426  0.317890  1
  O  O14  1  0.837078  0.487773  0.650995  1
  O  O15  1  0.162922  0.487773  0.150995  1
  O  O16  1  0.467335  0.329680  0.095272  1
  O  O17  1  0.532665  0.329680  0.595272  1
  O  O18  1  0.461289  0.878497  0.149391  1
  O  O19  1  0.538711  0.878497  0.649391  1
  O  O20  1  0.030694  0.982614  0.896567  1
  O  O21  1  0.969306  0.982614  0.396567  1
  O  O22  1  0.852324  0.266919  0.504406  1
  O  O23  1  0.147676  0.266919  0.004406  1
  O  O24  1  0.660938  0.199557  0.950641  1
  O  O25  1  0.339062  0.199557  0.450641  1
  O  O26  1  0.987984  0.734139  0.775227  1
  O  O27  1  0.012016  0.734139  0.275227  1
  O  O28  1  0.293349  0.686025  0.913288  1
  O  O29  1  0.706651  0.686025  0.413288  1
  O  O30  1  0.752060  0.075300  0.197063  1
  O  O31  1  0.247940  0.075300  0.697063  1
