# generated using pymatgen
data_Nb3Co2AsN
_symmetry_space_group_name_H-M   'P 1'
_cell_length_a   8.03085017
_cell_length_b   8.02926718
_cell_length_c   8.02754303
_cell_angle_alpha   60.00025579
_cell_angle_beta   60.00917495
_cell_angle_gamma   60.02355403
_symmetry_Int_Tables_number   1
_chemical_formula_structural   Nb3Co2AsN
_chemical_formula_sum   'Nb12 Co8 As4 N4'
_cell_volume   366.11142513
_cell_formula_units_Z   4
loop_
 _symmetry_equiv_pos_site_id
 _symmetry_equiv_pos_as_xyz
  1  'x, y, z'
loop_
 _atom_site_type_symbol
 _atom_site_label
 _atom_site_symmetry_multiplicity
 _atom_site_fract_x
 _atom_site_fract_y
 _atom_site_fract_z
 _atom_site_occupancy
  Nb  Nb0  1  0.801549  0.801535  0.198436  1
  Nb  Nb1  1  0.198419  0.198373  0.801613  1
  Nb  Nb2  1  0.801550  0.198533  0.801608  1
  Nb  Nb3  1  0.198585  0.801536  0.198274  1
  Nb  Nb4  1  0.198584  0.801481  0.801644  1
  Nb  Nb5  1  0.801583  0.198544  0.198286  1
  Nb  Nb6  1  0.448435  0.448466  0.051599  1
  Nb  Nb7  1  0.051626  0.051557  0.448390  1
  Nb  Nb8  1  0.448427  0.051480  0.448406  1
  Nb  Nb9  1  0.051447  0.448448  0.051695  1
  Nb  Nb10  1  0.051489  0.448504  0.448347  1
  Nb  Nb11  1  0.448400  0.051431  0.051713  1
  Co  Co12  1  0.750645  0.416373  0.416501  1
  Co  Co13  1  0.416440  0.750576  0.416518  1
  Co  Co14  1  0.416419  0.416473  0.750595  1
  Co  Co15  1  0.416419  0.416431  0.416568  1
  Co  Co16  1  0.499461  0.833604  0.833450  1
  Co  Co17  1  0.833568  0.499438  0.833475  1
  Co  Co18  1  0.833566  0.833562  0.499365  1
  Co  Co19  1  0.833587  0.833614  0.833440  1
  As  As20  1  0.125070  0.624964  0.624974  1
  As  As21  1  0.624911  0.125012  0.625040  1
  As  As22  1  0.624924  0.625032  0.125004  1
  As  As23  1  0.624939  0.625031  0.625034  1
  N  N24  1  0.624992  0.124989  0.125020  1
  N  N25  1  0.124981  0.625034  0.124995  1
  N  N26  1  0.124998  0.124995  0.625000  1
  N  N27  1  0.124986  0.124984  0.125010  1
