# generated using pymatgen
data_SrCe(CuH4)2
_symmetry_space_group_name_H-M   'P 1'
_cell_length_a   6.32697357
_cell_length_b   6.32697285
_cell_length_c   5.03458400
_cell_angle_alpha   90.00000000
_cell_angle_beta   90.00000000
_cell_angle_gamma   145.04549669
_symmetry_Int_Tables_number   1
_chemical_formula_structural   SrCe(CuH4)2
_chemical_formula_sum   'Sr1 Ce1 Cu2 H8'
_cell_volume   115.46595665
_cell_formula_units_Z   1
loop_
 _symmetry_equiv_pos_site_id
 _symmetry_equiv_pos_as_xyz
  1  'x, y, z'
loop_
 _atom_site_type_symbol
 _atom_site_label
 _atom_site_symmetry_multiplicity
 _atom_site_fract_x
 _atom_site_fract_y
 _atom_site_fract_z
 _atom_site_occupancy
  Sr  Sr0  1  0.865099  0.134902  0.750001  1
  Ce  Ce1  1  0.128771  0.871230  0.250000  1
  Cu  Cu2  1  0.403344  0.596658  0.250000  1
  Cu  Cu3  1  0.595641  0.404361  0.750001  1
  H  H4  1  0.505388  0.494614  0.012541  1
  H  H5  1  0.299554  0.700447  0.024402  1
  H  H6  1  0.927833  0.072169  0.250000  1
  H  H7  1  0.299554  0.700447  0.475597  1
  H  H8  1  0.505388  0.494614  0.487458  1
  H  H9  1  0.686945  0.313056  0.488496  1
  H  H10  1  0.095546  0.904456  0.750001  1
  H  H11  1  0.686945  0.313056  0.011504  1
