# generated using pymatgen
data_Ba2LiMn11O24
_symmetry_space_group_name_H-M   'P 1'
_cell_length_a   7.14317179
_cell_length_b   7.20829755
_cell_length_c   8.85069094
_cell_angle_alpha   101.92817540
_cell_angle_beta   101.98115046
_cell_angle_gamma   87.30203378
_symmetry_Int_Tables_number   1
_chemical_formula_structural   Ba2LiMn11O24
_chemical_formula_sum   'Ba2 Li1 Mn11 O24'
_cell_volume   436.16554966
_cell_formula_units_Z   1
loop_
 _symmetry_equiv_pos_site_id
 _symmetry_equiv_pos_as_xyz
  1  'x, y, z'
loop_
 _atom_site_type_symbol
 _atom_site_label
 _atom_site_symmetry_multiplicity
 _atom_site_fract_x
 _atom_site_fract_y
 _atom_site_fract_z
 _atom_site_occupancy
  Ba  Ba0  1  0.002553  0.997779  0.214767  1
  Ba  Ba1  1  0.019791  0.010841  0.793466  1
  Li  Li2  1  0.495267  0.193618  0.947414  1
  Mn  Mn3  1  0.488331  0.184065  0.616787  1
  Mn  Mn4  1  0.486858  0.182365  0.273806  1
  Mn  Mn5  1  0.181853  0.512671  0.110928  1
  Mn  Mn6  1  0.186368  0.519269  0.451298  1
  Mn  Mn7  1  0.181828  0.516494  0.785713  1
  Mn  Mn8  1  0.810674  0.479297  0.216009  1
  Mn  Mn9  1  0.814553  0.482421  0.548368  1
  Mn  Mn10  1  0.808825  0.484775  0.880932  1
  Mn  Mn11  1  0.514619  0.826650  0.727192  1
  Mn  Mn12  1  0.506812  0.823499  0.051896  1
  Mn  Mn13  1  0.519082  0.817448  0.389921  1
  O  O14  1  0.342061  0.040447  0.078996  1
  O  O15  1  0.361781  0.046798  0.402383  1
  O  O16  1  0.354640  0.043342  0.720061  1
  O  O17  1  0.286144  0.370531  0.275731  1
  O  O18  1  0.279381  0.378670  0.939351  1
  O  O19  1  0.291917  0.379054  0.614490  1
  O  O20  1  0.046247  0.641083  0.280148  1
  O  O21  1  0.044880  0.644042  0.613297  1
  O  O22  1  0.042342  0.649824  0.949779  1
  O  O23  1  0.625537  0.290550  0.485556  1
  O  O24  1  0.635583  0.290550  0.812861  1
  O  O25  1  0.634033  0.286216  0.161162  1
  O  O26  1  0.371136  0.704629  0.176966  1
  O  O27  1  0.381641  0.703543  0.516225  1
  O  O28  1  0.360016  0.722013  0.845694  1
  O  O29  1  0.947362  0.350416  0.047960  1
  O  O30  1  0.952752  0.356281  0.385696  1
  O  O31  1  0.952832  0.359558  0.717545  1
  O  O32  1  0.710796  0.625087  0.720871  1
  O  O33  1  0.703499  0.619754  0.054298  1
  O  O34  1  0.711703  0.622792  0.389237  1
  O  O35  1  0.650827  0.935415  0.933709  1
  O  O36  1  0.644577  0.951779  0.258534  1
  O  O37  1  0.650900  0.956432  0.610954  1
