# generated using pymatgen
data_CeDy(NiP)2
_symmetry_space_group_name_H-M   'P 1'
_cell_length_a   3.92134300
_cell_length_b   3.92134268
_cell_length_c   15.52738300
_cell_angle_alpha   90.00000000
_cell_angle_beta   90.00000000
_cell_angle_gamma   120.00001111
_symmetry_Int_Tables_number   1
_chemical_formula_structural   CeDy(NiP)2
_chemical_formula_sum   'Ce2 Dy2 Ni4 P4'
_cell_volume   206.77521299
_cell_formula_units_Z   2
loop_
 _symmetry_equiv_pos_site_id
 _symmetry_equiv_pos_as_xyz
  1  'x, y, z'
loop_
 _atom_site_type_symbol
 _atom_site_label
 _atom_site_symmetry_multiplicity
 _atom_site_fract_x
 _atom_site_fract_y
 _atom_site_fract_z
 _atom_site_occupancy
  Ce  Ce0  1  0.000000  0.000000  0.500000  1
  Ce  Ce1  1  0.000000  0.000000  0.000000  1
  Dy  Dy2  1  0.000000  0.000000  0.250000  1
  Dy  Dy3  1  0.000000  0.000000  0.750000  1
  Ni  Ni4  1  0.333333  0.666667  0.372712  1
  Ni  Ni5  1  0.666667  0.333333  0.627288  1
  Ni  Ni6  1  0.666667  0.333333  0.872712  1
  Ni  Ni7  1  0.333333  0.666667  0.127288  1
  P  P8  1  0.333333  0.666667  0.873984  1
  P  P9  1  0.666667  0.333333  0.126016  1
  P  P10  1  0.666667  0.333333  0.373984  1
  P  P11  1  0.333333  0.666667  0.626016  1
