# generated using pymatgen
data_Tb10Mg3AlRu6
_symmetry_space_group_name_H-M   'P 1'
_cell_length_a   8.44648589
_cell_length_b   8.44648588
_cell_length_c   8.47199500
_cell_angle_alpha   109.53240805
_cell_angle_beta   109.53240802
_cell_angle_gamma   109.40996403
_symmetry_Int_Tables_number   1
_chemical_formula_structural   Tb10Mg3AlRu6
_chemical_formula_sum   'Tb10 Mg3 Al1 Ru6'
_cell_volume   464.92983146
_cell_formula_units_Z   1
loop_
 _symmetry_equiv_pos_site_id
 _symmetry_equiv_pos_as_xyz
  1  'x, y, z'
loop_
 _atom_site_type_symbol
 _atom_site_label
 _atom_site_symmetry_multiplicity
 _atom_site_fract_x
 _atom_site_fract_y
 _atom_site_fract_z
 _atom_site_occupancy
  Tb  Tb0  1  0.790526  0.788273  0.789149  1
  Tb  Tb1  1  0.327618  0.578930  0.753189  1
  Tb  Tb2  1  0.744531  0.315354  0.569329  1
  Tb  Tb3  1  0.570823  0.755469  0.324798  1
  Tb  Tb4  1  0.711727  0.502253  0.000876  1
  Tb  Tb5  1  0.997747  0.709474  0.498623  1
  Tb  Tb6  1  0.500000  0.000000  0.719216  1
  Tb  Tb7  1  0.251312  0.172382  0.925571  1
  Tb  Tb8  1  0.921070  0.248688  0.174259  1
  Tb  Tb9  1  0.184646  0.929177  0.253975  1
  Mg  Mg10  1  0.402170  0.403544  0.401317  1
  Mg  Mg11  1  0.096456  0.498626  0.997773  1
  Mg  Mg12  1  0.001374  0.097830  0.499147  1
  Al  Al13  1  0.500000  0.000000  0.093980  1
  Ru  Ru14  1  0.864395  0.112079  0.747663  1
  Ru  Ru15  1  0.736217  0.869880  0.112793  1
  Ru  Ru16  1  0.133663  0.763783  0.876576  1
  Ru  Ru17  1  0.247683  0.635605  0.383268  1
  Ru  Ru18  1  0.387921  0.252317  0.635585  1
  Ru  Ru19  1  0.630120  0.366337  0.242913  1
