# generated using pymatgen
data_LaYb3Gd4(US5)4
_symmetry_space_group_name_H-M   'P 1'
_cell_length_a   7.38306917
_cell_length_b   7.93940058
_cell_length_c   11.62961900
_cell_angle_alpha   89.96690450
_cell_angle_beta   89.92016069
_cell_angle_gamma   90.31001794
_symmetry_Int_Tables_number   1
_chemical_formula_structural   LaYb3Gd4(US5)4
_chemical_formula_sum   'La1 Yb3 Gd4 U4 S20'
_cell_volume   681.68428982
_cell_formula_units_Z   1
loop_
 _symmetry_equiv_pos_site_id
 _symmetry_equiv_pos_as_xyz
  1  'x, y, z'
loop_
 _atom_site_type_symbol
 _atom_site_label
 _atom_site_symmetry_multiplicity
 _atom_site_fract_x
 _atom_site_fract_y
 _atom_site_fract_z
 _atom_site_occupancy
  La  La0  1  0.034168  0.496185  0.174129  1
  Yb  Yb1  1  0.529421  0.501866  0.325921  1
  Yb  Yb2  1  0.971272  0.998461  0.820091  1
  Yb  Yb3  1  0.471711  0.002570  0.677859  1
  Gd  Gd4  1  0.467807  0.498822  0.675052  1
  Gd  Gd5  1  0.032780  0.998475  0.173906  1
  Gd  Gd6  1  0.529464  0.998045  0.328313  1
  Gd  Gd7  1  0.968382  0.501273  0.821278  1
  U  U8  1  0.073135  0.753298  0.493178  1
  U  U9  1  0.430638  0.751624  0.987149  1
  U  U10  1  0.925258  0.250856  0.510990  1
  U  U11  1  0.573243  0.248170  0.008782  1
  S  S12  1  0.835227  0.956195  0.590373  1
  S  S13  1  0.661586  0.543263  0.092118  1
  S  S14  1  0.163875  0.457764  0.410964  1
  S  S15  1  0.337131  0.044286  0.908997  1
  S  S16  1  0.166152  0.046532  0.408268  1
  S  S17  1  0.329679  0.454917  0.910110  1
  S  S18  1  0.830451  0.546730  0.591136  1
  S  S19  1  0.668310  0.953627  0.092910  1
  S  S20  1  0.839158  0.756154  0.313802  1
  S  S21  1  0.663486  0.742935  0.811496  1
  S  S22  1  0.160811  0.257958  0.686775  1
  S  S23  1  0.339394  0.240117  0.189175  1
  S  S24  1  0.452587  0.751617  0.499377  1
  S  S25  1  0.045269  0.751762  0.996777  1
  S  S26  1  0.545799  0.251273  0.501889  1
  S  S27  1  0.953849  0.245058  0.998963  1
  S  S28  1  0.189361  0.743868  0.715498  1
  S  S29  1  0.312381  0.758050  0.214087  1
  S  S30  1  0.809910  0.239679  0.285692  1
  S  S31  1  0.688301  0.258569  0.784948  1
