# generated using pymatgen
data_Cs4K2SmInAs4
_symmetry_space_group_name_H-M   'P 1'
_cell_length_a   9.96117254
_cell_length_b   9.96117150
_cell_length_c   9.96117221
_cell_angle_alpha   133.16727778
_cell_angle_beta   138.08398585
_cell_angle_gamma   64.64310036
_symmetry_Int_Tables_number   1
_chemical_formula_structural   Cs4K2SmInAs4
_chemical_formula_sum   'Cs4 K2 Sm1 In1 As4'
_cell_volume   474.91627490
_cell_formula_units_Z   1
loop_
 _symmetry_equiv_pos_site_id
 _symmetry_equiv_pos_as_xyz
  1  'x, y, z'
loop_
 _atom_site_type_symbol
 _atom_site_label
 _atom_site_symmetry_multiplicity
 _atom_site_fract_x
 _atom_site_fract_y
 _atom_site_fract_z
 _atom_site_occupancy
  Cs  Cs0  1  0.689559  0.438612  0.766809  1
  Cs  Cs1  1  0.810441  0.077249  0.249052  1
  Cs  Cs2  1  0.171803  0.922751  0.733191  1
  Cs  Cs3  1  0.328197  0.561388  0.250948  1
  K  K4  1  0.750000  0.000000  0.750000  1
  K  K5  1  0.250000  0.000000  0.250000  1
  Sm  Sm6  1  0.250000  0.500000  0.750000  1
  In  In7  1  0.750000  0.500000  0.250000  1
  As  As8  1  0.414437  0.207431  0.811442  1
  As  As9  1  0.604011  0.792569  0.207006  1
  As  As10  1  0.085563  0.397006  0.292994  1
  As  As11  1  0.895989  0.602994  0.688558  1
