# generated using pymatgen
data_Ca9La11Pb16
_symmetry_space_group_name_H-M   'P 1'
_cell_length_a   8.24747380
_cell_length_b   8.76466884
_cell_length_c   16.53011650
_cell_angle_alpha   90.03171034
_cell_angle_beta   90.61444905
_cell_angle_gamma   89.89888105
_symmetry_Int_Tables_number   1
_chemical_formula_structural   Ca9La11Pb16
_chemical_formula_sum   'Ca9 La11 Pb16'
_cell_volume   1194.83148527
_cell_formula_units_Z   1
loop_
 _symmetry_equiv_pos_site_id
 _symmetry_equiv_pos_as_xyz
  1  'x, y, z'
loop_
 _atom_site_type_symbol
 _atom_site_label
 _atom_site_symmetry_multiplicity
 _atom_site_fract_x
 _atom_site_fract_y
 _atom_site_fract_z
 _atom_site_occupancy
  Ca  Ca0  1  0.836841  0.666444  0.121465  1
  Ca  Ca1  1  0.341955  0.833353  0.376990  1
  Ca  Ca2  1  0.664942  0.166604  0.877118  1
  Ca  Ca3  1  0.157081  0.333461  0.623447  1
  Ca  Ca4  1  0.161026  0.332681  0.876651  1
  Ca  Ca5  1  0.673818  0.000898  0.249852  1
  Ca  Ca6  1  0.173561  0.499408  0.251244  1
  Ca  Ca7  1  0.827072  0.498220  0.751179  1
  Ca  Ca8  1  0.325929  0.001552  0.750506  1
  La  La9  1  0.654879  0.171239  0.625136  1
  La  La10  1  0.339988  0.828735  0.123146  1
  La  La11  1  0.844856  0.671067  0.376219  1
  La  La12  1  0.999816  0.188314  0.093107  1
  La  La13  1  0.500620  0.314248  0.404139  1
  La  La14  1  0.501241  0.686362  0.903038  1
  La  La15  1  0.999781  0.812586  0.596601  1
  La  La16  1  0.999293  0.811596  0.904936  1
  La  La17  1  0.493968  0.684377  0.596198  1
  La  La18  1  0.500893  0.313717  0.093926  1
  La  La19  1  0.003970  0.185053  0.406302  1
  Pb  Pb20  1  0.039438  0.892394  0.249229  1
  Pb  Pb21  1  0.539879  0.605723  0.247651  1
  Pb  Pb22  1  0.459253  0.391570  0.751096  1
  Pb  Pb23  1  0.961859  0.107158  0.751767  1
  Pb  Pb24  1  0.803520  0.354230  0.250046  1
  Pb  Pb25  1  0.301787  0.144681  0.248487  1
  Pb  Pb26  1  0.699162  0.855442  0.750189  1
  Pb  Pb27  1  0.198117  0.644866  0.751475  1
  Pb  Pb28  1  0.819707  0.464255  0.959717  1
  Pb  Pb29  1  0.310645  0.037632  0.538426  1
  Pb  Pb30  1  0.680194  0.965413  0.039738  1
  Pb  Pb31  1  0.189847  0.538175  0.462170  1
  Pb  Pb32  1  0.176198  0.534196  0.039248  1
  Pb  Pb33  1  0.682671  0.964142  0.461445  1
  Pb  Pb34  1  0.322903  0.036373  0.958823  1
  Pb  Pb35  1  0.813291  0.463837  0.539296  1
