# generated using pymatgen
data_Zr4ScAsRh10
_symmetry_space_group_name_H-M   'P 1'
_cell_length_a   5.62644886
_cell_length_b   5.62644835
_cell_length_c   8.32175500
_cell_angle_alpha   90.00000000
_cell_angle_beta   90.00000000
_cell_angle_gamma   99.12960536
_symmetry_Int_Tables_number   1
_chemical_formula_structural   Zr4ScAsRh10
_chemical_formula_sum   'Zr4 Sc1 As1 Rh10'
_cell_volume   260.10387970
_cell_formula_units_Z   1
loop_
 _symmetry_equiv_pos_site_id
 _symmetry_equiv_pos_as_xyz
  1  'x, y, z'
loop_
 _atom_site_type_symbol
 _atom_site_label
 _atom_site_symmetry_multiplicity
 _atom_site_fract_x
 _atom_site_fract_y
 _atom_site_fract_z
 _atom_site_occupancy
  Zr  Zr0  1  0.788708  0.210914  0.499390  1
  Zr  Zr1  1  0.210914  0.788708  0.000610  1
  Zr  Zr2  1  0.210914  0.788708  0.499390  1
  Zr  Zr3  1  0.788708  0.210914  0.000610  1
  Sc  Sc4  1  0.507419  0.507419  0.750000  1
  As  As5  1  0.492877  0.492877  0.250000  1
  Rh  Rh6  1  0.710996  0.710996  0.016765  1
  Rh  Rh7  1  0.710996  0.710996  0.483235  1
  Rh  Rh8  1  0.286874  0.286874  0.009638  1
  Rh  Rh9  1  0.286874  0.286874  0.490362  1
  Rh  Rh10  1  0.499436  0.001831  0.750000  1
  Rh  Rh11  1  0.500002  0.004496  0.250000  1
  Rh  Rh12  1  0.000038  0.000038  0.250000  1
  Rh  Rh13  1  0.998918  0.998918  0.750000  1
  Rh  Rh14  1  0.001831  0.499436  0.750000  1
  Rh  Rh15  1  0.004496  0.500002  0.250000  1
