# generated using pymatgen
data_DyYAl9PtRh2
_symmetry_space_group_name_H-M   'P 1'
_cell_length_a   7.58700623
_cell_length_b   7.58629079
_cell_length_c   9.47433067
_cell_angle_alpha   89.94288210
_cell_angle_beta   89.94557361
_cell_angle_gamma   119.55489934
_symmetry_Int_Tables_number   1
_chemical_formula_structural   DyYAl9PtRh2
_chemical_formula_sum   'Dy2 Y2 Al18 Pt2 Rh4'
_cell_volume   474.36073191
_cell_formula_units_Z   2
loop_
 _symmetry_equiv_pos_site_id
 _symmetry_equiv_pos_as_xyz
  1  'x, y, z'
loop_
 _atom_site_type_symbol
 _atom_site_label
 _atom_site_symmetry_multiplicity
 _atom_site_fract_x
 _atom_site_fract_y
 _atom_site_fract_z
 _atom_site_occupancy
  Dy  Dy0  1  0.995161  0.669790  0.249973  1
  Dy  Dy1  1  0.004839  0.330210  0.750027  1
  Y  Y2  1  0.669777  0.995091  0.250027  1
  Y  Y3  1  0.330223  0.004909  0.749973  1
  Al  Al4  1  0.126481  0.126300  0.251063  1
  Al  Al5  1  0.873519  0.873700  0.748937  1
  Al  Al6  1  0.001007  0.331142  0.077471  1
  Al  Al7  1  0.998993  0.668858  0.922529  1
  Al  Al8  1  0.000337  0.665165  0.574233  1
  Al  Al9  1  0.334563  0.999518  0.425610  1
  Al  Al10  1  0.999663  0.334835  0.425767  1
  Al  Al11  1  0.665437  0.000482  0.574390  1
  Al  Al12  1  0.669141  0.999136  0.922390  1
  Al  Al13  1  0.330859  0.000864  0.077610  1
  Al  Al14  1  0.331902  0.332020  0.550640  1
  Al  Al15  1  0.668098  0.667980  0.449360  1
  Al  Al16  1  0.669588  0.669473  0.055872  1
  Al  Al17  1  0.330412  0.330527  0.944128  1
  Al  Al18  1  0.340025  0.546992  0.253933  1
  Al  Al19  1  0.659975  0.453008  0.746067  1
  Al  Al20  1  0.547169  0.340381  0.253926  1
  Al  Al21  1  0.452831  0.659619  0.746074  1
  Pt  Pt22  1  0.672174  0.327834  0.999987  1
  Pt  Pt23  1  0.327826  0.672166  0.000013  1
  Rh  Rh24  1  0.327905  0.672111  0.499984  1
  Rh  Rh25  1  0.672095  0.327889  0.500016  1
  Rh  Rh26  1  0.000000  0.000000  0.000000  1
  Rh  Rh27  1  0.000000  0.000000  0.500000  1
