# generated using pymatgen
data_Dy3HoAl24IrPt8
_symmetry_space_group_name_H-M   'P 1'
_cell_length_a   7.52115805
_cell_length_b   7.54551411
_cell_length_c   13.17355107
_cell_angle_alpha   84.63081743
_cell_angle_beta   79.12067924
_cell_angle_gamma   59.91352195
_symmetry_Int_Tables_number   1
_chemical_formula_structural   Dy3HoAl24IrPt8
_chemical_formula_sum   'Dy3 Ho1 Al24 Ir1 Pt8'
_cell_volume   635.25923586
_cell_formula_units_Z   1
loop_
 _symmetry_equiv_pos_site_id
 _symmetry_equiv_pos_as_xyz
  1  'x, y, z'
loop_
 _atom_site_type_symbol
 _atom_site_label
 _atom_site_symmetry_multiplicity
 _atom_site_fract_x
 _atom_site_fract_y
 _atom_site_fract_z
 _atom_site_occupancy
  Dy  Dy0  1  0.393554  0.168494  0.808790  1
  Dy  Dy1  1  0.606474  0.831510  0.191209  1
  Dy  Dy2  1  0.733761  0.498363  0.808746  1
  Ho  Ho3  1  0.266141  0.501628  0.191334  1
  Al  Al4  1  0.686800  0.830764  0.945493  1
  Al  Al5  1  0.313206  0.169374  0.054603  1
  Al  Al6  1  0.146570  0.832071  0.561620  1
  Al  Al7  1  0.853440  0.167931  0.438361  1
  Al  Al8  1  0.479965  0.166651  0.559006  1
  Al  Al9  1  0.520035  0.833347  0.440981  1
  Al  Al10  1  0.217391  0.165308  0.328299  1
  Al  Al11  1  0.782644  0.834817  0.671583  1
  Al  Al12  1  0.436431  0.507024  0.671479  1
  Al  Al13  1  0.563454  0.492977  0.328414  1
  Al  Al14  1  0.109411  0.160004  0.669452  1
  Al  Al15  1  0.890748  0.839875  0.330439  1
  Al  Al16  1  0.349689  0.499235  0.945732  1
  Al  Al17  1  0.650095  0.500771  0.054480  1
  Al  Al18  1  0.015108  0.171180  0.954655  1
  Al  Al19  1  0.984994  0.828701  0.045464  1
  Al  Al20  1  0.186635  0.499336  0.441123  1
  Al  Al21  1  0.813374  0.500667  0.558824  1
  Al  Al22  1  0.734414  0.163817  0.183136  1
  Al  Al23  1  0.265400  0.836344  0.816853  1
  Al  Al24  1  0.061044  0.629715  0.817376  1
  Al  Al25  1  0.939146  0.370299  0.182626  1
  Al  Al26  1  0.855832  0.041544  0.816393  1
  Al  Al27  1  0.144193  0.958230  0.183586  1
  Ir  Ir28  1  0.999985  0.500015  0.000014  1
  Pt  Pt29  1  0.119949  0.492001  0.638556  1
  Pt  Pt30  1  0.880080  0.508013  0.361408  1
  Pt  Pt31  1  0.657636  0.171064  0.999743  1
  Pt  Pt32  1  0.342390  0.828929  0.000249  1
  Pt  Pt33  1  0.537531  0.166887  0.361755  1
  Pt  Pt34  1  0.462463  0.833109  0.638231  1
  Pt  Pt35  1  0.778696  0.174974  0.636985  1
  Pt  Pt36  1  0.221316  0.825029  0.363004  1
