# generated using pymatgen
data_Dy16Cd2Hg2Ru3Pt
_symmetry_space_group_name_H-M   'P 1'
_cell_length_a   9.62372241
_cell_length_b   9.64448135
_cell_length_c   9.69154500
_cell_angle_alpha   59.83831270
_cell_angle_beta   59.76660006
_cell_angle_gamma   59.66864266
_symmetry_Int_Tables_number   1
_chemical_formula_structural   Dy16Cd2Hg2Ru3Pt
_chemical_formula_sum   'Dy16 Cd2 Hg2 Ru3 Pt1'
_cell_volume   632.56263358
_cell_formula_units_Z   1
loop_
 _symmetry_equiv_pos_site_id
 _symmetry_equiv_pos_as_xyz
  1  'x, y, z'
loop_
 _atom_site_type_symbol
 _atom_site_label
 _atom_site_symmetry_multiplicity
 _atom_site_fract_x
 _atom_site_fract_y
 _atom_site_fract_z
 _atom_site_occupancy
  Dy  Dy0  1  0.345984  0.351355  0.349471  1
  Dy  Dy1  1  0.345985  0.351358  0.953187  1
  Dy  Dy2  1  0.347267  0.951952  0.350393  1
  Dy  Dy3  1  0.960829  0.346698  0.346238  1
  Dy  Dy4  1  0.813924  0.189147  0.191035  1
  Dy  Dy5  1  0.187270  0.810408  0.811578  1
  Dy  Dy6  1  0.187272  0.810406  0.190743  1
  Dy  Dy7  1  0.813924  0.189148  0.805894  1
  Dy  Dy8  1  0.187861  0.188325  0.811906  1
  Dy  Dy9  1  0.813361  0.804064  0.191288  1
  Dy  Dy10  1  0.935856  0.561721  0.562413  1
  Dy  Dy11  1  0.557611  0.937463  0.939012  1
  Dy  Dy12  1  0.557612  0.937462  0.565915  1
  Dy  Dy13  1  0.935858  0.561719  0.940012  1
  Dy  Dy14  1  0.557721  0.565620  0.938329  1
  Dy  Dy15  1  0.937061  0.938884  0.562027  1
  Cd  Cd16  1  0.580260  0.259471  0.580134  1
  Cd  Cd17  1  0.256890  0.580124  0.581492  1
  Hg  Hg18  1  0.583662  0.583099  0.585455  1
  Hg  Hg19  1  0.583661  0.583100  0.247784  1
  Ru  Ru20  1  0.144953  0.138786  0.137445  1
  Ru  Ru21  1  0.144945  0.138790  0.578817  1
  Ru  Ru22  1  0.145182  0.578253  0.138281  1
  Pt  Pt23  1  0.575059  0.142639  0.141151  1
