# generated using pymatgen
data_Sc22Co2OsRh5
_symmetry_space_group_name_H-M   'P 1'
_cell_length_a   9.45593148
_cell_length_b   9.52208976
_cell_length_c   9.45593241
_cell_angle_alpha   59.76828941
_cell_angle_beta   59.38337527
_cell_angle_gamma   59.76828441
_symmetry_Int_Tables_number   1
_chemical_formula_structural   Sc22Co2OsRh5
_chemical_formula_sum   'Sc22 Co2 Os1 Rh5'
_cell_volume   597.09756444
_cell_formula_units_Z   1
loop_
 _symmetry_equiv_pos_site_id
 _symmetry_equiv_pos_as_xyz
  1  'x, y, z'
loop_
 _atom_site_type_symbol
 _atom_site_label
 _atom_site_symmetry_multiplicity
 _atom_site_fract_x
 _atom_site_fract_y
 _atom_site_fract_z
 _atom_site_occupancy
  Sc  Sc0  1  0.839921  0.843895  0.839921  1
  Sc  Sc1  1  0.522975  0.157594  0.161835  1
  Sc  Sc2  1  0.161835  0.157594  0.522975  1
  Sc  Sc3  1  0.160079  0.523737  0.160079  1
  Sc  Sc4  1  0.838165  0.842406  0.477025  1
  Sc  Sc5  1  0.839921  0.476263  0.839921  1
  Sc  Sc6  1  0.477025  0.842406  0.838165  1
  Sc  Sc7  1  0.160079  0.156105  0.160079  1
  Sc  Sc8  1  0.192484  0.807516  0.192484  1
  Sc  Sc9  1  0.190559  0.805859  0.809441  1
  Sc  Sc10  1  0.809441  0.194141  0.190559  1
  Sc  Sc11  1  0.809441  0.805859  0.190559  1
  Sc  Sc12  1  0.190559  0.194141  0.809441  1
  Sc  Sc13  1  0.807516  0.192484  0.807516  1
  Sc  Sc14  1  0.385192  0.387938  0.385192  1
  Sc  Sc15  1  0.153604  0.612344  0.621710  1
  Sc  Sc16  1  0.614808  0.158322  0.614808  1
  Sc  Sc17  1  0.621710  0.612344  0.153604  1
  Sc  Sc18  1  0.385192  0.841678  0.385192  1
  Sc  Sc19  1  0.378290  0.387656  0.846396  1
  Sc  Sc20  1  0.846396  0.387656  0.378290  1
  Sc  Sc21  1  0.614808  0.612062  0.614808  1
  Co  Co22  1  0.500000  0.500000  0.500000  1
  Co  Co23  1  0.000000  0.000000  0.000000  1
  Os  Os24  1  0.000000  0.500000  0.000000  1
  Rh  Rh25  1  0.500000  0.500000  0.000000  1
  Rh  Rh26  1  0.000000  0.000000  0.500000  1
  Rh  Rh27  1  0.500000  0.000000  0.500000  1
  Rh  Rh28  1  0.000000  0.500000  0.500000  1
  Rh  Rh29  1  0.500000  0.000000  0.000000  1
