# generated using pymatgen
data_Tm4MnAl3B16
_symmetry_space_group_name_H-M   'P 1'
_cell_length_a   3.47575000
_cell_length_b   5.92170448
_cell_length_c   11.45433433
_cell_angle_alpha   89.79496457
_cell_angle_beta   90.00000000
_cell_angle_gamma   90.00000000
_symmetry_Int_Tables_number   1
_chemical_formula_structural   Tm4MnAl3B16
_chemical_formula_sum   'Tm4 Mn1 Al3 B16'
_cell_volume   235.75577305
_cell_formula_units_Z   1
loop_
 _symmetry_equiv_pos_site_id
 _symmetry_equiv_pos_as_xyz
  1  'x, y, z'
loop_
 _atom_site_type_symbol
 _atom_site_label
 _atom_site_symmetry_multiplicity
 _atom_site_fract_x
 _atom_site_fract_y
 _atom_site_fract_z
 _atom_site_occupancy
  Tm  Tm0  1  0.500000  0.376727  0.148210  1
  Tm  Tm1  1  0.500000  0.628484  0.855346  1
  Tm  Tm2  1  0.500000  0.127247  0.652463  1
  Tm  Tm3  1  0.500000  0.871533  0.342618  1
  Mn  Mn4  1  0.500000  0.873275  0.082605  1
  Al  Al5  1  0.500000  0.361486  0.406618  1
  Al  Al6  1  0.500000  0.637113  0.590441  1
  Al  Al7  1  0.500000  0.132181  0.917009  1
  B  B8  1  0.000000  0.110231  0.049767  1
  B  B9  1  0.000000  0.882461  0.956314  1
  B  B10  1  0.000000  0.385241  0.547450  1
  B  B11  1  0.000000  0.614790  0.452396  1
  B  B12  1  0.000000  0.132533  0.468971  1
  B  B13  1  0.000000  0.866589  0.530976  1
  B  B14  1  0.000000  0.366004  0.968732  1
  B  B15  1  0.000000  0.636768  0.033932  1
  B  B16  1  0.000000  0.020042  0.190855  1
  B  B17  1  0.000000  0.973705  0.807439  1
  B  B18  1  0.000000  0.471503  0.694045  1
  B  B19  1  0.000000  0.528228  0.306471  1
  B  B20  1  0.000000  0.209177  0.312121  1
  B  B21  1  0.000000  0.790255  0.688045  1
  B  B22  1  0.000000  0.288083  0.813667  1
  B  B23  1  0.000000  0.716343  0.183509  1
