# generated using pymatgen
data_Cs2BaAs2O7
_symmetry_space_group_name_H-M   'P 1'
_cell_length_a   6.51123578
_cell_length_b   6.51123496
_cell_length_c   14.60546167
_cell_angle_alpha   76.21153249
_cell_angle_beta   76.21153316
_cell_angle_gamma   59.15533701
_symmetry_Int_Tables_number   1
_chemical_formula_structural   Cs2BaAs2O7
_chemical_formula_sum   'Cs4 Ba2 As4 O14'
_cell_volume   511.28087274
_cell_formula_units_Z   2
loop_
 _symmetry_equiv_pos_site_id
 _symmetry_equiv_pos_as_xyz
  1  'x, y, z'
loop_
 _atom_site_type_symbol
 _atom_site_label
 _atom_site_symmetry_multiplicity
 _atom_site_fract_x
 _atom_site_fract_y
 _atom_site_fract_z
 _atom_site_occupancy
  Cs  Cs0  1  0.364676  0.922325  0.835025  1
  Cs  Cs1  1  0.077675  0.635324  0.664975  1
  Cs  Cs2  1  0.635324  0.077675  0.164975  1
  Cs  Cs3  1  0.922325  0.364676  0.335025  1
  Ba  Ba4  1  0.000000  0.500000  0.000000  1
  Ba  Ba5  1  0.500000  0.000000  0.500000  1
  As  As6  1  0.690505  0.243007  0.865457  1
  As  As7  1  0.756993  0.309495  0.634543  1
  As  As8  1  0.309495  0.756993  0.134543  1
  As  As9  1  0.243007  0.690505  0.365457  1
  O  O10  1  0.854706  0.145294  0.750000  1
  O  O11  1  0.145294  0.854706  0.250000  1
  O  O12  1  0.388130  0.393734  0.859034  1
  O  O13  1  0.606266  0.611870  0.640966  1
  O  O14  1  0.611870  0.606266  0.140966  1
  O  O15  1  0.393734  0.388130  0.359034  1
  O  O16  1  0.789003  0.971713  0.936353  1
  O  O17  1  0.028287  0.210997  0.563647  1
  O  O18  1  0.210997  0.028287  0.063647  1
  O  O19  1  0.971713  0.789003  0.436353  1
  O  O20  1  0.420841  0.795017  0.383505  1
  O  O21  1  0.204983  0.579159  0.116495  1
  O  O22  1  0.579159  0.204983  0.616495  1
  O  O23  1  0.795017  0.420841  0.883505  1
