# generated using pymatgen
data_Y2Ta2Ni10P7
_symmetry_space_group_name_H-M   'P 1'
_cell_length_a   9.28124967
_cell_length_b   9.22174781
_cell_length_c   3.70419900
_cell_angle_alpha   90.00000000
_cell_angle_beta   90.00000000
_cell_angle_gamma   120.24394116
_symmetry_Int_Tables_number   1
_chemical_formula_structural   Y2Ta2Ni10P7
_chemical_formula_sum   'Y2 Ta2 Ni10 P7'
_cell_volume   273.88726342
_cell_formula_units_Z   1
loop_
 _symmetry_equiv_pos_site_id
 _symmetry_equiv_pos_as_xyz
  1  'x, y, z'
loop_
 _atom_site_type_symbol
 _atom_site_label
 _atom_site_symmetry_multiplicity
 _atom_site_fract_x
 _atom_site_fract_y
 _atom_site_fract_z
 _atom_site_occupancy
  Y  Y0  1  0.994125  0.000942  0.000000  1
  Y  Y1  1  0.336899  0.669566  0.500000  1
  Ta  Ta2  1  0.886134  0.451047  0.500000  1
  Ta  Ta3  1  0.547730  0.432594  0.500000  1
  Ni  Ni4  1  0.295998  0.393492  0.000000  1
  Ni  Ni5  1  0.102181  0.707005  0.000000  1
  Ni  Ni6  1  0.382533  0.171015  0.000000  1
  Ni  Ni7  1  0.796578  0.620440  0.000000  1
  Ni  Ni8  1  0.821186  0.206722  0.000000  1
  Ni  Ni9  1  0.233352  0.948130  0.500000  1
  Ni  Ni10  1  0.050821  0.277561  0.500000  1
  Ni  Ni11  1  0.720013  0.775507  0.500000  1
  Ni  Ni12  1  0.567162  0.108325  0.500000  1
  Ni  Ni13  1  0.601365  0.900253  0.000000  1
  P  P14  1  0.661788  0.324513  0.000000  1
  P  P15  1  0.083272  0.446516  0.000000  1
  P  P16  1  0.253105  0.212452  0.500000  1
  P  P17  1  0.777725  0.045458  0.500000  1
  P  P18  1  0.959306  0.747375  0.500000  1
  P  P19  1  0.556898  0.636326  0.000000  1
  P  P20  1  0.371828  0.924759  0.000000  1
