# generated using pymatgen
data_Ca3Al2Ga3
_symmetry_space_group_name_H-M   'P 1'
_cell_length_a   5.96586207
_cell_length_b   5.96586264
_cell_length_c   14.79024000
_cell_angle_alpha   90.00000000
_cell_angle_beta   90.00000000
_cell_angle_gamma   135.08990706
_symmetry_Int_Tables_number   1
_chemical_formula_structural   Ca3Al2Ga3
_chemical_formula_sum   'Ca6 Al4 Ga6'
_cell_volume   371.64143420
_cell_formula_units_Z   2
loop_
 _symmetry_equiv_pos_site_id
 _symmetry_equiv_pos_as_xyz
  1  'x, y, z'
loop_
 _atom_site_type_symbol
 _atom_site_label
 _atom_site_symmetry_multiplicity
 _atom_site_fract_x
 _atom_site_fract_y
 _atom_site_fract_z
 _atom_site_occupancy
  Ca  Ca0  1  0.869733  0.130267  0.750000  1
  Ca  Ca1  1  0.130267  0.869733  0.250000  1
  Ca  Ca2  1  0.414905  0.585095  0.111012  1
  Ca  Ca3  1  0.585095  0.414905  0.888988  1
  Ca  Ca4  1  0.585095  0.414905  0.611012  1
  Ca  Ca5  1  0.414905  0.585095  0.388988  1
  Al  Al6  1  0.709041  0.290959  0.405725  1
  Al  Al7  1  0.290959  0.709041  0.594275  1
  Al  Al8  1  0.290959  0.709041  0.905725  1
  Al  Al9  1  0.709041  0.290959  0.094275  1
  Ga  Ga10  1  0.163074  0.836926  0.750000  1
  Ga  Ga11  1  0.836926  0.163074  0.250000  1
  Ga  Ga12  1  0.886485  0.113515  0.535430  1
  Ga  Ga13  1  0.113515  0.886485  0.464570  1
  Ga  Ga14  1  0.113515  0.886485  0.035430  1
  Ga  Ga15  1  0.886485  0.113515  0.964570  1
