# generated using pymatgen
data_Hf18Ni2MoW7
_symmetry_space_group_name_H-M   'P 1'
_cell_length_a   8.49743100
_cell_length_b   8.68429620
_cell_length_c   8.69111526
_cell_angle_alpha   120.02368126
_cell_angle_beta   90.00000000
_cell_angle_gamma   90.00000000
_symmetry_Int_Tables_number   1
_chemical_formula_structural   Hf18Ni2MoW7
_chemical_formula_sum   'Hf18 Ni2 Mo1 W7'
_cell_volume   555.29623825
_cell_formula_units_Z   1
loop_
 _symmetry_equiv_pos_site_id
 _symmetry_equiv_pos_as_xyz
  1  'x, y, z'
loop_
 _atom_site_type_symbol
 _atom_site_label
 _atom_site_symmetry_multiplicity
 _atom_site_fract_x
 _atom_site_fract_y
 _atom_site_fract_z
 _atom_site_occupancy
  Hf  Hf0  1  0.557697  0.800214  0.600766  1
  Hf  Hf1  1  0.557713  0.800226  0.199416  1
  Hf  Hf2  1  0.558029  0.399128  0.199556  1
  Hf  Hf3  1  0.442549  0.199515  0.399667  1
  Hf  Hf4  1  0.442534  0.199503  0.799880  1
  Hf  Hf5  1  0.442198  0.600730  0.800374  1
  Hf  Hf6  1  0.057451  0.199515  0.399667  1
  Hf  Hf7  1  0.057466  0.199503  0.799880  1
  Hf  Hf8  1  0.057802  0.600730  0.800374  1
  Hf  Hf9  1  0.942303  0.800214  0.600766  1
  Hf  Hf10  1  0.942287  0.800226  0.199416  1
  Hf  Hf11  1  0.941971  0.399128  0.199556  1
  Hf  Hf12  1  0.750000  0.457761  0.915491  1
  Hf  Hf13  1  0.750000  0.457743  0.542267  1
  Hf  Hf14  1  0.750000  0.084548  0.542265  1
  Hf  Hf15  1  0.250000  0.543192  0.084913  1
  Hf  Hf16  1  0.250000  0.543210  0.458286  1
  Hf  Hf17  1  0.250000  0.915317  0.457667  1
  Ni  Ni18  1  0.750000  0.666613  0.333295  1
  Ni  Ni19  1  0.250000  0.333202  0.666611  1
  Mo  Mo20  1  0.250000  0.224149  0.112101  1
  W  W21  1  0.750000  0.112118  0.223978  1
  W  W22  1  0.750000  0.112111  0.888087  1
  W  W23  1  0.750000  0.776312  0.888127  1
  W  W24  1  0.250000  0.887407  0.775578  1
  W  W25  1  0.250000  0.887417  0.111881  1
  W  W26  1  0.499603  0.000135  0.000068  1
  W  W27  1  0.000397  0.000135  0.000068  1
