# generated using pymatgen
data_Y2Ho4ReB14Ru
_symmetry_space_group_name_H-M   'P 1'
_cell_length_a   8.04147733
_cell_length_b   8.04147676
_cell_length_c   9.32902400
_cell_angle_alpha   90.00000000
_cell_angle_beta   90.00000000
_cell_angle_gamma   154.66419434
_symmetry_Int_Tables_number   1
_chemical_formula_structural   Y2Ho4ReB14Ru
_chemical_formula_sum   'Y2 Ho4 Re1 B14 Ru1'
_cell_volume   258.15066887
_cell_formula_units_Z   1
loop_
 _symmetry_equiv_pos_site_id
 _symmetry_equiv_pos_as_xyz
  1  'x, y, z'
loop_
 _atom_site_type_symbol
 _atom_site_label
 _atom_site_symmetry_multiplicity
 _atom_site_fract_x
 _atom_site_fract_y
 _atom_site_fract_z
 _atom_site_occupancy
  Y  Y0  1  0.244271  0.755729  0.250000  1
  Y  Y1  1  0.755832  0.244168  0.750000  1
  Ho  Ho2  1  0.894793  0.105207  0.059400  1
  Ho  Ho3  1  0.105357  0.894643  0.560107  1
  Ho  Ho4  1  0.105357  0.894643  0.939893  1
  Ho  Ho5  1  0.894793  0.105207  0.440600  1
  Re  Re6  1  0.947496  0.052503  0.750000  1
  B  B7  1  0.456603  0.543397  0.250000  1
  B  B8  1  0.544407  0.455593  0.750000  1
  B  B9  1  0.726783  0.273217  0.034578  1
  B  B10  1  0.272572  0.727428  0.533246  1
  B  B11  1  0.272572  0.727428  0.966754  1
  B  B12  1  0.726783  0.273217  0.465422  1
  B  B13  1  0.631238  0.368762  0.348663  1
  B  B14  1  0.368006  0.631994  0.849309  1
  B  B15  1  0.368006  0.631994  0.650691  1
  B  B16  1  0.631238  0.368762  0.151337  1
  B  B17  1  0.520441  0.479559  0.403760  1
  B  B18  1  0.479724  0.520276  0.904709  1
  B  B19  1  0.479724  0.520276  0.595291  1
  B  B20  1  0.520441  0.479559  0.096240  1
  Ru  Ru21  1  0.053564  0.946436  0.250000  1
