# generated using pymatgen
data_Rb2Sn(SeO4)3
_symmetry_space_group_name_H-M   'P 1'
_cell_length_a   4.87647863
_cell_length_b   8.21594621
_cell_length_c   9.99534631
_cell_angle_alpha   114.24194496
_cell_angle_beta   107.63983444
_cell_angle_gamma   89.91478991
_symmetry_Int_Tables_number   1
_chemical_formula_structural   Rb2Sn(SeO4)3
_chemical_formula_sum   'Rb2 Sn1 Se3 O12'
_cell_volume   344.48019368
_cell_formula_units_Z   1
loop_
 _symmetry_equiv_pos_site_id
 _symmetry_equiv_pos_as_xyz
  1  'x, y, z'
loop_
 _atom_site_type_symbol
 _atom_site_label
 _atom_site_symmetry_multiplicity
 _atom_site_fract_x
 _atom_site_fract_y
 _atom_site_fract_z
 _atom_site_occupancy
  Rb  Rb0  1  0.577297  0.837158  0.829946  1
  Rb  Rb1  1  0.234982  0.467528  0.090231  1
  Sn  Sn2  1  0.906422  0.028547  0.460272  1
  Se  Se3  1  0.542466  0.268663  0.728456  1
  Se  Se4  1  0.269443  0.000197  0.191443  1
  Se  Se5  1  0.906557  0.673933  0.460108  1
  O  O6  1  0.349951  0.817228  0.068153  1
  O  O7  1  0.968042  0.499316  0.322127  1
  O  O8  1  0.050406  0.923630  0.265747  1
  O  O9  1  0.704602  0.476399  0.808225  1
  O  O10  1  0.761904  0.117596  0.654522  1
  O  O11  1  0.578073  0.131407  0.344293  1
  O  O12  1  0.233290  0.247316  0.575661  1
  O  O13  1  0.641485  0.776938  0.373165  1
  O  O14  1  0.171508  0.863239  0.547056  1
  O  O15  1  0.106899  0.128484  0.111556  1
  O  O16  1  0.462074  0.209138  0.851898  1
  O  O17  1  0.845701  0.637476  0.598321  1
