# generated using pymatgen
data_Tb2Ho2Al18NiRh5
_symmetry_space_group_name_H-M   'P 1'
_cell_length_a   7.55243136
_cell_length_b   7.54999553
_cell_length_c   9.44575330
_cell_angle_alpha   90.15875290
_cell_angle_beta   90.14689989
_cell_angle_gamma   119.60792198
_symmetry_Int_Tables_number   1
_chemical_formula_structural   Tb2Ho2Al18NiRh5
_chemical_formula_sum   'Tb2 Ho2 Al18 Ni1 Rh5'
_cell_volume   468.27061530
_cell_formula_units_Z   1
loop_
 _symmetry_equiv_pos_site_id
 _symmetry_equiv_pos_as_xyz
  1  'x, y, z'
loop_
 _atom_site_type_symbol
 _atom_site_label
 _atom_site_symmetry_multiplicity
 _atom_site_fract_x
 _atom_site_fract_y
 _atom_site_fract_z
 _atom_site_occupancy
  Tb  Tb0  1  0.670315  0.994582  0.249312  1
  Tb  Tb1  1  0.329685  0.005418  0.750688  1
  Ho  Ho2  1  0.994601  0.670321  0.249269  1
  Ho  Ho3  1  0.005399  0.329679  0.750731  1
  Al  Al4  1  0.125773  0.125585  0.247271  1
  Al  Al5  1  0.874227  0.874415  0.752729  1
  Al  Al6  1  0.000374  0.333168  0.074699  1
  Al  Al7  1  0.999626  0.666832  0.925301  1
  Al  Al8  1  0.999235  0.665060  0.574965  1
  Al  Al9  1  0.334236  0.000453  0.424694  1
  Al  Al10  1  0.000765  0.334940  0.425035  1
  Al  Al11  1  0.665764  0.999547  0.575306  1
  Al  Al12  1  0.667556  0.999927  0.924969  1
  Al  Al13  1  0.332444  0.000073  0.075031  1
  Al  Al14  1  0.333005  0.333284  0.550263  1
  Al  Al15  1  0.666995  0.666716  0.449737  1
  Al  Al16  1  0.669202  0.668868  0.049234  1
  Al  Al17  1  0.330798  0.331132  0.950766  1
  Al  Al18  1  0.338969  0.548706  0.249608  1
  Al  Al19  1  0.661031  0.451294  0.750392  1
  Al  Al20  1  0.549194  0.339771  0.249632  1
  Al  Al21  1  0.450806  0.660229  0.750368  1
  Ni  Ni22  1  0.000000  0.000000  0.000000  1
  Rh  Rh23  1  0.672305  0.328108  0.000017  1
  Rh  Rh24  1  0.327695  0.671892  0.999983  1
  Rh  Rh25  1  0.327627  0.671977  0.500007  1
  Rh  Rh26  1  0.672373  0.328023  0.499993  1
  Rh  Rh27  1  0.000000  0.000000  0.500000  1
