# generated using pymatgen
data_DyLu7In2IrRu
_symmetry_space_group_name_H-M   'P 1'
_cell_length_a   9.49502581
_cell_length_b   9.49502551
_cell_length_c   9.48617700
_cell_angle_alpha   60.03082604
_cell_angle_beta   60.03082708
_cell_angle_gamma   59.89229495
_symmetry_Int_Tables_number   1
_chemical_formula_structural   DyLu7In2IrRu
_chemical_formula_sum   'Dy2 Lu14 In4 Ir2 Ru2'
_cell_volume   604.52689652
_cell_formula_units_Z   2
loop_
 _symmetry_equiv_pos_site_id
 _symmetry_equiv_pos_as_xyz
  1  'x, y, z'
loop_
 _atom_site_type_symbol
 _atom_site_label
 _atom_site_symmetry_multiplicity
 _atom_site_fract_x
 _atom_site_fract_y
 _atom_site_fract_z
 _atom_site_occupancy
  Dy  Dy0  1  0.813863  0.813863  0.186137  1
  Dy  Dy1  1  0.187654  0.187654  0.812346  1
  Lu  Lu2  1  0.599603  0.599603  0.596871  1
  Lu  Lu3  1  0.599603  0.599603  0.203922  1
  Lu  Lu4  1  0.594577  0.208316  0.598553  1
  Lu  Lu5  1  0.208316  0.594577  0.598553  1
  Lu  Lu6  1  0.059192  0.440956  0.442579  1
  Lu  Lu7  1  0.440956  0.059192  0.057274  1
  Lu  Lu8  1  0.440956  0.059192  0.442579  1
  Lu  Lu9  1  0.059192  0.440956  0.057274  1
  Lu  Lu10  1  0.442030  0.442030  0.057970  1
  Lu  Lu11  1  0.055826  0.055826  0.444174  1
  Lu  Lu12  1  0.193877  0.804045  0.806910  1
  Lu  Lu13  1  0.804045  0.193877  0.195169  1
  Lu  Lu14  1  0.804045  0.193877  0.806910  1
  Lu  Lu15  1  0.193877  0.804045  0.195169  1
  In  In16  1  0.833168  0.833168  0.831854  1
  In  In17  1  0.833168  0.833168  0.501812  1
  In  In18  1  0.833232  0.499254  0.833758  1
  In  In19  1  0.499254  0.833232  0.833758  1
  Ir  Ir20  1  0.388713  0.829814  0.390737  1
  Ir  Ir21  1  0.829814  0.388713  0.390737  1
  Ru  Ru22  1  0.392521  0.392521  0.383368  1
  Ru  Ru23  1  0.392521  0.392521  0.831590  1
