# generated using pymatgen
data_NaCe4(Ga2Pt)10
_symmetry_space_group_name_H-M   'P 1'
_cell_length_a   4.25216574
_cell_length_b   11.14796790
_cell_length_c   13.61480000
_cell_angle_alpha   81.14371893
_cell_angle_beta   81.00529695
_cell_angle_gamma   78.99823202
_symmetry_Int_Tables_number   1
_chemical_formula_structural   NaCe4(Ga2Pt)10
_chemical_formula_sum   'Na1 Ce4 Ga20 Pt10'
_cell_volume   620.58200446
_cell_formula_units_Z   1
loop_
 _symmetry_equiv_pos_site_id
 _symmetry_equiv_pos_as_xyz
  1  'x, y, z'
loop_
 _atom_site_type_symbol
 _atom_site_label
 _atom_site_symmetry_multiplicity
 _atom_site_fract_x
 _atom_site_fract_y
 _atom_site_fract_z
 _atom_site_occupancy
  Na  Na0  1  0.500000  0.500000  0.500000  1
  Ce  Ce1  1  0.122177  0.090433  0.664062  1
  Ce  Ce2  1  0.877823  0.909567  0.335938  1
  Ce  Ce3  1  0.772395  0.631933  0.821182  1
  Ce  Ce4  1  0.227605  0.368067  0.178818  1
  Ga  Ga5  1  0.009439  0.071603  0.912062  1
  Ga  Ga6  1  0.990561  0.928397  0.087938  1
  Ga  Ga7  1  0.062776  0.674170  0.196038  1
  Ga  Ga8  1  0.937224  0.325830  0.803962  1
  Ga  Ga9  1  0.110193  0.331151  0.451770  1
  Ga  Ga10  1  0.889807  0.668849  0.548230  1
  Ga  Ga11  1  0.199555  0.606238  0.992581  1
  Ga  Ga12  1  0.800445  0.393762  0.007419  1
  Ga  Ga13  1  0.256942  0.783475  0.700238  1
  Ga  Ga14  1  0.743058  0.216525  0.299762  1
  Ga  Ga15  1  0.302995  0.896625  0.497573  1
  Ga  Ga16  1  0.697005  0.103375  0.502427  1
  Ga  Ga17  1  0.385748  0.520615  0.705280  1
  Ga  Ga18  1  0.614252  0.479385  0.294720  1
  Ga  Ga19  1  0.395483  0.203096  0.001190  1
  Ga  Ga20  1  0.604517  0.796904  0.998810  1
  Ga  Ga21  1  0.539316  0.285154  0.634497  1
  Ga  Ga22  1  0.460684  0.714846  0.365503  1
  Ga  Ga23  1  0.635391  0.935975  0.797008  1
  Ga  Ga24  1  0.364609  0.064025  0.202992  1
  Pt  Pt25  1  0.027891  0.570394  0.375303  1
  Pt  Pt26  1  0.972109  0.429606  0.624697  1
  Pt  Pt27  1  0.140864  0.835992  0.888620  1
  Pt  Pt28  1  0.859136  0.164008  0.111380  1
  Pt  Pt29  1  0.244475  0.122061  0.389589  1
  Pt  Pt30  1  0.755525  0.877939  0.610411  1
  Pt  Pt31  1  0.345431  0.419210  0.893081  1
  Pt  Pt32  1  0.654569  0.580790  0.106919  1
  Pt  Pt33  1  0.507325  0.169762  0.817402  1
  Pt  Pt34  1  0.492675  0.830238  0.182598  1
