# generated using pymatgen
data_PrFe3CoAs12
_symmetry_space_group_name_H-M   'P 1'
_cell_length_a   7.23714371
_cell_length_b   7.23714325
_cell_length_c   7.23714280
_cell_angle_alpha   109.43082496
_cell_angle_beta   109.43081027
_cell_angle_gamma   109.43082570
_symmetry_Int_Tables_number   1
_chemical_formula_structural   PrFe3CoAs12
_chemical_formula_sum   'Pr1 Fe3 Co1 As12'
_cell_volume   292.23183864
_cell_formula_units_Z   1
loop_
 _symmetry_equiv_pos_site_id
 _symmetry_equiv_pos_as_xyz
  1  'x, y, z'
loop_
 _atom_site_type_symbol
 _atom_site_label
 _atom_site_symmetry_multiplicity
 _atom_site_fract_x
 _atom_site_fract_y
 _atom_site_fract_z
 _atom_site_occupancy
  Pr  Pr0  1  0.000000  0.000000  0.000000  1
  Fe  Fe1  1  0.000000  0.000000  0.500000  1
  Fe  Fe2  1  0.500000  0.000000  0.000000  1
  Fe  Fe3  1  0.000000  0.500000  0.000000  1
  Co  Co4  1  0.500000  0.500000  0.500000  1
  As  As5  1  0.342367  0.186089  0.843289  1
  As  As6  1  0.657633  0.813911  0.156711  1
  As  As7  1  0.657886  0.500910  0.846564  1
  As  As8  1  0.342114  0.499090  0.153436  1
  As  As9  1  0.186089  0.843289  0.342367  1
  As  As10  1  0.813911  0.156711  0.657633  1
  As  As11  1  0.500910  0.846564  0.657886  1
  As  As12  1  0.499090  0.153436  0.342114  1
  As  As13  1  0.843289  0.342367  0.186089  1
  As  As14  1  0.156711  0.657633  0.813911  1
  As  As15  1  0.846564  0.657886  0.500910  1
  As  As16  1  0.153436  0.342114  0.499090  1
