# generated using pymatgen
data_Tm8In3Rh
_symmetry_space_group_name_H-M   'P 1'
_cell_length_a   10.30662400
_cell_length_b   10.30662468
_cell_length_c   6.93850600
_cell_angle_alpha   90.00000000
_cell_angle_beta   90.00000000
_cell_angle_gamma   119.99999781
_symmetry_Int_Tables_number   1
_chemical_formula_structural   Tm8In3Rh
_chemical_formula_sum   'Tm16 In6 Rh2'
_cell_volume   638.30684778
_cell_formula_units_Z   2
loop_
 _symmetry_equiv_pos_site_id
 _symmetry_equiv_pos_as_xyz
  1  'x, y, z'
loop_
 _atom_site_type_symbol
 _atom_site_label
 _atom_site_symmetry_multiplicity
 _atom_site_fract_x
 _atom_site_fract_y
 _atom_site_fract_z
 _atom_site_occupancy
  Tm  Tm0  1  0.532459  0.064920  0.515954  1
  Tm  Tm1  1  0.935080  0.467541  0.515954  1
  Tm  Tm2  1  0.532459  0.467541  0.515954  1
  Tm  Tm3  1  0.467541  0.935080  0.015954  1
  Tm  Tm4  1  0.064920  0.532459  0.015954  1
  Tm  Tm5  1  0.467541  0.532459  0.015954  1
  Tm  Tm6  1  0.176608  0.353215  0.721064  1
  Tm  Tm7  1  0.646785  0.823392  0.721064  1
  Tm  Tm8  1  0.176608  0.823392  0.721064  1
  Tm  Tm9  1  0.823392  0.646785  0.221064  1
  Tm  Tm10  1  0.353215  0.176608  0.221064  1
  Tm  Tm11  1  0.823392  0.176608  0.221064  1
  Tm  Tm12  1  0.666667  0.333333  0.895182  1
  Tm  Tm13  1  0.333333  0.666667  0.395182  1
  Tm  Tm14  1  0.000000  0.000000  0.500473  1
  Tm  Tm15  1  0.000000  0.000000  0.000473  1
  In  In16  1  0.837237  0.674475  0.760854  1
  In  In17  1  0.325525  0.162763  0.760854  1
  In  In18  1  0.837237  0.162763  0.760854  1
  In  In19  1  0.162763  0.325525  0.260854  1
  In  In20  1  0.674475  0.837237  0.260854  1
  In  In21  1  0.162763  0.837237  0.260854  1
  Rh  Rh22  1  0.666667  0.333333  0.289729  1
  Rh  Rh23  1  0.333333  0.666667  0.789729  1
