# generated using pymatgen
data_Pr7NdRe2(TcC4)2
_symmetry_space_group_name_H-M   'P 1'
_cell_length_a   5.37831900
_cell_length_b   6.75335649
_cell_length_c   10.27798774
_cell_angle_alpha   89.95643539
_cell_angle_beta   90.00000000
_cell_angle_gamma   90.00000000
_symmetry_Int_Tables_number   1
_chemical_formula_structural   Pr7NdRe2(TcC4)2
_chemical_formula_sum   'Pr7 Nd1 Re2 Tc2 C8'
_cell_volume   373.31393615
_cell_formula_units_Z   1
loop_
 _symmetry_equiv_pos_site_id
 _symmetry_equiv_pos_as_xyz
  1  'x, y, z'
loop_
 _atom_site_type_symbol
 _atom_site_label
 _atom_site_symmetry_multiplicity
 _atom_site_fract_x
 _atom_site_fract_y
 _atom_site_fract_z
 _atom_site_occupancy
  Pr  Pr0  1  0.250000  0.472931  0.786842  1
  Pr  Pr1  1  0.750000  0.026862  0.285826  1
  Pr  Pr2  1  0.250000  0.974445  0.712556  1
  Pr  Pr3  1  0.750000  0.525829  0.211695  1
  Pr  Pr4  1  0.250000  0.813196  0.050006  1
  Pr  Pr5  1  0.750000  0.687107  0.550546  1
  Pr  Pr6  1  0.250000  0.311249  0.448461  1
  Nd  Nd7  1  0.750000  0.187046  0.947847  1
  Re  Re8  1  0.250000  0.770204  0.356079  1
  Re  Re9  1  0.750000  0.729525  0.856880  1
  Tc  Tc10  1  0.250000  0.270062  0.142949  1
  Tc  Tc11  1  0.750000  0.230173  0.643996  1
  C  C12  1  0.250000  0.688551  0.535353  1
  C  C13  1  0.750000  0.813529  0.035713  1
  C  C14  1  0.250000  0.187922  0.965162  1
  C  C15  1  0.750000  0.311669  0.466138  1
  C  C16  1  0.250000  0.032880  0.258025  1
  C  C17  1  0.750000  0.466651  0.759320  1
  C  C18  1  0.250000  0.535073  0.242821  1
  C  C19  1  0.750000  0.965096  0.743786  1
