# generated using pymatgen
data_NdTm2Cd(Ir2O7)2
_symmetry_space_group_name_H-M   'P 1'
_cell_length_a   7.32809980
_cell_length_b   7.21694091
_cell_length_c   7.32810038
_cell_angle_alpha   59.27670262
_cell_angle_beta   59.63661333
_cell_angle_gamma   59.27670361
_symmetry_Int_Tables_number   1
_chemical_formula_structural   NdTm2Cd(Ir2O7)2
_chemical_formula_sum   'Nd1 Tm2 Cd1 Ir4 O14'
_cell_volume   270.27455775
_cell_formula_units_Z   1
loop_
 _symmetry_equiv_pos_site_id
 _symmetry_equiv_pos_as_xyz
  1  'x, y, z'
loop_
 _atom_site_type_symbol
 _atom_site_label
 _atom_site_symmetry_multiplicity
 _atom_site_fract_x
 _atom_site_fract_y
 _atom_site_fract_z
 _atom_site_occupancy
  Nd  Nd0  1  0.125000  0.125000  0.125000  1
  Tm  Tm1  1  0.625000  0.125000  0.125000  1
  Tm  Tm2  1  0.125000  0.125000  0.625000  1
  Cd  Cd3  1  0.125000  0.625000  0.125000  1
  Ir  Ir4  1  0.125000  0.625000  0.625000  1
  Ir  Ir5  1  0.625000  0.125000  0.625000  1
  Ir  Ir6  1  0.625000  0.625000  0.125000  1
  Ir  Ir7  1  0.625000  0.625000  0.625000  1
  O  O8  1  0.692624  0.715572  0.296813  1
  O  O9  1  0.289933  0.285861  0.702520  1
  O  O10  1  0.711329  0.287071  0.711329  1
  O  O11  1  0.296319  0.701171  0.296319  1
  O  O12  1  0.296813  0.715572  0.692624  1
  O  O13  1  0.702520  0.285861  0.289933  1
  O  O14  1  0.557376  0.534428  0.953187  1
  O  O15  1  0.960067  0.964139  0.547480  1
  O  O16  1  0.538671  0.962929  0.538671  1
  O  O17  1  0.953681  0.548829  0.953681  1
  O  O18  1  0.953187  0.534428  0.557376  1
  O  O19  1  0.547480  0.964139  0.960067  1
  O  O20  1  0.257364  0.248036  0.257364  1
  O  O21  1  0.992636  0.001964  0.992636  1
