# generated using pymatgen
data_CaSm2Zr(GaO3)4
_symmetry_space_group_name_H-M   'P 1'
_cell_length_a   10.93264782
_cell_length_b   10.99740002
_cell_length_c   11.01258260
_cell_angle_alpha   109.38707923
_cell_angle_beta   109.42492202
_cell_angle_gamma   109.25490480
_symmetry_Int_Tables_number   1
_chemical_formula_structural   CaSm2Zr(GaO3)4
_chemical_formula_sum   'Ca4 Sm8 Zr4 Ga16 O48'
_cell_volume   1023.59130257
_cell_formula_units_Z   4
loop_
 _symmetry_equiv_pos_site_id
 _symmetry_equiv_pos_as_xyz
  1  'x, y, z'
loop_
 _atom_site_type_symbol
 _atom_site_label
 _atom_site_symmetry_multiplicity
 _atom_site_fract_x
 _atom_site_fract_y
 _atom_site_fract_z
 _atom_site_occupancy
  Ca  Ca0  1  0.622113  0.237490  0.371910  1
  Ca  Ca1  1  0.873358  0.120439  0.242852  1
  Ca  Ca2  1  0.126642  0.879561  0.757148  1
  Ca  Ca3  1  0.377887  0.762510  0.628090  1
  Sm  Sm4  1  0.249782  0.623975  0.876665  1
  Sm  Sm5  1  0.628576  0.370885  0.749730  1
  Sm  Sm6  1  0.126247  0.251927  0.881231  1
  Sm  Sm7  1  0.249723  0.122411  0.369119  1
  Sm  Sm8  1  0.873753  0.748073  0.118769  1
  Sm  Sm9  1  0.750277  0.877589  0.630881  1
  Sm  Sm10  1  0.371424  0.629115  0.250270  1
  Sm  Sm11  1  0.750218  0.376025  0.123335  1
  Zr  Zr12  1  0.000000  0.000000  0.500000  1
  Zr  Zr13  1  0.500000  0.000000  0.000000  1
  Zr  Zr14  1  0.000000  0.500000  0.500000  1
  Zr  Zr15  1  0.500000  0.500000  0.500000  1
  Ga  Ga16  1  0.884058  0.636653  0.762776  1
  Ga  Ga17  1  0.625431  0.749522  0.874500  1
  Ga  Ga18  1  0.868242  0.252606  0.629218  1
  Ga  Ga19  1  0.246154  0.869977  0.128841  1
  Ga  Ga20  1  0.255225  0.374868  0.633559  1
  Ga  Ga21  1  0.500000  0.500000  0.000000  1
  Ga  Ga22  1  0.000000  0.000000  0.000000  1
  Ga  Ga23  1  0.624000  0.873470  0.249608  1
  Ga  Ga24  1  0.376000  0.126530  0.750392  1
  Ga  Ga25  1  0.500000  0.000000  0.500000  1
  Ga  Ga26  1  0.753846  0.130023  0.871158  1
  Ga  Ga27  1  0.744775  0.625132  0.366441  1
  Ga  Ga28  1  0.131758  0.747394  0.370782  1
  Ga  Ga29  1  0.000000  0.500000  0.000000  1
  Ga  Ga30  1  0.374569  0.250478  0.125500  1
  Ga  Ga31  1  0.115942  0.363347  0.237224  1
  O  O32  1  0.294705  0.874943  0.982118  1
  O  O33  1  0.416241  0.290034  0.319119  1
  O  O34  1  0.689375  0.486122  0.609483  1
  O  O35  1  0.029475  0.625737  0.712466  1
  O  O36  1  0.472861  0.789456  0.877740  1
  O  O37  1  0.207208  0.520417  0.626384  1
  O  O38  1  0.877901  0.295482  0.481789  1
  O  O39  1  0.023279  0.403559  0.822412  1
  O  O40  1  0.672828  0.203459  0.584119  1
  O  O41  1  0.397768  0.018126  0.321812  1
  O  O42  1  0.624019  0.022727  0.206062  1
  O  O43  1  0.619884  0.595168  0.916032  1
  O  O44  1  0.081943  0.173729  0.200700  1
  O  O45  1  0.405029  0.375319  0.586895  1
  O  O46  1  0.297964  0.418351  0.826695  1
  O  O47  1  0.105485  0.184114  0.479541  1
  O  O48  1  0.880706  0.583933  0.907780  1
  O  O49  1  0.820635  0.898832  0.019570  1
  O  O50  1  0.914806  0.100164  0.626150  1
  O  O51  1  0.201076  0.674232  0.081221  1
  O  O52  1  0.584677  0.879188  0.404224  1
  O  O53  1  0.817482  0.911012  0.289506  1
  O  O54  1  0.526482  0.322223  0.902523  1
  O  O55  1  0.094064  0.915699  0.121137  1
  O  O56  1  0.905936  0.084301  0.878863  1
  O  O57  1  0.473518  0.677777  0.097477  1
  O  O58  1  0.182518  0.088988  0.710494  1
  O  O59  1  0.415323  0.120812  0.595776  1
  O  O60  1  0.798924  0.325768  0.918779  1
  O  O61  1  0.085194  0.899836  0.373850  1
  O  O62  1  0.179365  0.101168  0.980430  1
  O  O63  1  0.119294  0.416067  0.092220  1
  O  O64  1  0.894515  0.815886  0.520459  1
  O  O65  1  0.702036  0.581649  0.173305  1
  O  O66  1  0.594971  0.624681  0.413105  1
  O  O67  1  0.918057  0.826271  0.799300  1
  O  O68  1  0.380116  0.404832  0.083968  1
  O  O69  1  0.375981  0.977273  0.793938  1
  O  O70  1  0.602232  0.981874  0.678188  1
  O  O71  1  0.327172  0.796541  0.415881  1
  O  O72  1  0.976721  0.596441  0.177588  1
  O  O73  1  0.122099  0.704518  0.518211  1
  O  O74  1  0.792792  0.479583  0.373616  1
  O  O75  1  0.527139  0.210544  0.122260  1
  O  O76  1  0.970525  0.374263  0.287534  1
  O  O77  1  0.310625  0.513878  0.390517  1
  O  O78  1  0.583759  0.709966  0.680881  1
  O  O79  1  0.705295  0.125057  0.017882  1
