# generated using pymatgen
data_NdDy(GaNi4)2
_symmetry_space_group_name_H-M   'P 1'
_cell_length_a   4.02571100
_cell_length_b   5.05269500
_cell_length_c   8.49110200
_cell_angle_alpha   90.00000000
_cell_angle_beta   90.00000000
_cell_angle_gamma   90.00000000
_symmetry_Int_Tables_number   1
_chemical_formula_structural   NdDy(GaNi4)2
_chemical_formula_sum   'Nd1 Dy1 Ga2 Ni8'
_cell_volume   172.71487219
_cell_formula_units_Z   1
loop_
 _symmetry_equiv_pos_site_id
 _symmetry_equiv_pos_as_xyz
  1  'x, y, z'
loop_
 _atom_site_type_symbol
 _atom_site_label
 _atom_site_symmetry_multiplicity
 _atom_site_fract_x
 _atom_site_fract_y
 _atom_site_fract_z
 _atom_site_occupancy
  Nd  Nd0  1  0.000000  0.500000  0.500000  1
  Dy  Dy1  1  0.000000  0.000000  0.000000  1
  Ga  Ga2  1  0.500000  0.500000  0.000000  1
  Ga  Ga3  1  0.500000  0.000000  0.500000  1
  Ni  Ni4  1  0.000000  0.000000  0.327037  1
  Ni  Ni5  1  0.000000  0.500000  0.833185  1
  Ni  Ni6  1  0.000000  0.500000  0.166815  1
  Ni  Ni7  1  0.000000  0.000000  0.672963  1
  Ni  Ni8  1  0.500000  0.247398  0.247336  1
  Ni  Ni9  1  0.500000  0.752602  0.752664  1
  Ni  Ni10  1  0.500000  0.752602  0.247336  1
  Ni  Ni11  1  0.500000  0.247398  0.752664  1
