# generated using pymatgen
data_Dy8Tm4InCo4Rh
_symmetry_space_group_name_H-M   'P 1'
_cell_length_a   8.28832929
_cell_length_b   8.28833111
_cell_length_c   8.28833171
_cell_angle_alpha   110.89117198
_cell_angle_beta   110.44625331
_cell_angle_gamma   107.10223553
_symmetry_Int_Tables_number   1
_chemical_formula_structural   Dy8Tm4InCo4Rh
_chemical_formula_sum   'Dy8 Tm4 In1 Co4 Rh1'
_cell_volume   437.74186975
_cell_formula_units_Z   1
loop_
 _symmetry_equiv_pos_site_id
 _symmetry_equiv_pos_as_xyz
  1  'x, y, z'
loop_
 _atom_site_type_symbol
 _atom_site_label
 _atom_site_symmetry_multiplicity
 _atom_site_fract_x
 _atom_site_fract_y
 _atom_site_fract_z
 _atom_site_occupancy
  Dy  Dy0  1  0.408277  0.213305  0.194972  1
  Dy  Dy1  1  0.591723  0.786695  0.805028  1
  Dy  Dy2  1  0.018333  0.213305  0.805028  1
  Dy  Dy3  1  0.981667  0.786695  0.194972  1
  Dy  Dy4  1  0.185941  0.291561  0.477501  1
  Dy  Dy5  1  0.814059  0.708439  0.522499  1
  Dy  Dy6  1  0.185941  0.708439  0.894381  1
  Dy  Dy7  1  0.814059  0.291561  0.105619  1
  Tm  Tm8  1  0.315668  0.622742  0.307074  1
  Tm  Tm9  1  0.684332  0.377258  0.692926  1
  Tm  Tm10  1  0.315668  0.008593  0.692926  1
  Tm  Tm11  1  0.684332  0.991407  0.307074  1
  In  In12  1  0.500000  0.500000  0.000000  1
  Co  Co13  1  0.380246  0.000000  0.380246  1
  Co  Co14  1  0.619754  0.000000  0.619754  1
  Co  Co15  1  0.112627  0.612627  0.500000  1
  Co  Co16  1  0.887373  0.387373  0.500000  1
  Rh  Rh17  1  0.000000  0.000000  0.000000  1
