# generated using pymatgen
data_Er2Cr2Fe4Co6P7
_symmetry_space_group_name_H-M   'P 1'
_cell_length_a   8.96290684
_cell_length_b   8.98463508
_cell_length_c   3.61242300
_cell_angle_alpha   90.00000000
_cell_angle_beta   90.00000000
_cell_angle_gamma   120.02653432
_symmetry_Int_Tables_number   1
_chemical_formula_structural   Er2Cr2Fe4Co6P7
_chemical_formula_sum   'Er2 Cr2 Fe4 Co6 P7'
_cell_volume   251.86184035
_cell_formula_units_Z   1
loop_
 _symmetry_equiv_pos_site_id
 _symmetry_equiv_pos_as_xyz
  1  'x, y, z'
loop_
 _atom_site_type_symbol
 _atom_site_label
 _atom_site_symmetry_multiplicity
 _atom_site_fract_x
 _atom_site_fract_y
 _atom_site_fract_z
 _atom_site_occupancy
  Er  Er0  1  0.998944  0.999915  0.000000  1
  Er  Er1  1  0.332528  0.665374  0.500000  1
  Cr  Cr2  1  0.885647  0.452916  0.500000  1
  Cr  Cr3  1  0.548127  0.434547  0.500000  1
  Fe  Fe4  1  0.820626  0.213525  0.000000  1
  Fe  Fe5  1  0.785952  0.611516  0.000000  1
  Fe  Fe6  1  0.391943  0.176795  0.000000  1
  Fe  Fe7  1  0.569562  0.109703  0.500000  1
  Co  Co8  1  0.099198  0.704427  0.000000  1
  Co  Co9  1  0.295463  0.393552  0.000000  1
  Co  Co10  1  0.606375  0.902657  0.000000  1
  Co  Co11  1  0.051819  0.281758  0.500000  1
  Co  Co12  1  0.717458  0.772269  0.500000  1
  Co  Co13  1  0.231078  0.946723  0.500000  1
  P  P14  1  0.075910  0.444935  0.000000  1
  P  P15  1  0.553680  0.631103  0.000000  1
  P  P16  1  0.370535  0.924818  0.000000  1
  P  P17  1  0.781469  0.046246  0.500000  1
  P  P18  1  0.955572  0.737905  0.500000  1
  P  P19  1  0.260963  0.215025  0.500000  1
  P  P20  1  0.667148  0.334296  0.000000  1
