# generated using pymatgen
data_Hf3(ZrP)4
_symmetry_space_group_name_H-M   'P 1'
_cell_length_a   8.09782384
_cell_length_b   8.09782413
_cell_length_c   14.89426467
_cell_angle_alpha   75.64379705
_cell_angle_beta   75.64379737
_cell_angle_gamma   25.46906676
_symmetry_Int_Tables_number   1
_chemical_formula_structural   Hf3(ZrP)4
_chemical_formula_sum   'Hf6 Zr8 P8'
_cell_volume   406.20239279
_cell_formula_units_Z   2
loop_
 _symmetry_equiv_pos_site_id
 _symmetry_equiv_pos_as_xyz
  1  'x, y, z'
loop_
 _atom_site_type_symbol
 _atom_site_label
 _atom_site_symmetry_multiplicity
 _atom_site_fract_x
 _atom_site_fract_y
 _atom_site_fract_z
 _atom_site_occupancy
  Hf  Hf0  1  0.195164  0.195164  0.689706  1
  Hf  Hf1  1  0.804836  0.804836  0.310294  1
  Hf  Hf2  1  0.432131  0.432131  0.167530  1
  Hf  Hf3  1  0.567869  0.567869  0.832470  1
  Hf  Hf4  1  0.500000  0.500000  0.500000  1
  Hf  Hf5  1  0.000000  0.000000  0.000000  1
  Zr  Zr6  1  0.658994  0.658994  0.027859  1
  Zr  Zr7  1  0.341006  0.341006  0.972141  1
  Zr  Zr8  1  0.996769  0.996769  0.668672  1
  Zr  Zr9  1  0.003231  0.003231  0.331328  1
  Zr  Zr10  1  0.823820  0.823820  0.542117  1
  Zr  Zr11  1  0.176180  0.176180  0.457883  1
  Zr  Zr12  1  0.205548  0.205548  0.203078  1
  Zr  Zr13  1  0.794452  0.794452  0.796922  1
  P  P14  1  0.062179  0.062179  0.146785  1
  P  P15  1  0.937821  0.937821  0.853215  1
  P  P16  1  0.369381  0.369381  0.659852  1
  P  P17  1  0.630619  0.630619  0.340148  1
  P  P18  1  0.373056  0.373056  0.400765  1
  P  P19  1  0.626944  0.626944  0.599235  1
  P  P20  1  0.174521  0.174521  0.887365  1
  P  P21  1  0.825479  0.825479  0.112635  1
