# generated using pymatgen
data_K4ErUSe6
_symmetry_space_group_name_H-M   'P 1'
_cell_length_a   7.51022885
_cell_length_b   7.51022867
_cell_length_c   8.05699851
_cell_angle_alpha   80.89588174
_cell_angle_beta   80.89588533
_cell_angle_gamma   120.03790304
_symmetry_Int_Tables_number   1
_chemical_formula_structural   K4ErUSe6
_chemical_formula_sum   'K4 Er1 U1 Se6'
_cell_volume   373.16648545
_cell_formula_units_Z   1
loop_
 _symmetry_equiv_pos_site_id
 _symmetry_equiv_pos_as_xyz
  1  'x, y, z'
loop_
 _atom_site_type_symbol
 _atom_site_label
 _atom_site_symmetry_multiplicity
 _atom_site_fract_x
 _atom_site_fract_y
 _atom_site_fract_z
 _atom_site_occupancy
  K  K0  1  0.500009  0.499991  0.000000  1
  K  K1  1  0.656214  0.343786  0.500000  1
  K  K2  1  0.343788  0.656212  0.500000  1
  K  K3  1  0.999893  0.000107  0.500000  1
  Er  Er4  1  0.832533  0.167467  0.000000  1
  U  U5  1  0.167676  0.832324  0.000000  1
  Se  Se6  1  0.807673  0.799367  0.205716  1
  Se  Se7  1  0.200633  0.192327  0.794284  1
  Se  Se8  1  0.420436  0.050078  0.206907  1
  Se  Se9  1  0.561968  0.940745  0.792003  1
  Se  Se10  1  0.949922  0.579564  0.793093  1
  Se  Se11  1  0.059255  0.438032  0.207997  1
