# generated using pymatgen
data_Gd8Si11Pd4Au
_symmetry_space_group_name_H-M   'P 1'
_cell_length_a   8.16071900
_cell_length_b   8.16071471
_cell_length_c   8.17359000
_cell_angle_alpha   90.00048444
_cell_angle_beta   89.99958577
_cell_angle_gamma   120.03170892
_symmetry_Int_Tables_number   1
_chemical_formula_structural   Gd8Si11Pd4Au
_chemical_formula_sum   'Gd8 Si11 Pd4 Au1'
_cell_volume   471.26072381
_cell_formula_units_Z   1
loop_
 _symmetry_equiv_pos_site_id
 _symmetry_equiv_pos_as_xyz
  1  'x, y, z'
loop_
 _atom_site_type_symbol
 _atom_site_label
 _atom_site_symmetry_multiplicity
 _atom_site_fract_x
 _atom_site_fract_y
 _atom_site_fract_z
 _atom_site_occupancy
  Gd  Gd0  1  0.499408  0.500590  0.750618  1
  Gd  Gd1  1  0.499528  0.500483  0.249544  1
  Gd  Gd2  1  0.999365  0.500968  0.753555  1
  Gd  Gd3  1  0.999150  0.500627  0.246490  1
  Gd  Gd4  1  0.499006  0.000647  0.753446  1
  Gd  Gd5  1  0.499396  0.001118  0.246457  1
  Gd  Gd6  1  0.003757  0.996181  0.746246  1
  Gd  Gd7  1  0.003612  0.996257  0.253651  1
  Si  Si8  1  0.164765  0.835199  0.000182  1
  Si  Si9  1  0.327446  0.164108  0.999998  1
  Si  Si10  1  0.165770  0.834254  0.499885  1
  Si  Si11  1  0.664266  0.825777  0.000051  1
  Si  Si12  1  0.835333  0.164663  0.500081  1
  Si  Si13  1  0.835919  0.672628  0.999919  1
  Si  Si14  1  0.670141  0.835103  0.499796  1
  Si  Si15  1  0.174221  0.335656  0.000003  1
  Si  Si16  1  0.330612  0.165353  0.500098  1
  Si  Si17  1  0.164861  0.329798  0.499948  1
  Si  Si18  1  0.834651  0.669297  0.500052  1
  Pd  Pd19  1  0.655779  0.344289  0.999602  1
  Pd  Pd20  1  0.331865  0.668171  0.000198  1
  Pd  Pd21  1  0.333266  0.666811  0.499819  1
  Pd  Pd22  1  0.667201  0.332643  0.500428  1
  Au  Au23  1  0.840683  0.159380  0.999931  1
