# generated using pymatgen
data_Gd4DySi4
_symmetry_space_group_name_H-M   'P 1'
_cell_length_a   7.64015900
_cell_length_b   7.64015900
_cell_length_c   14.97071100
_cell_angle_alpha   90.00000000
_cell_angle_beta   90.00000000
_cell_angle_gamma   90.00000000
_symmetry_Int_Tables_number   1
_chemical_formula_structural   Gd4DySi4
_chemical_formula_sum   'Gd16 Dy4 Si16'
_cell_volume   873.87078481
_cell_formula_units_Z   4
loop_
 _symmetry_equiv_pos_site_id
 _symmetry_equiv_pos_as_xyz
  1  'x, y, z'
loop_
 _atom_site_type_symbol
 _atom_site_label
 _atom_site_symmetry_multiplicity
 _atom_site_fract_x
 _atom_site_fract_y
 _atom_site_fract_z
 _atom_site_occupancy
  Gd  Gd0  1  0.378506  0.015404  0.447949  1
  Gd  Gd1  1  0.484596  0.878506  0.697949  1
  Gd  Gd2  1  0.515404  0.121494  0.197949  1
  Gd  Gd3  1  0.878506  0.484596  0.302051  1
  Gd  Gd4  1  0.121494  0.515404  0.802051  1
  Gd  Gd5  1  0.621494  0.984596  0.947949  1
  Gd  Gd6  1  0.015404  0.378506  0.552051  1
  Gd  Gd7  1  0.984596  0.621494  0.052051  1
  Gd  Gd8  1  0.130549  0.977946  0.875219  1
  Gd  Gd9  1  0.522054  0.630549  0.125219  1
  Gd  Gd10  1  0.477946  0.369451  0.625219  1
  Gd  Gd11  1  0.630549  0.522054  0.874781  1
  Gd  Gd12  1  0.369451  0.477946  0.374781  1
  Gd  Gd13  1  0.869451  0.022054  0.375219  1
  Gd  Gd14  1  0.977946  0.130549  0.124781  1
  Gd  Gd15  1  0.022054  0.869451  0.624781  1
  Dy  Dy16  1  0.309191  0.309191  0.000000  1
  Dy  Dy17  1  0.190809  0.809191  0.250000  1
  Dy  Dy18  1  0.809191  0.190809  0.750000  1
  Dy  Dy19  1  0.690809  0.690809  0.500000  1
  Si  Si20  1  0.189760  0.171542  0.703572  1
  Si  Si21  1  0.328458  0.689760  0.953572  1
  Si  Si22  1  0.671542  0.310240  0.453572  1
  Si  Si23  1  0.689760  0.328458  0.046428  1
  Si  Si24  1  0.310240  0.671542  0.546428  1
  Si  Si25  1  0.810240  0.828458  0.203572  1
  Si  Si26  1  0.171542  0.189760  0.296428  1
  Si  Si27  1  0.828458  0.810240  0.796428  1
  Si  Si28  1  0.286296  0.925619  0.062474  1
  Si  Si29  1  0.574381  0.786296  0.312474  1
  Si  Si30  1  0.425619  0.213704  0.812474  1
  Si  Si31  1  0.786296  0.574381  0.687526  1
  Si  Si32  1  0.213704  0.425619  0.187526  1
  Si  Si33  1  0.713704  0.074381  0.562474  1
  Si  Si34  1  0.925619  0.286296  0.937526  1
  Si  Si35  1  0.074381  0.713704  0.437526  1
