# generated using pymatgen
data_Tb11HoCoTc3
_symmetry_space_group_name_H-M   'P 1'
_cell_length_a   6.30513321
_cell_length_b   7.35799443
_cell_length_c   9.25466263
_cell_angle_alpha   90.03049497
_cell_angle_beta   89.93892992
_cell_angle_gamma   90.10926355
_symmetry_Int_Tables_number   1
_chemical_formula_structural   Tb11HoCoTc3
_chemical_formula_sum   'Tb11 Ho1 Co1 Tc3'
_cell_volume   429.35172875
_cell_formula_units_Z   1
loop_
 _symmetry_equiv_pos_site_id
 _symmetry_equiv_pos_as_xyz
  1  'x, y, z'
loop_
 _atom_site_type_symbol
 _atom_site_label
 _atom_site_symmetry_multiplicity
 _atom_site_fract_x
 _atom_site_fract_y
 _atom_site_fract_z
 _atom_site_occupancy
  Tb  Tb0  1  0.663040  0.176874  0.062507  1
  Tb  Tb1  1  0.373062  0.541625  0.249353  1
  Tb  Tb2  1  0.125053  0.040578  0.249593  1
  Tb  Tb3  1  0.831801  0.677205  0.433882  1
  Tb  Tb4  1  0.333166  0.821684  0.936207  1
  Tb  Tb5  1  0.165141  0.326485  0.565227  1
  Tb  Tb6  1  0.662640  0.176836  0.437295  1
  Tb  Tb7  1  0.164470  0.327360  0.935447  1
  Tb  Tb8  1  0.332957  0.821779  0.564040  1
  Tb  Tb9  1  0.873071  0.951441  0.750458  1
  Tb  Tb10  1  0.642199  0.457872  0.750738  1
  Ho  Ho11  1  0.831794  0.677173  0.065694  1
  Co  Co12  1  0.038756  0.615171  0.751118  1
  Tc  Tc13  1  0.959358  0.388838  0.249495  1
  Tc  Tc14  1  0.464462  0.112858  0.749689  1
  Tc  Tc15  1  0.539029  0.886221  0.249259  1
