# generated using pymatgen
data_Tm4LuInAu4
_symmetry_space_group_name_H-M   'P 1'
_cell_length_a   7.99919900
_cell_length_b   7.99919900
_cell_length_c   3.68570200
_cell_angle_alpha   90.00000000
_cell_angle_beta   90.00000000
_cell_angle_gamma   90.00000000
_symmetry_Int_Tables_number   1
_chemical_formula_structural   Tm4LuInAu4
_chemical_formula_sum   'Tm4 Lu1 In1 Au4'
_cell_volume   235.83769441
_cell_formula_units_Z   1
loop_
 _symmetry_equiv_pos_site_id
 _symmetry_equiv_pos_as_xyz
  1  'x, y, z'
loop_
 _atom_site_type_symbol
 _atom_site_label
 _atom_site_symmetry_multiplicity
 _atom_site_fract_x
 _atom_site_fract_y
 _atom_site_fract_z
 _atom_site_occupancy
  Tm  Tm0  1  0.182018  0.354140  0.000000  1
  Tm  Tm1  1  0.817982  0.645860  0.000000  1
  Tm  Tm2  1  0.645860  0.182018  0.000000  1
  Tm  Tm3  1  0.354140  0.817982  0.000000  1
  Lu  Lu4  1  0.000000  0.000000  0.500000  1
  In  In5  1  0.500000  0.500000  0.500000  1
  Au  Au6  1  0.355244  0.121485  0.500000  1
  Au  Au7  1  0.644756  0.878515  0.500000  1
  Au  Au8  1  0.878515  0.355244  0.500000  1
  Au  Au9  1  0.121485  0.644756  0.500000  1
