# generated using pymatgen
data_La2Dy3Sn3Sb
_symmetry_space_group_name_H-M   'P 1'
_cell_length_a   8.30846100
_cell_length_b   8.35490600
_cell_length_c   15.74498900
_cell_angle_alpha   90.00000000
_cell_angle_beta   90.00000000
_cell_angle_gamma   90.00000000
_symmetry_Int_Tables_number   1
_chemical_formula_structural   La2Dy3Sn3Sb
_chemical_formula_sum   'La8 Dy12 Sn12 Sb4'
_cell_volume   1092.96062226
_cell_formula_units_Z   4
loop_
 _symmetry_equiv_pos_site_id
 _symmetry_equiv_pos_as_xyz
  1  'x, y, z'
loop_
 _atom_site_type_symbol
 _atom_site_label
 _atom_site_symmetry_multiplicity
 _atom_site_fract_x
 _atom_site_fract_y
 _atom_site_fract_z
 _atom_site_occupancy
  La  La0  1  0.528571  0.323965  0.900066  1
  La  La1  1  0.028571  0.176035  0.599934  1
  La  La2  1  0.471429  0.676035  0.400066  1
  La  La3  1  0.971429  0.823965  0.099934  1
  La  La4  1  0.476793  0.678847  0.098688  1
  La  La5  1  0.976793  0.821153  0.401312  1
  La  La6  1  0.523207  0.321153  0.598688  1
  La  La7  1  0.023207  0.178847  0.901312  1
  Dy  Dy8  1  0.369453  0.839352  0.876925  1
  Dy  Dy9  1  0.869453  0.660648  0.623075  1
  Dy  Dy10  1  0.630547  0.160648  0.376925  1
  Dy  Dy11  1  0.130547  0.339352  0.123075  1
  Dy  Dy12  1  0.634059  0.161777  0.122809  1
  Dy  Dy13  1  0.134059  0.338223  0.377191  1
  Dy  Dy14  1  0.365941  0.838223  0.622809  1
  Dy  Dy15  1  0.865941  0.661777  0.877191  1
  Dy  Dy16  1  0.198212  0.502569  0.748138  1
  Dy  Dy17  1  0.698212  0.997431  0.751862  1
  Dy  Dy18  1  0.801788  0.497431  0.248138  1
  Dy  Dy19  1  0.301788  0.002569  0.251862  1
  Sn  Sn20  1  0.706968  0.961867  0.955731  1
  Sn  Sn21  1  0.206968  0.538133  0.544269  1
  Sn  Sn22  1  0.293032  0.038133  0.455731  1
  Sn  Sn23  1  0.793032  0.461867  0.044269  1
  Sn  Sn24  1  0.564883  0.626847  0.748983  1
  Sn  Sn25  1  0.064883  0.873153  0.751017  1
  Sn  Sn26  1  0.435117  0.373153  0.248983  1
  Sn  Sn27  1  0.935117  0.126847  0.251017  1
  Sn  Sn28  1  0.333490  0.142470  0.750714  1
  Sn  Sn29  1  0.833490  0.357530  0.749286  1
  Sn  Sn30  1  0.666510  0.857530  0.250714  1
  Sn  Sn31  1  0.166510  0.642470  0.249286  1
  Sb  Sb32  1  0.292634  0.038807  0.044727  1
  Sb  Sb33  1  0.792634  0.461193  0.455273  1
  Sb  Sb34  1  0.707366  0.961193  0.544727  1
  Sb  Sb35  1  0.207366  0.538807  0.955273  1
