# generated using pymatgen
data_Cs6Na4TiSiAs6
_symmetry_space_group_name_H-M   'P 1'
_cell_length_a   10.86393098
_cell_length_b   10.86392860
_cell_length_c   16.78275400
_cell_angle_alpha   90.00000000
_cell_angle_beta   90.00000000
_cell_angle_gamma   142.42236421
_symmetry_Int_Tables_number   1
_chemical_formula_structural   Cs6Na4TiSiAs6
_chemical_formula_sum   'Cs12 Na8 Ti2 Si2 As12'
_cell_volume   1207.95314953
_cell_formula_units_Z   2
loop_
 _symmetry_equiv_pos_site_id
 _symmetry_equiv_pos_as_xyz
  1  'x, y, z'
loop_
 _atom_site_type_symbol
 _atom_site_label
 _atom_site_symmetry_multiplicity
 _atom_site_fract_x
 _atom_site_fract_y
 _atom_site_fract_z
 _atom_site_occupancy
  Cs  Cs0  1  0.939246  0.606957  0.829932  1
  Cs  Cs1  1  0.560754  0.893043  0.329932  1
  Cs  Cs2  1  0.393043  0.060754  0.170068  1
  Cs  Cs3  1  0.053224  0.389848  0.171885  1
  Cs  Cs4  1  0.889848  0.553224  0.328115  1
  Cs  Cs5  1  0.446776  0.110152  0.671885  1
  Cs  Cs6  1  0.610152  0.946776  0.828115  1
  Cs  Cs7  1  0.275876  0.277238  0.317345  1
  Cs  Cs8  1  0.777238  0.775876  0.182655  1
  Cs  Cs9  1  0.224124  0.222762  0.817345  1
  Cs  Cs10  1  0.722762  0.724124  0.682655  1
  Cs  Cs11  1  0.106957  0.439246  0.670068  1
  Na  Na12  1  0.921312  0.078688  0.000000  1
  Na  Na13  1  0.578688  0.421312  0.500000  1
  Na  Na14  1  0.080049  0.919951  0.000000  1
  Na  Na15  1  0.419951  0.580049  0.500000  1
  Na  Na16  1  0.754101  0.245899  0.000000  1
  Na  Na17  1  0.745899  0.254101  0.500000  1
  Na  Na18  1  0.244893  0.755107  0.000000  1
  Na  Na19  1  0.255107  0.744893  0.500000  1
  Ti  Ti20  1  0.418991  0.581009  0.000000  1
  Ti  Ti21  1  0.081009  0.918991  0.500000  1
  Si  Si22  1  0.582050  0.417950  0.000000  1
  Si  Si23  1  0.917950  0.082050  0.500000  1
  As  As24  1  0.850832  0.550022  0.086420  1
  As  As25  1  0.449978  0.149168  0.913580  1
  As  As26  1  0.649168  0.949978  0.586420  1
  As  As27  1  0.947738  0.643630  0.587826  1
  As  As28  1  0.143630  0.447738  0.912174  1
  As  As29  1  0.552262  0.856370  0.087826  1
  As  As30  1  0.356370  0.052262  0.412174  1
  As  As31  1  0.187028  0.192282  0.581176  1
  As  As32  1  0.692282  0.687028  0.918824  1
  As  As33  1  0.312972  0.307718  0.081176  1
  As  As34  1  0.050022  0.350832  0.413580  1
  As  As35  1  0.807718  0.812972  0.418824  1
