# generated using pymatgen
data_AlNi20(B3Sb)2
_symmetry_space_group_name_H-M   'P 1'
_cell_length_a   7.50641468
_cell_length_b   7.50641397
_cell_length_c   7.50641300
_cell_angle_alpha   59.99999986
_cell_angle_beta   60.00000299
_cell_angle_gamma   59.99999378
_symmetry_Int_Tables_number   1
_chemical_formula_structural   AlNi20(B3Sb)2
_chemical_formula_sum   'Al1 Ni20 B6 Sb2'
_cell_volume   299.07665228
_cell_formula_units_Z   1
loop_
 _symmetry_equiv_pos_site_id
 _symmetry_equiv_pos_as_xyz
  1  'x, y, z'
loop_
 _atom_site_type_symbol
 _atom_site_label
 _atom_site_symmetry_multiplicity
 _atom_site_fract_x
 _atom_site_fract_y
 _atom_site_fract_z
 _atom_site_occupancy
  Al  Al0  1  0.000000  0.000000  0.000000  1
  Ni  Ni1  1  0.000000  0.000000  0.663709  1
  Ni  Ni2  1  0.615636  0.615636  0.153092  1
  Ni  Ni3  1  0.384364  0.846908  0.384364  1
  Ni  Ni4  1  0.663709  0.336291  0.000000  1
  Ni  Ni5  1  0.000000  0.336291  0.663709  1
  Ni  Ni6  1  0.663709  0.000000  0.000000  1
  Ni  Ni7  1  0.000000  0.000000  0.336291  1
  Ni  Ni8  1  0.000000  0.336291  0.000000  1
  Ni  Ni9  1  0.336291  0.000000  0.663709  1
  Ni  Ni10  1  0.663709  0.000000  0.336291  1
  Ni  Ni11  1  0.336291  0.000000  0.000000  1
  Ni  Ni12  1  0.000000  0.663709  0.000000  1
  Ni  Ni13  1  0.384364  0.384364  0.846908  1
  Ni  Ni14  1  0.000000  0.663709  0.336291  1
  Ni  Ni15  1  0.336291  0.663709  0.000000  1
  Ni  Ni16  1  0.615636  0.153092  0.615636  1
  Ni  Ni17  1  0.153092  0.615636  0.615636  1
  Ni  Ni18  1  0.384364  0.384364  0.384364  1
  Ni  Ni19  1  0.846908  0.384364  0.384364  1
  Ni  Ni20  1  0.615636  0.615636  0.615636  1
  B  B21  1  0.728095  0.728095  0.271905  1
  B  B22  1  0.728095  0.271905  0.728095  1
  B  B23  1  0.271905  0.728095  0.271905  1
  B  B24  1  0.728095  0.271905  0.271905  1
  B  B25  1  0.271905  0.728095  0.728095  1
  B  B26  1  0.271905  0.271905  0.728095  1
  Sb  Sb27  1  0.250000  0.250000  0.250000  1
  Sb  Sb28  1  0.750000  0.750000  0.750000  1
