# generated using pymatgen
data_TaMn(PO4)3
_symmetry_space_group_name_H-M   'P 1'
_cell_length_a   8.54202286
_cell_length_b   8.54160523
_cell_length_c   8.85939881
_cell_angle_alpha   90.05173403
_cell_angle_beta   118.66787680
_cell_angle_gamma   119.95166294
_symmetry_Int_Tables_number   1
_chemical_formula_structural   TaMn(PO4)3
_chemical_formula_sum   'Ta2 Mn2 P6 O24'
_cell_volume   466.19825277
_cell_formula_units_Z   2
loop_
 _symmetry_equiv_pos_site_id
 _symmetry_equiv_pos_as_xyz
  1  'x, y, z'
loop_
 _atom_site_type_symbol
 _atom_site_label
 _atom_site_symmetry_multiplicity
 _atom_site_fract_x
 _atom_site_fract_y
 _atom_site_fract_z
 _atom_site_occupancy
  Ta  Ta0  1  0.222152  0.862245  0.084761  1
  Ta  Ta1  1  0.217815  0.360190  0.577517  1
  Mn  Mn2  1  0.795757  0.646194  0.441614  1
  Mn  Mn3  1  0.792336  0.144410  0.936354  1
  P  P4  1  0.980092  0.957349  0.247746  1
  P  P5  1  0.983436  0.023497  0.751084  1
  P  P6  1  0.726417  0.266308  0.251915  1
  P  P7  1  0.289751  0.768933  0.746662  1
  P  P8  1  0.288867  0.521766  0.249219  1
  P  P9  1  0.728688  0.460623  0.748472  1
  O  O10  1  0.130133  0.005616  0.929116  1
  O  O11  1  0.263201  0.504982  0.410754  1
  O  O12  1  0.843097  0.980630  0.068951  1
  O  O13  1  0.513256  0.097845  0.227263  1
  O  O14  1  0.840291  0.070829  0.766326  1
  O  O15  1  0.746800  0.454336  0.275118  1
  O  O16  1  0.140832  0.143413  0.408756  1
  O  O17  1  0.754912  0.482881  0.587591  1
  O  O18  1  0.722730  0.227516  0.080719  1
  O  O19  1  0.274089  0.579442  0.719814  1
  O  O20  1  0.102374  0.760308  0.578469  1
  O  O21  1  0.309336  0.709498  0.220409  1
  O  O22  1  0.485028  0.526545  0.286231  1
  O  O23  1  0.141815  0.192172  0.716882  1
  O  O24  1  0.127103  0.911656  0.229867  1
  O  O25  1  0.703017  0.275540  0.775239  1
  O  O26  1  0.497810  0.930667  0.769370  1
  O  O27  1  0.090637  0.353851  0.074937  1
  O  O28  1  0.909186  0.270424  0.421132  1
  O  O29  1  0.287316  0.797000  0.917158  1
  O  O30  1  0.828563  0.837725  0.591714  1
  O  O31  1  0.819816  0.795858  0.279027  1
  O  O32  1  0.921103  0.632919  0.921217  1
  O  O33  1  0.522241  0.446830  0.708594  1
