# generated using pymatgen
data_Tb8CuP12Pd11
_symmetry_space_group_name_H-M   'P 1'
_cell_length_a   3.95079800
_cell_length_b   10.85680433
_cell_length_c   13.33847537
_cell_angle_alpha   90.02750598
_cell_angle_beta   90.00000000
_cell_angle_gamma   90.00000000
_symmetry_Int_Tables_number   1
_chemical_formula_structural   Tb8CuP12Pd11
_chemical_formula_sum   'Tb8 Cu1 P12 Pd11'
_cell_volume   572.12770249
_cell_formula_units_Z   1
loop_
 _symmetry_equiv_pos_site_id
 _symmetry_equiv_pos_as_xyz
  1  'x, y, z'
loop_
 _atom_site_type_symbol
 _atom_site_label
 _atom_site_symmetry_multiplicity
 _atom_site_fract_x
 _atom_site_fract_y
 _atom_site_fract_z
 _atom_site_occupancy
  Tb  Tb0  1  0.250000  0.927729  0.786896  1
  Tb  Tb1  1  0.750000  0.428186  0.713500  1
  Tb  Tb2  1  0.250000  0.572842  0.284577  1
  Tb  Tb3  1  0.750000  0.073309  0.215248  1
  Tb  Tb4  1  0.250000  0.843800  0.505290  1
  Tb  Tb5  1  0.750000  0.339199  0.995088  1
  Tb  Tb6  1  0.250000  0.658747  0.003470  1
  Tb  Tb7  1  0.750000  0.159721  0.500039  1
  Cu  Cu8  1  0.750000  0.133240  0.718551  1
  P  P9  1  0.250000  0.236862  0.644809  1
  P  P10  1  0.750000  0.736382  0.857390  1
  P  P11  1  0.250000  0.262547  0.142939  1
  P  P12  1  0.750000  0.763403  0.356733  1
  P  P13  1  0.250000  0.603518  0.603014  1
  P  P14  1  0.750000  0.101176  0.894245  1
  P  P15  1  0.250000  0.898279  0.103294  1
  P  P16  1  0.750000  0.397283  0.396495  1
  P  P17  1  0.250000  0.054689  0.377163  1
  P  P18  1  0.750000  0.552967  0.123616  1
  P  P19  1  0.250000  0.443066  0.874114  1
  P  P20  1  0.750000  0.949823  0.628413  1
  Pd  Pd21  1  0.250000  0.407441  0.523449  1
  Pd  Pd22  1  0.750000  0.906513  0.978837  1
  Pd  Pd23  1  0.250000  0.093897  0.020654  1
  Pd  Pd24  1  0.750000  0.593317  0.475891  1
  Pd  Pd25  1  0.250000  0.270831  0.339658  1
  Pd  Pd26  1  0.750000  0.770007  0.162614  1
  Pd  Pd27  1  0.250000  0.225637  0.829768  1
  Pd  Pd28  1  0.750000  0.731024  0.662148  1
  Pd  Pd29  1  0.250000  0.866956  0.282748  1
  Pd  Pd30  1  0.750000  0.365214  0.217708  1
  Pd  Pd31  1  0.250000  0.632394  0.781641  1
