# generated using pymatgen
data_Pr8Zn8Ir7Pt
_symmetry_space_group_name_H-M   'P 1'
_cell_length_a   4.08525000
_cell_length_b   7.37939886
_cell_length_c   16.68054335
_cell_angle_alpha   90.08983726
_cell_angle_beta   90.00000000
_cell_angle_gamma   90.00000000
_symmetry_Int_Tables_number   1
_chemical_formula_structural   Pr8Zn8Ir7Pt
_chemical_formula_sum   'Pr8 Zn8 Ir7 Pt1'
_cell_volume   502.86253775
_cell_formula_units_Z   1
loop_
 _symmetry_equiv_pos_site_id
 _symmetry_equiv_pos_as_xyz
  1  'x, y, z'
loop_
 _atom_site_type_symbol
 _atom_site_label
 _atom_site_symmetry_multiplicity
 _atom_site_fract_x
 _atom_site_fract_y
 _atom_site_fract_z
 _atom_site_occupancy
  Pr  Pr0  1  0.750000  0.446689  0.218182  1
  Pr  Pr1  1  0.750000  0.955791  0.284455  1
  Pr  Pr2  1  0.750000  0.834944  0.057431  1
  Pr  Pr3  1  0.250000  0.046504  0.716979  1
  Pr  Pr4  1  0.250000  0.167718  0.938773  1
  Pr  Pr5  1  0.250000  0.546397  0.782709  1
  Pr  Pr6  1  0.750000  0.333376  0.440218  1
  Pr  Pr7  1  0.250000  0.666839  0.560928  1
  Zn  Zn8  1  0.250000  0.998988  0.440187  1
  Zn  Zn9  1  0.750000  0.500366  0.939370  1
  Zn  Zn10  1  0.750000  0.001030  0.560288  1
  Zn  Zn11  1  0.250000  0.624937  0.351941  1
  Zn  Zn12  1  0.750000  0.373578  0.649639  1
  Zn  Zn13  1  0.750000  0.874147  0.850125  1
  Zn  Zn14  1  0.250000  0.496936  0.059146  1
  Zn  Zn15  1  0.250000  0.130981  0.149589  1
  Ir  Ir16  1  0.250000  0.240575  0.564769  1
  Ir  Ir17  1  0.750000  0.259214  0.065166  1
  Ir  Ir18  1  0.250000  0.246628  0.312840  1
  Ir  Ir19  1  0.750000  0.253702  0.813090  1
  Ir  Ir20  1  0.250000  0.741854  0.935737  1
  Ir  Ir21  1  0.750000  0.753096  0.687094  1
  Ir  Ir22  1  0.750000  0.759401  0.434433  1
  Pt  Pt23  1  0.250000  0.746310  0.186912  1
