# generated using pymatgen
data_U4Tc10IrRuC3
_symmetry_space_group_name_H-M   'P 1'
_cell_length_a   4.14162800
_cell_length_b   4.18014100
_cell_length_c   16.41817400
_cell_angle_alpha   90.00000000
_cell_angle_beta   90.00000000
_cell_angle_gamma   90.00000000
_symmetry_Int_Tables_number   1
_chemical_formula_structural   U4Tc10IrRuC3
_chemical_formula_sum   'U4 Tc10 Ir1 Ru1 C3'
_cell_volume   284.24109875
_cell_formula_units_Z   1
loop_
 _symmetry_equiv_pos_site_id
 _symmetry_equiv_pos_as_xyz
  1  'x, y, z'
loop_
 _atom_site_type_symbol
 _atom_site_label
 _atom_site_symmetry_multiplicity
 _atom_site_fract_x
 _atom_site_fract_y
 _atom_site_fract_z
 _atom_site_occupancy
  U  U0  1  0.000000  0.000000  0.883955  1
  U  U1  1  0.000000  0.000000  0.117607  1
  U  U2  1  0.000000  0.000000  0.371442  1
  U  U3  1  0.000000  0.000000  0.626577  1
  Tc  Tc4  1  0.500000  0.500000  0.881839  1
  Tc  Tc5  1  0.500000  0.500000  0.117624  1
  Tc  Tc6  1  0.500000  0.500000  0.372340  1
  Tc  Tc7  1  0.500000  0.500000  0.627788  1
  Tc  Tc8  1  0.500000  0.000000  0.000034  1
  Tc  Tc9  1  0.500000  0.000000  0.247313  1
  Tc  Tc10  1  0.500000  0.000000  0.500357  1
  Tc  Tc11  1  0.500000  0.000000  0.752871  1
  Tc  Tc12  1  0.000000  0.500000  0.247590  1
  Tc  Tc13  1  0.000000  0.500000  0.500858  1
  Ir  Ir14  1  0.000000  0.500000  0.999786  1
  Ru  Ru15  1  0.000000  0.500000  0.752513  1
  C  C16  1  0.500000  0.500000  0.240888  1
  C  C17  1  0.500000  0.500000  0.499596  1
  C  C18  1  0.500000  0.500000  0.759018  1
