# generated using pymatgen
data_CdPt2Pb3
_symmetry_space_group_name_H-M   'P 1'
_cell_length_a   8.19690803
_cell_length_b   8.19690561
_cell_length_c   8.19690825
_cell_angle_alpha   33.91932885
_cell_angle_beta   33.91933775
_cell_angle_gamma   33.91933511
_symmetry_Int_Tables_number   1
_chemical_formula_structural   CdPt2Pb3
_chemical_formula_sum   'Cd1 Pt2 Pb3'
_cell_volume   152.84822003
_cell_formula_units_Z   1
loop_
 _symmetry_equiv_pos_site_id
 _symmetry_equiv_pos_as_xyz
  1  'x, y, z'
loop_
 _atom_site_type_symbol
 _atom_site_label
 _atom_site_symmetry_multiplicity
 _atom_site_fract_x
 _atom_site_fract_y
 _atom_site_fract_z
 _atom_site_occupancy
  Cd  Cd0  1  0.374990  0.374990  0.374990  1
  Pt  Pt1  1  0.998467  0.998467  0.998467  1
  Pt  Pt2  1  0.500768  0.500768  0.500768  1
  Pb  Pb3  1  0.121305  0.121305  0.121305  1
  Pb  Pb4  1  0.630841  0.630841  0.630841  1
  Pb  Pb5  1  0.873629  0.873629  0.873629  1
