# generated using pymatgen
data_Yb8InGa2
_symmetry_space_group_name_H-M   'P 1'
_cell_length_a   9.32117017
_cell_length_b   9.35072377
_cell_length_c   9.45466148
_cell_angle_alpha   98.62319815
_cell_angle_beta   101.95270877
_cell_angle_gamma   119.56532710
_symmetry_Int_Tables_number   1
_chemical_formula_structural   Yb8InGa2
_chemical_formula_sum   'Yb16 In2 Ga4'
_cell_volume   669.73994701
_cell_formula_units_Z   2
loop_
 _symmetry_equiv_pos_site_id
 _symmetry_equiv_pos_as_xyz
  1  'x, y, z'
loop_
 _atom_site_type_symbol
 _atom_site_label
 _atom_site_symmetry_multiplicity
 _atom_site_fract_x
 _atom_site_fract_y
 _atom_site_fract_z
 _atom_site_occupancy
  Yb  Yb0  1  0.077858  0.735511  0.109774  1
  Yb  Yb1  1  0.325706  0.370759  0.111339  1
  Yb  Yb2  1  0.712863  0.002508  0.114731  1
  Yb  Yb3  1  0.546325  0.205542  0.291295  1
  Yb  Yb4  1  0.772900  0.649909  0.294183  1
  Yb  Yb5  1  0.042108  0.443493  0.333039  1
  Yb  Yb6  1  0.472714  0.805548  0.354499  1
  Yb  Yb7  1  0.119267  0.093396  0.351061  1
  Yb  Yb8  1  0.881097  0.905645  0.648245  1
  Yb  Yb9  1  0.529534  0.197407  0.648572  1
  Yb  Yb10  1  0.958052  0.558212  0.665127  1
  Yb  Yb11  1  0.222556  0.342982  0.700903  1
  Yb  Yb12  1  0.457394  0.795247  0.705272  1
  Yb  Yb13  1  0.295619  0.005785  0.887182  1
  Yb  Yb14  1  0.671731  0.620736  0.890467  1
  Yb  Yb15  1  0.914946  0.266071  0.893733  1
  In  In16  1  0.500526  0.500221  0.499888  1
  In  In17  1  0.323554  0.662678  0.977058  1
  Ga  Ga18  1  0.999575  0.999424  0.999532  1
  Ga  Ga19  1  0.675242  0.337701  0.024127  1
  Ga  Ga20  1  0.827729  0.165240  0.500791  1
  Ga  Ga21  1  0.172701  0.835984  0.499184  1
