# generated using pymatgen
data_TbHo3Ga4IrPd3
_symmetry_space_group_name_H-M   'P 1'
_cell_length_a   4.46176600
_cell_length_b   6.89567384
_cell_length_c   7.67388354
_cell_angle_alpha   90.59658883
_cell_angle_beta   90.00000000
_cell_angle_gamma   90.00000000
_symmetry_Int_Tables_number   1
_chemical_formula_structural   TbHo3Ga4IrPd3
_chemical_formula_sum   'Tb1 Ho3 Ga4 Ir1 Pd3'
_cell_volume   236.08867911
_cell_formula_units_Z   1
loop_
 _symmetry_equiv_pos_site_id
 _symmetry_equiv_pos_as_xyz
  1  'x, y, z'
loop_
 _atom_site_type_symbol
 _atom_site_label
 _atom_site_symmetry_multiplicity
 _atom_site_fract_x
 _atom_site_fract_y
 _atom_site_fract_z
 _atom_site_occupancy
  Tb  Tb0  1  0.250000  0.018597  0.802578  1
  Ho  Ho1  1  0.250000  0.521800  0.692684  1
  Ho  Ho2  1  0.750000  0.980082  0.203581  1
  Ho  Ho3  1  0.750000  0.490904  0.302236  1
  Ga  Ga4  1  0.250000  0.169086  0.424335  1
  Ga  Ga5  1  0.250000  0.678083  0.075967  1
  Ga  Ga6  1  0.750000  0.822469  0.574198  1
  Ga  Ga7  1  0.750000  0.324789  0.926155  1
  Ir  Ir8  1  0.250000  0.773051  0.401420  1
  Pd  Pd9  1  0.250000  0.282563  0.099172  1
  Pd  Pd10  1  0.750000  0.220059  0.596068  1
  Pd  Pd11  1  0.750000  0.718516  0.901607  1
