# generated using pymatgen
data_Ac2PtRh3
_symmetry_space_group_name_H-M   'P 1'
_cell_length_a   5.56999709
_cell_length_b   5.60456362
_cell_length_c   5.60456600
_cell_angle_alpha   60.00000955
_cell_angle_beta   59.79450878
_cell_angle_gamma   59.79449721
_symmetry_Int_Tables_number   1
_chemical_formula_structural   Ac2PtRh3
_chemical_formula_sum   'Ac2 Pt1 Rh3'
_cell_volume   123.32974403
_cell_formula_units_Z   1
loop_
 _symmetry_equiv_pos_site_id
 _symmetry_equiv_pos_as_xyz
  1  'x, y, z'
loop_
 _atom_site_type_symbol
 _atom_site_label
 _atom_site_symmetry_multiplicity
 _atom_site_fract_x
 _atom_site_fract_y
 _atom_site_fract_z
 _atom_site_occupancy
  Ac  Ac0  1  0.751066  0.749644  0.749644  1
  Ac  Ac1  1  0.498934  0.500356  0.500356  1
  Pt  Pt2  1  0.625000  0.125000  0.125000  1
  Rh  Rh3  1  0.125000  0.625000  0.125000  1
  Rh  Rh4  1  0.125000  0.125000  0.625000  1
  Rh  Rh5  1  0.125000  0.125000  0.125000  1
