# generated using pymatgen
data_LiDy2Co8P6Ru
_symmetry_space_group_name_H-M   'P 1'
_cell_length_a   3.69315000
_cell_length_b   10.33219900
_cell_length_c   11.83147100
_cell_angle_alpha   90.00000000
_cell_angle_beta   90.00000000
_cell_angle_gamma   90.00000000
_symmetry_Int_Tables_number   1
_chemical_formula_structural   LiDy2Co8P6Ru
_chemical_formula_sum   'Li2 Dy4 Co16 P12 Ru2'
_cell_volume   451.46953847
_cell_formula_units_Z   2
loop_
 _symmetry_equiv_pos_site_id
 _symmetry_equiv_pos_as_xyz
  1  'x, y, z'
loop_
 _atom_site_type_symbol
 _atom_site_label
 _atom_site_symmetry_multiplicity
 _atom_site_fract_x
 _atom_site_fract_y
 _atom_site_fract_z
 _atom_site_occupancy
  Li  Li0  1  0.750000  0.296259  0.009022  1
  Li  Li1  1  0.750000  0.203741  0.509022  1
  Dy  Dy2  1  0.250000  0.581018  0.702205  1
  Dy  Dy3  1  0.250000  0.918982  0.202205  1
  Dy  Dy4  1  0.750000  0.416217  0.295965  1
  Dy  Dy5  1  0.750000  0.083783  0.795965  1
  Co  Co6  1  0.250000  0.408603  0.486040  1
  Co  Co7  1  0.250000  0.091397  0.986040  1
  Co  Co8  1  0.750000  0.594126  0.510749  1
  Co  Co9  1  0.750000  0.905874  0.010749  1
  Co  Co10  1  0.250000  0.218182  0.175128  1
  Co  Co11  1  0.250000  0.281818  0.675128  1
  Co  Co12  1  0.750000  0.777230  0.824029  1
  Co  Co13  1  0.750000  0.722770  0.324029  1
  Co  Co14  1  0.250000  0.884251  0.702440  1
  Co  Co15  1  0.250000  0.615749  0.202440  1
  Co  Co16  1  0.750000  0.116839  0.301333  1
  Co  Co17  1  0.750000  0.383161  0.801333  1
  Co  Co18  1  0.250000  0.464561  0.933954  1
  Co  Co19  1  0.250000  0.035439  0.433954  1
  Co  Co20  1  0.750000  0.535354  0.069429  1
  Co  Co21  1  0.750000  0.964646  0.569429  1
  P  P22  1  0.250000  0.419158  0.115019  1
  P  P23  1  0.250000  0.080842  0.615019  1
  P  P24  1  0.750000  0.576754  0.887499  1
  P  P25  1  0.750000  0.923246  0.387499  1
  P  P26  1  0.250000  0.271256  0.862774  1
  P  P27  1  0.250000  0.228744  0.362774  1
  P  P28  1  0.750000  0.730424  0.134012  1
  P  P29  1  0.750000  0.769576  0.634012  1
  P  P30  1  0.250000  0.596839  0.391484  1
  P  P31  1  0.250000  0.903161  0.891484  1
  P  P32  1  0.750000  0.398243  0.607198  1
  P  P33  1  0.750000  0.101757  0.107198  1
  Ru  Ru34  1  0.250000  0.711570  0.991721  1
  Ru  Ru35  1  0.250000  0.788430  0.491721  1
