# generated using pymatgen
data_Li2PrNd7(Zn3Rh4)2
_symmetry_space_group_name_H-M   'P 1'
_cell_length_a   4.10515400
_cell_length_b   7.24843713
_cell_length_c   16.39313329
_cell_angle_alpha   89.97866101
_cell_angle_beta   90.00000000
_cell_angle_gamma   90.00000000
_symmetry_Int_Tables_number   1
_chemical_formula_structural   Li2PrNd7(Zn3Rh4)2
_chemical_formula_sum   'Li2 Pr1 Nd7 Zn6 Rh8'
_cell_volume   487.79323134
_cell_formula_units_Z   1
loop_
 _symmetry_equiv_pos_site_id
 _symmetry_equiv_pos_as_xyz
  1  'x, y, z'
loop_
 _atom_site_type_symbol
 _atom_site_label
 _atom_site_symmetry_multiplicity
 _atom_site_fract_x
 _atom_site_fract_y
 _atom_site_fract_z
 _atom_site_occupancy
  Li  Li0  1  0.250000  0.992806  0.438674  1
  Li  Li1  1  0.750000  0.507653  0.938834  1
  Pr  Pr2  1  0.250000  0.667018  0.560794  1
  Nd  Nd3  1  0.750000  0.455239  0.217782  1
  Nd  Nd4  1  0.750000  0.955358  0.281974  1
  Nd  Nd5  1  0.750000  0.833234  0.060838  1
  Nd  Nd6  1  0.250000  0.045330  0.717995  1
  Nd  Nd7  1  0.250000  0.163249  0.940071  1
  Nd  Nd8  1  0.250000  0.544462  0.782287  1
  Nd  Nd9  1  0.750000  0.335793  0.439740  1
  Zn  Zn10  1  0.750000  0.004218  0.559677  1
  Zn  Zn11  1  0.250000  0.629082  0.350674  1
  Zn  Zn12  1  0.750000  0.372769  0.649891  1
  Zn  Zn13  1  0.750000  0.870894  0.851010  1
  Zn  Zn14  1  0.250000  0.497397  0.059766  1
  Zn  Zn15  1  0.250000  0.126202  0.149548  1
  Rh  Rh16  1  0.250000  0.243030  0.565363  1
  Rh  Rh17  1  0.750000  0.255162  0.065408  1
  Rh  Rh18  1  0.250000  0.250208  0.311629  1
  Rh  Rh19  1  0.750000  0.249531  0.811698  1
  Rh  Rh20  1  0.250000  0.751201  0.936548  1
  Rh  Rh21  1  0.750000  0.752190  0.687768  1
  Rh  Rh22  1  0.750000  0.749340  0.435489  1
  Rh  Rh23  1  0.250000  0.748636  0.186538  1
