# generated using pymatgen
data_Th3AlCd2Cu3
_symmetry_space_group_name_H-M   'P 1'
_cell_length_a   7.18577174
_cell_length_b   7.11950579
_cell_length_c   4.39589900
_cell_angle_alpha   90.00000000
_cell_angle_beta   90.00000000
_cell_angle_gamma   119.69540202
_symmetry_Int_Tables_number   1
_chemical_formula_structural   Th3AlCd2Cu3
_chemical_formula_sum   'Th3 Al1 Cd2 Cu3'
_cell_volume   195.35585390
_cell_formula_units_Z   1
loop_
 _symmetry_equiv_pos_site_id
 _symmetry_equiv_pos_as_xyz
  1  'x, y, z'
loop_
 _atom_site_type_symbol
 _atom_site_label
 _atom_site_symmetry_multiplicity
 _atom_site_fract_x
 _atom_site_fract_y
 _atom_site_fract_z
 _atom_site_occupancy
  Th  Th0  1  0.419972  0.420763  0.500000  1
  Th  Th1  1  0.580028  0.000791  0.500000  1
  Th  Th2  1  0.000000  0.574292  0.500000  1
  Al  Al3  1  0.000000  0.237094  0.000000  1
  Cd  Cd4  1  0.759578  0.760642  0.000000  1
  Cd  Cd5  1  0.240422  0.001064  0.000000  1
  Cu  Cu6  1  0.679868  0.330727  0.000000  1
  Cu  Cu7  1  0.320132  0.650861  0.000000  1
  Cu  Cu8  1  0.000000  0.023767  0.500000  1
