# generated using pymatgen
data_Fe(S8Br)3
_symmetry_space_group_name_H-M   'P 1'
_cell_length_a   15.00168769
_cell_length_b   15.00170574
_cell_length_c   15.00362914
_cell_angle_alpha   118.80234007
_cell_angle_beta   118.80221928
_cell_angle_gamma   118.79396762
_symmetry_Int_Tables_number   1
_chemical_formula_structural   Fe(S8Br)3
_chemical_formula_sum   'Fe1 S24 Br3'
_cell_volume   955.96712648
_cell_formula_units_Z   1
loop_
 _symmetry_equiv_pos_site_id
 _symmetry_equiv_pos_as_xyz
  1  'x, y, z'
loop_
 _atom_site_type_symbol
 _atom_site_label
 _atom_site_symmetry_multiplicity
 _atom_site_fract_x
 _atom_site_fract_y
 _atom_site_fract_z
 _atom_site_occupancy
  Fe  Fe0  1  0.916422  0.916421  0.916404  1
  S  S1  1  0.805324  0.524621  0.524620  1
  S  S2  1  0.524621  0.524619  0.805339  1
  S  S3  1  0.524614  0.805331  0.524610  1
  S  S4  1  0.242194  0.372573  0.631019  1
  S  S5  1  0.356801  0.956721  0.356803  1
  S  S6  1  0.356787  0.356789  0.956708  1
  S  S7  1  0.956720  0.356799  0.356798  1
  S  S8  1  0.123543  0.736843  0.253445  1
  S  S9  1  0.253437  0.123536  0.736840  1
  S  S10  1  0.736855  0.253451  0.123531  1
  S  S11  1  0.736848  0.123523  0.253446  1
  S  S12  1  0.253449  0.736850  0.123550  1
  S  S13  1  0.123538  0.253439  0.736841  1
  S  S14  1  0.351868  0.884104  0.535474  1
  S  S15  1  0.535474  0.351866  0.884100  1
  S  S16  1  0.884120  0.535498  0.351873  1
  S  S17  1  0.884108  0.351860  0.535487  1
  S  S18  1  0.535484  0.884112  0.351878  1
  S  S19  1  0.351870  0.535477  0.884105  1
  S  S20  1  0.242181  0.631004  0.372558  1
  S  S21  1  0.372578  0.242201  0.631023  1
  S  S22  1  0.631011  0.372579  0.242198  1
  S  S23  1  0.631004  0.242187  0.372570  1
  S  S24  1  0.372572  0.631015  0.242198  1
  Br  Br25  1  0.838813  0.991530  0.991528  1
  Br  Br26  1  0.991535  0.991536  0.838824  1
  Br  Br27  1  0.991524  0.838812  0.991524  1
