# generated using pymatgen
data_Tm15Sc5(Bi5Sb)2
_symmetry_space_group_name_H-M   'P 1'
_cell_length_a   7.99941034
_cell_length_b   9.29340292
_cell_length_c   11.78364001
_cell_angle_alpha   89.95234620
_cell_angle_beta   90.05400627
_cell_angle_gamma   89.98546321
_symmetry_Int_Tables_number   1
_chemical_formula_structural   Tm15Sc5(Bi5Sb)2
_chemical_formula_sum   'Tm15 Sc5 Bi10 Sb2'
_cell_volume   876.01562102
_cell_formula_units_Z   1
loop_
 _symmetry_equiv_pos_site_id
 _symmetry_equiv_pos_as_xyz
  1  'x, y, z'
loop_
 _atom_site_type_symbol
 _atom_site_label
 _atom_site_symmetry_multiplicity
 _atom_site_fract_x
 _atom_site_fract_y
 _atom_site_fract_z
 _atom_site_occupancy
  Tm  Tm0  1  0.353977  0.247543  0.285059  1
  Tm  Tm1  1  0.643359  0.749785  0.714089  1
  Tm  Tm2  1  0.144985  0.749280  0.783433  1
  Tm  Tm3  1  0.855472  0.249293  0.216342  1
  Tm  Tm4  1  0.186837  0.249323  0.779651  1
  Tm  Tm5  1  0.812511  0.749546  0.220469  1
  Tm  Tm6  1  0.318182  0.750587  0.283426  1
  Tm  Tm7  1  0.681108  0.249453  0.717517  1
  Tm  Tm8  1  0.804617  0.933897  0.940341  1
  Tm  Tm9  1  0.307859  0.935513  0.558014  1
  Tm  Tm10  1  0.805954  0.566569  0.941209  1
  Tm  Tm11  1  0.691585  0.064245  0.441800  1
  Tm  Tm12  1  0.195267  0.434802  0.059451  1
  Tm  Tm13  1  0.691765  0.435456  0.441944  1
  Tm  Tm14  1  0.308325  0.564744  0.558308  1
  Sc  Sc15  1  0.027904  0.250060  0.512075  1
  Sc  Sc16  1  0.972993  0.749654  0.486580  1
  Sc  Sc17  1  0.475925  0.750199  0.012420  1
  Sc  Sc18  1  0.522565  0.248262  0.988614  1
  Sc  Sc19  1  0.196210  0.069359  0.058705  1
  Bi  Bi20  1  0.100747  0.757247  0.044404  1
  Bi  Bi21  1  0.905418  0.248075  0.958058  1
  Bi  Bi22  1  0.066574  0.003763  0.328258  1
  Bi  Bi23  1  0.933564  0.996128  0.669635  1
  Bi  Bi24  1  0.431816  0.995557  0.831566  1
  Bi  Bi25  1  0.933409  0.503112  0.669935  1
  Bi  Bi26  1  0.564031  0.004127  0.168909  1
  Bi  Bi27  1  0.066503  0.496050  0.329451  1
  Bi  Bi28  1  0.566338  0.494874  0.169954  1
  Bi  Bi29  1  0.433542  0.503492  0.830860  1
  Sb  Sb30  1  0.402314  0.250254  0.541086  1
  Sb  Sb31  1  0.598343  0.749753  0.458437  1
