# generated using pymatgen
data_Er20Cd3Co2Au3
_symmetry_space_group_name_H-M   'P 1'
_cell_length_a   9.44438100
_cell_length_b   9.44438086
_cell_length_c   9.47052700
_cell_angle_alpha   90.00000000
_cell_angle_beta   90.00000000
_cell_angle_gamma   119.99999698
_symmetry_Int_Tables_number   1
_chemical_formula_structural   Er20Cd3Co2Au3
_chemical_formula_sum   'Er20 Cd3 Co2 Au3'
_cell_volume   731.56308535
_cell_formula_units_Z   1
loop_
 _symmetry_equiv_pos_site_id
 _symmetry_equiv_pos_as_xyz
  1  'x, y, z'
loop_
 _atom_site_type_symbol
 _atom_site_label
 _atom_site_symmetry_multiplicity
 _atom_site_fract_x
 _atom_site_fract_y
 _atom_site_fract_z
 _atom_site_occupancy
  Er  Er0  1  0.000000  0.000000  0.466730  1
  Er  Er1  1  0.000000  0.000000  0.033270  1
  Er  Er2  1  0.541918  0.458082  0.250000  1
  Er  Er3  1  0.541918  0.083837  0.250000  1
  Er  Er4  1  0.916163  0.458082  0.250000  1
  Er  Er5  1  0.457497  0.542503  0.750000  1
  Er  Er6  1  0.457497  0.914992  0.750000  1
  Er  Er7  1  0.085008  0.542503  0.750000  1
  Er  Er8  1  0.211279  0.788721  0.436397  1
  Er  Er9  1  0.211279  0.422557  0.436397  1
  Er  Er10  1  0.577443  0.788721  0.436397  1
  Er  Er11  1  0.789063  0.210937  0.561113  1
  Er  Er12  1  0.789063  0.578126  0.561113  1
  Er  Er13  1  0.421874  0.210937  0.561113  1
  Er  Er14  1  0.789063  0.210937  0.938887  1
  Er  Er15  1  0.789063  0.578126  0.938887  1
  Er  Er16  1  0.421874  0.210937  0.938887  1
  Er  Er17  1  0.211279  0.788721  0.063603  1
  Er  Er18  1  0.211279  0.422557  0.063603  1
  Er  Er19  1  0.577443  0.788721  0.063603  1
  Cd  Cd20  1  0.110473  0.889527  0.750000  1
  Cd  Cd21  1  0.110473  0.220946  0.750000  1
  Cd  Cd22  1  0.779054  0.889527  0.750000  1
  Co  Co23  1  0.333333  0.666667  0.250000  1
  Co  Co24  1  0.666667  0.333333  0.750000  1
  Au  Au25  1  0.872949  0.127051  0.250000  1
  Au  Au26  1  0.872949  0.745899  0.250000  1
  Au  Au27  1  0.254101  0.127051  0.250000  1
