# generated using pymatgen
data_Sc12GaSi11Os4
_symmetry_space_group_name_H-M   'P 1'
_cell_length_a   4.00107100
_cell_length_b   10.37249906
_cell_length_c   11.71976507
_cell_angle_alpha   89.98735336
_cell_angle_beta   90.00000000
_cell_angle_gamma   90.00000000
_symmetry_Int_Tables_number   1
_chemical_formula_structural   Sc12GaSi11Os4
_chemical_formula_sum   'Sc12 Ga1 Si11 Os4'
_cell_volume   486.38319129
_cell_formula_units_Z   1
loop_
 _symmetry_equiv_pos_site_id
 _symmetry_equiv_pos_as_xyz
  1  'x, y, z'
loop_
 _atom_site_type_symbol
 _atom_site_label
 _atom_site_symmetry_multiplicity
 _atom_site_fract_x
 _atom_site_fract_y
 _atom_site_fract_z
 _atom_site_occupancy
  Sc  Sc0  1  0.250000  0.874732  0.017400  1
  Sc  Sc1  1  0.250000  0.622418  0.518324  1
  Sc  Sc2  1  0.750000  0.124709  0.983169  1
  Sc  Sc3  1  0.750000  0.376700  0.480880  1
  Sc  Sc4  1  0.250000  0.919348  0.602525  1
  Sc  Sc5  1  0.250000  0.578396  0.106280  1
  Sc  Sc6  1  0.750000  0.079177  0.393852  1
  Sc  Sc7  1  0.750000  0.423398  0.896065  1
  Sc  Sc8  1  0.250000  0.660538  0.798933  1
  Sc  Sc9  1  0.250000  0.841169  0.298244  1
  Sc  Sc10  1  0.750000  0.342085  0.202239  1
  Sc  Sc11  1  0.750000  0.165444  0.701508  1
  Ga  Ga12  1  0.250000  0.020496  0.820206  1
  Si  Si13  1  0.250000  0.484481  0.322135  1
  Si  Si14  1  0.750000  0.983856  0.178108  1
  Si  Si15  1  0.750000  0.514702  0.677661  1
  Si  Si16  1  0.250000  0.258010  0.844590  1
  Si  Si17  1  0.250000  0.248388  0.341870  1
  Si  Si18  1  0.750000  0.748119  0.157753  1
  Si  Si19  1  0.750000  0.749919  0.655596  1
  Si  Si20  1  0.250000  0.192601  0.545071  1
  Si  Si21  1  0.250000  0.307350  0.047047  1
  Si  Si22  1  0.750000  0.804839  0.453828  1
  Si  Si23  1  0.750000  0.689678  0.956864  1
  Os  Os24  1  0.250000  0.389413  0.674994  1
  Os  Os25  1  0.250000  0.109889  0.175886  1
  Os  Os26  1  0.750000  0.609995  0.323304  1
  Os  Os27  1  0.750000  0.880149  0.825667  1
