# generated using pymatgen
data_Y2Tm3Nb3(Ni4As3)4
_symmetry_space_group_name_H-M   'P 1'
_cell_length_a   12.68073500
_cell_length_b   12.68073469
_cell_length_c   3.87776000
_cell_angle_alpha   90.00000000
_cell_angle_beta   90.00000000
_cell_angle_gamma   120.00000342
_symmetry_Int_Tables_number   1
_chemical_formula_structural   Y2Tm3Nb3(Ni4As3)4
_chemical_formula_sum   'Y2 Tm3 Nb3 Ni16 As12'
_cell_volume   540.00823924
_cell_formula_units_Z   1
loop_
 _symmetry_equiv_pos_site_id
 _symmetry_equiv_pos_as_xyz
  1  'x, y, z'
loop_
 _atom_site_type_symbol
 _atom_site_label
 _atom_site_symmetry_multiplicity
 _atom_site_fract_x
 _atom_site_fract_y
 _atom_site_fract_z
 _atom_site_occupancy
  Y  Y0  1  0.333333  0.666667  0.000000  1
  Y  Y1  1  0.666667  0.333333  0.000000  1
  Tm  Tm2  1  0.184974  0.184974  0.500000  1
  Tm  Tm3  1  0.815026  0.000000  0.500000  1
  Tm  Tm4  1  0.000000  0.815026  0.500000  1
  Nb  Nb5  1  0.561614  0.561614  0.000000  1
  Nb  Nb6  1  0.438386  0.000000  0.000000  1
  Nb  Nb7  1  0.000000  0.438386  0.000000  1
  Ni  Ni8  1  0.721950  0.721950  0.500000  1
  Ni  Ni9  1  0.278050  0.000000  0.500000  1
  Ni  Ni10  1  0.000000  0.278050  0.500000  1
  Ni  Ni11  1  0.181226  0.373281  0.000000  1
  Ni  Ni12  1  0.626719  0.807946  0.000000  1
  Ni  Ni13  1  0.192054  0.818774  0.000000  1
  Ni  Ni14  1  0.807946  0.626719  0.000000  1
  Ni  Ni15  1  0.818774  0.192054  0.000000  1
  Ni  Ni16  1  0.373281  0.181226  0.000000  1
  Ni  Ni17  1  0.360220  0.482280  0.500000  1
  Ni  Ni18  1  0.517720  0.877940  0.500000  1
  Ni  Ni19  1  0.122060  0.639780  0.500000  1
  Ni  Ni20  1  0.877940  0.517720  0.500000  1
  Ni  Ni21  1  0.639780  0.122060  0.500000  1
  Ni  Ni22  1  0.482280  0.360220  0.500000  1
  Ni  Ni23  1  0.000000  0.000000  0.000000  1
  As  As24  1  0.823262  0.823262  0.000000  1
  As  As25  1  0.176738  0.000000  0.000000  1
  As  As26  1  0.000000  0.176738  0.000000  1
  As  As27  1  0.168817  0.480029  0.500000  1
  As  As28  1  0.519971  0.688788  0.500000  1
  As  As29  1  0.311212  0.831183  0.500000  1
  As  As30  1  0.688788  0.519971  0.500000  1
  As  As31  1  0.831183  0.311212  0.500000  1
  As  As32  1  0.480029  0.168817  0.500000  1
  As  As33  1  0.359625  0.359625  0.000000  1
  As  As34  1  0.640375  0.000000  0.000000  1
  As  As35  1  0.000000  0.640375  0.000000  1
