# generated using pymatgen
data_YU3CoNi3P4
_symmetry_space_group_name_H-M   'P 1'
_cell_length_a   3.87646900
_cell_length_b   3.87647007
_cell_length_c   15.20884500
_cell_angle_alpha   90.00000000
_cell_angle_beta   90.00000000
_cell_angle_gamma   120.00001647
_symmetry_Int_Tables_number   1
_chemical_formula_structural   YU3CoNi3P4
_chemical_formula_sum   'Y1 U3 Co1 Ni3 P4'
_cell_volume   197.92449423
_cell_formula_units_Z   1
loop_
 _symmetry_equiv_pos_site_id
 _symmetry_equiv_pos_as_xyz
  1  'x, y, z'
loop_
 _atom_site_type_symbol
 _atom_site_label
 _atom_site_symmetry_multiplicity
 _atom_site_fract_x
 _atom_site_fract_y
 _atom_site_fract_z
 _atom_site_occupancy
  Y  Y0  1  0.000000  0.000000  0.749160  1
  U  U1  1  0.000000  0.000000  0.495140  1
  U  U2  1  0.000000  0.000000  0.001280  1
  U  U3  1  0.000000  0.000000  0.253288  1
  Co  Co4  1  0.333333  0.666667  0.385702  1
  Ni  Ni5  1  0.666667  0.333333  0.609981  1
  Ni  Ni6  1  0.666667  0.333333  0.888679  1
  Ni  Ni7  1  0.333333  0.666667  0.116292  1
  P  P8  1  0.333333  0.666667  0.875916  1
  P  P9  1  0.666667  0.333333  0.128855  1
  P  P10  1  0.666667  0.333333  0.371207  1
  P  P11  1  0.333333  0.666667  0.624503  1
