# generated using pymatgen
data_TbDy(Tm3Sb10)2
_symmetry_space_group_name_H-M   'P 1'
_cell_length_a   4.20360300
_cell_length_b   13.15510588
_cell_length_c   14.55188003
_cell_angle_alpha   78.46292082
_cell_angle_beta   90.00000000
_cell_angle_gamma   90.00000000
_symmetry_Int_Tables_number   1
_chemical_formula_structural   TbDy(Tm3Sb10)2
_chemical_formula_sum   'Tb1 Dy1 Tm6 Sb20'
_cell_volume   788.44350046
_cell_formula_units_Z   1
loop_
 _symmetry_equiv_pos_site_id
 _symmetry_equiv_pos_as_xyz
  1  'x, y, z'
loop_
 _atom_site_type_symbol
 _atom_site_label
 _atom_site_symmetry_multiplicity
 _atom_site_fract_x
 _atom_site_fract_y
 _atom_site_fract_z
 _atom_site_occupancy
  Tb  Tb0  1  0.250000  0.953726  0.358942  1
  Dy  Dy1  1  0.750000  0.046271  0.641012  1
  Tm  Tm2  1  0.250000  0.395346  0.770661  1
  Tm  Tm3  1  0.750000  0.604652  0.229341  1
  Tm  Tm4  1  0.250000  0.661427  0.856158  1
  Tm  Tm5  1  0.750000  0.338574  0.143839  1
  Tm  Tm6  1  0.250000  0.668262  0.576345  1
  Tm  Tm7  1  0.750000  0.331743  0.423664  1
  Sb  Sb8  1  0.250000  0.144855  0.778450  1
  Sb  Sb9  1  0.750000  0.855099  0.221508  1
  Sb  Sb10  1  0.250000  0.145639  0.482454  1
  Sb  Sb11  1  0.750000  0.854332  0.517656  1
  Sb  Sb12  1  0.250000  0.153982  0.170213  1
  Sb  Sb13  1  0.750000  0.846047  0.829775  1
  Sb  Sb14  1  0.250000  0.420801  0.975390  1
  Sb  Sb15  1  0.750000  0.579202  0.024612  1
  Sb  Sb16  1  0.750000  0.028715  0.910286  1
  Sb  Sb17  1  0.250000  0.971280  0.089718  1
  Sb  Sb18  1  0.750000  0.141039  0.321984  1
  Sb  Sb19  1  0.250000  0.859081  0.677995  1
  Sb  Sb20  1  0.750000  0.279296  0.936749  1
  Sb  Sb21  1  0.250000  0.720704  0.063253  1
  Sb  Sb22  1  0.750000  0.285842  0.652912  1
  Sb  Sb23  1  0.250000  0.714088  0.347087  1
  Sb  Sb24  1  0.750000  0.576320  0.734394  1
  Sb  Sb25  1  0.250000  0.423682  0.265604  1
  Sb  Sb26  1  0.750000  0.571662  0.447127  1
  Sb  Sb27  1  0.250000  0.428335  0.552870  1
