# generated using pymatgen
data_La4ScTi4(Si2O11)2
_symmetry_space_group_name_H-M   'P 1'
_cell_length_a   7.44778091
_cell_length_b   7.44778122
_cell_length_c   11.26238424
_cell_angle_alpha   80.44227109
_cell_angle_beta   99.55772781
_cell_angle_gamma   134.83756012
_symmetry_Int_Tables_number   1
_chemical_formula_structural   La4ScTi4(Si2O11)2
_chemical_formula_sum   'La4 Sc1 Ti4 Si4 O22'
_cell_volume   435.77146764
_cell_formula_units_Z   1
loop_
 _symmetry_equiv_pos_site_id
 _symmetry_equiv_pos_as_xyz
  1  'x, y, z'
loop_
 _atom_site_type_symbol
 _atom_site_label
 _atom_site_symmetry_multiplicity
 _atom_site_fract_x
 _atom_site_fract_y
 _atom_site_fract_z
 _atom_site_occupancy
  La  La0  1  0.141356  0.858646  0.254427  1
  La  La1  1  0.858646  0.141356  0.745572  1
  La  La2  1  0.430340  0.569661  0.250721  1
  La  La3  1  0.569662  0.430340  0.749279  1
  Sc  Sc4  1  0.000001  0.999999  0.500000  1
  Ti  Ti5  1  0.000000  0.000000  0.000000  1
  Ti  Ti6  1  0.500000  0.000001  0.000000  1
  Ti  Ti7  1  0.000001  0.500000  0.000000  1
  Ti  Ti8  1  0.500001  0.500001  0.000000  1
  Si  Si9  1  0.203876  0.796125  0.730758  1
  Si  Si10  1  0.796126  0.203876  0.269242  1
  Si  Si11  1  0.359242  0.640760  0.542757  1
  Si  Si12  1  0.640760  0.359241  0.457244  1
  O  O13  1  0.463681  0.007381  0.814639  1
  O  O14  1  0.007380  0.463682  0.185361  1
  O  O15  1  0.536318  0.992619  0.185361  1
  O  O16  1  0.992619  0.536318  0.814639  1
  O  O17  1  0.089250  0.910751  0.667910  1
  O  O18  1  0.910751  0.089250  0.332090  1
  O  O19  1  0.276200  0.723801  0.631236  1
  O  O20  1  0.723801  0.276201  0.368764  1
  O  O21  1  0.314340  0.685661  0.400866  1
  O  O22  1  0.685661  0.314341  0.599134  1
  O  O23  1  0.727230  0.770463  0.869027  1
  O  O24  1  0.770463  0.727230  0.130973  1
  O  O25  1  0.272770  0.229536  0.130973  1
  O  O26  1  0.229537  0.272770  0.869027  1
  O  O27  1  0.355593  0.644408  0.022995  1
  O  O28  1  0.644409  0.355593  0.977006  1
  O  O29  1  0.150080  0.849921  0.014755  1
  O  O30  1  0.849922  0.150080  0.985245  1
  O  O31  1  0.339481  0.195131  0.411923  1
  O  O32  1  0.195130  0.339482  0.588077  1
  O  O33  1  0.660518  0.804870  0.588077  1
  O  O34  1  0.804868  0.660519  0.411923  1
