# generated using pymatgen
data_LuTh2(SnRh)3
_symmetry_space_group_name_H-M   'P 1'
_cell_length_a   7.53696014
_cell_length_b   7.53695967
_cell_length_c   4.05548200
_cell_angle_alpha   90.00000000
_cell_angle_beta   90.00000000
_cell_angle_gamma   120.31311321
_symmetry_Int_Tables_number   1
_chemical_formula_structural   LuTh2(SnRh)3
_chemical_formula_sum   'Lu1 Th2 Sn3 Rh3'
_cell_volume   198.87793241
_cell_formula_units_Z   1
loop_
 _symmetry_equiv_pos_site_id
 _symmetry_equiv_pos_as_xyz
  1  'x, y, z'
loop_
 _atom_site_type_symbol
 _atom_site_label
 _atom_site_symmetry_multiplicity
 _atom_site_fract_x
 _atom_site_fract_y
 _atom_site_fract_z
 _atom_site_occupancy
  Lu  Lu0  1  0.406192  0.406192  0.500000  1
  Th  Th1  1  0.585687  0.998724  0.500000  1
  Th  Th2  1  0.998724  0.585687  0.500000  1
  Sn  Sn3  1  0.738994  0.738994  0.000000  1
  Sn  Sn4  1  0.254059  0.009752  0.000000  1
  Sn  Sn5  1  0.009752  0.254059  0.000000  1
  Rh  Rh6  1  0.673632  0.333424  0.000000  1
  Rh  Rh7  1  0.333424  0.673632  0.000000  1
  Rh  Rh8  1  0.999537  0.999537  0.500000  1
