# generated using pymatgen
data_Dy7Hf3Co7Si20Ir
_symmetry_space_group_name_H-M   'P 1'
_cell_length_a   12.28838293
_cell_length_b   12.28044047
_cell_length_c   4.04382800
_cell_angle_alpha   90.00000000
_cell_angle_beta   90.00000000
_cell_angle_gamma   89.77971076
_symmetry_Int_Tables_number   1
_chemical_formula_structural   Dy7Hf3Co7Si20Ir
_chemical_formula_sum   'Dy7 Hf3 Co7 Si20 Ir1'
_cell_volume   610.23645098
_cell_formula_units_Z   1
loop_
 _symmetry_equiv_pos_site_id
 _symmetry_equiv_pos_as_xyz
  1  'x, y, z'
loop_
 _atom_site_type_symbol
 _atom_site_label
 _atom_site_symmetry_multiplicity
 _atom_site_fract_x
 _atom_site_fract_y
 _atom_site_fract_z
 _atom_site_occupancy
  Dy  Dy0  1  0.499997  0.502215  0.000000  1
  Dy  Dy1  1  0.998198  0.006307  0.000000  1
  Dy  Dy2  1  0.815103  0.675004  0.500000  1
  Dy  Dy3  1  0.888530  0.383168  0.500000  1
  Dy  Dy4  1  0.117109  0.611522  0.500000  1
  Dy  Dy5  1  0.385601  0.115111  0.500000  1
  Dy  Dy6  1  0.607106  0.892726  0.500000  1
  Hf  Hf7  1  0.677886  0.174353  0.500000  1
  Hf  Hf8  1  0.328127  0.823827  0.500000  1
  Hf  Hf9  1  0.176493  0.323998  0.500000  1
  Co  Co10  1  0.741286  0.520931  0.000000  1
  Co  Co11  1  0.255190  0.475815  0.000000  1
  Co  Co12  1  0.246107  0.978313  0.000000  1
  Co  Co13  1  0.753343  0.031513  0.000000  1
  Co  Co14  1  0.469506  0.747487  0.000000  1
  Co  Co15  1  0.523344  0.255593  0.000000  1
  Co  Co16  1  0.025635  0.246115  0.000000  1
  Si  Si17  1  0.568144  0.071909  0.000000  1
  Si  Si18  1  0.429547  0.933311  0.000000  1
  Si  Si19  1  0.071241  0.429232  0.000000  1
  Si  Si20  1  0.929255  0.561072  0.000000  1
  Si  Si21  1  0.648586  0.700053  0.000000  1
  Si  Si22  1  0.342126  0.303532  0.000000  1
  Si  Si23  1  0.167893  0.803949  0.000000  1
  Si  Si24  1  0.842555  0.199277  0.000000  1
  Si  Si25  1  0.304062  0.657379  0.000000  1
  Si  Si26  1  0.695712  0.340271  0.000000  1
  Si  Si27  1  0.197668  0.158870  0.000000  1
  Si  Si28  1  0.793878  0.849489  0.000000  1
  Si  Si29  1  0.666570  0.486154  0.500000  1
  Si  Si30  1  0.335122  0.483325  0.500000  1
  Si  Si31  1  0.165475  0.986205  0.500000  1
  Si  Si32  1  0.828312  0.993736  0.500000  1
  Si  Si33  1  0.502089  0.672025  0.500000  1
  Si  Si34  1  0.511405  0.335786  0.500000  1
  Si  Si35  1  0.013996  0.168969  0.500000  1
  Si  Si36  1  0.999309  0.846523  0.500000  1
  Ir  Ir37  1  0.978494  0.754936  0.000000  1
