# generated using pymatgen
data_Al7SiRu8
_symmetry_space_group_name_H-M   'P 1'
_cell_length_a   6.02189901
_cell_length_b   6.01630700
_cell_length_c   6.02169400
_cell_angle_alpha   90.00173326
_cell_angle_beta   90.00384389
_cell_angle_gamma   89.99872375
_symmetry_Int_Tables_number   1
_chemical_formula_structural   Al7SiRu8
_chemical_formula_sum   'Al7 Si1 Ru8'
_cell_volume   218.16352343
_cell_formula_units_Z   1
loop_
 _symmetry_equiv_pos_site_id
 _symmetry_equiv_pos_as_xyz
  1  'x, y, z'
loop_
 _atom_site_type_symbol
 _atom_site_label
 _atom_site_symmetry_multiplicity
 _atom_site_fract_x
 _atom_site_fract_y
 _atom_site_fract_z
 _atom_site_occupancy
  Al  Al0  1  0.000088  0.250053  0.999824  1
  Al  Al1  1  0.000080  0.749942  0.999801  1
  Al  Al2  1  0.499970  0.250053  0.500177  1
  Al  Al3  1  0.499925  0.749940  0.500186  1
  Al  Al4  1  0.499901  0.250051  0.999837  1
  Al  Al5  1  0.499995  0.749947  0.999820  1
  Al  Al6  1  0.000104  0.250065  0.500183  1
  Si  Si7  1  0.999934  0.749947  0.500170  1
  Ru  Ru8  1  0.246520  0.503507  0.253479  1
  Ru  Ru9  1  0.246517  0.996519  0.253454  1
  Ru  Ru10  1  0.753467  0.503482  0.253459  1
  Ru  Ru11  1  0.753502  0.996535  0.253467  1
  Ru  Ru12  1  0.246536  0.503468  0.746540  1
  Ru  Ru13  1  0.246542  0.996523  0.746515  1
  Ru  Ru14  1  0.753455  0.503436  0.746559  1
  Ru  Ru15  1  0.753461  0.996530  0.746526  1
