# generated using pymatgen
data_Sc4TaRe24
_symmetry_space_group_name_H-M   'P 1'
_cell_length_a   8.44076028
_cell_length_b   8.44075882
_cell_length_c   8.44075981
_cell_angle_alpha   109.44618410
_cell_angle_beta   109.44617529
_cell_angle_gamma   109.44618001
_symmetry_Int_Tables_number   1
_chemical_formula_structural   Sc4TaRe24
_chemical_formula_sum   'Sc4 Ta1 Re24'
_cell_volume   463.36656796
_cell_formula_units_Z   1
loop_
 _symmetry_equiv_pos_site_id
 _symmetry_equiv_pos_as_xyz
  1  'x, y, z'
loop_
 _atom_site_type_symbol
 _atom_site_label
 _atom_site_symmetry_multiplicity
 _atom_site_fract_x
 _atom_site_fract_y
 _atom_site_fract_z
 _atom_site_occupancy
  Sc  Sc0  1  0.000394  0.632634  0.000394  1
  Sc  Sc1  1  0.632634  0.000394  0.000394  1
  Sc  Sc2  1  0.000394  0.000394  0.632634  1
  Sc  Sc3  1  0.998234  0.998234  0.998234  1
  Ta  Ta4  1  0.367981  0.367981  0.367981  1
  Re  Re5  1  0.998283  0.395875  0.676403  1
  Re  Re6  1  0.280885  0.599359  0.599359  1
  Re  Re7  1  0.721513  0.323180  0.323180  1
  Re  Re8  1  0.323180  0.721513  0.323180  1
  Re  Re9  1  0.676403  0.998283  0.395875  1
  Re  Re10  1  0.998283  0.676403  0.395875  1
  Re  Re11  1  0.599359  0.599359  0.280885  1
  Re  Re12  1  0.809060  0.809060  0.186060  1
  Re  Re13  1  0.377675  0.194056  0.001072  1
  Re  Re14  1  0.194056  0.377675  0.001072  1
  Re  Re15  1  0.622945  0.816090  0.622945  1
  Re  Re16  1  0.377675  0.001072  0.194056  1
  Re  Re17  1  0.001072  0.377675  0.194056  1
  Re  Re18  1  0.816090  0.622945  0.622945  1
  Re  Re19  1  0.186060  0.809060  0.809060  1
  Re  Re20  1  0.809060  0.186060  0.809060  1
  Re  Re21  1  0.194056  0.001072  0.377675  1
  Re  Re22  1  0.001072  0.194056  0.377675  1
  Re  Re23  1  0.622945  0.622945  0.816090  1
  Re  Re24  1  0.395875  0.998283  0.676403  1
  Re  Re25  1  0.599359  0.280885  0.599359  1
  Re  Re26  1  0.676403  0.395875  0.998283  1
  Re  Re27  1  0.395875  0.676403  0.998283  1
  Re  Re28  1  0.323180  0.323180  0.721513  1
