# generated using pymatgen
data_Li3DyEr3Si8Rh
_symmetry_space_group_name_H-M   'P 1'
_cell_length_a   3.80224700
_cell_length_b   7.44513883
_cell_length_c   10.04242723
_cell_angle_alpha   90.17948268
_cell_angle_beta   90.00000000
_cell_angle_gamma   90.00000000
_symmetry_Int_Tables_number   1
_chemical_formula_structural   Li3DyEr3Si8Rh
_chemical_formula_sum   'Li3 Dy1 Er3 Si8 Rh1'
_cell_volume   284.28221398
_cell_formula_units_Z   1
loop_
 _symmetry_equiv_pos_site_id
 _symmetry_equiv_pos_as_xyz
  1  'x, y, z'
loop_
 _atom_site_type_symbol
 _atom_site_label
 _atom_site_symmetry_multiplicity
 _atom_site_fract_x
 _atom_site_fract_y
 _atom_site_fract_z
 _atom_site_occupancy
  Li  Li0  1  0.250000  0.490491  0.109043  1
  Li  Li1  1  0.750000  0.009420  0.604909  1
  Li  Li2  1  0.750000  0.505234  0.891872  1
  Dy  Dy3  1  0.250000  0.138942  0.865918  1
  Er  Er4  1  0.250000  0.642030  0.627908  1
  Er  Er5  1  0.750000  0.861689  0.136366  1
  Er  Er6  1  0.750000  0.369017  0.367347  1
  Si  Si7  1  0.250000  0.219721  0.562983  1
  Si  Si8  1  0.250000  0.731742  0.930195  1
  Si  Si9  1  0.750000  0.782860  0.432853  1
  Si  Si10  1  0.750000  0.262487  0.073755  1
  Si  Si11  1  0.250000  0.661257  0.320503  1
  Si  Si12  1  0.250000  0.153889  0.191584  1
  Si  Si13  1  0.750000  0.341150  0.675217  1
  Si  Si14  1  0.750000  0.843122  0.816473  1
  Rh  Rh15  1  0.250000  0.986948  0.393073  1
