# generated using pymatgen
data_CaHo6Co6Sn23
_symmetry_space_group_name_H-M   'P 1'
_cell_length_a   9.70205200
_cell_length_b   9.70205107
_cell_length_c   9.93868600
_cell_angle_alpha   90.00000000
_cell_angle_beta   90.00000000
_cell_angle_gamma   119.99999636
_symmetry_Int_Tables_number   1
_chemical_formula_structural   CaHo6Co6Sn23
_chemical_formula_sum   'Ca1 Ho6 Co6 Sn23'
_cell_volume   810.18980064
_cell_formula_units_Z   1
loop_
 _symmetry_equiv_pos_site_id
 _symmetry_equiv_pos_as_xyz
  1  'x, y, z'
loop_
 _atom_site_type_symbol
 _atom_site_label
 _atom_site_symmetry_multiplicity
 _atom_site_fract_x
 _atom_site_fract_y
 _atom_site_fract_z
 _atom_site_occupancy
  Ca  Ca0  1  0.000000  0.000000  0.000000  1
  Ho  Ho1  1  0.520998  0.479002  0.693487  1
  Ho  Ho2  1  0.520998  0.041996  0.693487  1
  Ho  Ho3  1  0.958004  0.479002  0.693487  1
  Ho  Ho4  1  0.041996  0.520998  0.306513  1
  Ho  Ho5  1  0.479002  0.958004  0.306513  1
  Ho  Ho6  1  0.479002  0.520998  0.306513  1
  Co  Co7  1  0.168569  0.831431  0.801506  1
  Co  Co8  1  0.168569  0.337137  0.801506  1
  Co  Co9  1  0.662863  0.831431  0.801506  1
  Co  Co10  1  0.337137  0.168569  0.198494  1
  Co  Co11  1  0.831431  0.662863  0.198494  1
  Co  Co12  1  0.831431  0.168569  0.198494  1
  Sn  Sn13  1  0.666667  0.333333  0.182866  1
  Sn  Sn14  1  0.666667  0.333333  0.881326  1
  Sn  Sn15  1  0.333333  0.666667  0.118674  1
  Sn  Sn16  1  0.346129  0.346129  0.000000  1
  Sn  Sn17  1  0.000000  0.653871  0.000000  1
  Sn  Sn18  1  0.653871  0.000000  0.000000  1
  Sn  Sn19  1  0.653871  0.653871  0.000000  1
  Sn  Sn20  1  0.333333  0.666667  0.817134  1
  Sn  Sn21  1  0.437020  0.218511  0.451897  1
  Sn  Sn22  1  0.218511  0.781489  0.548103  1
  Sn  Sn23  1  0.218511  0.437020  0.548103  1
  Sn  Sn24  1  0.562980  0.781489  0.548103  1
  Sn  Sn25  1  0.117529  0.882471  0.274007  1
  Sn  Sn26  1  0.781489  0.562980  0.451897  1
  Sn  Sn27  1  0.781489  0.218511  0.451897  1
  Sn  Sn28  1  0.346129  0.000000  0.000000  1
  Sn  Sn29  1  0.117529  0.235059  0.274007  1
  Sn  Sn30  1  0.764941  0.882471  0.274007  1
  Sn  Sn31  1  0.235059  0.117529  0.725993  1
  Sn  Sn32  1  0.882471  0.764941  0.725993  1
  Sn  Sn33  1  0.882471  0.117529  0.725993  1
  Sn  Sn34  1  0.000000  0.000000  0.500000  1
  Sn  Sn35  1  0.000000  0.346129  0.000000  1
