# generated using pymatgen
data_CaNd2Pa(Al3Rh)6
_symmetry_space_group_name_H-M   'P 1'
_cell_length_a   7.60827134
_cell_length_b   7.60615666
_cell_length_c   9.51129500
_cell_angle_alpha   90.00000000
_cell_angle_beta   90.00000000
_cell_angle_gamma   119.28015763
_symmetry_Int_Tables_number   1
_chemical_formula_structural   CaNd2Pa(Al3Rh)6
_chemical_formula_sum   'Ca1 Nd2 Pa1 Al18 Rh6'
_cell_volume   480.09398287
_cell_formula_units_Z   1
loop_
 _symmetry_equiv_pos_site_id
 _symmetry_equiv_pos_as_xyz
  1  'x, y, z'
loop_
 _atom_site_type_symbol
 _atom_site_label
 _atom_site_symmetry_multiplicity
 _atom_site_fract_x
 _atom_site_fract_y
 _atom_site_fract_z
 _atom_site_occupancy
  Ca  Ca0  1  0.673638  0.993859  0.750000  1
  Nd  Nd1  1  0.004187  0.328636  0.250000  1
  Nd  Nd2  1  0.329194  0.004301  0.250000  1
  Pa  Pa3  1  0.995776  0.673945  0.750000  1
  Al  Al4  1  0.132861  0.129279  0.750000  1
  Al  Al5  1  0.869844  0.870702  0.250000  1
  Al  Al6  1  0.000043  0.333188  0.577954  1
  Al  Al7  1  0.996508  0.663804  0.425378  1
  Al  Al8  1  0.996508  0.663804  0.074622  1
  Al  Al9  1  0.340124  0.003558  0.921899  1
  Al  Al10  1  0.000043  0.333188  0.922046  1
  Al  Al11  1  0.664727  0.997521  0.070955  1
  Al  Al12  1  0.664727  0.997521  0.429045  1
  Al  Al13  1  0.340124  0.003558  0.578101  1
  Al  Al14  1  0.333149  0.333292  0.045721  1
  Al  Al15  1  0.664151  0.666674  0.950795  1
  Al  Al16  1  0.664151  0.666674  0.549205  1
  Al  Al17  1  0.333149  0.333292  0.454279  1
  Al  Al18  1  0.336957  0.549009  0.750000  1
  Al  Al19  1  0.659764  0.451301  0.250000  1
  Al  Al20  1  0.551352  0.346705  0.750000  1
  Al  Al21  1  0.452899  0.660604  0.250000  1
  Rh  Rh22  1  0.673186  0.330933  0.502245  1
  Rh  Rh23  1  0.325605  0.670759  0.502610  1
  Rh  Rh24  1  0.325605  0.670759  0.997390  1
  Rh  Rh25  1  0.673186  0.330933  0.997755  1
  Rh  Rh26  1  0.999273  0.996100  0.504168  1
  Rh  Rh27  1  0.999273  0.996100  0.995832  1
