# generated using pymatgen
data_TbCu2Ni2Au
_symmetry_space_group_name_H-M   'P 1'
_cell_length_a   5.03384109
_cell_length_b   4.99497016
_cell_length_c   4.99496977
_cell_angle_alpha   59.79518483
_cell_angle_beta   59.74222516
_cell_angle_gamma   59.74223466
_symmetry_Int_Tables_number   1
_chemical_formula_structural   TbCu2Ni2Au
_chemical_formula_sum   'Tb1 Cu2 Ni2 Au1'
_cell_volume   88.32337512
_cell_formula_units_Z   1
loop_
 _symmetry_equiv_pos_site_id
 _symmetry_equiv_pos_as_xyz
  1  'x, y, z'
loop_
 _atom_site_type_symbol
 _atom_site_label
 _atom_site_symmetry_multiplicity
 _atom_site_fract_x
 _atom_site_fract_y
 _atom_site_fract_z
 _atom_site_occupancy
  Tb  Tb0  1  0.002526  0.997474  0.997474  1
  Cu  Cu1  1  0.623721  0.624946  0.127611  1
  Cu  Cu2  1  0.623721  0.127611  0.624946  1
  Ni  Ni3  1  0.126161  0.625068  0.625068  1
  Ni  Ni4  1  0.623701  0.625068  0.625068  1
  Au  Au5  1  0.250169  0.249831  0.249831  1
