# generated using pymatgen
data_Dy8Tm2IrOs3
_symmetry_space_group_name_H-M   'P 1'
_cell_length_a   6.40074688
_cell_length_b   7.31833503
_cell_length_c   8.39512155
_cell_angle_alpha   96.74399610
_cell_angle_beta   112.29414504
_cell_angle_gamma   90.04936661
_symmetry_Int_Tables_number   1
_chemical_formula_structural   Dy8Tm2IrOs3
_chemical_formula_sum   'Dy8 Tm2 Ir1 Os3'
_cell_volume   360.89581433
_cell_formula_units_Z   1
loop_
 _symmetry_equiv_pos_site_id
 _symmetry_equiv_pos_as_xyz
  1  'x, y, z'
loop_
 _atom_site_type_symbol
 _atom_site_label
 _atom_site_symmetry_multiplicity
 _atom_site_fract_x
 _atom_site_fract_y
 _atom_site_fract_z
 _atom_site_occupancy
  Dy  Dy0  1  0.970478  0.916011  0.179762  1
  Dy  Dy1  1  0.790019  0.581838  0.817943  1
  Dy  Dy2  1  0.025367  0.082998  0.815204  1
  Dy  Dy3  1  0.208425  0.419276  0.180462  1
  Dy  Dy4  1  0.648388  0.815547  0.437919  1
  Dy  Dy5  1  0.210591  0.683328  0.563753  1
  Dy  Dy6  1  0.352282  0.183221  0.565155  1
  Dy  Dy7  1  0.792745  0.318129  0.437587  1
  Tm  Tm8  1  0.424898  0.748736  0.998999  1
  Tm  Tm9  1  0.575312  0.250481  0.999647  1
  Ir  Ir10  1  0.395179  0.074902  0.218348  1
  Os  Os11  1  0.821342  0.574646  0.216411  1
  Os  Os12  1  0.607069  0.926178  0.783956  1
  Os  Os13  1  0.177906  0.424708  0.784855  1
