# generated using pymatgen
data_HoTm2In3HgRh2
_symmetry_space_group_name_H-M   'P 1'
_cell_length_a   7.82092697
_cell_length_b   7.81397705
_cell_length_c   3.76817800
_cell_angle_alpha   90.00000000
_cell_angle_beta   90.00000000
_cell_angle_gamma   119.97244977
_symmetry_Int_Tables_number   1
_chemical_formula_structural   HoTm2In3HgRh2
_chemical_formula_sum   'Ho1 Tm2 In3 Hg1 Rh2'
_cell_volume   199.48622062
_cell_formula_units_Z   1
loop_
 _symmetry_equiv_pos_site_id
 _symmetry_equiv_pos_as_xyz
  1  'x, y, z'
loop_
 _atom_site_type_symbol
 _atom_site_label
 _atom_site_symmetry_multiplicity
 _atom_site_fract_x
 _atom_site_fract_y
 _atom_site_fract_z
 _atom_site_occupancy
  Ho  Ho0  1  0.971732  0.385841  0.500000  1
  Tm  Tm1  1  0.614798  0.585944  0.500000  1
  Tm  Tm2  1  0.414062  0.028947  0.500000  1
  In  In3  1  0.259005  0.256794  0.000000  1
  In  In4  1  0.997933  0.741382  0.000000  1
  In  In5  1  0.742760  0.001383  0.000000  1
  Hg  Hg6  1  0.334087  0.667149  0.000000  1
  Rh  Rh7  1  0.000051  0.999558  0.500000  1
  Rh  Rh8  1  0.665571  0.333004  0.000000  1
