# generated using pymatgen
data_Pr6Zn3Si8Sn
_symmetry_space_group_name_H-M   'P 1'
_cell_length_a   4.31316472
_cell_length_b   4.20958992
_cell_length_c   21.12895700
_cell_angle_alpha   84.28290745
_cell_angle_beta   95.85825295
_cell_angle_gamma   90.00000414
_symmetry_Int_Tables_number   1
_chemical_formula_structural   Pr6Zn3Si8Sn
_chemical_formula_sum   'Pr6 Zn3 Si8 Sn1'
_cell_volume   379.70935479
_cell_formula_units_Z   1
loop_
 _symmetry_equiv_pos_site_id
 _symmetry_equiv_pos_as_xyz
  1  'x, y, z'
loop_
 _atom_site_type_symbol
 _atom_site_label
 _atom_site_symmetry_multiplicity
 _atom_site_fract_x
 _atom_site_fract_y
 _atom_site_fract_z
 _atom_site_occupancy
  Pr  Pr0  1  0.376135  0.873865  0.252269  1
  Pr  Pr1  1  0.039822  0.210178  0.579643  1
  Pr  Pr2  1  0.703011  0.546989  0.906025  1
  Pr  Pr3  1  0.295701  0.454299  0.091401  1
  Pr  Pr4  1  0.960460  0.789540  0.420918  1
  Pr  Pr5  1  0.624313  0.125687  0.748627  1
  Zn  Zn6  1  0.905327  0.344673  0.310653  1
  Zn  Zn7  1  0.569274  0.680726  0.638546  1
  Zn  Zn8  1  0.232504  0.017496  0.965010  1
  Si  Si9  1  0.431765  0.318235  0.363532  1
  Si  Si10  1  0.095564  0.654436  0.691126  1
  Si  Si11  1  0.849406  0.400594  0.198814  1
  Si  Si12  1  0.513251  0.736749  0.526503  1
  Si  Si13  1  0.177103  0.072897  0.854204  1
  Si  Si14  1  0.824346  0.925654  0.148696  1
  Si  Si15  1  0.487154  0.262846  0.474312  1
  Si  Si16  1  0.150996  0.599004  0.801992  1
  Sn  Sn17  1  0.763866  0.986134  0.027734  1
