# generated using pymatgen
data_DyLu3(Si2Tc)2
_symmetry_space_group_name_H-M   'P 1'
_cell_length_a   5.72057002
_cell_length_b   5.72057004
_cell_length_c   9.95862840
_cell_angle_alpha   63.70138003
_cell_angle_beta   63.70137853
_cell_angle_gamma   42.58895556
_symmetry_Int_Tables_number   1
_chemical_formula_structural   DyLu3(Si2Tc)2
_chemical_formula_sum   'Dy1 Lu3 Si4 Tc2'
_cell_volume   194.01467654
_cell_formula_units_Z   1
loop_
 _symmetry_equiv_pos_site_id
 _symmetry_equiv_pos_as_xyz
  1  'x, y, z'
loop_
 _atom_site_type_symbol
 _atom_site_label
 _atom_site_symmetry_multiplicity
 _atom_site_fract_x
 _atom_site_fract_y
 _atom_site_fract_z
 _atom_site_occupancy
  Dy  Dy0  1  0.993084  0.993084  0.679522  1
  Lu  Lu1  1  0.814405  0.814405  0.110033  1
  Lu  Lu2  1  0.186693  0.186693  0.891908  1
  Lu  Lu3  1  0.004694  0.004694  0.322539  1
  Si  Si4  1  0.505061  0.505061  0.122087  1
  Si  Si5  1  0.498134  0.498134  0.879886  1
  Si  Si6  1  0.640263  0.640263  0.438148  1
  Si  Si7  1  0.358232  0.358232  0.559682  1
  Tc  Tc8  1  0.272049  0.272049  0.367439  1
  Tc  Tc9  1  0.727386  0.727386  0.628756  1
