# generated using pymatgen
data_Rb2Mn3(SeO3)4
_symmetry_space_group_name_H-M   'P 1'
_cell_length_a   5.76808372
_cell_length_b   7.47329858
_cell_length_c   9.14334786
_cell_angle_alpha   91.24651121
_cell_angle_beta   108.49930115
_cell_angle_gamma   90.00318961
_symmetry_Int_Tables_number   1
_chemical_formula_structural   Rb2Mn3(SeO3)4
_chemical_formula_sum   'Rb2 Mn3 Se4 O12'
_cell_volume   373.67410799
_cell_formula_units_Z   1
loop_
 _symmetry_equiv_pos_site_id
 _symmetry_equiv_pos_as_xyz
  1  'x, y, z'
loop_
 _atom_site_type_symbol
 _atom_site_label
 _atom_site_symmetry_multiplicity
 _atom_site_fract_x
 _atom_site_fract_y
 _atom_site_fract_z
 _atom_site_occupancy
  Rb  Rb0  1  0.169472  0.616809  0.338431  1
  Rb  Rb1  1  0.830684  0.383472  0.661865  1
  Mn  Mn2  1  0.999833  0.999728  0.999930  1
  Mn  Mn3  1  0.603021  0.309233  0.205214  1
  Mn  Mn4  1  0.397029  0.690482  0.794713  1
  Se  Se5  1  0.564361  0.799583  0.129131  1
  Se  Se6  1  0.201379  0.134830  0.400705  1
  Se  Se7  1  0.798746  0.865409  0.599238  1
  Se  Se8  1  0.435422  0.200297  0.870858  1
  O  O9  1  0.726267  0.218324  0.006959  1
  O  O10  1  0.281325  0.218001  0.006834  1
  O  O11  1  0.610095  0.596814  0.219036  1
  O  O12  1  0.123618  0.985277  0.247069  1
  O  O13  1  0.950867  0.273878  0.369731  1
  O  O14  1  0.420245  0.274157  0.369309  1
  O  O15  1  0.579877  0.726056  0.630623  1
  O  O16  1  0.049328  0.726405  0.630215  1
  O  O17  1  0.876425  0.014893  0.752896  1
  O  O18  1  0.389909  0.403183  0.781094  1
  O  O19  1  0.718516  0.781790  0.993165  1
  O  O20  1  0.273585  0.781376  0.992987  1
