# generated using pymatgen
data_SmLuB6Ru
_symmetry_space_group_name_H-M   'P 1'
_cell_length_a   3.65750600
_cell_length_b   9.12255700
_cell_length_c   11.53491300
_cell_angle_alpha   90.00000000
_cell_angle_beta   90.00000000
_cell_angle_gamma   90.00000000
_symmetry_Int_Tables_number   1
_chemical_formula_structural   SmLuB6Ru
_chemical_formula_sum   'Sm4 Lu4 B24 Ru4'
_cell_volume   384.87168049
_cell_formula_units_Z   4
loop_
 _symmetry_equiv_pos_site_id
 _symmetry_equiv_pos_as_xyz
  1  'x, y, z'
loop_
 _atom_site_type_symbol
 _atom_site_label
 _atom_site_symmetry_multiplicity
 _atom_site_fract_x
 _atom_site_fract_y
 _atom_site_fract_z
 _atom_site_occupancy
  Sm  Sm0  1  0.000000  0.321942  0.414441  1
  Sm  Sm1  1  0.000000  0.678058  0.585559  1
  Sm  Sm2  1  0.000000  0.821942  0.085559  1
  Sm  Sm3  1  0.000000  0.178058  0.914441  1
  Lu  Lu4  1  0.000000  0.944154  0.372266  1
  Lu  Lu5  1  0.000000  0.055846  0.627734  1
  Lu  Lu6  1  0.000000  0.444154  0.127734  1
  Lu  Lu7  1  0.000000  0.555846  0.872266  1
  B  B8  1  0.500000  0.555760  0.431280  1
  B  B9  1  0.500000  0.444240  0.568720  1
  B  B10  1  0.500000  0.055760  0.068720  1
  B  B11  1  0.500000  0.944240  0.931280  1
  B  B12  1  0.500000  0.750739  0.417961  1
  B  B13  1  0.500000  0.249261  0.582039  1
  B  B14  1  0.500000  0.250739  0.082039  1
  B  B15  1  0.500000  0.749261  0.917961  1
  B  B16  1  0.500000  0.791614  0.266251  1
  B  B17  1  0.500000  0.208386  0.733749  1
  B  B18  1  0.500000  0.291614  0.233749  1
  B  B19  1  0.500000  0.708386  0.766251  1
  B  B20  1  0.500000  0.630232  0.184326  1
  B  B21  1  0.500000  0.369768  0.815674  1
  B  B22  1  0.500000  0.130232  0.315674  1
  B  B23  1  0.500000  0.869768  0.684326  1
  B  B24  1  0.500000  0.984353  0.214258  1
  B  B25  1  0.500000  0.015647  0.785742  1
  B  B26  1  0.500000  0.484353  0.285742  1
  B  B27  1  0.500000  0.515647  0.714258  1
  B  B28  1  0.500000  0.601457  0.027694  1
  B  B29  1  0.500000  0.398543  0.972306  1
  B  B30  1  0.500000  0.101457  0.472306  1
  B  B31  1  0.500000  0.898543  0.527694  1
  Ru  Ru32  1  0.000000  0.639471  0.319204  1
  Ru  Ru33  1  0.000000  0.360529  0.680796  1
  Ru  Ru34  1  0.000000  0.139471  0.180796  1
  Ru  Ru35  1  0.000000  0.860529  0.819204  1
