# generated using pymatgen
data_BaU(Tl2S3)2
_symmetry_space_group_name_H-M   'P 1'
_cell_length_a   7.48458902
_cell_length_b   7.48458985
_cell_length_c   7.68771300
_cell_angle_alpha   80.42209274
_cell_angle_beta   80.42209943
_cell_angle_gamma   119.66742169
_symmetry_Int_Tables_number   1
_chemical_formula_structural   BaU(Tl2S3)2
_chemical_formula_sum   'Ba1 U1 Tl4 S6'
_cell_volume   353.09629737
_cell_formula_units_Z   1
loop_
 _symmetry_equiv_pos_site_id
 _symmetry_equiv_pos_as_xyz
  1  'x, y, z'
loop_
 _atom_site_type_symbol
 _atom_site_label
 _atom_site_symmetry_multiplicity
 _atom_site_fract_x
 _atom_site_fract_y
 _atom_site_fract_z
 _atom_site_occupancy
  Ba  Ba0  1  0.831661  0.168339  0.000000  1
  U  U1  1  0.167286  0.832714  0.000000  1
  Tl  Tl2  1  0.499813  0.500187  0.000000  1
  Tl  Tl3  1  0.660096  0.339904  0.500000  1
  Tl  Tl4  1  0.335829  0.664171  0.500000  1
  Tl  Tl5  1  0.004460  0.995540  0.500000  1
  S  S6  1  0.822015  0.766674  0.205852  1
  S  S7  1  0.233326  0.177985  0.794148  1
  S  S8  1  0.370562  0.032034  0.218997  1
  S  S9  1  0.515457  0.908470  0.790638  1
  S  S10  1  0.967966  0.629438  0.781003  1
  S  S11  1  0.091530  0.484543  0.209362  1
