# generated using pymatgen
data_Y10Lu10Cd6NiRh
_symmetry_space_group_name_H-M   'P 1'
_cell_length_a   9.63509743
_cell_length_b   9.62091811
_cell_length_c   9.58322933
_cell_angle_alpha   90.01630236
_cell_angle_beta   90.12837808
_cell_angle_gamma   120.39791929
_symmetry_Int_Tables_number   1
_chemical_formula_structural   Y10Lu10Cd6NiRh
_chemical_formula_sum   'Y10 Lu10 Cd6 Ni1 Rh1'
_cell_volume   766.22809443
_cell_formula_units_Z   1
loop_
 _symmetry_equiv_pos_site_id
 _symmetry_equiv_pos_as_xyz
  1  'x, y, z'
loop_
 _atom_site_type_symbol
 _atom_site_label
 _atom_site_symmetry_multiplicity
 _atom_site_fract_x
 _atom_site_fract_y
 _atom_site_fract_z
 _atom_site_occupancy
  Y  Y0  1  0.540964  0.458499  0.253930  1
  Y  Y1  1  0.542571  0.085195  0.253756  1
  Y  Y2  1  0.911902  0.457194  0.253332  1
  Y  Y3  1  0.458916  0.542953  0.746621  1
  Y  Y4  1  0.457546  0.913646  0.746665  1
  Y  Y5  1  0.085588  0.543071  0.747082  1
  Y  Y6  1  0.423416  0.211122  0.936126  1
  Y  Y7  1  0.206602  0.790737  0.060544  1
  Y  Y8  1  0.205720  0.415633  0.060906  1
  Y  Y9  1  0.582846  0.791648  0.059924  1
  Lu  Lu10  1  0.001477  0.999465  0.498748  1
  Lu  Lu11  1  0.998833  0.997425  0.998153  1
  Lu  Lu12  1  0.208884  0.790050  0.441196  1
  Lu  Lu13  1  0.208055  0.418374  0.441691  1
  Lu  Lu14  1  0.581767  0.791500  0.441405  1
  Lu  Lu15  1  0.788643  0.211089  0.563478  1
  Lu  Lu16  1  0.789606  0.578928  0.563608  1
  Lu  Lu17  1  0.422740  0.210731  0.562243  1
  Lu  Lu18  1  0.789456  0.212362  0.935511  1
  Lu  Lu19  1  0.790360  0.577608  0.935881  1
  Cd  Cd20  1  0.886552  0.114018  0.249565  1
  Cd  Cd21  1  0.885899  0.771155  0.249756  1
  Cd  Cd22  1  0.228188  0.111939  0.250004  1
  Cd  Cd23  1  0.115380  0.886301  0.749081  1
  Cd  Cd24  1  0.112405  0.228435  0.749299  1
  Cd  Cd25  1  0.772093  0.888489  0.747984  1
  Ni  Ni26  1  0.671105  0.335547  0.747303  1
  Rh  Rh27  1  0.332488  0.666885  0.256205  1
