# generated using pymatgen
data_TmLu3Os7W
_symmetry_space_group_name_H-M   'P 1'
_cell_length_a   5.42723700
_cell_length_b   5.24002697
_cell_length_c   8.84239000
_cell_angle_alpha   90.00010456
_cell_angle_beta   90.00000000
_cell_angle_gamma   121.18903908
_symmetry_Int_Tables_number   1
_chemical_formula_structural   TmLu3Os7W
_chemical_formula_sum   'Tm1 Lu3 Os7 W1'
_cell_volume   215.12128369
_cell_formula_units_Z   1
loop_
 _symmetry_equiv_pos_site_id
 _symmetry_equiv_pos_as_xyz
  1  'x, y, z'
loop_
 _atom_site_type_symbol
 _atom_site_label
 _atom_site_symmetry_multiplicity
 _atom_site_fract_x
 _atom_site_fract_y
 _atom_site_fract_z
 _atom_site_occupancy
  Tm  Tm0  1  0.333966  0.667932  0.433933  1
  Lu  Lu1  1  0.671397  0.342795  0.563244  1
  Lu  Lu2  1  0.671375  0.342750  0.936954  1
  Lu  Lu3  1  0.333815  0.667632  0.065959  1
  Os  Os4  1  0.173931  0.823957  0.750345  1
  Os  Os5  1  0.339169  0.165740  0.249563  1
  Os  Os6  1  0.823220  0.646440  0.249611  1
  Os  Os7  1  0.650024  0.823957  0.750345  1
  Os  Os8  1  0.006523  0.013047  0.002710  1
  Os  Os9  1  0.826572  0.165740  0.249563  1
  Os  Os10  1  0.006405  0.012811  0.497440  1
  W  W11  1  0.163601  0.327203  0.750332  1
