# generated using pymatgen
data_La12Ge(RuBr4)3
_symmetry_space_group_name_H-M   'P 1'
_cell_length_a   10.78069051
_cell_length_b   10.78068983
_cell_length_c   10.38924300
_cell_angle_alpha   108.73732642
_cell_angle_beta   108.73732520
_cell_angle_gamma   110.19503838
_symmetry_Int_Tables_number   1
_chemical_formula_structural   La12Ge(RuBr4)3
_chemical_formula_sum   'La12 Ge1 Ru3 Br12'
_cell_volume   937.79678216
_cell_formula_units_Z   1
loop_
 _symmetry_equiv_pos_site_id
 _symmetry_equiv_pos_as_xyz
  1  'x, y, z'
loop_
 _atom_site_type_symbol
 _atom_site_label
 _atom_site_symmetry_multiplicity
 _atom_site_fract_x
 _atom_site_fract_y
 _atom_site_fract_z
 _atom_site_occupancy
  La  La0  1  0.256744  0.731956  0.230371  1
  La  La1  1  0.475213  0.731956  0.001586  1
  La  La2  1  0.234169  0.468337  0.484169  1
  La  La3  1  0.017302  0.034604  0.267302  1
  La  La4  1  0.234169  0.265831  0.750000  1
  La  La5  1  0.017302  0.482698  0.750000  1
  La  La6  1  0.475213  0.243256  0.473626  1
  La  La7  1  0.256744  0.024787  0.026374  1
  La  La8  1  0.768044  0.243256  0.269629  1
  La  La9  1  0.768044  0.024787  0.498414  1
  La  La10  1  0.465396  0.482698  0.232698  1
  La  La11  1  0.031663  0.265831  0.015831  1
  Ge  Ge12  1  0.500000  0.000000  0.250000  1
  Ru  Ru13  1  0.250657  0.501315  0.000657  1
  Ru  Ru14  1  0.998685  0.249343  0.499343  1
  Ru  Ru15  1  0.250657  0.249343  0.250000  1
  Br  Br16  1  0.250383  0.992002  0.499447  1
  Br  Br17  1  0.516166  0.508082  0.758082  1
  Br  Br18  1  0.250383  0.758380  0.750936  1
  Br  Br19  1  0.999725  0.749863  0.999863  1
  Br  Br20  1  0.991918  0.508082  0.250000  1
  Br  Br21  1  0.741620  0.992002  0.992555  1
  Br  Br22  1  0.750137  0.749863  0.250000  1
  Br  Br23  1  0.507998  0.758380  0.507445  1
  Br  Br24  1  0.507998  0.249617  0.000553  1
  Br  Br25  1  0.750137  0.500275  0.500137  1
  Br  Br26  1  0.741620  0.249617  0.749064  1
  Br  Br27  1  0.991918  0.983834  0.741918  1
