# generated using pymatgen
data_Lu2Ga8SiRh3
_symmetry_space_group_name_H-M   'P 1'
_cell_length_a   7.52617299
_cell_length_b   7.47260600
_cell_length_c   9.42460402
_cell_angle_alpha   90.01244321
_cell_angle_beta   89.75780308
_cell_angle_gamma   119.83337548
_symmetry_Int_Tables_number   1
_chemical_formula_structural   Lu2Ga8SiRh3
_chemical_formula_sum   'Lu4 Ga16 Si2 Rh6'
_cell_volume   459.79247729
_cell_formula_units_Z   2
loop_
 _symmetry_equiv_pos_site_id
 _symmetry_equiv_pos_as_xyz
  1  'x, y, z'
loop_
 _atom_site_type_symbol
 _atom_site_label
 _atom_site_symmetry_multiplicity
 _atom_site_fract_x
 _atom_site_fract_y
 _atom_site_fract_z
 _atom_site_occupancy
  Lu  Lu0  1  0.995323  0.664650  0.245069  1
  Lu  Lu1  1  0.004677  0.335350  0.754931  1
  Lu  Lu2  1  0.676491  0.005837  0.247796  1
  Lu  Lu3  1  0.323509  0.994163  0.752204  1
  Ga  Ga4  1  0.128348  0.127514  0.250217  1
  Ga  Ga5  1  0.871652  0.872486  0.749783  1
  Ga  Ga6  1  0.999280  0.663485  0.577266  1
  Ga  Ga7  1  0.333564  0.997457  0.418869  1
  Ga  Ga8  1  0.000720  0.336515  0.422734  1
  Ga  Ga9  1  0.666436  0.002543  0.581131  1
  Ga  Ga10  1  0.660969  0.999393  0.916762  1
  Ga  Ga11  1  0.339031  0.000607  0.083238  1
  Ga  Ga12  1  0.331453  0.329532  0.569447  1
  Ga  Ga13  1  0.668547  0.670468  0.430553  1
  Ga  Ga14  1  0.662667  0.669578  0.071436  1
  Ga  Ga15  1  0.337333  0.330422  0.928564  1
  Ga  Ga16  1  0.336486  0.550234  0.250565  1
  Ga  Ga17  1  0.663514  0.449766  0.749435  1
  Ga  Ga18  1  0.548042  0.340332  0.249413  1
  Ga  Ga19  1  0.451958  0.659668  0.750587  1
  Si  Si20  1  0.001205  0.329255  0.075644  1
  Si  Si21  1  0.998795  0.670745  0.924356  1
  Rh  Rh22  1  0.697061  0.343687  0.002460  1
  Rh  Rh23  1  0.302939  0.656313  0.997540  1
  Rh  Rh24  1  0.329238  0.672159  0.501281  1
  Rh  Rh25  1  0.670762  0.327841  0.498719  1
  Rh  Rh26  1  0.000000  0.000000  0.000000  1
  Rh  Rh27  1  0.000000  0.000000  0.500000  1
