# generated using pymatgen
data_Ho10Ga3FeBi2
_symmetry_space_group_name_H-M   'P 1'
_cell_length_a   8.63610239
_cell_length_b   8.63610372
_cell_length_c   8.76514231
_cell_angle_alpha   125.48588326
_cell_angle_beta   125.48588380
_cell_angle_gamma   79.72620347
_symmetry_Int_Tables_number   1
_chemical_formula_structural   Ho10Ga3FeBi2
_chemical_formula_sum   'Ho10 Ga3 Fe1 Bi2'
_cell_volume   420.84199085
_cell_formula_units_Z   1
loop_
 _symmetry_equiv_pos_site_id
 _symmetry_equiv_pos_as_xyz
  1  'x, y, z'
loop_
 _atom_site_type_symbol
 _atom_site_label
 _atom_site_symmetry_multiplicity
 _atom_site_fract_x
 _atom_site_fract_y
 _atom_site_fract_z
 _atom_site_occupancy
  Ho  Ho0  1  0.703889  0.518161  0.500000  1
  Ho  Ho1  1  0.481570  0.000499  0.202839  1
  Ho  Ho2  1  0.778731  0.297660  0.797161  1
  Ho  Ho3  1  0.499501  0.018430  0.797161  1
  Ho  Ho4  1  0.003776  0.001443  0.005219  1
  Ho  Ho5  1  0.048307  0.190089  0.500000  1
  Ho  Ho6  1  0.309911  0.451693  0.500000  1
  Ho  Ho7  1  0.202340  0.721269  0.202839  1
  Ho  Ho8  1  0.981839  0.796111  0.500000  1
  Ho  Ho9  1  0.498557  0.496224  0.994781  1
  Ga  Ga10  1  0.138917  0.641711  0.780627  1
  Ga  Ga11  1  0.858289  0.361083  0.219373  1
  Ga  Ga12  1  0.631266  0.868734  0.500000  1
  Fe  Fe13  1  0.377234  0.122766  0.500000  1
  Bi  Bi14  1  0.242936  0.257064  0.000000  1
  Bi  Bi15  1  0.742936  0.757064  0.000000  1
