# generated using pymatgen
data_YTh3(Ge2Ir)4
_symmetry_space_group_name_H-M   'P 1'
_cell_length_a   9.54409933
_cell_length_b   9.54409865
_cell_length_c   9.54409915
_cell_angle_alpha   153.32809794
_cell_angle_beta   124.09852728
_cell_angle_gamma   62.98592802
_symmetry_Int_Tables_number   1
_chemical_formula_structural   YTh3(Ge2Ir)4
_chemical_formula_sum   'Y1 Th3 Ge8 Ir4'
_cell_volume   320.58444529
_cell_formula_units_Z   1
loop_
 _symmetry_equiv_pos_site_id
 _symmetry_equiv_pos_as_xyz
  1  'x, y, z'
loop_
 _atom_site_type_symbol
 _atom_site_label
 _atom_site_symmetry_multiplicity
 _atom_site_fract_x
 _atom_site_fract_y
 _atom_site_fract_z
 _atom_site_occupancy
  Y  Y0  1  0.705266  0.205266  0.500000  1
  Th  Th1  1  0.292909  0.792909  0.500000  1
  Th  Th2  1  0.271568  0.000846  0.270722  1
  Th  Th3  1  0.730125  0.000846  0.729278  1
  Ge  Ge4  1  0.579430  0.579430  0.000000  1
  Ge  Ge5  1  0.950898  0.799482  0.151416  1
  Ge  Ge6  1  0.648066  0.799482  0.848584  1
  Ge  Ge7  1  0.038926  0.198741  0.840185  1
  Ge  Ge8  1  0.922004  0.422004  0.500000  1
  Ge  Ge9  1  0.425302  0.425302  0.000000  1
  Ge  Ge10  1  0.076497  0.576497  0.500000  1
  Ge  Ge11  1  0.358556  0.198741  0.159815  1
  Ir  Ir12  1  0.900049  0.646592  0.253456  1
  Ir  Ir13  1  0.100691  0.353635  0.747056  1
  Ir  Ir14  1  0.606577  0.353635  0.252944  1
  Ir  Ir15  1  0.393137  0.646592  0.746544  1
