# generated using pymatgen
data_Pr2Ho2LuSi4
_symmetry_space_group_name_H-M   'P 1'
_cell_length_a   7.47275600
_cell_length_b   7.78576300
_cell_length_c   14.80038200
_cell_angle_alpha   90.00000000
_cell_angle_beta   90.00000000
_cell_angle_gamma   90.00000000
_symmetry_Int_Tables_number   1
_chemical_formula_structural   Pr2Ho2LuSi4
_chemical_formula_sum   'Pr8 Ho8 Lu4 Si16'
_cell_volume   861.10261134
_cell_formula_units_Z   4
loop_
 _symmetry_equiv_pos_site_id
 _symmetry_equiv_pos_as_xyz
  1  'x, y, z'
loop_
 _atom_site_type_symbol
 _atom_site_label
 _atom_site_symmetry_multiplicity
 _atom_site_fract_x
 _atom_site_fract_y
 _atom_site_fract_z
 _atom_site_occupancy
  Pr  Pr0  1  0.976173  0.821567  0.098189  1
  Pr  Pr1  1  0.476173  0.678433  0.401811  1
  Pr  Pr2  1  0.523827  0.321567  0.901811  1
  Pr  Pr3  1  0.023827  0.178433  0.598189  1
  Pr  Pr4  1  0.023827  0.178433  0.901811  1
  Pr  Pr5  1  0.523827  0.321567  0.598189  1
  Pr  Pr6  1  0.476173  0.678433  0.098189  1
  Pr  Pr7  1  0.976173  0.821567  0.401811  1
  Ho  Ho8  1  0.680983  0.821915  0.876782  1
  Ho  Ho9  1  0.180983  0.678085  0.623218  1
  Ho  Ho10  1  0.819017  0.321915  0.123218  1
  Ho  Ho11  1  0.319017  0.178085  0.376782  1
  Ho  Ho12  1  0.319017  0.178085  0.123218  1
  Ho  Ho13  1  0.819017  0.321915  0.376782  1
  Ho  Ho14  1  0.180983  0.678085  0.876782  1
  Ho  Ho15  1  0.680983  0.821915  0.623218  1
  Lu  Lu16  1  0.649696  0.990096  0.250000  1
  Lu  Lu17  1  0.149696  0.509904  0.250000  1
  Lu  Lu18  1  0.850304  0.490096  0.750000  1
  Lu  Lu19  1  0.350304  0.009904  0.750000  1
  Si  Si20  1  0.770497  0.621899  0.250000  1
  Si  Si21  1  0.270497  0.878101  0.250000  1
  Si  Si22  1  0.729503  0.121899  0.750000  1
  Si  Si23  1  0.229503  0.378101  0.750000  1
  Si  Si24  1  0.021996  0.112370  0.250000  1
  Si  Si25  1  0.521996  0.387630  0.250000  1
  Si  Si26  1  0.478004  0.612370  0.750000  1
  Si  Si27  1  0.978004  0.887630  0.750000  1
  Si  Si28  1  0.855641  0.530842  0.959589  1
  Si  Si29  1  0.355641  0.969158  0.540411  1
  Si  Si30  1  0.644359  0.030842  0.040411  1
  Si  Si31  1  0.144359  0.469158  0.459589  1
  Si  Si32  1  0.144359  0.469158  0.040411  1
  Si  Si33  1  0.644359  0.030842  0.459589  1
  Si  Si34  1  0.355641  0.969158  0.959589  1
  Si  Si35  1  0.855641  0.530842  0.540411  1
