# generated using pymatgen
data_Tb4Dy3Ho9(CdNi)4
_symmetry_space_group_name_H-M   'P 1'
_cell_length_a   9.56773631
_cell_length_b   9.56645336
_cell_length_c   9.56563006
_cell_angle_alpha   60.01171542
_cell_angle_beta   60.00171108
_cell_angle_gamma   59.98987241
_symmetry_Int_Tables_number   1
_chemical_formula_structural   Tb4Dy3Ho9(CdNi)4
_chemical_formula_sum   'Tb4 Dy3 Ho9 Cd4 Ni4'
_cell_volume   619.11244624
_cell_formula_units_Z   1
loop_
 _symmetry_equiv_pos_site_id
 _symmetry_equiv_pos_as_xyz
  1  'x, y, z'
loop_
 _atom_site_type_symbol
 _atom_site_label
 _atom_site_symmetry_multiplicity
 _atom_site_fract_x
 _atom_site_fract_y
 _atom_site_fract_z
 _atom_site_occupancy
  Tb  Tb0  1  0.598825  0.598630  0.599065  1
  Tb  Tb1  1  0.599277  0.598809  0.202887  1
  Tb  Tb2  1  0.599065  0.203482  0.598825  1
  Tb  Tb3  1  0.202887  0.599029  0.599277  1
  Dy  Dy4  1  0.186113  0.813887  0.186113  1
  Dy  Dy5  1  0.814046  0.814275  0.185756  1
  Dy  Dy6  1  0.185756  0.185922  0.814046  1
  Ho  Ho7  1  0.061777  0.438043  0.438365  1
  Ho  Ho8  1  0.438365  0.061815  0.061777  1
  Ho  Ho9  1  0.438346  0.061654  0.438346  1
  Ho  Ho10  1  0.061984  0.438016  0.061984  1
  Ho  Ho11  1  0.438336  0.438010  0.061814  1
  Ho  Ho12  1  0.061814  0.061840  0.438336  1
  Ho  Ho13  1  0.185990  0.814001  0.813801  1
  Ho  Ho14  1  0.813801  0.186209  0.185990  1
  Ho  Ho15  1  0.814128  0.185872  0.814128  1
  Cd  Cd16  1  0.831335  0.831512  0.831059  1
  Cd  Cd17  1  0.831081  0.831511  0.506155  1
  Cd  Cd18  1  0.831059  0.506094  0.831335  1
  Cd  Cd19  1  0.506155  0.831253  0.831081  1
  Ni  Ni20  1  0.392331  0.392385  0.392081  1
  Ni  Ni21  1  0.392090  0.392384  0.823360  1
  Ni  Ni22  1  0.392081  0.823202  0.392331  1
  Ni  Ni23  1  0.823360  0.392165  0.392090  1
