# generated using pymatgen
data_Yb10HgBi6Pd
_symmetry_space_group_name_H-M   'P 1'
_cell_length_a   9.33137600
_cell_length_b   9.33137456
_cell_length_c   7.07950900
_cell_angle_alpha   90.00000000
_cell_angle_beta   90.00000000
_cell_angle_gamma   120.00000512
_symmetry_Int_Tables_number   1
_chemical_formula_structural   Yb10HgBi6Pd
_chemical_formula_sum   'Yb10 Hg1 Bi6 Pd1'
_cell_volume   533.85714413
_cell_formula_units_Z   1
loop_
 _symmetry_equiv_pos_site_id
 _symmetry_equiv_pos_as_xyz
  1  'x, y, z'
loop_
 _atom_site_type_symbol
 _atom_site_label
 _atom_site_symmetry_multiplicity
 _atom_site_fract_x
 _atom_site_fract_y
 _atom_site_fract_z
 _atom_site_occupancy
  Yb  Yb0  1  0.257888  0.257888  0.722056  1
  Yb  Yb1  1  0.742112  0.742112  0.277944  1
  Yb  Yb2  1  0.333333  0.666667  0.500000  1
  Yb  Yb3  1  0.257888  0.000000  0.277944  1
  Yb  Yb4  1  0.666667  0.333333  0.500000  1
  Yb  Yb5  1  0.000000  0.742112  0.722056  1
  Yb  Yb6  1  0.666667  0.333333  0.000000  1
  Yb  Yb7  1  0.000000  0.257888  0.277944  1
  Yb  Yb8  1  0.742112  0.000000  0.722056  1
  Yb  Yb9  1  0.333333  0.666667  0.000000  1
  Hg  Hg10  1  0.000000  0.000000  0.000000  1
  Bi  Bi11  1  0.389302  0.000000  0.750983  1
  Bi  Bi12  1  0.610698  0.000000  0.249017  1
  Bi  Bi13  1  0.610698  0.610698  0.750983  1
  Bi  Bi14  1  0.000000  0.610698  0.249017  1
  Bi  Bi15  1  0.000000  0.389302  0.750983  1
  Bi  Bi16  1  0.389302  0.389302  0.249017  1
  Pd  Pd17  1  0.000000  0.000000  0.500000  1
