# generated using pymatgen
data_YbHo9(PtPb3)2
_symmetry_space_group_name_H-M   'P 1'
_cell_length_a   9.19674500
_cell_length_b   9.19674542
_cell_length_c   6.81894300
_cell_angle_alpha   90.00000000
_cell_angle_beta   90.00000000
_cell_angle_gamma   120.00000208
_symmetry_Int_Tables_number   1
_chemical_formula_structural   YbHo9(PtPb3)2
_chemical_formula_sum   'Yb1 Ho9 Pt2 Pb6'
_cell_volume   499.47757258
_cell_formula_units_Z   1
loop_
 _symmetry_equiv_pos_site_id
 _symmetry_equiv_pos_as_xyz
  1  'x, y, z'
loop_
 _atom_site_type_symbol
 _atom_site_label
 _atom_site_symmetry_multiplicity
 _atom_site_fract_x
 _atom_site_fract_y
 _atom_site_fract_z
 _atom_site_occupancy
  Yb  Yb0  1  0.333333  0.666667  0.500000  1
  Ho  Ho1  1  0.245543  0.000563  0.750086  1
  Ho  Ho2  1  0.755020  0.000563  0.249914  1
  Ho  Ho3  1  0.999437  0.244980  0.750086  1
  Ho  Ho4  1  0.999437  0.754457  0.249914  1
  Ho  Ho5  1  0.755020  0.754457  0.750086  1
  Ho  Ho6  1  0.245543  0.244980  0.249914  1
  Ho  Ho7  1  0.666667  0.333333  0.500000  1
  Ho  Ho8  1  0.666667  0.333333  0.000000  1
  Ho  Ho9  1  0.333333  0.666667  0.000000  1
  Pt  Pt10  1  0.000000  0.000000  0.500000  1
  Pt  Pt11  1  0.000000  0.000000  0.000000  1
  Pb  Pb12  1  0.600827  0.000624  0.751092  1
  Pb  Pb13  1  0.399797  0.000624  0.248908  1
  Pb  Pb14  1  0.999376  0.600203  0.751092  1
  Pb  Pb15  1  0.999376  0.399173  0.248908  1
  Pb  Pb16  1  0.399797  0.399173  0.751092  1
  Pb  Pb17  1  0.600827  0.600203  0.248908  1
