# generated using pymatgen
data_PrHoErGa9Pd2
_symmetry_space_group_name_H-M   'P 1'
_cell_length_a   8.20887374
_cell_length_b   8.20887445
_cell_length_c   8.20887360
_cell_angle_alpha   149.45432843
_cell_angle_beta   109.30660416
_cell_angle_gamma   78.93937544
_symmetry_Int_Tables_number   1
_chemical_formula_structural   PrHoErGa9Pd2
_chemical_formula_sum   'Pr1 Ho1 Er1 Ga9 Pd2'
_cell_volume   260.29638050
_cell_formula_units_Z   1
loop_
 _symmetry_equiv_pos_site_id
 _symmetry_equiv_pos_as_xyz
  1  'x, y, z'
loop_
 _atom_site_type_symbol
 _atom_site_label
 _atom_site_symmetry_multiplicity
 _atom_site_fract_x
 _atom_site_fract_y
 _atom_site_fract_z
 _atom_site_occupancy
  Pr  Pr0  1  0.499942  0.499942  0.000000  1
  Ho  Ho1  1  0.801643  0.801643  0.000000  1
  Er  Er2  1  0.198238  0.198238  0.000000  1
  Ga  Ga3  1  0.644476  0.360077  0.284399  1
  Ga  Ga4  1  0.355450  0.639958  0.715492  1
  Ga  Ga5  1  0.075677  0.360077  0.715601  1
  Ga  Ga6  1  0.924466  0.639958  0.284508  1
  Ga  Ga7  1  0.523386  0.158498  0.364888  1
  Ga  Ga8  1  0.476452  0.841423  0.635028  1
  Ga  Ga9  1  0.793610  0.158498  0.635112  1
  Ga  Ga10  1  0.206395  0.841423  0.364972  1
  Ga  Ga11  1  0.000040  0.500040  0.500000  1
  Pd  Pd12  1  0.184257  0.000113  0.184144  1
  Pd  Pd13  1  0.815969  0.000113  0.815856  1
