# generated using pymatgen
data_LiLa2(B3Ir4)2
_symmetry_space_group_name_H-M   'P 1'
_cell_length_a   9.85213255
_cell_length_b   8.96941855
_cell_length_c   5.67278200
_cell_angle_alpha   81.20108593
_cell_angle_beta   64.11726730
_cell_angle_gamma   34.68164408
_symmetry_Int_Tables_number   1
_chemical_formula_structural   LiLa2(B3Ir4)2
_chemical_formula_sum   'Li1 La2 B6 Ir8'
_cell_volume   234.93574340
_cell_formula_units_Z   1
loop_
 _symmetry_equiv_pos_site_id
 _symmetry_equiv_pos_as_xyz
  1  'x, y, z'
loop_
 _atom_site_type_symbol
 _atom_site_label
 _atom_site_symmetry_multiplicity
 _atom_site_fract_x
 _atom_site_fract_y
 _atom_site_fract_z
 _atom_site_occupancy
  Li  Li0  1  0.500000  0.500000  0.500000  1
  La  La1  1  0.330636  0.330636  0.669364  1
  La  La2  1  0.669364  0.669364  0.330636  1
  B  B3  1  0.670732  0.987041  0.012959  1
  B  B4  1  0.987041  0.670732  0.329268  1
  B  B5  1  0.329268  0.012959  0.987041  1
  B  B6  1  0.012959  0.329268  0.670732  1
  B  B7  1  0.167954  0.832046  0.167954  1
  B  B8  1  0.832046  0.167954  0.832046  1
  Ir  Ir9  1  0.583348  0.583348  0.916652  1
  Ir  Ir10  1  0.915909  0.915909  0.084091  1
  Ir  Ir11  1  0.416652  0.416652  0.083348  1
  Ir  Ir12  1  0.083348  0.083348  0.416652  1
  Ir  Ir13  1  0.916652  0.916652  0.583348  1
  Ir  Ir14  1  0.250000  0.250000  0.250000  1
  Ir  Ir15  1  0.084091  0.084091  0.915909  1
  Ir  Ir16  1  0.750000  0.750000  0.750000  1
