# generated using pymatgen
data_TbHo4Lu3Au4
_symmetry_space_group_name_H-M   'P 1'
_cell_length_a   4.88331200
_cell_length_b   7.11325616
_cell_length_c   8.85827368
_cell_angle_alpha   90.09414886
_cell_angle_beta   90.00000000
_cell_angle_gamma   90.00000000
_symmetry_Int_Tables_number   1
_chemical_formula_structural   TbHo4Lu3Au4
_chemical_formula_sum   'Tb1 Ho4 Lu3 Au4'
_cell_volume   307.70278615
_cell_formula_units_Z   1
loop_
 _symmetry_equiv_pos_site_id
 _symmetry_equiv_pos_as_xyz
  1  'x, y, z'
loop_
 _atom_site_type_symbol
 _atom_site_label
 _atom_site_symmetry_multiplicity
 _atom_site_fract_x
 _atom_site_fract_y
 _atom_site_fract_z
 _atom_site_occupancy
  Tb  Tb0  1  0.750000  0.015632  0.678110  1
  Ho  Ho1  1  0.750000  0.647971  0.419289  1
  Ho  Ho2  1  0.250000  0.484177  0.176388  1
  Ho  Ho3  1  0.250000  0.987386  0.323417  1
  Ho  Ho4  1  0.750000  0.515052  0.823386  1
  Lu  Lu5  1  0.250000  0.851955  0.922190  1
  Lu  Lu6  1  0.250000  0.352745  0.580401  1
  Lu  Lu7  1  0.750000  0.148449  0.078245  1
  Au  Au8  1  0.250000  0.252094  0.899692  1
  Au  Au9  1  0.250000  0.752978  0.603419  1
  Au  Au10  1  0.750000  0.748141  0.096359  1
  Au  Au11  1  0.750000  0.243419  0.399102  1
