# generated using pymatgen
data_Ho17Tm3Ir11Ru
_symmetry_space_group_name_H-M   'P 1'
_cell_length_a   10.81491000
_cell_length_b   10.81450600
_cell_length_c   6.36900600
_cell_angle_alpha   90.00000000
_cell_angle_beta   90.00000000
_cell_angle_gamma   89.99848479
_symmetry_Int_Tables_number   1
_chemical_formula_structural   Ho17Tm3Ir11Ru
_chemical_formula_sum   'Ho17 Tm3 Ir11 Ru1'
_cell_volume   744.90562458
_cell_formula_units_Z   1
loop_
 _symmetry_equiv_pos_site_id
 _symmetry_equiv_pos_as_xyz
  1  'x, y, z'
loop_
 _atom_site_type_symbol
 _atom_site_label
 _atom_site_symmetry_multiplicity
 _atom_site_fract_x
 _atom_site_fract_y
 _atom_site_fract_z
 _atom_site_occupancy
  Ho  Ho0  1  0.292054  0.087011  0.376771  1
  Ho  Ho1  1  0.292390  0.912883  0.879542  1
  Ho  Ho2  1  0.707610  0.087117  0.879542  1
  Ho  Ho3  1  0.707946  0.912989  0.376771  1
  Ho  Ho4  1  0.587128  0.792470  0.879625  1
  Ho  Ho5  1  0.587103  0.207696  0.376711  1
  Ho  Ho6  1  0.412897  0.792304  0.376711  1
  Ho  Ho7  1  0.412872  0.207530  0.879625  1
  Ho  Ho8  1  0.209155  0.411799  0.622057  1
  Ho  Ho9  1  0.209290  0.588007  0.121606  1
  Ho  Ho10  1  0.790710  0.411993  0.121606  1
  Ho  Ho11  1  0.790845  0.588201  0.622057  1
  Ho  Ho12  1  0.912002  0.709358  0.121669  1
  Ho  Ho13  1  0.911901  0.290597  0.622007  1
  Ho  Ho14  1  0.088099  0.709403  0.622007  1
  Ho  Ho15  1  0.087998  0.290642  0.121669  1
  Ho  Ho16  1  0.500000  0.500000  0.499385  1
  Tm  Tm17  1  0.000000  0.000000  0.499383  1
  Tm  Tm18  1  0.000000  0.000000  0.999383  1
  Tm  Tm19  1  0.500000  0.500000  0.999377  1
  Ir  Ir20  1  0.847699  0.153050  0.250018  1
  Ir  Ir21  1  0.847762  0.847299  0.749742  1
  Ir  Ir22  1  0.152238  0.152701  0.749742  1
  Ir  Ir23  1  0.152301  0.846950  0.250018  1
  Ir  Ir24  1  0.653048  0.347431  0.750295  1
  Ir  Ir25  1  0.653397  0.652642  0.249483  1
  Ir  Ir26  1  0.346603  0.347358  0.249483  1
  Ir  Ir27  1  0.346952  0.652569  0.750295  1
  Ir  Ir28  1  0.500000  0.000000  0.622815  1
  Ir  Ir29  1  0.000000  0.500000  0.878528  1
  Ir  Ir30  1  0.000000  0.500000  0.378636  1
  Ru  Ru31  1  0.500000  0.000000  0.123447  1
