# generated using pymatgen
data_Dy7Ho3IrOs3
_symmetry_space_group_name_H-M   'P 1'
_cell_length_a   6.39707277
_cell_length_b   7.34515384
_cell_length_c   8.40585051
_cell_angle_alpha   96.75151811
_cell_angle_beta   112.25947636
_cell_angle_gamma   90.04369581
_symmetry_Int_Tables_number   1
_chemical_formula_structural   Dy7Ho3IrOs3
_chemical_formula_sum   'Dy7 Ho3 Ir1 Os3'
_cell_volume   362.55977173
_cell_formula_units_Z   1
loop_
 _symmetry_equiv_pos_site_id
 _symmetry_equiv_pos_as_xyz
  1  'x, y, z'
loop_
 _atom_site_type_symbol
 _atom_site_label
 _atom_site_symmetry_multiplicity
 _atom_site_fract_x
 _atom_site_fract_y
 _atom_site_fract_z
 _atom_site_occupancy
  Dy  Dy0  1  0.972044  0.914996  0.180443  1
  Dy  Dy1  1  0.790655  0.582535  0.816912  1
  Dy  Dy2  1  0.023420  0.084042  0.813794  1
  Dy  Dy3  1  0.207642  0.418147  0.181034  1
  Dy  Dy4  1  0.648601  0.816544  0.438306  1
  Dy  Dy5  1  0.209943  0.682221  0.563224  1
  Dy  Dy6  1  0.352375  0.182097  0.564540  1
  Ho  Ho7  1  0.793336  0.319504  0.437797  1
  Ho  Ho8  1  0.422733  0.748831  0.999235  1
  Ho  Ho9  1  0.577472  0.250496  0.999865  1
  Ir  Ir10  1  0.396675  0.076903  0.221418  1
  Os  Os11  1  0.822416  0.575744  0.217955  1
  Os  Os12  1  0.606350  0.924691  0.782464  1
  Os  Os13  1  0.176338  0.423247  0.783013  1
