# generated using pymatgen
data_Dy3Sc3FeSb2
_symmetry_space_group_name_H-M   'P 1'
_cell_length_a   7.83835203
_cell_length_b   7.83913631
_cell_length_c   4.13776900
_cell_angle_alpha   90.00000000
_cell_angle_beta   90.00000000
_cell_angle_gamma   120.00652278
_symmetry_Int_Tables_number   1
_chemical_formula_structural   Dy3Sc3FeSb2
_chemical_formula_sum   'Dy3 Sc3 Fe1 Sb2'
_cell_volume   220.17160315
_cell_formula_units_Z   1
loop_
 _symmetry_equiv_pos_site_id
 _symmetry_equiv_pos_as_xyz
  1  'x, y, z'
loop_
 _atom_site_type_symbol
 _atom_site_label
 _atom_site_symmetry_multiplicity
 _atom_site_fract_x
 _atom_site_fract_y
 _atom_site_fract_z
 _atom_site_occupancy
  Dy  Dy0  1  0.608559  0.000002  0.500000  1
  Dy  Dy1  1  0.391502  0.391508  0.500000  1
  Dy  Dy2  1  0.999994  0.608691  0.500000  1
  Sc  Sc3  1  0.224932  0.999906  0.000000  1
  Sc  Sc4  1  0.775047  0.774978  0.000000  1
  Sc  Sc5  1  0.999981  0.224902  0.000000  1
  Fe  Fe6  1  0.999956  0.000009  0.500000  1
  Sb  Sb7  1  0.333332  0.666666  0.000000  1
  Sb  Sb8  1  0.666697  0.333338  0.000000  1
