# generated using pymatgen
data_Pr3NdAl18(PtRh)3
_symmetry_space_group_name_H-M   'P 1'
_cell_length_a   7.65729111
_cell_length_b   7.65855250
_cell_length_c   9.59014703
_cell_angle_alpha   89.99085633
_cell_angle_beta   89.99214627
_cell_angle_gamma   119.57502235
_symmetry_Int_Tables_number   1
_chemical_formula_structural   Pr3NdAl18(PtRh)3
_chemical_formula_sum   'Pr3 Nd1 Al18 Pt3 Rh3'
_cell_volume   489.12701550
_cell_formula_units_Z   1
loop_
 _symmetry_equiv_pos_site_id
 _symmetry_equiv_pos_as_xyz
  1  'x, y, z'
loop_
 _atom_site_type_symbol
 _atom_site_label
 _atom_site_symmetry_multiplicity
 _atom_site_fract_x
 _atom_site_fract_y
 _atom_site_fract_z
 _atom_site_occupancy
  Pr  Pr0  1  0.995803  0.668533  0.750199  1
  Pr  Pr1  1  0.005842  0.332684  0.249995  1
  Pr  Pr2  1  0.667182  0.994068  0.749997  1
  Nd  Nd3  1  0.331245  0.003797  0.249774  1
  Al  Al4  1  0.127155  0.127779  0.750535  1
  Al  Al5  1  0.872469  0.872945  0.249456  1
  Al  Al6  1  0.001810  0.330476  0.574137  1
  Al  Al7  1  0.997580  0.670037  0.425660  1
  Al  Al8  1  0.994977  0.666052  0.072776  1
  Al  Al9  1  0.334314  0.005343  0.927555  1
  Al  Al10  1  0.998025  0.330334  0.927265  1
  Al  Al11  1  0.669288  0.001947  0.072734  1
  Al  Al12  1  0.669183  0.998175  0.425879  1
  Al  Al13  1  0.330286  0.002719  0.574038  1
  Al  Al14  1  0.333982  0.330384  0.048970  1
  Al  Al15  1  0.669356  0.666018  0.951148  1
  Al  Al16  1  0.668654  0.668610  0.551405  1
  Al  Al17  1  0.331415  0.331092  0.448487  1
  Al  Al18  1  0.339829  0.542172  0.750433  1
  Al  Al19  1  0.659220  0.454127  0.246338  1
  Al  Al20  1  0.545508  0.340356  0.753675  1
  Al  Al21  1  0.457901  0.660568  0.249559  1
  Pt  Pt22  1  0.671128  0.328949  0.499774  1
  Pt  Pt23  1  0.328353  0.671623  0.499820  1
  Pt  Pt24  1  0.328443  0.671560  0.000170  1
  Rh  Rh25  1  0.670831  0.329159  0.000243  1
  Rh  Rh26  1  0.999947  0.000417  0.499773  1
  Rh  Rh27  1  0.000276  0.000076  0.000206  1
