# generated using pymatgen
data_Tb3Th(CoB10)2
_symmetry_space_group_name_H-M   'P 1'
_cell_length_a   4.15536900
_cell_length_b   5.57192509
_cell_length_c   11.12195517
_cell_angle_alpha   90.09922510
_cell_angle_beta   90.00000000
_cell_angle_gamma   90.00000000
_symmetry_Int_Tables_number   1
_chemical_formula_structural   Tb3Th(CoB10)2
_chemical_formula_sum   'Tb3 Th1 Co2 B20'
_cell_volume   257.51074388
_cell_formula_units_Z   1
loop_
 _symmetry_equiv_pos_site_id
 _symmetry_equiv_pos_as_xyz
  1  'x, y, z'
loop_
 _atom_site_type_symbol
 _atom_site_label
 _atom_site_symmetry_multiplicity
 _atom_site_fract_x
 _atom_site_fract_y
 _atom_site_fract_z
 _atom_site_occupancy
  Tb  Tb0  1  0.500000  0.301412  0.866245  1
  Tb  Tb1  1  0.500000  0.699857  0.130448  1
  Tb  Tb2  1  0.500000  0.802770  0.636988  1
  Th  Th3  1  0.500000  0.197301  0.366222  1
  Co  Co4  1  0.000000  0.498230  0.499948  1
  Co  Co5  1  0.000000  0.999335  0.999986  1
  B  B6  1  0.000000  0.125789  0.541815  1
  B  B7  1  0.000000  0.870516  0.461309  1
  B  B8  1  0.000000  0.627290  0.959263  1
  B  B9  1  0.000000  0.372592  0.038921  1
  B  B10  1  0.000000  0.157868  0.699552  1
  B  B11  1  0.000000  0.845226  0.302609  1
  B  B12  1  0.299775  0.201571  0.111718  1
  B  B13  1  0.300067  0.798290  0.886741  1
  B  B14  1  0.700161  0.699795  0.386332  1
  B  B15  1  0.699805  0.297658  0.614604  1
  B  B16  1  0.699933  0.798290  0.886741  1
  B  B17  1  0.700225  0.201571  0.111718  1
  B  B18  1  0.300195  0.297658  0.614604  1
  B  B19  1  0.299839  0.699795  0.386332  1
  B  B20  1  0.000000  0.032252  0.186268  1
  B  B21  1  0.000000  0.969657  0.814498  1
  B  B22  1  0.000000  0.533038  0.312584  1
  B  B23  1  0.000000  0.469965  0.686355  1
  B  B24  1  0.000000  0.344573  0.196406  1
  B  B25  1  0.000000  0.657699  0.801793  1
