# generated using pymatgen
data_Nd4B4Ir9Pt
_symmetry_space_group_name_H-M   'P 1'
_cell_length_a   11.09593503
_cell_length_b   11.09593491
_cell_length_c   11.09593467
_cell_angle_alpha   29.04583434
_cell_angle_beta   29.04583423
_cell_angle_gamma   29.04583959
_symmetry_Int_Tables_number   1
_chemical_formula_structural   Nd4B4Ir9Pt
_chemical_formula_sum   'Nd4 B4 Ir9 Pt1'
_cell_volume   284.84476827
_cell_formula_units_Z   1
loop_
 _symmetry_equiv_pos_site_id
 _symmetry_equiv_pos_as_xyz
  1  'x, y, z'
loop_
 _atom_site_type_symbol
 _atom_site_label
 _atom_site_symmetry_multiplicity
 _atom_site_fract_x
 _atom_site_fract_y
 _atom_site_fract_z
 _atom_site_occupancy
  Nd  Nd0  1  0.151301  0.151301  0.151301  1
  Nd  Nd1  1  0.950324  0.950324  0.950324  1
  Nd  Nd2  1  0.848699  0.848699  0.848699  1
  Nd  Nd3  1  0.049676  0.049676  0.049676  1
  B  B4  1  0.617997  0.617997  0.617997  1
  B  B5  1  0.716889  0.716889  0.716889  1
  B  B6  1  0.382003  0.382003  0.382003  1
  B  B7  1  0.283111  0.283111  0.283111  1
  Ir  Ir8  1  0.408430  0.899442  0.408430  1
  Ir  Ir9  1  0.899442  0.408430  0.408430  1
  Ir  Ir10  1  0.500000  0.500000  0.000000  1
  Ir  Ir11  1  0.500000  0.000000  0.500000  1
  Ir  Ir12  1  0.000000  0.500000  0.500000  1
  Ir  Ir13  1  0.591570  0.100558  0.591570  1
  Ir  Ir14  1  0.591570  0.591570  0.100558  1
  Ir  Ir15  1  0.100558  0.591570  0.591570  1
  Ir  Ir16  1  0.408430  0.408430  0.899442  1
  Pt  Pt17  1  0.500000  0.500000  0.500000  1
