# generated using pymatgen
data_YbCd4O5
_symmetry_space_group_name_H-M   'P 1'
_cell_length_a   5.84017303
_cell_length_b   5.84017255
_cell_length_c   7.53313224
_cell_angle_alpha   130.16780596
_cell_angle_beta   130.16779946
_cell_angle_gamma   48.43314948
_symmetry_Int_Tables_number   1
_chemical_formula_structural   YbCd4O5
_chemical_formula_sum   'Yb1 Cd4 O5'
_cell_volume   135.90047836
_cell_formula_units_Z   1
loop_
 _symmetry_equiv_pos_site_id
 _symmetry_equiv_pos_as_xyz
  1  'x, y, z'
loop_
 _atom_site_type_symbol
 _atom_site_label
 _atom_site_symmetry_multiplicity
 _atom_site_fract_x
 _atom_site_fract_y
 _atom_site_fract_z
 _atom_site_occupancy
  Yb  Yb0  1  0.000000  0.000000  0.000000  1
  Cd  Cd1  1  0.401780  0.401780  0.201729  1
  Cd  Cd2  1  0.800000  0.800000  0.398313  1
  Cd  Cd3  1  0.200000  0.200000  0.601687  1
  Cd  Cd4  1  0.598220  0.598220  0.798271  1
  O  O5  1  0.500000  0.500000  0.000000  1
  O  O6  1  0.899980  0.899980  0.198339  1
  O  O7  1  0.297586  0.297586  0.397333  1
  O  O8  1  0.702413  0.702413  0.602667  1
  O  O9  1  0.100020  0.100020  0.801661  1
