# generated using pymatgen
data_RbOs2Br11
_symmetry_space_group_name_H-M   'P 1'
_cell_length_a   7.63743888
_cell_length_b   7.71453962
_cell_length_c   18.60042885
_cell_angle_alpha   79.21165536
_cell_angle_beta   79.18139118
_cell_angle_gamma   89.28484962
_symmetry_Int_Tables_number   1
_chemical_formula_structural   RbOs2Br11
_chemical_formula_sum   'Rb2 Os4 Br22'
_cell_volume   1057.12884554
_cell_formula_units_Z   2
loop_
 _symmetry_equiv_pos_site_id
 _symmetry_equiv_pos_as_xyz
  1  'x, y, z'
loop_
 _atom_site_type_symbol
 _atom_site_label
 _atom_site_symmetry_multiplicity
 _atom_site_fract_x
 _atom_site_fract_y
 _atom_site_fract_z
 _atom_site_occupancy
  Rb  Rb0  1  0.749471  0.750988  0.502867  1
  Rb  Rb1  1  0.250529  0.249012  0.497133  1
  Os  Os2  1  0.320425  0.817947  0.348180  1
  Os  Os3  1  0.679575  0.182053  0.651820  1
  Os  Os4  1  0.844516  0.340701  0.081593  1
  Os  Os5  1  0.155484  0.659299  0.918407  1
  Br  Br6  1  0.252789  0.771599  0.490608  1
  Br  Br7  1  0.747211  0.228401  0.509392  1
  Br  Br8  1  0.567869  0.022433  0.349081  1
  Br  Br9  1  0.432131  0.977567  0.650919  1
  Br  Br10  1  0.528789  0.566439  0.358215  1
  Br  Br11  1  0.471211  0.433561  0.641785  1
  Br  Br12  1  0.383147  0.857252  0.213669  1
  Br  Br13  1  0.616853  0.142748  0.786331  1
  Br  Br14  1  0.069280  0.607116  0.356383  1
  Br  Br15  1  0.930720  0.392884  0.643617  1
  Br  Br16  1  0.111025  0.066727  0.344715  1
  Br  Br17  1  0.888975  0.933273  0.655285  1
  Br  Br18  1  0.896486  0.047485  0.145215  1
  Br  Br19  1  0.103514  0.952515  0.854785  1
  Br  Br20  1  0.546456  0.380358  0.146899  1
  Br  Br21  1  0.453544  0.619642  0.853101  1
  Br  Br22  1  0.726095  0.220047  0.986883  1
  Br  Br23  1  0.273905  0.779953  0.013117  1
  Br  Br24  1  0.973623  0.474043  0.169985  1
  Br  Br25  1  0.026377  0.525957  0.830015  1
  Br  Br26  1  0.161123  0.346742  0.999663  1
  Br  Br27  1  0.838877  0.653258  0.000337  1
