# generated using pymatgen
data_TmZn2CdCuIr
_symmetry_space_group_name_H-M   'P 1'
_cell_length_a   5.30515860
_cell_length_b   5.21956045
_cell_length_c   5.21956159
_cell_angle_alpha   59.80555057
_cell_angle_beta   59.07182168
_cell_angle_gamma   59.07181090
_symmetry_Int_Tables_number   1
_chemical_formula_structural   TmZn2CdCuIr
_chemical_formula_sum   'Tm1 Zn2 Cd1 Cu1 Ir1'
_cell_volume   100.59814891
_cell_formula_units_Z   1
loop_
 _symmetry_equiv_pos_site_id
 _symmetry_equiv_pos_as_xyz
  1  'x, y, z'
loop_
 _atom_site_type_symbol
 _atom_site_label
 _atom_site_symmetry_multiplicity
 _atom_site_fract_x
 _atom_site_fract_y
 _atom_site_fract_z
 _atom_site_occupancy
  Tm  Tm0  1  0.001817  0.993694  0.993694  1
  Zn  Zn1  1  0.622041  0.626976  0.127975  1
  Zn  Zn2  1  0.622041  0.127975  0.626976  1
  Cd  Cd3  1  0.255393  0.250313  0.250313  1
  Cu  Cu4  1  0.124643  0.624969  0.624969  1
  Ir  Ir5  1  0.624064  0.626073  0.626073  1
