# generated using pymatgen
data_Ho2TmFe8Ru
_symmetry_space_group_name_H-M   'P 1'
_cell_length_a   5.07496486
_cell_length_b   5.07496603
_cell_length_c   8.76490843
_cell_angle_alpha   73.17170365
_cell_angle_beta   73.17169861
_cell_angle_gamma   60.00001050
_symmetry_Int_Tables_number   1
_chemical_formula_structural   Ho2TmFe8Ru
_chemical_formula_sum   'Ho2 Tm1 Fe8 Ru1'
_cell_volume   184.25178814
_cell_formula_units_Z   1
loop_
 _symmetry_equiv_pos_site_id
 _symmetry_equiv_pos_as_xyz
  1  'x, y, z'
loop_
 _atom_site_type_symbol
 _atom_site_label
 _atom_site_symmetry_multiplicity
 _atom_site_fract_x
 _atom_site_fract_y
 _atom_site_fract_z
 _atom_site_occupancy
  Ho  Ho0  1  0.141637  0.141637  0.575086  1
  Ho  Ho1  1  0.999972  0.999972  0.000083  1
  Tm  Tm2  1  0.858388  0.858388  0.424838  1
  Fe  Fe3  1  0.076190  0.582207  0.759397  1
  Fe  Fe4  1  0.582207  0.582207  0.759397  1
  Fe  Fe5  1  0.582207  0.076190  0.759397  1
  Fe  Fe6  1  0.923765  0.417796  0.240643  1
  Fe  Fe7  1  0.417796  0.417796  0.240643  1
  Fe  Fe8  1  0.417796  0.923765  0.240643  1
  Fe  Fe9  1  0.333275  0.333275  0.000175  1
  Fe  Fe10  1  0.666737  0.666737  0.999787  1
  Ru  Ru11  1  0.500030  0.500030  0.499910  1
