# generated using pymatgen
data_Nd8NiAg2Os
_symmetry_space_group_name_H-M   'P 1'
_cell_length_a   9.81164100
_cell_length_b   9.81164087
_cell_length_c   10.02355000
_cell_angle_alpha   59.28293693
_cell_angle_beta   59.28293739
_cell_angle_gamma   58.63840141
_symmetry_Int_Tables_number   1
_chemical_formula_structural   Nd8NiAg2Os
_chemical_formula_sum   'Nd16 Ni2 Ag4 Os2'
_cell_volume   667.76651236
_cell_formula_units_Z   2
loop_
 _symmetry_equiv_pos_site_id
 _symmetry_equiv_pos_as_xyz
  1  'x, y, z'
loop_
 _atom_site_type_symbol
 _atom_site_label
 _atom_site_symmetry_multiplicity
 _atom_site_fract_x
 _atom_site_fract_y
 _atom_site_fract_z
 _atom_site_occupancy
  Nd  Nd0  1  0.601026  0.601026  0.594368  1
  Nd  Nd1  1  0.601026  0.601026  0.203580  1
  Nd  Nd2  1  0.603072  0.201691  0.597618  1
  Nd  Nd3  1  0.201691  0.603072  0.597618  1
  Nd  Nd4  1  0.058729  0.438918  0.442112  1
  Nd  Nd5  1  0.438918  0.058729  0.060241  1
  Nd  Nd6  1  0.438918  0.058729  0.442112  1
  Nd  Nd7  1  0.058729  0.438918  0.060241  1
  Nd  Nd8  1  0.440278  0.440278  0.059722  1
  Nd  Nd9  1  0.058359  0.058359  0.441641  1
  Nd  Nd10  1  0.187983  0.806815  0.814770  1
  Nd  Nd11  1  0.806815  0.187983  0.190432  1
  Nd  Nd12  1  0.806815  0.187983  0.814770  1
  Nd  Nd13  1  0.187983  0.806815  0.190432  1
  Nd  Nd14  1  0.813809  0.813809  0.186191  1
  Nd  Nd15  1  0.192044  0.192044  0.807956  1
  Ni  Ni16  1  0.394044  0.825071  0.390443  1
  Ni  Ni17  1  0.825071  0.394044  0.390443  1
  Ag  Ag18  1  0.830031  0.830031  0.833131  1
  Ag  Ag19  1  0.830031  0.830031  0.506806  1
  Ag  Ag20  1  0.828056  0.510396  0.830773  1
  Ag  Ag21  1  0.510396  0.828056  0.830773  1
  Os  Os22  1  0.393087  0.393087  0.388166  1
  Os  Os23  1  0.393087  0.393087  0.825661  1
