# generated using pymatgen
data_TmLuRe2C3
_symmetry_space_group_name_H-M   'P 1'
_cell_length_a   5.98804322
_cell_length_b   5.98804310
_cell_length_c   5.60091923
_cell_angle_alpha   68.15368879
_cell_angle_beta   68.15368868
_cell_angle_gamma   31.63941359
_symmetry_Int_Tables_number   1
_chemical_formula_structural   TmLuRe2C3
_chemical_formula_sum   'Tm1 Lu1 Re2 C3'
_cell_volume   97.15126255
_cell_formula_units_Z   1
loop_
 _symmetry_equiv_pos_site_id
 _symmetry_equiv_pos_as_xyz
  1  'x, y, z'
loop_
 _atom_site_type_symbol
 _atom_site_label
 _atom_site_symmetry_multiplicity
 _atom_site_fract_x
 _atom_site_fract_y
 _atom_site_fract_z
 _atom_site_occupancy
  Tm  Tm0  1  0.390711  0.390711  0.821030  1
  Lu  Lu1  1  0.610335  0.610335  0.176638  1
  Re  Re2  1  0.844246  0.844246  0.323309  1
  Re  Re3  1  0.155578  0.155578  0.676877  1
  C  C4  1  0.753772  0.753772  0.735416  1
  C  C5  1  0.244848  0.244848  0.265033  1
  C  C6  1  0.000509  0.000509  0.001699  1
