# generated using pymatgen
data_Tm6Lu10MgHg3Rh4
_symmetry_space_group_name_H-M   'P 1'
_cell_length_a   9.46878225
_cell_length_b   9.41760941
_cell_length_c   9.41760900
_cell_angle_alpha   59.99999793
_cell_angle_beta   60.17861274
_cell_angle_gamma   60.17861282
_symmetry_Int_Tables_number   1
_chemical_formula_structural   Tm6Lu10MgHg3Rh4
_chemical_formula_sum   'Tm6 Lu10 Mg1 Hg3 Rh4'
_cell_volume   595.42583231
_cell_formula_units_Z   1
loop_
 _symmetry_equiv_pos_site_id
 _symmetry_equiv_pos_as_xyz
  1  'x, y, z'
loop_
 _atom_site_type_symbol
 _atom_site_label
 _atom_site_symmetry_multiplicity
 _atom_site_fract_x
 _atom_site_fract_y
 _atom_site_fract_z
 _atom_site_occupancy
  Tm  Tm0  1  0.184383  0.813673  0.813673  1
  Tm  Tm1  1  0.812138  0.186781  0.186781  1
  Tm  Tm2  1  0.812138  0.186781  0.814298  1
  Tm  Tm3  1  0.184383  0.813673  0.188271  1
  Tm  Tm4  1  0.812138  0.814298  0.186781  1
  Tm  Tm5  1  0.184383  0.188271  0.813673  1
  Lu  Lu6  1  0.601444  0.598697  0.598697  1
  Lu  Lu7  1  0.601444  0.598697  0.201164  1
  Lu  Lu8  1  0.601444  0.201164  0.598697  1
  Lu  Lu9  1  0.188759  0.603747  0.603747  1
  Lu  Lu10  1  0.062030  0.438346  0.438346  1
  Lu  Lu11  1  0.435326  0.064189  0.064189  1
  Lu  Lu12  1  0.435326  0.064189  0.436298  1
  Lu  Lu13  1  0.062030  0.438346  0.061278  1
  Lu  Lu14  1  0.435326  0.436298  0.064189  1
  Lu  Lu15  1  0.062030  0.061278  0.438346  1
  Mg  Mg16  1  0.532970  0.822343  0.822343  1
  Hg  Hg17  1  0.832257  0.836227  0.836227  1
  Hg  Hg18  1  0.832257  0.836227  0.495290  1
  Hg  Hg19  1  0.832257  0.495290  0.836227  1
  Rh  Rh20  1  0.391084  0.394903  0.394903  1
  Rh  Rh21  1  0.391084  0.394903  0.819108  1
  Rh  Rh22  1  0.391084  0.819108  0.394903  1
  Rh  Rh23  1  0.822283  0.392572  0.392572  1
