# generated using pymatgen
data_Tb2FeCu2Si2Ni
_symmetry_space_group_name_H-M   'P 1'
_cell_length_a   8.83803782
_cell_length_b   8.83803695
_cell_length_c   3.94892800
_cell_angle_alpha   90.00000000
_cell_angle_beta   90.00000000
_cell_angle_gamma   154.64677798
_symmetry_Int_Tables_number   1
_chemical_formula_structural   Tb2FeCu2Si2Ni
_chemical_formula_sum   'Tb2 Fe1 Cu2 Si2 Ni1'
_cell_volume   132.07937097
_cell_formula_units_Z   1
loop_
 _symmetry_equiv_pos_site_id
 _symmetry_equiv_pos_as_xyz
  1  'x, y, z'
loop_
 _atom_site_type_symbol
 _atom_site_label
 _atom_site_symmetry_multiplicity
 _atom_site_fract_x
 _atom_site_fract_y
 _atom_site_fract_z
 _atom_site_occupancy
  Tb  Tb0  1  0.610547  0.389453  0.250000  1
  Tb  Tb1  1  0.389321  0.610679  0.750000  1
  Fe  Fe2  1  0.750269  0.249731  0.750000  1
  Cu  Cu3  1  0.960782  0.039218  0.250000  1
  Cu  Cu4  1  0.039711  0.960289  0.750000  1
  Si  Si5  1  0.819893  0.180107  0.250000  1
  Si  Si6  1  0.179814  0.820186  0.750000  1
  Ni  Ni7  1  0.249663  0.750337  0.250000  1
