# generated using pymatgen
data_Na3La(PuSe3)2
_symmetry_space_group_name_H-M   'P 1'
_cell_length_a   7.45972546
_cell_length_b   7.45972562
_cell_length_c   7.28075976
_cell_angle_alpha   80.27812877
_cell_angle_beta   80.27812591
_cell_angle_gamma   120.00877952
_symmetry_Int_Tables_number   1
_chemical_formula_structural   Na3La(PuSe3)2
_chemical_formula_sum   'Na3 La1 Pu2 Se6'
_cell_volume   330.22407899
_cell_formula_units_Z   1
loop_
 _symmetry_equiv_pos_site_id
 _symmetry_equiv_pos_as_xyz
  1  'x, y, z'
loop_
 _atom_site_type_symbol
 _atom_site_label
 _atom_site_symmetry_multiplicity
 _atom_site_fract_x
 _atom_site_fract_y
 _atom_site_fract_z
 _atom_site_occupancy
  Na  Na0  1  0.500000  0.500000  0.500000  1
  Na  Na1  1  0.836649  0.163351  0.500000  1
  Na  Na2  1  0.163351  0.836649  0.500000  1
  La  La3  1  0.000000  0.000000  0.000000  1
  Pu  Pu4  1  0.333123  0.666877  0.000000  1
  Pu  Pu5  1  0.666877  0.333123  0.000000  1
  Se  Se6  1  0.580934  0.923538  0.233143  1
  Se  Se7  1  0.734451  0.734451  0.765712  1
  Se  Se8  1  0.419066  0.076462  0.766857  1
  Se  Se9  1  0.076462  0.419066  0.766857  1
  Se  Se10  1  0.923538  0.580934  0.233143  1
  Se  Se11  1  0.265549  0.265549  0.234288  1
