# generated using pymatgen
data_LuTcB4
_symmetry_space_group_name_H-M   'P 1'
_cell_length_a   5.91815700
_cell_length_b   11.43830900
_cell_length_c   3.56202400
_cell_angle_alpha   90.00000000
_cell_angle_beta   90.00000000
_cell_angle_gamma   90.00000000
_symmetry_Int_Tables_number   1
_chemical_formula_structural   LuTcB4
_chemical_formula_sum   'Lu4 Tc4 B16'
_cell_volume   241.12661424
_cell_formula_units_Z   4
loop_
 _symmetry_equiv_pos_site_id
 _symmetry_equiv_pos_as_xyz
  1  'x, y, z'
loop_
 _atom_site_type_symbol
 _atom_site_label
 _atom_site_symmetry_multiplicity
 _atom_site_fract_x
 _atom_site_fract_y
 _atom_site_fract_z
 _atom_site_occupancy
  Lu  Lu0  1  0.629199  0.149680  0.000000  1
  Lu  Lu1  1  0.129199  0.350320  0.000000  1
  Lu  Lu2  1  0.870801  0.649681  0.000000  1
  Lu  Lu3  1  0.370801  0.850319  0.000000  1
  Tc  Tc4  1  0.135322  0.088391  0.000000  1
  Tc  Tc5  1  0.635323  0.411609  0.000000  1
  Tc  Tc6  1  0.364678  0.588391  0.000000  1
  Tc  Tc7  1  0.864678  0.911609  0.000000  1
  B  B8  1  0.365645  0.030833  0.500001  1
  B  B9  1  0.886000  0.048155  0.500001  1
  B  B10  1  0.290889  0.185360  0.500001  1
  B  B11  1  0.979221  0.193695  0.500001  1
  B  B12  1  0.479220  0.306306  0.500001  1
  B  B13  1  0.790889  0.314639  0.500001  1
  B  B14  1  0.386000  0.451845  0.500001  1
  B  B15  1  0.865645  0.469167  0.500001  1
  B  B16  1  0.134356  0.530833  0.500001  1
  B  B17  1  0.614001  0.548156  0.500001  1
  B  B18  1  0.209112  0.685360  0.500001  1
  B  B19  1  0.520780  0.693695  0.500001  1
  B  B20  1  0.020780  0.806305  0.500001  1
  B  B21  1  0.709112  0.814639  0.500001  1
  B  B22  1  0.114001  0.951844  0.500001  1
  B  B23  1  0.634356  0.969166  0.500001  1
