# generated using pymatgen
data_Hf8FeNiBi4
_symmetry_space_group_name_H-M   'P 1'
_cell_length_a   8.27020489
_cell_length_b   8.27024588
_cell_length_c   8.27020527
_cell_angle_alpha   95.61921403
_cell_angle_beta   95.62142954
_cell_angle_gamma   143.52570079
_symmetry_Int_Tables_number   1
_chemical_formula_structural   Hf8FeNiBi4
_chemical_formula_sum   'Hf8 Fe1 Ni1 Bi4'
_cell_volume   319.37024168
_cell_formula_units_Z   1
loop_
 _symmetry_equiv_pos_site_id
 _symmetry_equiv_pos_as_xyz
  1  'x, y, z'
loop_
 _atom_site_type_symbol
 _atom_site_label
 _atom_site_symmetry_multiplicity
 _atom_site_fract_x
 _atom_site_fract_y
 _atom_site_fract_z
 _atom_site_occupancy
  Hf  Hf0  1  0.578954  0.692182  0.276242  1
  Hf  Hf1  1  0.921041  0.197278  0.113226  1
  Hf  Hf2  1  0.302718  0.578922  0.886757  1
  Hf  Hf3  1  0.807835  0.921078  0.723796  1
  Hf  Hf4  1  0.692175  0.415978  0.113236  1
  Hf  Hf5  1  0.084060  0.807818  0.886772  1
  Hf  Hf6  1  0.415948  0.302722  0.723762  1
  Hf  Hf7  1  0.197258  0.084022  0.276197  1
  Fe  Fe8  1  0.250015  0.250000  0.000015  1
  Ni  Ni9  1  0.749999  0.750000  0.999999  1
  Bi  Bi10  1  0.361770  0.861749  0.223492  1
  Bi  Bi11  1  0.138230  0.361719  0.499976  1
  Bi  Bi12  1  0.638257  0.138281  0.776510  1
  Bi  Bi13  1  0.861742  0.638251  0.500022  1
