# generated using pymatgen
data_Nd4Ga18(CoPt)3
_symmetry_space_group_name_H-M   'P 1'
_cell_length_a   7.60252746
_cell_length_b   7.60252750
_cell_length_c   9.57401660
_cell_angle_alpha   89.97932554
_cell_angle_beta   89.97932352
_cell_angle_gamma   119.69950532
_symmetry_Int_Tables_number   1
_chemical_formula_structural   Nd4Ga18(CoPt)3
_chemical_formula_sum   'Nd4 Ga18 Co3 Pt3'
_cell_volume   480.67084600
_cell_formula_units_Z   1
loop_
 _symmetry_equiv_pos_site_id
 _symmetry_equiv_pos_as_xyz
  1  'x, y, z'
loop_
 _atom_site_type_symbol
 _atom_site_label
 _atom_site_symmetry_multiplicity
 _atom_site_fract_x
 _atom_site_fract_y
 _atom_site_fract_z
 _atom_site_occupancy
  Nd  Nd0  1  0.322470  0.998057  0.248970  1
  Nd  Nd1  1  0.001943  0.677530  0.751030  1
  Nd  Nd2  1  0.671644  0.992731  0.750054  1
  Nd  Nd3  1  0.007269  0.328356  0.249946  1
  Ga  Ga4  1  0.347502  0.015697  0.923118  1
  Ga  Ga5  1  0.984303  0.652498  0.076882  1
  Ga  Ga6  1  0.344935  0.000092  0.572340  1
  Ga  Ga7  1  0.999908  0.655065  0.427660  1
  Ga  Ga8  1  0.664236  0.011846  0.076428  1
  Ga  Ga9  1  0.988154  0.335764  0.923572  1
  Ga  Ga10  1  0.656507  0.004109  0.427802  1
  Ga  Ga11  1  0.995891  0.343493  0.572198  1
  Ga  Ga12  1  0.662324  0.653344  0.935817  1
  Ga  Ga13  1  0.346656  0.337676  0.064183  1
  Ga  Ga14  1  0.659011  0.656643  0.558319  1
  Ga  Ga15  1  0.343357  0.340989  0.441681  1
  Ga  Ga16  1  0.139906  0.142455  0.749007  1
  Ga  Ga17  1  0.857545  0.860094  0.250993  1
  Ga  Ga18  1  0.455212  0.664887  0.259578  1
  Ga  Ga19  1  0.335113  0.544788  0.740422  1
  Ga  Ga20  1  0.557235  0.336839  0.747056  1
  Ga  Ga21  1  0.663161  0.442765  0.252944  1
  Co  Co22  1  0.329742  0.670258  0.500000  1
  Co  Co23  1  0.668389  0.331611  0.000000  1
  Co  Co24  1  0.669387  0.330613  0.500000  1
  Pt  Pt25  1  0.999414  0.000586  0.000000  1
  Pt  Pt26  1  0.999826  0.000174  0.500000  1
  Pt  Pt27  1  0.328964  0.671036  0.000000  1
