# generated using pymatgen
data_Mg2BIr2
_symmetry_space_group_name_H-M   'P 1'
_cell_length_a   13.84987813
_cell_length_b   13.84987825
_cell_length_c   10.52072800
_cell_angle_alpha   90.00000000
_cell_angle_beta   90.00000000
_cell_angle_gamma   167.81405075
_symmetry_Int_Tables_number   1
_chemical_formula_structural   Mg2BIr2
_chemical_formula_sum   'Mg12 B6 Ir12'
_cell_volume   425.98594656
_cell_formula_units_Z   6
loop_
 _symmetry_equiv_pos_site_id
 _symmetry_equiv_pos_as_xyz
  1  'x, y, z'
loop_
 _atom_site_type_symbol
 _atom_site_label
 _atom_site_symmetry_multiplicity
 _atom_site_fract_x
 _atom_site_fract_y
 _atom_site_fract_z
 _atom_site_occupancy
  Mg  Mg0  1  0.089103  0.910897  0.111272  1
  Mg  Mg1  1  0.910897  0.089103  0.888728  1
  Mg  Mg2  1  0.910897  0.089103  0.611272  1
  Mg  Mg3  1  0.089103  0.910897  0.388728  1
  Mg  Mg4  1  0.234497  0.765503  0.609841  1
  Mg  Mg5  1  0.765503  0.234497  0.390159  1
  Mg  Mg6  1  0.000000  0.000000  0.000000  1
  Mg  Mg7  1  0.000000  0.000000  0.500000  1
  Mg  Mg8  1  0.818255  0.181745  0.750000  1
  Mg  Mg9  1  0.181745  0.818255  0.250000  1
  Mg  Mg10  1  0.234497  0.765503  0.890159  1
  Mg  Mg11  1  0.765503  0.234497  0.109841  1
  B  B12  1  0.138471  0.861529  0.605909  1
  B  B13  1  0.861529  0.138471  0.394091  1
  B  B14  1  0.861529  0.138471  0.105909  1
  B  B15  1  0.138471  0.861529  0.894091  1
  B  B16  1  0.957956  0.042044  0.250000  1
  B  B17  1  0.042044  0.957956  0.750000  1
  Ir  Ir18  1  0.332715  0.667285  0.522186  1
  Ir  Ir19  1  0.667285  0.332715  0.477814  1
  Ir  Ir20  1  0.667285  0.332715  0.022186  1
  Ir  Ir21  1  0.332715  0.667285  0.977814  1
  Ir  Ir22  1  0.513983  0.486017  0.250000  1
  Ir  Ir23  1  0.486017  0.513983  0.750000  1
  Ir  Ir24  1  0.331656  0.668344  0.250000  1
  Ir  Ir25  1  0.668344  0.331656  0.750000  1
  Ir  Ir26  1  0.576505  0.423495  0.614299  1
  Ir  Ir27  1  0.423495  0.576505  0.385701  1
  Ir  Ir28  1  0.423495  0.576505  0.114299  1
  Ir  Ir29  1  0.576505  0.423495  0.885701  1
