# generated using pymatgen
data_TbPr3Fe4(WO6)4
_symmetry_space_group_name_H-M   'P 1'
_cell_length_a   5.37729106
_cell_length_b   7.55865515
_cell_length_c   11.11569505
_cell_angle_alpha   90.12320432
_cell_angle_beta   90.13142845
_cell_angle_gamma   90.05458872
_symmetry_Int_Tables_number   1
_chemical_formula_structural   TbPr3Fe4(WO6)4
_chemical_formula_sum   'Tb1 Pr3 Fe4 W4 O24'
_cell_volume   451.79597167
_cell_formula_units_Z   1
loop_
 _symmetry_equiv_pos_site_id
 _symmetry_equiv_pos_as_xyz
  1  'x, y, z'
loop_
 _atom_site_type_symbol
 _atom_site_label
 _atom_site_symmetry_multiplicity
 _atom_site_fract_x
 _atom_site_fract_y
 _atom_site_fract_z
 _atom_site_occupancy
  Tb  Tb0  1  0.050336  0.752983  0.954443  1
  Pr  Pr1  1  0.958143  0.252985  0.044025  1
  Pr  Pr2  1  0.455993  0.752977  0.455158  1
  Pr  Pr3  1  0.544282  0.253135  0.545566  1
  Fe  Fe4  1  0.456295  0.510410  0.138214  1
  Fe  Fe5  1  0.957348  0.007462  0.359905  1
  Fe  Fe6  1  0.044213  0.508638  0.641331  1
  Fe  Fe7  1  0.545022  0.004992  0.860843  1
  W  W8  1  0.449513  0.996358  0.140970  1
  W  W9  1  0.949178  0.497499  0.356980  1
  W  W10  1  0.050912  0.997567  0.644605  1
  W  W11  1  0.552404  0.501418  0.858103  1
  O  O12  1  0.739066  0.547008  0.019683  1
  O  O13  1  0.733126  0.956259  0.028237  1
  O  O14  1  0.328192  0.756140  0.118680  1
  O  O15  1  0.547935  0.244089  0.139965  1
  O  O16  1  0.135247  0.062546  0.209749  1
  O  O17  1  0.119708  0.443006  0.214620  1
  O  O18  1  0.617891  0.941995  0.284131  1
  O  O19  1  0.631992  0.561740  0.289675  1
  O  O20  1  0.047763  0.745214  0.355769  1
  O  O21  1  0.838156  0.255807  0.377149  1
  O  O22  1  0.229586  0.462748  0.470845  1
  O  O23  1  0.232840  0.039411  0.480679  1
  O  O24  1  0.767073  0.539371  0.520484  1
  O  O25  1  0.770054  0.963003  0.530620  1
  O  O26  1  0.160431  0.756491  0.622241  1
  O  O27  1  0.951651  0.245473  0.646772  1
  O  O28  1  0.369174  0.062006  0.709914  1
  O  O29  1  0.384677  0.445603  0.714143  1
  O  O30  1  0.886848  0.940681  0.789102  1
  O  O31  1  0.869571  0.568967  0.793459  1
  O  O32  1  0.437254  0.746029  0.855723  1
  O  O33  1  0.657244  0.258294  0.878868  1
  O  O34  1  0.268563  0.467797  0.970943  1
  O  O35  1  0.262324  0.034313  0.978409  1
