# generated using pymatgen
data_La2PrTh11Ru6
_symmetry_space_group_name_H-M   'P 1'
_cell_length_a   9.89559550
_cell_length_b   9.99838652
_cell_length_c   6.39920912
_cell_angle_alpha   89.78354724
_cell_angle_beta   90.26042388
_cell_angle_gamma   120.07342303
_symmetry_Int_Tables_number   1
_chemical_formula_structural   La2PrTh11Ru6
_chemical_formula_sum   'La2 Pr1 Th11 Ru6'
_cell_volume   547.90070512
_cell_formula_units_Z   1
loop_
 _symmetry_equiv_pos_site_id
 _symmetry_equiv_pos_as_xyz
  1  'x, y, z'
loop_
 _atom_site_type_symbol
 _atom_site_label
 _atom_site_symmetry_multiplicity
 _atom_site_fract_x
 _atom_site_fract_y
 _atom_site_fract_z
 _atom_site_occupancy
  La  La0  1  0.073686  0.536606  0.299305  1
  La  La1  1  0.925087  0.460662  0.799545  1
  Pr  Pr2  1  0.462631  0.538134  0.293958  1
  Th  Th3  1  0.249285  0.125824  0.506612  1
  Th  Th4  1  0.541055  0.079541  0.801329  1
  Th  Th5  1  0.749829  0.873717  0.005570  1
  Th  Th6  1  0.664165  0.332128  0.283403  1
  Th  Th7  1  0.126965  0.874655  0.001635  1
  Th  Th8  1  0.461561  0.922679  0.301655  1
  Th  Th9  1  0.539597  0.460526  0.795664  1
  Th  Th10  1  0.874699  0.124717  0.504972  1
  Th  Th11  1  0.124758  0.247790  0.003700  1
  Th  Th12  1  0.874420  0.751429  0.505329  1
  Th  Th13  1  0.336108  0.668242  0.781782  1
  Ru  Ru14  1  0.809864  0.633300  0.046221  1
  Ru  Ru15  1  0.807323  0.176098  0.051243  1
  Ru  Ru16  1  0.633235  0.822596  0.552660  1
  Ru  Ru17  1  0.371009  0.186031  0.043183  1
  Ru  Ru18  1  0.182336  0.361227  0.559265  1
  Ru  Ru19  1  0.192388  0.824099  0.546965  1
