# generated using pymatgen
data_Th4ZnSi6Rh
_symmetry_space_group_name_H-M   'P 1'
_cell_length_a   8.25545500
_cell_length_b   8.25545410
_cell_length_c   4.21688100
_cell_angle_alpha   90.00000000
_cell_angle_beta   90.00000000
_cell_angle_gamma   119.99999960
_symmetry_Int_Tables_number   1
_chemical_formula_structural   Th4ZnSi6Rh
_chemical_formula_sum   'Th4 Zn1 Si6 Rh1'
_cell_volume   248.88800149
_cell_formula_units_Z   1
loop_
 _symmetry_equiv_pos_site_id
 _symmetry_equiv_pos_as_xyz
  1  'x, y, z'
loop_
 _atom_site_type_symbol
 _atom_site_label
 _atom_site_symmetry_multiplicity
 _atom_site_fract_x
 _atom_site_fract_y
 _atom_site_fract_z
 _atom_site_occupancy
  Th  Th0  1  0.000000  0.000000  0.500000  1
  Th  Th1  1  0.007089  0.503544  0.500000  1
  Th  Th2  1  0.496456  0.503544  0.500000  1
  Th  Th3  1  0.496456  0.992911  0.500000  1
  Zn  Zn4  1  0.666667  0.333333  0.000000  1
  Si  Si5  1  0.332941  0.166471  0.000000  1
  Si  Si6  1  0.833529  0.166471  0.000000  1
  Si  Si7  1  0.833529  0.667059  0.000000  1
  Si  Si8  1  0.166523  0.333047  0.000000  1
  Si  Si9  1  0.166523  0.833477  0.000000  1
  Si  Si10  1  0.666953  0.833477  0.000000  1
  Rh  Rh11  1  0.333333  0.666667  0.000000  1
