# generated using pymatgen
data_La4DyTm5Si8
_symmetry_space_group_name_H-M   'P 1'
_cell_length_a   7.78540294
_cell_length_b   7.78488345
_cell_length_c   14.42811100
_cell_angle_alpha   90.05390374
_cell_angle_beta   89.84649040
_cell_angle_gamma   90.00214630
_symmetry_Int_Tables_number   1
_chemical_formula_structural   La4DyTm5Si8
_chemical_formula_sum   'La8 Dy2 Tm10 Si16'
_cell_volume   874.46198327
_cell_formula_units_Z   2
loop_
 _symmetry_equiv_pos_site_id
 _symmetry_equiv_pos_as_xyz
  1  'x, y, z'
loop_
 _atom_site_type_symbol
 _atom_site_label
 _atom_site_symmetry_multiplicity
 _atom_site_fract_x
 _atom_site_fract_y
 _atom_site_fract_z
 _atom_site_occupancy
  La  La0  1  0.990657  0.639971  0.043070  1
  La  La1  1  0.010295  0.359251  0.541124  1
  La  La2  1  0.639301  0.988654  0.956956  1
  La  La3  1  0.140493  0.509844  0.791174  1
  La  La4  1  0.859872  0.490111  0.292988  1
  La  La5  1  0.511351  0.140518  0.208576  1
  La  La6  1  0.488407  0.859567  0.707552  1
  La  La7  1  0.358456  0.011605  0.459102  1
  Dy  Dy8  1  0.509805  0.637536  0.126049  1
  Dy  Dy9  1  0.138106  0.990555  0.874177  1
  Tm  Tm10  1  0.362037  0.492644  0.374918  1
  Tm  Tm11  1  0.862828  0.008344  0.376528  1
  Tm  Tm12  1  0.991533  0.138467  0.125321  1
  Tm  Tm13  1  0.007399  0.861910  0.623992  1
  Tm  Tm14  1  0.638608  0.508435  0.874443  1
  Tm  Tm15  1  0.492181  0.362258  0.624613  1
  Tm  Tm16  1  0.682275  0.683602  0.500375  1
  Tm  Tm17  1  0.815640  0.183379  0.749327  1
  Tm  Tm18  1  0.183512  0.817829  0.250730  1
  Tm  Tm19  1  0.316565  0.315682  0.999677  1
  Si  Si20  1  0.066013  0.713315  0.437338  1
  Si  Si21  1  0.933703  0.287424  0.937298  1
  Si  Si22  1  0.712116  0.065527  0.562827  1
  Si  Si23  1  0.212430  0.432887  0.187955  1
  Si  Si24  1  0.786629  0.565280  0.686729  1
  Si  Si25  1  0.435887  0.214061  0.811622  1
  Si  Si26  1  0.566265  0.789388  0.314645  1
  Si  Si27  1  0.287389  0.935297  0.063463  1
  Si  Si28  1  0.843842  0.797285  0.805948  1
  Si  Si29  1  0.153593  0.202787  0.308987  1
  Si  Si30  1  0.800898  0.847444  0.194349  1
  Si  Si31  1  0.297481  0.653425  0.558218  1
  Si  Si32  1  0.702996  0.343808  0.056677  1
  Si  Si33  1  0.653078  0.298246  0.441694  1
  Si  Si34  1  0.346156  0.699357  0.942121  1
  Si  Si35  1  0.202203  0.154309  0.689441  1
