# generated using pymatgen
data_LuPa(Al3Ir)3
_symmetry_space_group_name_H-M   'P 1'
_cell_length_a   7.58460010
_cell_length_b   7.59474391
_cell_length_c   9.33745700
_cell_angle_alpha   90.00000000
_cell_angle_beta   90.00000000
_cell_angle_gamma   119.72183406
_symmetry_Int_Tables_number   1
_chemical_formula_structural   LuPa(Al3Ir)3
_chemical_formula_sum   'Lu2 Pa2 Al18 Ir6'
_cell_volume   467.10614161
_cell_formula_units_Z   2
loop_
 _symmetry_equiv_pos_site_id
 _symmetry_equiv_pos_as_xyz
  1  'x, y, z'
loop_
 _atom_site_type_symbol
 _atom_site_label
 _atom_site_symmetry_multiplicity
 _atom_site_fract_x
 _atom_site_fract_y
 _atom_site_fract_z
 _atom_site_occupancy
  Lu  Lu0  1  0.669414  0.993381  0.250000  1
  Lu  Lu1  1  0.330586  0.006619  0.750000  1
  Pa  Pa2  1  0.997706  0.670813  0.250000  1
  Pa  Pa3  1  0.002294  0.329187  0.750000  1
  Al  Al4  1  0.130234  0.126834  0.250000  1
  Al  Al5  1  0.869766  0.873166  0.750000  1
  Al  Al6  1  0.999909  0.330447  0.078883  1
  Al  Al7  1  0.000091  0.669553  0.921117  1
  Al  Al8  1  0.000091  0.669553  0.578883  1
  Al  Al9  1  0.338838  0.003263  0.425530  1
  Al  Al10  1  0.999909  0.330447  0.421117  1
  Al  Al11  1  0.661162  0.996737  0.574470  1
  Al  Al12  1  0.661162  0.996737  0.925530  1
  Al  Al13  1  0.338838  0.003263  0.074470  1
  Al  Al14  1  0.335088  0.332547  0.554651  1
  Al  Al15  1  0.664912  0.667453  0.445349  1
  Al  Al16  1  0.664912  0.667453  0.054651  1
  Al  Al17  1  0.335088  0.332547  0.945349  1
  Al  Al18  1  0.341632  0.548661  0.250000  1
  Al  Al19  1  0.658368  0.451339  0.750000  1
  Al  Al20  1  0.548393  0.339762  0.250000  1
  Al  Al21  1  0.451607  0.660238  0.750000  1
  Ir  Ir22  1  0.675531  0.329190  0.999788  1
  Ir  Ir23  1  0.324469  0.670810  0.000212  1
  Ir  Ir24  1  0.324469  0.670810  0.499788  1
  Ir  Ir25  1  0.675531  0.329190  0.500212  1
  Ir  Ir26  1  0.000000  0.000000  0.000000  1
  Ir  Ir27  1  0.000000  0.000000  0.500000  1
