# generated using pymatgen
data_ErTm2(ZnCu)3
_symmetry_space_group_name_H-M   'P 1'
_cell_length_a   7.18018994
_cell_length_b   7.18019045
_cell_length_c   3.68762400
_cell_angle_alpha   90.00000000
_cell_angle_beta   90.00000000
_cell_angle_gamma   120.10378850
_symmetry_Int_Tables_number   1
_chemical_formula_structural   ErTm2(ZnCu)3
_chemical_formula_sum   'Er1 Tm2 Zn3 Cu3'
_cell_volume   164.47277023
_cell_formula_units_Z   1
loop_
 _symmetry_equiv_pos_site_id
 _symmetry_equiv_pos_as_xyz
  1  'x, y, z'
loop_
 _atom_site_type_symbol
 _atom_site_label
 _atom_site_symmetry_multiplicity
 _atom_site_fract_x
 _atom_site_fract_y
 _atom_site_fract_z
 _atom_site_occupancy
  Er  Er0  1  0.592252  0.592253  0.000000  1
  Tm  Tm1  1  0.407599  0.000121  0.000000  1
  Tm  Tm2  1  0.000121  0.407599  0.000000  1
  Zn  Zn3  1  0.747912  0.000633  0.500000  1
  Zn  Zn4  1  0.251289  0.251290  0.500000  1
  Zn  Zn5  1  0.000633  0.747913  0.500000  1
  Cu  Cu6  1  0.000215  0.000215  0.000000  1
  Cu  Cu7  1  0.667035  0.332943  0.500000  1
  Cu  Cu8  1  0.332943  0.667036  0.500000  1
