# generated using pymatgen
data_Cs6TbNdBr12
_symmetry_space_group_name_H-M   'P 1'
_cell_length_a   10.06050106
_cell_length_b   10.08774292
_cell_length_c   8.36631400
_cell_angle_alpha   90.00000000
_cell_angle_beta   90.00000000
_cell_angle_gamma   90.05800439
_symmetry_Int_Tables_number   1
_chemical_formula_structural   Cs6TbNdBr12
_chemical_formula_sum   'Cs6 Tb1 Nd1 Br12'
_cell_volume   849.07793448
_cell_formula_units_Z   1
loop_
 _symmetry_equiv_pos_site_id
 _symmetry_equiv_pos_as_xyz
  1  'x, y, z'
loop_
 _atom_site_type_symbol
 _atom_site_label
 _atom_site_symmetry_multiplicity
 _atom_site_fract_x
 _atom_site_fract_y
 _atom_site_fract_z
 _atom_site_occupancy
  Cs  Cs0  1  0.000000  0.000000  0.500000  1
  Cs  Cs1  1  0.000000  0.000000  0.000000  1
  Cs  Cs2  1  0.233546  0.584785  0.500000  1
  Cs  Cs3  1  0.766454  0.415215  0.500000  1
  Cs  Cs4  1  0.414739  0.236219  0.000000  1
  Cs  Cs5  1  0.585261  0.763781  0.000000  1
  Tb  Tb6  1  0.000000  0.500000  0.000000  1
  Nd  Nd7  1  0.500000  0.000000  0.500000  1
  Br  Br8  1  0.696556  0.059265  0.745359  1
  Br  Br9  1  0.303444  0.940735  0.745359  1
  Br  Br10  1  0.942362  0.691465  0.239981  1
  Br  Br11  1  0.057638  0.308535  0.239981  1
  Br  Br12  1  0.303444  0.940735  0.254641  1
  Br  Br13  1  0.696556  0.059265  0.254641  1
  Br  Br14  1  0.057638  0.308535  0.760019  1
  Br  Br15  1  0.942362  0.691465  0.760019  1
  Br  Br16  1  0.570524  0.721378  0.500000  1
  Br  Br17  1  0.429476  0.278622  0.500000  1
  Br  Br18  1  0.270684  0.569168  0.000000  1
  Br  Br19  1  0.729316  0.430832  0.000000  1
