# generated using pymatgen
data_Ca3Al12Os3Pd
_symmetry_space_group_name_H-M   'P 1'
_cell_length_a   8.89815315
_cell_length_b   8.89356582
_cell_length_c   9.65730440
_cell_angle_alpha   89.99999705
_cell_angle_beta   90.26806049
_cell_angle_gamma   119.98293802
_symmetry_Int_Tables_number   1
_chemical_formula_structural   Ca3Al12Os3Pd
_chemical_formula_sum   'Ca6 Al24 Os6 Pd2'
_cell_volume   661.95834067
_cell_formula_units_Z   2
loop_
 _symmetry_equiv_pos_site_id
 _symmetry_equiv_pos_as_xyz
  1  'x, y, z'
loop_
 _atom_site_type_symbol
 _atom_site_label
 _atom_site_symmetry_multiplicity
 _atom_site_fract_x
 _atom_site_fract_y
 _atom_site_fract_z
 _atom_site_occupancy
  Ca  Ca0  1  0.193231  0.389103  0.252318  1
  Ca  Ca1  1  0.806769  0.610897  0.747682  1
  Ca  Ca2  1  0.616782  0.808391  0.252594  1
  Ca  Ca3  1  0.383218  0.191609  0.747406  1
  Ca  Ca4  1  0.193231  0.804128  0.252318  1
  Ca  Ca5  1  0.806769  0.195872  0.747682  1
  Al  Al6  1  0.329744  0.664872  0.997316  1
  Al  Al7  1  0.670256  0.335128  0.002684  1
  Al  Al8  1  0.665484  0.332742  0.505033  1
  Al  Al9  1  0.334516  0.667258  0.494967  1
  Al  Al10  1  0.162937  0.325931  0.572372  1
  Al  Al11  1  0.837063  0.674069  0.427628  1
  Al  Al12  1  0.675442  0.837721  0.573744  1
  Al  Al13  1  0.845782  0.678174  0.076476  1
  Al  Al14  1  0.324558  0.162279  0.426256  1
  Al  Al15  1  0.154218  0.321826  0.923524  1
  Al  Al16  1  0.162937  0.837004  0.572372  1
  Al  Al17  1  0.321344  0.160672  0.080354  1
  Al  Al18  1  0.837063  0.162996  0.427628  1
  Al  Al19  1  0.678656  0.839328  0.919646  1
  Al  Al20  1  0.845782  0.167608  0.076476  1
  Al  Al21  1  0.154218  0.832392  0.923524  1
  Al  Al22  1  0.562636  0.124986  0.252590  1
  Al  Al23  1  0.437364  0.875014  0.747410  1
  Al  Al24  1  0.878223  0.439112  0.249452  1
  Al  Al25  1  0.121777  0.560888  0.750548  1
  Al  Al26  1  0.562636  0.437649  0.252590  1
  Al  Al27  1  0.437364  0.562351  0.747410  1
  Al  Al28  1  0.002697  0.001349  0.250417  1
  Al  Al29  1  0.997303  0.998651  0.749583  1
  Os  Os30  1  0.000000  0.500000  0.000000  1
  Os  Os31  1  0.500000  0.000000  0.500000  1
  Os  Os32  1  0.000000  0.500000  0.500000  1
  Os  Os33  1  0.500000  0.500000  0.500000  1
  Os  Os34  1  0.000000  0.000000  0.000000  1
  Os  Os35  1  0.000000  0.000000  0.500000  1
  Pd  Pd36  1  0.500000  0.000000  0.000000  1
  Pd  Pd37  1  0.500000  0.500000  0.000000  1
