# generated using pymatgen
data_PrNdLu2(AsPt)4
_symmetry_space_group_name_H-M   'P 1'
_cell_length_a   4.27134300
_cell_length_b   4.27134414
_cell_length_c   15.85523300
_cell_angle_alpha   90.00000000
_cell_angle_beta   90.00000000
_cell_angle_gamma   120.00001438
_symmetry_Int_Tables_number   1
_chemical_formula_structural   PrNdLu2(AsPt)4
_chemical_formula_sum   'Pr1 Nd1 Lu2 As4 Pt4'
_cell_volume   250.51411980
_cell_formula_units_Z   1
loop_
 _symmetry_equiv_pos_site_id
 _symmetry_equiv_pos_as_xyz
  1  'x, y, z'
loop_
 _atom_site_type_symbol
 _atom_site_label
 _atom_site_symmetry_multiplicity
 _atom_site_fract_x
 _atom_site_fract_y
 _atom_site_fract_z
 _atom_site_occupancy
  Pr  Pr0  1  0.000000  0.000000  0.500000  1
  Nd  Nd1  1  0.000000  0.000000  0.000000  1
  Lu  Lu2  1  0.000000  0.000000  0.249971  1
  Lu  Lu3  1  0.000000  0.000000  0.750029  1
  As  As4  1  0.333333  0.666667  0.880470  1
  As  As5  1  0.666667  0.333333  0.119530  1
  As  As6  1  0.666667  0.333333  0.380068  1
  As  As7  1  0.333333  0.666667  0.619932  1
  Pt  Pt8  1  0.333333  0.666667  0.354148  1
  Pt  Pt9  1  0.666667  0.333333  0.645852  1
  Pt  Pt10  1  0.666667  0.333333  0.854559  1
  Pt  Pt11  1  0.333333  0.666667  0.145441  1
