# generated using pymatgen
data_HoTmPa(SnRu)3
_symmetry_space_group_name_H-M   'P 1'
_cell_length_a   7.43048000
_cell_length_b   7.60073659
_cell_length_c   3.92366800
_cell_angle_alpha   90.00000000
_cell_angle_beta   90.00000000
_cell_angle_gamma   120.33891618
_symmetry_Int_Tables_number   1
_chemical_formula_structural   HoTmPa(SnRu)3
_chemical_formula_sum   'Ho1 Tm1 Pa1 Sn3 Ru3'
_cell_volume   191.25029072
_cell_formula_units_Z   1
loop_
 _symmetry_equiv_pos_site_id
 _symmetry_equiv_pos_as_xyz
  1  'x, y, z'
loop_
 _atom_site_type_symbol
 _atom_site_label
 _atom_site_symmetry_multiplicity
 _atom_site_fract_x
 _atom_site_fract_y
 _atom_site_fract_z
 _atom_site_occupancy
  Ho  Ho0  1  0.404128  0.996972  0.500000  1
  Tm  Tm1  1  0.597029  0.594247  0.500000  1
  Pa  Pa2  1  0.000074  0.415782  0.500000  1
  Sn  Sn3  1  0.000423  0.760731  0.000000  1
  Sn  Sn4  1  0.275368  0.258208  0.000000  1
  Sn  Sn5  1  0.724015  0.984276  0.000000  1
  Ru  Ru6  1  0.293588  0.630762  0.000000  1
  Ru  Ru7  1  0.709002  0.343823  0.000000  1
  Ru  Ru8  1  0.996375  0.015199  0.500000  1
