# generated using pymatgen
data_ReTcRu6
_symmetry_space_group_name_H-M   'P 1'
_cell_length_a   5.48314200
_cell_length_b   5.48314090
_cell_length_c   4.33764500
_cell_angle_alpha   90.00000000
_cell_angle_beta   90.00000000
_cell_angle_gamma   120.00000661
_symmetry_Int_Tables_number   1
_chemical_formula_structural   ReTcRu6
_chemical_formula_sum   'Re1 Tc1 Ru6'
_cell_volume   112.93888822
_cell_formula_units_Z   1
loop_
 _symmetry_equiv_pos_site_id
 _symmetry_equiv_pos_as_xyz
  1  'x, y, z'
loop_
 _atom_site_type_symbol
 _atom_site_label
 _atom_site_symmetry_multiplicity
 _atom_site_fract_x
 _atom_site_fract_y
 _atom_site_fract_z
 _atom_site_occupancy
  Re  Re0  1  0.333333  0.666667  0.750000  1
  Tc  Tc1  1  0.666667  0.333333  0.250000  1
  Ru  Ru2  1  0.165562  0.331124  0.250000  1
  Ru  Ru3  1  0.668876  0.834438  0.250000  1
  Ru  Ru4  1  0.165562  0.834438  0.250000  1
  Ru  Ru5  1  0.831727  0.663454  0.750000  1
  Ru  Ru6  1  0.336546  0.168273  0.750000  1
  Ru  Ru7  1  0.831727  0.168273  0.750000  1
