# generated using pymatgen
data_Er8AsPd5Pt19
_symmetry_space_group_name_H-M   'P 1'
_cell_length_a   8.32859500
_cell_length_b   8.32016929
_cell_length_c   8.32436400
_cell_angle_alpha   89.99706641
_cell_angle_beta   89.99823887
_cell_angle_gamma   90.01478495
_symmetry_Int_Tables_number   1
_chemical_formula_structural   Er8AsPd5Pt19
_chemical_formula_sum   'Er8 As1 Pd5 Pt19'
_cell_volume   576.83944997
_cell_formula_units_Z   1
loop_
 _symmetry_equiv_pos_site_id
 _symmetry_equiv_pos_as_xyz
  1  'x, y, z'
loop_
 _atom_site_type_symbol
 _atom_site_label
 _atom_site_symmetry_multiplicity
 _atom_site_fract_x
 _atom_site_fract_y
 _atom_site_fract_z
 _atom_site_occupancy
  Er  Er0  1  0.254562  0.254331  0.745884  1
  Er  Er1  1  0.255558  0.744732  0.254989  1
  Er  Er2  1  0.744960  0.254906  0.254739  1
  Er  Er3  1  0.744927  0.745324  0.744904  1
  Er  Er4  1  0.744416  0.744823  0.255434  1
  Er  Er5  1  0.745451  0.254335  0.745656  1
  Er  Er6  1  0.255052  0.745191  0.745343  1
  Er  Er7  1  0.255049  0.254866  0.254522  1
  As  As8  1  0.000194  0.003406  0.996790  1
  Pd  Pd9  1  0.286566  0.999050  0.000868  1
  Pd  Pd10  1  0.000037  0.999062  0.283985  1
  Pd  Pd11  1  0.999579  0.715530  0.000850  1
  Pd  Pd12  1  0.713582  0.999145  0.000856  1
  Pd  Pd13  1  0.741437  0.500438  0.000012  1
  Pt  Pt14  1  0.499874  0.499740  0.748350  1
  Pt  Pt15  1  0.500031  0.251967  0.500275  1
  Pt  Pt16  1  0.252072  0.499674  0.500247  1
  Pt  Pt17  1  0.499888  0.499768  0.251588  1
  Pt  Pt18  1  0.500012  0.748094  0.500249  1
  Pt  Pt19  1  0.747813  0.499705  0.500294  1
  Pt  Pt20  1  0.000053  0.998818  0.711163  1
  Pt  Pt21  1  0.999719  0.289526  0.001109  1
  Pt  Pt22  1  0.000143  0.499942  0.742548  1
  Pt  Pt23  1  0.500045  0.257423  0.000003  1
  Pt  Pt24  1  0.258265  0.000008  0.499720  1
  Pt  Pt25  1  0.999930  0.257509  0.499897  1
  Pt  Pt26  1  0.500084  0.999997  0.743126  1
  Pt  Pt27  1  0.258387  0.500339  0.999985  1
  Pt  Pt28  1  0.000184  0.500080  0.258952  1
  Pt  Pt29  1  0.500096  0.741361  0.999969  1
  Pt  Pt30  1  0.999991  0.740812  0.499777  1
  Pt  Pt31  1  0.500080  0.000033  0.258210  1
  Pt  Pt32  1  0.741962  0.000065  0.499703  1
