# generated using pymatgen
data_Yb5Pr4YSn8
_symmetry_space_group_name_H-M   'P 1'
_cell_length_a   7.97296600
_cell_length_b   8.49375768
_cell_length_c   16.05870451
_cell_angle_alpha   90.16406347
_cell_angle_beta   90.00000000
_cell_angle_gamma   90.00000000
_symmetry_Int_Tables_number   1
_chemical_formula_structural   Yb5Pr4YSn8
_chemical_formula_sum   'Yb10 Pr8 Y2 Sn16'
_cell_volume   1087.49809583
_cell_formula_units_Z   2
loop_
 _symmetry_equiv_pos_site_id
 _symmetry_equiv_pos_as_xyz
  1  'x, y, z'
loop_
 _atom_site_type_symbol
 _atom_site_label
 _atom_site_symmetry_multiplicity
 _atom_site_fract_x
 _atom_site_fract_y
 _atom_site_fract_z
 _atom_site_occupancy
  Yb  Yb0  1  0.666798  0.170647  0.376684  1
  Yb  Yb1  1  0.166798  0.329353  0.123316  1
  Yb  Yb2  1  0.668179  0.171064  0.123269  1
  Yb  Yb3  1  0.168179  0.328936  0.376731  1
  Yb  Yb4  1  0.332002  0.829274  0.622789  1
  Yb  Yb5  1  0.832002  0.670726  0.877211  1
  Yb  Yb6  1  0.163564  0.501944  0.750016  1
  Yb  Yb7  1  0.663564  0.998056  0.749984  1
  Yb  Yb8  1  0.838879  0.494528  0.250518  1
  Yb  Yb9  1  0.338879  0.005472  0.249482  1
  Pr  Pr10  1  0.493867  0.317458  0.904311  1
  Pr  Pr11  1  0.993867  0.182542  0.595689  1
  Pr  Pr12  1  0.505105  0.686439  0.403209  1
  Pr  Pr13  1  0.005105  0.813561  0.096791  1
  Pr  Pr14  1  0.507874  0.684799  0.096638  1
  Pr  Pr15  1  0.007874  0.815201  0.403362  1
  Pr  Pr16  1  0.493321  0.315388  0.594879  1
  Pr  Pr17  1  0.993321  0.184612  0.905121  1
  Y  Y18  1  0.331860  0.828457  0.875594  1
  Y  Y19  1  0.831860  0.671543  0.624406  1
  Sn  Sn20  1  0.326882  0.034611  0.037425  1
  Sn  Sn21  1  0.826882  0.465389  0.462575  1
  Sn  Sn22  1  0.673996  0.961513  0.539667  1
  Sn  Sn23  1  0.173996  0.538487  0.960333  1
  Sn  Sn24  1  0.666401  0.962598  0.959086  1
  Sn  Sn25  1  0.166401  0.537402  0.540914  1
  Sn  Sn26  1  0.329312  0.036281  0.461325  1
  Sn  Sn27  1  0.829312  0.463719  0.038675  1
  Sn  Sn28  1  0.534946  0.612282  0.747829  1
  Sn  Sn29  1  0.034946  0.887718  0.752171  1
  Sn  Sn30  1  0.466456  0.395502  0.249770  1
  Sn  Sn31  1  0.966456  0.104498  0.250230  1
  Sn  Sn32  1  0.288102  0.138203  0.751298  1
  Sn  Sn33  1  0.788102  0.361797  0.748702  1
  Sn  Sn34  1  0.712457  0.858895  0.250134  1
  Sn  Sn35  1  0.212457  0.641105  0.249866  1
