# generated using pymatgen
data_Zr(TaBr3)6
_symmetry_space_group_name_H-M   'P 1'
_cell_length_a   10.67476560
_cell_length_b   10.67476565
_cell_length_c   10.67476563
_cell_angle_alpha   56.17544735
_cell_angle_beta   56.17544566
_cell_angle_gamma   56.17544949
_symmetry_Int_Tables_number   1
_chemical_formula_structural   Zr(TaBr3)6
_chemical_formula_sum   'Zr1 Ta6 Br18'
_cell_volume   783.97289987
_cell_formula_units_Z   1
loop_
 _symmetry_equiv_pos_site_id
 _symmetry_equiv_pos_as_xyz
  1  'x, y, z'
loop_
 _atom_site_type_symbol
 _atom_site_label
 _atom_site_symmetry_multiplicity
 _atom_site_fract_x
 _atom_site_fract_y
 _atom_site_fract_z
 _atom_site_occupancy
  Zr  Zr0  1  0.000000  0.000000  0.000000  1
  Ta  Ta1  1  0.412625  0.315815  0.639676  1
  Ta  Ta2  1  0.360324  0.587375  0.684185  1
  Ta  Ta3  1  0.684185  0.360324  0.587375  1
  Ta  Ta4  1  0.315815  0.639676  0.412625  1
  Ta  Ta5  1  0.639676  0.412625  0.315815  1
  Ta  Ta6  1  0.587375  0.684185  0.360324  1
  Br  Br7  1  0.566023  0.160123  0.444149  1
  Br  Br8  1  0.220189  0.375075  0.907928  1
  Br  Br9  1  0.907928  0.220189  0.375075  1
  Br  Br10  1  0.375075  0.907928  0.220189  1
  Br  Br11  1  0.779811  0.624925  0.092072  1
  Br  Br12  1  0.092072  0.779811  0.624925  1
  Br  Br13  1  0.715597  0.964106  0.150473  1
  Br  Br14  1  0.964106  0.150473  0.715597  1
  Br  Br15  1  0.150473  0.715597  0.964106  1
  Br  Br16  1  0.284403  0.035894  0.849527  1
  Br  Br17  1  0.035894  0.849527  0.284403  1
  Br  Br18  1  0.849527  0.284403  0.035894  1
  Br  Br19  1  0.555851  0.433977  0.839877  1
  Br  Br20  1  0.160123  0.444149  0.566023  1
  Br  Br21  1  0.444149  0.566023  0.160123  1
  Br  Br22  1  0.433977  0.839877  0.555851  1
  Br  Br23  1  0.839877  0.555851  0.433977  1
  Br  Br24  1  0.624925  0.092072  0.779811  1
