# generated using pymatgen
data_Rb2AlH7
_symmetry_space_group_name_H-M   'P 1'
_cell_length_a   5.85546736
_cell_length_b   6.11930933
_cell_length_c   6.12328932
_cell_angle_alpha   98.03033723
_cell_angle_beta   116.64507432
_cell_angle_gamma   116.77718803
_symmetry_Int_Tables_number   1
_chemical_formula_structural   Rb2AlH7
_chemical_formula_sum   'Rb2 Al1 H7'
_cell_volume   158.20785259
_cell_formula_units_Z   1
loop_
 _symmetry_equiv_pos_site_id
 _symmetry_equiv_pos_as_xyz
  1  'x, y, z'
loop_
 _atom_site_type_symbol
 _atom_site_label
 _atom_site_symmetry_multiplicity
 _atom_site_fract_x
 _atom_site_fract_y
 _atom_site_fract_z
 _atom_site_occupancy
  Rb  Rb0  1  0.109343  0.044371  0.940768  1
  Rb  Rb1  1  0.108909  0.544764  0.441398  1
  Al  Al2  1  0.609592  0.269418  0.666071  1
  H  H3  1  0.606324  0.061025  0.457066  1
  H  H4  1  0.979666  0.529027  0.925256  1
  H  H5  1  0.617641  0.627885  0.025437  1
  H  H6  1  0.241803  0.162865  0.560392  1
  H  H7  1  0.609220  0.094732  0.877772  1
  H  H8  1  0.610389  0.482167  0.492479  1
  H  H9  1  0.625869  0.725549  0.123698  1
