# generated using pymatgen
data_Dy8Tm2Ir5Rh
_symmetry_space_group_name_H-M   'P 1'
_cell_length_a   10.86916300
_cell_length_b   10.86916300
_cell_length_c   6.35650700
_cell_angle_alpha   90.00000000
_cell_angle_beta   90.00000000
_cell_angle_gamma   90.00000000
_symmetry_Int_Tables_number   1
_chemical_formula_structural   Dy8Tm2Ir5Rh
_chemical_formula_sum   'Dy16 Tm4 Ir10 Rh2'
_cell_volume   750.94950098
_cell_formula_units_Z   2
loop_
 _symmetry_equiv_pos_site_id
 _symmetry_equiv_pos_as_xyz
  1  'x, y, z'
loop_
 _atom_site_type_symbol
 _atom_site_label
 _atom_site_symmetry_multiplicity
 _atom_site_fract_x
 _atom_site_fract_y
 _atom_site_fract_z
 _atom_site_occupancy
  Dy  Dy0  1  0.289833  0.087951  0.377820  1
  Dy  Dy1  1  0.289833  0.912049  0.877820  1
  Dy  Dy2  1  0.710167  0.087951  0.877820  1
  Dy  Dy3  1  0.710167  0.912049  0.377820  1
  Dy  Dy4  1  0.587951  0.789833  0.877820  1
  Dy  Dy5  1  0.587951  0.210167  0.377820  1
  Dy  Dy6  1  0.412049  0.789833  0.377820  1
  Dy  Dy7  1  0.412049  0.210167  0.877820  1
  Dy  Dy8  1  0.209480  0.412146  0.622507  1
  Dy  Dy9  1  0.209480  0.587854  0.122507  1
  Dy  Dy10  1  0.790520  0.412146  0.122507  1
  Dy  Dy11  1  0.790520  0.587854  0.622507  1
  Dy  Dy12  1  0.912146  0.709480  0.122507  1
  Dy  Dy13  1  0.912146  0.290520  0.622507  1
  Dy  Dy14  1  0.087854  0.709480  0.622507  1
  Dy  Dy15  1  0.087854  0.290520  0.122507  1
  Tm  Tm16  1  0.000000  0.000000  0.500098  1
  Tm  Tm17  1  0.000000  0.000000  0.000098  1
  Tm  Tm18  1  0.500000  0.500000  0.000098  1
  Tm  Tm19  1  0.500000  0.500000  0.500098  1
  Ir  Ir20  1  0.846987  0.152099  0.249641  1
  Ir  Ir21  1  0.846987  0.847901  0.749641  1
  Ir  Ir22  1  0.153013  0.152099  0.749641  1
  Ir  Ir23  1  0.153013  0.847901  0.249641  1
  Ir  Ir24  1  0.652099  0.346987  0.749641  1
  Ir  Ir25  1  0.652099  0.653013  0.249641  1
  Ir  Ir26  1  0.347901  0.346987  0.249641  1
  Ir  Ir27  1  0.347901  0.653013  0.749641  1
  Ir  Ir28  1  0.000000  0.500000  0.878028  1
  Ir  Ir29  1  0.000000  0.500000  0.378028  1
  Rh  Rh30  1  0.500000  0.000000  0.121901  1
  Rh  Rh31  1  0.500000  0.000000  0.621901  1
