# generated using pymatgen
data_Tm6Sc4Sn5Bi
_symmetry_space_group_name_H-M   'P 1'
_cell_length_a   6.21412300
_cell_length_b   8.74830707
_cell_length_c   8.74631210
_cell_angle_alpha   120.00754242
_cell_angle_beta   90.00048217
_cell_angle_gamma   89.99904271
_symmetry_Int_Tables_number   1
_chemical_formula_structural   Tm6Sc4Sn5Bi
_chemical_formula_sum   'Tm6 Sc4 Sn5 Bi1'
_cell_volume   411.74321727
_cell_formula_units_Z   1
loop_
 _symmetry_equiv_pos_site_id
 _symmetry_equiv_pos_as_xyz
  1  'x, y, z'
loop_
 _atom_site_type_symbol
 _atom_site_label
 _atom_site_symmetry_multiplicity
 _atom_site_fract_x
 _atom_site_fract_y
 _atom_site_fract_z
 _atom_site_occupancy
  Tm  Tm0  1  0.749999  0.234981  0.000000  1
  Tm  Tm1  1  0.749996  0.763039  0.757712  1
  Tm  Tm2  1  0.749996  0.005327  0.242288  1
  Tm  Tm3  1  0.250005  0.762671  0.000000  1
  Tm  Tm4  1  0.250004  0.238624  0.238997  1
  Tm  Tm5  1  0.250004  0.999627  0.761003  1
  Sc  Sc6  1  0.497766  0.330561  0.663164  1
  Sc  Sc7  1  0.497766  0.667398  0.336836  1
  Sc  Sc8  1  0.002237  0.667394  0.336839  1
  Sc  Sc9  1  0.002237  0.330556  0.663161  1
  Sn  Sn10  1  0.749981  0.399122  0.398873  1
  Sn  Sn11  1  0.749981  0.000250  0.601127  1
  Sn  Sn12  1  0.250013  0.397521  0.000000  1
  Sn  Sn13  1  0.250014  0.601339  0.602268  1
  Sn  Sn14  1  0.250014  0.999071  0.397732  1
  Bi  Bi15  1  0.749979  0.602520  0.000000  1
