# generated using pymatgen
data_La3Sm5Y2C4I15
_symmetry_space_group_name_H-M   'P 1'
_cell_length_a   9.75199747
_cell_length_b   10.59626584
_cell_length_c   11.75841713
_cell_angle_alpha   93.49658088
_cell_angle_beta   114.04408579
_cell_angle_gamma   109.47838542
_symmetry_Int_Tables_number   1
_chemical_formula_structural   La3Sm5Y2C4I15
_chemical_formula_sum   'La3 Sm5 Y2 C4 I15'
_cell_volume   1018.40859290
_cell_formula_units_Z   1
loop_
 _symmetry_equiv_pos_site_id
 _symmetry_equiv_pos_as_xyz
  1  'x, y, z'
loop_
 _atom_site_type_symbol
 _atom_site_label
 _atom_site_symmetry_multiplicity
 _atom_site_fract_x
 _atom_site_fract_y
 _atom_site_fract_z
 _atom_site_occupancy
  La  La0  1  0.706397  0.569393  0.044934  1
  La  La1  1  0.293421  0.432480  0.955295  1
  La  La2  1  0.661371  0.253756  0.834884  1
  Sm  Sm3  1  0.591264  0.541369  0.337551  1
  Sm  Sm4  1  0.347624  0.745250  0.164639  1
  Sm  Sm5  1  0.770533  0.879137  0.254532  1
  Sm  Sm6  1  0.525648  0.185753  0.099431  1
  Sm  Sm7  1  0.231123  0.120329  0.746943  1
  Y  Y8  1  0.406972  0.457570  0.664019  1
  Y  Y9  1  0.473456  0.813791  0.902429  1
  C  C10  1  0.483290  0.299480  0.937560  1
  C  C11  1  0.517068  0.702904  0.061135  1
  C  C12  1  0.454988  0.363344  0.833445  1
  C  C13  1  0.544874  0.638021  0.164510  1
  I  I14  1  0.213727  0.904265  0.936779  1
  I  I15  1  0.114819  0.197089  0.478433  1
  I  I16  1  0.169088  0.566489  0.700376  1
  I  I17  1  0.400195  0.962013  0.654064  1
  I  I18  1  0.697076  0.737124  0.811937  1
  I  I19  1  0.291537  0.261001  0.183127  1
  I  I20  1  0.837883  0.437009  0.299756  1
  I  I21  1  0.888644  0.807953  0.525380  1
  I  I22  1  0.354738  0.624821  0.409225  1
  I  I23  1  0.053608  0.840246  0.222579  1
  I  I24  1  0.786080  0.087215  0.063641  1
  I  I25  1  0.638129  0.379185  0.586246  1
  I  I26  1  0.946909  0.159751  0.777156  1
  I  I27  1  0.592813  0.026902  0.347339  1
  I  I28  1  0.006721  0.506358  0.002651  1
