# generated using pymatgen
data_Ta4Ga3TcB
_symmetry_space_group_name_H-M   'P 1'
_cell_length_a   7.75568000
_cell_length_b   7.75567922
_cell_length_c   5.22968900
_cell_angle_alpha   90.00000000
_cell_angle_beta   90.00000000
_cell_angle_gamma   120.00000334
_symmetry_Int_Tables_number   1
_chemical_formula_structural   Ta4Ga3TcB
_chemical_formula_sum   'Ta8 Ga6 Tc2 B2'
_cell_volume   272.42452335
_cell_formula_units_Z   2
loop_
 _symmetry_equiv_pos_site_id
 _symmetry_equiv_pos_as_xyz
  1  'x, y, z'
loop_
 _atom_site_type_symbol
 _atom_site_label
 _atom_site_symmetry_multiplicity
 _atom_site_fract_x
 _atom_site_fract_y
 _atom_site_fract_z
 _atom_site_occupancy
  Ta  Ta0  1  0.242339  0.000000  0.260114  1
  Ta  Ta1  1  0.757661  0.000000  0.739886  1
  Ta  Ta2  1  0.000000  0.242339  0.260114  1
  Ta  Ta3  1  0.000000  0.757661  0.739886  1
  Ta  Ta4  1  0.757661  0.757661  0.260114  1
  Ta  Ta5  1  0.242339  0.242339  0.739886  1
  Ta  Ta6  1  0.666667  0.333333  0.500000  1
  Ta  Ta7  1  0.333333  0.666667  0.500000  1
  Ga  Ga8  1  0.596410  0.000000  0.235931  1
  Ga  Ga9  1  0.403590  0.000000  0.764069  1
  Ga  Ga10  1  0.000000  0.596410  0.235931  1
  Ga  Ga11  1  0.000000  0.403590  0.764069  1
  Ga  Ga12  1  0.403590  0.403590  0.235931  1
  Ga  Ga13  1  0.596410  0.596410  0.764069  1
  Tc  Tc14  1  0.333333  0.666667  0.000000  1
  Tc  Tc15  1  0.666667  0.333333  0.000000  1
  B  B16  1  0.000000  0.000000  0.000000  1
  B  B17  1  0.000000  0.000000  0.500000  1
