# generated using pymatgen
data_SmDy3GeI6
_symmetry_space_group_name_H-M   'P 1'
_cell_length_a   4.23734900
_cell_length_b   14.11237549
_cell_length_c   14.87008100
_cell_angle_alpha   89.77430179
_cell_angle_beta   90.00000000
_cell_angle_gamma   90.00000000
_symmetry_Int_Tables_number   1
_chemical_formula_structural   SmDy3GeI6
_chemical_formula_sum   'Sm2 Dy6 Ge2 I12'
_cell_volume   889.20996952
_cell_formula_units_Z   2
loop_
 _symmetry_equiv_pos_site_id
 _symmetry_equiv_pos_as_xyz
  1  'x, y, z'
loop_
 _atom_site_type_symbol
 _atom_site_label
 _atom_site_symmetry_multiplicity
 _atom_site_fract_x
 _atom_site_fract_y
 _atom_site_fract_z
 _atom_site_occupancy
  Sm  Sm0  1  0.000000  0.114128  0.577001  1
  Sm  Sm1  1  0.000000  0.885872  0.422999  1
  Dy  Dy2  1  0.500000  0.115348  0.346517  1
  Dy  Dy3  1  0.500000  0.884652  0.653483  1
  Dy  Dy4  1  0.500000  0.614289  0.152102  1
  Dy  Dy5  1  0.500000  0.385711  0.847898  1
  Dy  Dy6  1  0.000000  0.611361  0.924880  1
  Dy  Dy7  1  0.000000  0.388639  0.075120  1
  Ge  Ge8  1  0.500000  0.000000  0.500000  1
  Ge  Ge9  1  0.500000  0.500000  0.000000  1
  I  I10  1  0.500000  0.246159  0.161883  1
  I  I11  1  0.500000  0.753841  0.838117  1
  I  I12  1  0.500000  0.740759  0.335176  1
  I  I13  1  0.500000  0.259241  0.664824  1
  I  I14  1  0.000000  0.259099  0.411567  1
  I  I15  1  0.000000  0.740901  0.588433  1
  I  I16  1  0.000000  0.757284  0.084748  1
  I  I17  1  0.000000  0.242716  0.915252  1
  I  I18  1  0.000000  0.002721  0.238663  1
  I  I19  1  0.000000  0.997279  0.761337  1
  I  I20  1  0.000000  0.499448  0.258121  1
  I  I21  1  0.000000  0.500552  0.741879  1
