# generated using pymatgen
data_La20CoBi8Pt3
_symmetry_space_group_name_H-M   'P 1'
_cell_length_a   8.48945807
_cell_length_b   9.38418100
_cell_length_c   13.11136608
_cell_angle_alpha   90.00000000
_cell_angle_beta   89.98644935
_cell_angle_gamma   90.00000000
_symmetry_Int_Tables_number   1
_chemical_formula_structural   La20CoBi8Pt3
_chemical_formula_sum   'La20 Co1 Bi8 Pt3'
_cell_volume   1044.53807327
_cell_formula_units_Z   1
loop_
 _symmetry_equiv_pos_site_id
 _symmetry_equiv_pos_as_xyz
  1  'x, y, z'
loop_
 _atom_site_type_symbol
 _atom_site_label
 _atom_site_symmetry_multiplicity
 _atom_site_fract_x
 _atom_site_fract_y
 _atom_site_fract_z
 _atom_site_occupancy
  La  La0  1  0.356041  0.750000  0.698121  1
  La  La1  1  0.648583  0.250000  0.294426  1
  La  La2  1  0.851244  0.250000  0.792219  1
  La  La3  1  0.149848  0.750000  0.207337  1
  La  La4  1  0.871619  0.750000  0.799454  1
  La  La5  1  0.130357  0.250000  0.201204  1
  La  La6  1  0.371711  0.250000  0.699926  1
  La  La7  1  0.622254  0.750000  0.306050  1
  La  La8  1  0.684557  0.547789  0.561073  1
  La  La9  1  0.316055  0.470275  0.439498  1
  La  La10  1  0.189259  0.456078  0.935353  1
  La  La11  1  0.316055  0.029725  0.439498  1
  La  La12  1  0.809373  0.541976  0.064528  1
  La  La13  1  0.684557  0.952211  0.561073  1
  La  La14  1  0.809373  0.958024  0.064528  1
  La  La15  1  0.189259  0.043922  0.935353  1
  La  La16  1  0.053316  0.750000  0.496999  1
  La  La17  1  0.948214  0.250000  0.503626  1
  La  La18  1  0.550124  0.250000  0.001972  1
  La  La19  1  0.446162  0.750000  0.995659  1
  Co  Co20  1  0.427368  0.750000  0.489188  1
  Bi  Bi21  1  0.576160  0.505669  0.825502  1
  Bi  Bi22  1  0.424871  0.494864  0.173607  1
  Bi  Bi23  1  0.076062  0.494854  0.673435  1
  Bi  Bi24  1  0.424871  0.005136  0.173607  1
  Bi  Bi25  1  0.924660  0.505577  0.326456  1
  Bi  Bi26  1  0.576160  0.994331  0.825502  1
  Bi  Bi27  1  0.924660  0.994423  0.326456  1
  Bi  Bi28  1  0.076062  0.005146  0.673435  1
  Pt  Pt29  1  0.070399  0.750000  0.988672  1
  Pt  Pt30  1  0.926482  0.250000  0.013211  1
  Pt  Pt31  1  0.574288  0.250000  0.513032  1
