# generated using pymatgen
data_Lu4Ti(ReN4)3
_symmetry_space_group_name_H-M   'P 1'
_cell_length_a   7.25741864
_cell_length_b   7.33510039
_cell_length_c   6.19032374
_cell_angle_alpha   72.24687964
_cell_angle_beta   73.39287432
_cell_angle_gamma   81.07116671
_symmetry_Int_Tables_number   1
_chemical_formula_structural   Lu4Ti(ReN4)3
_chemical_formula_sum   'Lu4 Ti1 Re3 N12'
_cell_volume   299.91357514
_cell_formula_units_Z   1
loop_
 _symmetry_equiv_pos_site_id
 _symmetry_equiv_pos_as_xyz
  1  'x, y, z'
loop_
 _atom_site_type_symbol
 _atom_site_label
 _atom_site_symmetry_multiplicity
 _atom_site_fract_x
 _atom_site_fract_y
 _atom_site_fract_z
 _atom_site_occupancy
  Lu  Lu0  1  0.908463  0.083252  0.767242  1
  Lu  Lu1  1  0.089881  0.906130  0.262155  1
  Lu  Lu2  1  0.712638  0.274929  0.243243  1
  Lu  Lu3  1  0.296263  0.724209  0.735768  1
  Ti  Ti4  1  0.617599  0.802526  0.275311  1
  Re  Re5  1  0.198809  0.380480  0.214290  1
  Re  Re6  1  0.381080  0.203767  0.718364  1
  Re  Re7  1  0.794232  0.616206  0.785240  1
  N  N8  1  0.660059  0.613464  0.083162  1
  N  N9  1  0.363934  0.881164  0.354162  1
  N  N10  1  0.367199  0.330339  0.412737  1
  N  N11  1  0.121711  0.628090  0.163142  1
  N  N12  1  0.001323  0.223534  0.336775  1
  N  N13  1  0.792524  0.001640  0.148293  1
  N  N14  1  0.225579  0.004556  0.843589  1
  N  N15  1  0.632250  0.127972  0.659666  1
  N  N16  1  0.332648  0.374788  0.906990  1
  N  N17  1  0.888488  0.371832  0.826556  1
  N  N18  1  0.625595  0.666935  0.597873  1
  N  N19  1  0.989726  0.784189  0.665444  1
