# generated using pymatgen
data_Sm5YCd23Sb
_symmetry_space_group_name_H-M   'P 1'
_cell_length_a   10.06350261
_cell_length_b   10.06350251
_cell_length_c   10.05003500
_cell_angle_alpha   60.04425588
_cell_angle_beta   60.04425623
_cell_angle_gamma   59.91148776
_symmetry_Int_Tables_number   1
_chemical_formula_structural   Sm5YCd23Sb
_chemical_formula_sum   'Sm5 Y1 Cd23 Sb1'
_cell_volume   719.69642501
_cell_formula_units_Z   1
loop_
 _symmetry_equiv_pos_site_id
 _symmetry_equiv_pos_as_xyz
  1  'x, y, z'
loop_
 _atom_site_type_symbol
 _atom_site_label
 _atom_site_symmetry_multiplicity
 _atom_site_fract_x
 _atom_site_fract_y
 _atom_site_fract_z
 _atom_site_occupancy
  Sm  Sm0  1  0.216241  0.783492  0.216508  1
  Sm  Sm1  1  0.783492  0.216241  0.216508  1
  Sm  Sm2  1  0.215637  0.215637  0.784363  1
  Sm  Sm3  1  0.783492  0.216241  0.783759  1
  Sm  Sm4  1  0.216241  0.783492  0.783759  1
  Y  Y5  1  0.784906  0.784906  0.215094  1
  Cd  Cd6  1  0.836324  0.836324  0.490441  1
  Cd  Cd7  1  0.836031  0.491496  0.836237  1
  Cd  Cd8  1  0.491496  0.836031  0.836237  1
  Cd  Cd9  1  0.836324  0.836324  0.836911  1
  Cd  Cd10  1  0.163763  0.163763  0.508504  1
  Cd  Cd11  1  0.163089  0.509559  0.163676  1
  Cd  Cd12  1  0.509559  0.163089  0.163676  1
  Cd  Cd13  1  0.163763  0.163763  0.163969  1
  Cd  Cd14  1  0.623371  0.623371  0.131875  1
  Cd  Cd15  1  0.622897  0.131271  0.622917  1
  Cd  Cd16  1  0.131271  0.622897  0.622917  1
  Cd  Cd17  1  0.623371  0.623371  0.621384  1
  Cd  Cd18  1  0.377083  0.377083  0.868729  1
  Cd  Cd19  1  0.378616  0.868125  0.376629  1
  Cd  Cd20  1  0.868125  0.378616  0.376629  1
  Cd  Cd21  1  0.377083  0.377083  0.377103  1
  Cd  Cd22  1  0.999794  0.999794  0.500206  1
  Cd  Cd23  1  0.500150  0.999765  0.499850  1
  Cd  Cd24  1  0.999765  0.500150  0.499850  1
  Cd  Cd25  1  0.499794  0.499794  0.000206  1
  Cd  Cd26  1  0.999765  0.500150  0.000235  1
  Cd  Cd27  1  0.500150  0.999765  0.000235  1
  Cd  Cd28  1  0.499865  0.499865  0.500135  1
  Sb  Sb29  1  0.998543  0.998543  0.001457  1
