# generated using pymatgen
data_Sc6Al6PtAu5
_symmetry_space_group_name_H-M   'P 1'
_cell_length_a   7.11290800
_cell_length_b   7.11290885
_cell_length_c   7.68276500
_cell_angle_alpha   90.00000000
_cell_angle_beta   90.00000000
_cell_angle_gamma   119.99999606
_symmetry_Int_Tables_number   1
_chemical_formula_structural   Sc6Al6PtAu5
_chemical_formula_sum   'Sc6 Al6 Pt1 Au5'
_cell_volume   336.62210601
_cell_formula_units_Z   1
loop_
 _symmetry_equiv_pos_site_id
 _symmetry_equiv_pos_as_xyz
  1  'x, y, z'
loop_
 _atom_site_type_symbol
 _atom_site_label
 _atom_site_symmetry_multiplicity
 _atom_site_fract_x
 _atom_site_fract_y
 _atom_site_fract_z
 _atom_site_occupancy
  Sc  Sc0  1  0.580742  0.986019  0.750000  1
  Sc  Sc1  1  0.013981  0.594724  0.750000  1
  Sc  Sc2  1  0.405276  0.419258  0.750000  1
  Sc  Sc3  1  0.985802  0.589871  0.250000  1
  Sc  Sc4  1  0.604069  0.014198  0.250000  1
  Sc  Sc5  1  0.410129  0.395931  0.250000  1
  Al  Al6  1  0.748780  0.749635  0.006239  1
  Al  Al7  1  0.250365  0.999145  0.006239  1
  Al  Al8  1  0.000855  0.251220  0.006239  1
  Al  Al9  1  0.748780  0.749635  0.493761  1
  Al  Al10  1  0.250365  0.999145  0.493761  1
  Al  Al11  1  0.000855  0.251220  0.493761  1
  Pt  Pt12  1  0.000000  0.000000  0.250000  1
  Au  Au13  1  0.000000  0.000000  0.750000  1
  Au  Au14  1  0.666667  0.333333  0.983417  1
  Au  Au15  1  0.666667  0.333333  0.516583  1
  Au  Au16  1  0.333333  0.666667  0.481140  1
  Au  Au17  1  0.333333  0.666667  0.018860  1
