# generated using pymatgen
data_Lu6Al24Ru5Au3
_symmetry_space_group_name_H-M   'P 1'
_cell_length_a   8.84647318
_cell_length_b   8.80562800
_cell_length_c   9.48825814
_cell_angle_alpha   90.01075470
_cell_angle_beta   90.02880773
_cell_angle_gamma   119.39876846
_symmetry_Int_Tables_number   1
_chemical_formula_structural   Lu6Al24Ru5Au3
_chemical_formula_sum   'Lu6 Al24 Ru5 Au3'
_cell_volume   643.94221093
_cell_formula_units_Z   1
loop_
 _symmetry_equiv_pos_site_id
 _symmetry_equiv_pos_as_xyz
  1  'x, y, z'
loop_
 _atom_site_type_symbol
 _atom_site_label
 _atom_site_symmetry_multiplicity
 _atom_site_fract_x
 _atom_site_fract_y
 _atom_site_fract_z
 _atom_site_occupancy
  Lu  Lu0  1  0.806885  0.196114  0.749675  1
  Lu  Lu1  1  0.193115  0.803886  0.250325  1
  Lu  Lu2  1  0.386207  0.192434  0.750731  1
  Lu  Lu3  1  0.613793  0.807566  0.249269  1
  Lu  Lu4  1  0.808741  0.612849  0.744917  1
  Lu  Lu5  1  0.191259  0.387151  0.255083  1
  Al  Al6  1  0.678676  0.339671  0.966455  1
  Al  Al7  1  0.321324  0.660329  0.033545  1
  Al  Al8  1  0.328024  0.672567  0.469534  1
  Al  Al9  1  0.671976  0.327433  0.530466  1
  Al  Al10  1  0.836449  0.163267  0.421155  1
  Al  Al11  1  0.163551  0.836733  0.578845  1
  Al  Al12  1  0.320643  0.150126  0.422481  1
  Al  Al13  1  0.152051  0.828996  0.916069  1
  Al  Al14  1  0.679357  0.849874  0.577519  1
  Al  Al15  1  0.847949  0.171004  0.083931  1
  Al  Al16  1  0.848272  0.678014  0.420178  1
  Al  Al17  1  0.683984  0.841326  0.914995  1
  Al  Al18  1  0.151728  0.321986  0.579822  1
  Al  Al19  1  0.316016  0.158674  0.085005  1
  Al  Al20  1  0.150820  0.321305  0.918828  1
  Al  Al21  1  0.849180  0.678695  0.081172  1
  Al  Al22  1  0.433014  0.565335  0.749741  1
  Al  Al23  1  0.566986  0.434665  0.250259  1
  Al  Al24  1  0.119223  0.560361  0.749716  1
  Al  Al25  1  0.880777  0.439639  0.250284  1
  Al  Al26  1  0.435436  0.873898  0.742492  1
  Al  Al27  1  0.564564  0.126102  0.257508  1
  Al  Al28  1  0.003130  0.000355  0.749404  1
  Al  Al29  1  0.996870  0.999645  0.250596  1
  Ru  Ru30  1  0.000000  0.500000  0.000000  1
  Ru  Ru31  1  0.000000  0.500000  0.500000  1
  Ru  Ru32  1  0.500000  0.000000  0.500000  1
  Ru  Ru33  1  0.000000  0.000000  0.000000  1
  Ru  Ru34  1  0.000000  0.000000  0.500000  1
  Au  Au35  1  0.500000  0.500000  0.000000  1
  Au  Au36  1  0.500000  0.500000  0.500000  1
  Au  Au37  1  0.500000  0.000000  0.000000  1
