# generated using pymatgen
data_Dy5CuSe4
_symmetry_space_group_name_H-M   'P 1'
_cell_length_a   7.03973227
_cell_length_b   7.03973298
_cell_length_c   7.03973212
_cell_angle_alpha   99.69579213
_cell_angle_beta   99.69578973
_cell_angle_gamma   131.54178687
_symmetry_Int_Tables_number   1
_chemical_formula_structural   Dy5CuSe4
_chemical_formula_sum   'Dy5 Cu1 Se4'
_cell_volume   238.12060481
_cell_formula_units_Z   1
loop_
 _symmetry_equiv_pos_site_id
 _symmetry_equiv_pos_as_xyz
  1  'x, y, z'
loop_
 _atom_site_type_symbol
 _atom_site_label
 _atom_site_symmetry_multiplicity
 _atom_site_fract_x
 _atom_site_fract_y
 _atom_site_fract_z
 _atom_site_occupancy
  Dy  Dy0  1  0.401103  0.791049  0.192151  1
  Dy  Dy1  1  0.000000  0.000000  0.000000  1
  Dy  Dy2  1  0.598897  0.208951  0.807849  1
  Dy  Dy3  1  0.208951  0.401103  0.610054  1
  Dy  Dy4  1  0.791049  0.598897  0.389946  1
  Cu  Cu5  1  0.500000  0.500000  0.000000  1
  Se  Se6  1  0.094135  0.695574  0.789708  1
  Se  Se7  1  0.695574  0.905865  0.601440  1
  Se  Se8  1  0.304426  0.094135  0.398560  1
  Se  Se9  1  0.905865  0.304426  0.210292  1
