# generated using pymatgen
data_Tb3Dy(Ga3Ru)6
_symmetry_space_group_name_H-M   'P 1'
_cell_length_a   7.49230780
_cell_length_b   7.48918169
_cell_length_c   9.76748400
_cell_angle_alpha   90.00000000
_cell_angle_beta   90.00000000
_cell_angle_gamma   119.17600970
_symmetry_Int_Tables_number   1
_chemical_formula_structural   Tb3Dy(Ga3Ru)6
_chemical_formula_sum   'Tb3 Dy1 Ga18 Ru6'
_cell_volume   478.53063106
_cell_formula_units_Z   1
loop_
 _symmetry_equiv_pos_site_id
 _symmetry_equiv_pos_as_xyz
  1  'x, y, z'
loop_
 _atom_site_type_symbol
 _atom_site_label
 _atom_site_symmetry_multiplicity
 _atom_site_fract_x
 _atom_site_fract_y
 _atom_site_fract_z
 _atom_site_occupancy
  Tb  Tb0  1  0.002706  0.328068  0.750000  1
  Tb  Tb1  1  0.671697  0.997564  0.250000  1
  Tb  Tb2  1  0.328081  0.002343  0.750000  1
  Dy  Dy3  1  0.997712  0.672339  0.250000  1
  Ga  Ga4  1  0.128377  0.128498  0.250000  1
  Ga  Ga5  1  0.871344  0.871167  0.750000  1
  Ga  Ga6  1  0.008881  0.337312  0.076905  1
  Ga  Ga7  1  0.991526  0.663240  0.923264  1
  Ga  Ga8  1  0.991526  0.663240  0.576736  1
  Ga  Ga9  1  0.336526  0.008463  0.423111  1
  Ga  Ga10  1  0.008881  0.337312  0.423095  1
  Ga  Ga11  1  0.662906  0.991168  0.576811  1
  Ga  Ga12  1  0.662906  0.991168  0.923189  1
  Ga  Ga13  1  0.336526  0.008463  0.076889  1
  Ga  Ga14  1  0.338588  0.338458  0.560161  1
  Ga  Ga15  1  0.661550  0.661228  0.439488  1
  Ga  Ga16  1  0.661550  0.661228  0.060512  1
  Ga  Ga17  1  0.338588  0.338458  0.939839  1
  Ga  Ga18  1  0.338129  0.551322  0.250000  1
  Ga  Ga19  1  0.661811  0.448803  0.750000  1
  Ga  Ga20  1  0.551528  0.338336  0.250000  1
  Ga  Ga21  1  0.448849  0.661688  0.750000  1
  Ru  Ru22  1  0.675741  0.324455  0.000089  1
  Ru  Ru23  1  0.324489  0.675571  0.000048  1
  Ru  Ru24  1  0.324489  0.675571  0.499952  1
  Ru  Ru25  1  0.675741  0.324455  0.499911  1
  Ru  Ru26  1  0.999676  0.000041  0.000034  1
  Ru  Ru27  1  0.999676  0.000041  0.499966  1
