# generated using pymatgen
data_Y17Er3(Ir2Rh)4
_symmetry_space_group_name_H-M   'P 1'
_cell_length_a   10.91995000
_cell_length_b   10.91995000
_cell_length_c   6.41141800
_cell_angle_alpha   90.00000000
_cell_angle_beta   90.00000000
_cell_angle_gamma   90.00000000
_symmetry_Int_Tables_number   1
_chemical_formula_structural   Y17Er3(Ir2Rh)4
_chemical_formula_sum   'Y17 Er3 Ir8 Rh4'
_cell_volume   764.53151414
_cell_formula_units_Z   1
loop_
 _symmetry_equiv_pos_site_id
 _symmetry_equiv_pos_as_xyz
  1  'x, y, z'
loop_
 _atom_site_type_symbol
 _atom_site_label
 _atom_site_symmetry_multiplicity
 _atom_site_fract_x
 _atom_site_fract_y
 _atom_site_fract_z
 _atom_site_occupancy
  Y  Y0  1  0.290174  0.088958  0.379871  1
  Y  Y1  1  0.290190  0.911088  0.879882  1
  Y  Y2  1  0.709810  0.088912  0.879882  1
  Y  Y3  1  0.709826  0.911042  0.379871  1
  Y  Y4  1  0.588934  0.790260  0.879845  1
  Y  Y5  1  0.589097  0.209532  0.379777  1
  Y  Y6  1  0.410903  0.790468  0.379777  1
  Y  Y7  1  0.411066  0.209740  0.879845  1
  Y  Y8  1  0.209532  0.410903  0.620223  1
  Y  Y9  1  0.209740  0.588934  0.120155  1
  Y  Y10  1  0.790260  0.411066  0.120155  1
  Y  Y11  1  0.790468  0.589097  0.620223  1
  Y  Y12  1  0.911088  0.709810  0.120118  1
  Y  Y13  1  0.911042  0.290174  0.620129  1
  Y  Y14  1  0.088958  0.709826  0.620129  1
  Y  Y15  1  0.088912  0.290190  0.120118  1
  Y  Y16  1  0.500000  0.500000  0.500000  1
  Er  Er17  1  0.000000  0.000000  0.500000  1
  Er  Er18  1  0.000000  0.000000  0.000000  1
  Er  Er19  1  0.500000  0.500000  0.000000  1
  Ir  Ir20  1  0.847242  0.152729  0.250002  1
  Ir  Ir21  1  0.847271  0.847242  0.749998  1
  Ir  Ir22  1  0.152729  0.152758  0.749998  1
  Ir  Ir23  1  0.152758  0.847271  0.250002  1
  Ir  Ir24  1  0.653407  0.346538  0.751151  1
  Ir  Ir25  1  0.653462  0.653407  0.248849  1
  Ir  Ir26  1  0.346538  0.346593  0.248849  1
  Ir  Ir27  1  0.346593  0.653462  0.751151  1
  Rh  Rh28  1  0.500000  0.000000  0.125112  1
  Rh  Rh29  1  0.500000  0.000000  0.625059  1
  Rh  Rh30  1  0.000000  0.500000  0.874888  1
  Rh  Rh31  1  0.000000  0.500000  0.374941  1
