# generated using pymatgen
data_NaPt2S3
_symmetry_space_group_name_H-M   'P 1'
_cell_length_a   7.16971200
_cell_length_b   7.16971310
_cell_length_c   11.46136200
_cell_angle_alpha   90.00000000
_cell_angle_beta   90.00000000
_cell_angle_gamma   119.99999492
_symmetry_Int_Tables_number   1
_chemical_formula_structural   NaPt2S3
_chemical_formula_sum   'Na4 Pt8 S12'
_cell_volume   510.23514782
_cell_formula_units_Z   4
loop_
 _symmetry_equiv_pos_site_id
 _symmetry_equiv_pos_as_xyz
  1  'x, y, z'
loop_
 _atom_site_type_symbol
 _atom_site_label
 _atom_site_symmetry_multiplicity
 _atom_site_fract_x
 _atom_site_fract_y
 _atom_site_fract_z
 _atom_site_occupancy
  Na  Na0  1  0.333333  0.666667  0.303784  1
  Na  Na1  1  0.666667  0.333333  0.803784  1
  Na  Na2  1  0.000000  0.000000  0.704045  1
  Na  Na3  1  0.000000  0.000000  0.204045  1
  Pt  Pt4  1  0.834123  0.165877  0.006230  1
  Pt  Pt5  1  0.668245  0.834123  0.506230  1
  Pt  Pt6  1  0.165877  0.331755  0.506230  1
  Pt  Pt7  1  0.834123  0.668245  0.006230  1
  Pt  Pt8  1  0.331755  0.165877  0.006230  1
  Pt  Pt9  1  0.165877  0.834123  0.506230  1
  Pt  Pt10  1  0.666667  0.333333  0.498509  1
  Pt  Pt11  1  0.333333  0.666667  0.998509  1
  S  S12  1  0.498794  0.501206  0.604898  1
  S  S13  1  0.997590  0.498794  0.104898  1
  S  S14  1  0.501206  0.002410  0.104898  1
  S  S15  1  0.498794  0.997590  0.604898  1
  S  S16  1  0.159676  0.840324  0.902026  1
  S  S17  1  0.319352  0.159676  0.402026  1
  S  S18  1  0.840324  0.680648  0.402026  1
  S  S19  1  0.159676  0.319352  0.902026  1
  S  S20  1  0.680648  0.840324  0.902026  1
  S  S21  1  0.840324  0.159676  0.402026  1
  S  S22  1  0.501206  0.498794  0.104898  1
  S  S23  1  0.002410  0.501206  0.604898  1
