# generated using pymatgen
data_Tm3LuRh4F28
_symmetry_space_group_name_H-M   'P 1'
_cell_length_a   5.47078162
_cell_length_b   8.78376744
_cell_length_c   11.80587002
_cell_angle_alpha   62.74863469
_cell_angle_beta   89.97464095
_cell_angle_gamma   89.99870873
_symmetry_Int_Tables_number   1
_chemical_formula_structural   Tm3LuRh4F28
_chemical_formula_sum   'Tm3 Lu1 Rh4 F28'
_cell_volume   504.35108447
_cell_formula_units_Z   1
loop_
 _symmetry_equiv_pos_site_id
 _symmetry_equiv_pos_as_xyz
  1  'x, y, z'
loop_
 _atom_site_type_symbol
 _atom_site_label
 _atom_site_symmetry_multiplicity
 _atom_site_fract_x
 _atom_site_fract_y
 _atom_site_fract_z
 _atom_site_occupancy
  Tm  Tm0  1  0.260876  0.814022  0.265599  1
  Tm  Tm1  1  0.739457  0.184639  0.734667  1
  Tm  Tm2  1  0.760799  0.186112  0.234299  1
  Lu  Lu3  1  0.238751  0.813907  0.765598  1
  Rh  Rh4  1  0.758253  0.726466  0.043392  1
  Rh  Rh5  1  0.242115  0.274397  0.955400  1
  Rh  Rh6  1  0.257648  0.272945  0.456314  1
  Rh  Rh7  1  0.741339  0.726756  0.544932  1
  F  F8  1  0.942953  0.704982  0.416891  1
  F  F9  1  0.057450  0.294785  0.584572  1
  F  F10  1  0.442628  0.295821  0.083742  1
  F  F11  1  0.556859  0.704480  0.915765  1
  F  F12  1  0.466749  0.728616  0.138553  1
  F  F13  1  0.533681  0.271206  0.860824  1
  F  F14  1  0.965565  0.270898  0.361784  1
  F  F15  1  0.032649  0.729589  0.640071  1
  F  F16  1  0.955306  0.746575  0.174429  1
  F  F17  1  0.045614  0.254288  0.824373  1
  F  F18  1  0.453954  0.253196  0.324983  1
  F  F19  1  0.542836  0.747537  0.675617  1
  F  F20  1  0.771928  0.479712  0.141194  1
  F  F21  1  0.229567  0.521394  0.857955  1
  F  F22  1  0.271235  0.519930  0.359079  1
  F  F23  1  0.728317  0.479848  0.641898  1
  F  F24  1  0.941877  0.280541  0.044493  1
  F  F25  1  0.058633  0.720671  0.953506  1
  F  F26  1  0.442125  0.720385  0.455213  1
  F  F27  1  0.558013  0.278967  0.545427  1
  F  F28  1  0.742525  0.973152  0.450243  1
  F  F29  1  0.256550  0.026673  0.550406  1
  F  F30  1  0.242913  0.027902  0.049793  1
  F  F31  1  0.756791  0.973051  0.949214  1
  F  F32  1  0.582786  0.971636  0.231617  1
  F  F33  1  0.417913  0.025472  0.768107  1
  F  F34  1  0.082612  0.028506  0.268257  1
  F  F35  1  0.920733  0.970941  0.731789  1
