# generated using pymatgen
data_Er4Th(In2Co)2
_symmetry_space_group_name_H-M   'P 1'
_cell_length_a   3.61347700
_cell_length_b   7.94269036
_cell_length_c   17.98495781
_cell_angle_alpha   90.75219342
_cell_angle_beta   90.00000000
_cell_angle_gamma   90.00000000
_symmetry_Int_Tables_number   1
_chemical_formula_structural   Er4Th(In2Co)2
_chemical_formula_sum   'Er8 Th2 In8 Co4'
_cell_volume   516.13691768
_cell_formula_units_Z   2
loop_
 _symmetry_equiv_pos_site_id
 _symmetry_equiv_pos_as_xyz
  1  'x, y, z'
loop_
 _atom_site_type_symbol
 _atom_site_label
 _atom_site_symmetry_multiplicity
 _atom_site_fract_x
 _atom_site_fract_y
 _atom_site_fract_z
 _atom_site_occupancy
  Er  Er0  1  0.000000  0.500000  0.500000  1
  Er  Er1  1  0.000000  0.000000  0.000000  1
  Er  Er2  1  0.000000  0.750910  0.777883  1
  Er  Er3  1  0.000000  0.249090  0.222117  1
  Er  Er4  1  0.000000  0.614940  0.089312  1
  Er  Er5  1  0.000000  0.385060  0.910688  1
  Er  Er6  1  0.000000  0.888770  0.591559  1
  Er  Er7  1  0.000000  0.111230  0.408441  1
  Th  Th8  1  0.000000  0.750449  0.275077  1
  Th  Th9  1  0.000000  0.249551  0.724923  1
  In  In10  1  0.500000  0.703691  0.930948  1
  In  In11  1  0.500000  0.296309  0.069052  1
  In  In12  1  0.500000  0.797468  0.436213  1
  In  In13  1  0.500000  0.202532  0.563787  1
  In  In14  1  0.500000  0.579630  0.650831  1
  In  In15  1  0.500000  0.420370  0.349169  1
  In  In16  1  0.500000  0.937969  0.146952  1
  In  In17  1  0.500000  0.062031  0.853048  1
  Co  Co18  1  0.500000  0.534735  0.200759  1
  Co  Co19  1  0.500000  0.465265  0.799241  1
  Co  Co20  1  0.500000  0.000805  0.695070  1
  Co  Co21  1  0.500000  0.999195  0.304930  1
