# generated using pymatgen
data_Tb6TmLu3Cd5In3Pt4
_symmetry_space_group_name_H-M   'P 1'
_cell_length_a   3.63734700
_cell_length_b   8.13901604
_cell_length_c   18.10229900
_cell_angle_alpha   89.99450908
_cell_angle_beta   90.00000000
_cell_angle_gamma   90.00000000
_symmetry_Int_Tables_number   1
_chemical_formula_structural   Tb6TmLu3Cd5In3Pt4
_chemical_formula_sum   'Tb6 Tm1 Lu3 Cd5 In3 Pt4'
_cell_volume   535.90816087
_cell_formula_units_Z   1
loop_
 _symmetry_equiv_pos_site_id
 _symmetry_equiv_pos_as_xyz
  1  'x, y, z'
loop_
 _atom_site_type_symbol
 _atom_site_label
 _atom_site_symmetry_multiplicity
 _atom_site_fract_x
 _atom_site_fract_y
 _atom_site_fract_z
 _atom_site_occupancy
  Tb  Tb0  1  0.000000  0.240930  0.217461  1
  Tb  Tb1  1  0.000000  0.759882  0.781308  1
  Tb  Tb2  1  0.000000  0.259690  0.718104  1
  Tb  Tb3  1  0.000000  0.740426  0.282065  1
  Tb  Tb4  1  0.000000  0.001054  0.000117  1
  Tb  Tb5  1  0.000000  0.499642  0.500271  1
  Tm  Tm6  1  0.000000  0.613242  0.086707  1
  Lu  Lu7  1  0.000000  0.116056  0.412780  1
  Lu  Lu8  1  0.000000  0.883997  0.587282  1
  Lu  Lu9  1  0.000000  0.383107  0.913253  1
  Cd  Cd10  1  0.500000  0.420055  0.352259  1
  Cd  Cd11  1  0.500000  0.579748  0.648039  1
  Cd  Cd12  1  0.500000  0.079509  0.851914  1
  Cd  Cd13  1  0.500000  0.923627  0.148138  1
  Cd  Cd14  1  0.500000  0.293328  0.062803  1
  In  In15  1  0.500000  0.705393  0.936267  1
  In  In16  1  0.500000  0.205173  0.563097  1
  In  In17  1  0.500000  0.794908  0.437145  1
  Pt  Pt18  1  0.500000  0.025367  0.305572  1
  Pt  Pt19  1  0.500000  0.974386  0.694627  1
  Pt  Pt20  1  0.500000  0.474247  0.804611  1
  Pt  Pt21  1  0.500000  0.526231  0.196182  1
