# generated using pymatgen
data_V2Cu(Ni10B3)2
_symmetry_space_group_name_H-M   'P 1'
_cell_length_a   7.40365002
_cell_length_b   7.40364988
_cell_length_c   7.40365000
_cell_angle_alpha   59.99999947
_cell_angle_beta   60.00000007
_cell_angle_gamma   60.00000461
_symmetry_Int_Tables_number   1
_chemical_formula_structural   V2Cu(Ni10B3)2
_chemical_formula_sum   'V2 Cu1 Ni20 B6'
_cell_volume   286.96084932
_cell_formula_units_Z   1
loop_
 _symmetry_equiv_pos_site_id
 _symmetry_equiv_pos_as_xyz
  1  'x, y, z'
loop_
 _atom_site_type_symbol
 _atom_site_label
 _atom_site_symmetry_multiplicity
 _atom_site_fract_x
 _atom_site_fract_y
 _atom_site_fract_z
 _atom_site_occupancy
  V  V0  1  0.000000  0.000000  0.000000  1
  V  V1  1  0.250000  0.250000  0.250000  1
  Cu  Cu2  1  0.750000  0.750000  0.750000  1
  Ni  Ni3  1  0.616155  0.616155  0.151535  1
  Ni  Ni4  1  0.616155  0.151535  0.616155  1
  Ni  Ni5  1  0.151535  0.616155  0.616155  1
  Ni  Ni6  1  0.616155  0.616155  0.616155  1
  Ni  Ni7  1  0.380448  0.380448  0.858657  1
  Ni  Ni8  1  0.380448  0.858657  0.380448  1
  Ni  Ni9  1  0.858657  0.380448  0.380448  1
  Ni  Ni10  1  0.380448  0.380448  0.380448  1
  Ni  Ni11  1  0.000960  0.000960  0.337490  1
  Ni  Ni12  1  0.660589  0.000960  0.337490  1
  Ni  Ni13  1  0.000960  0.660589  0.337490  1
  Ni  Ni14  1  0.660589  0.337490  0.000960  1
  Ni  Ni15  1  0.000960  0.337490  0.000960  1
  Ni  Ni16  1  0.000960  0.337490  0.660589  1
  Ni  Ni17  1  0.337490  0.660589  0.000960  1
  Ni  Ni18  1  0.337490  0.000960  0.660589  1
  Ni  Ni19  1  0.337490  0.000960  0.000960  1
  Ni  Ni20  1  0.000960  0.000960  0.660589  1
  Ni  Ni21  1  0.000960  0.660589  0.000960  1
  Ni  Ni22  1  0.660589  0.000960  0.000960  1
  B  B23  1  0.728365  0.728365  0.271635  1
  B  B24  1  0.271635  0.728365  0.271635  1
  B  B25  1  0.728365  0.271635  0.271635  1
  B  B26  1  0.271635  0.271635  0.728365  1
  B  B27  1  0.728365  0.271635  0.728365  1
  B  B28  1  0.271635  0.728365  0.728365  1
