# generated using pymatgen
data_LiEr16In3Rh4
_symmetry_space_group_name_H-M   'P 1'
_cell_length_a   9.54452378
_cell_length_b   9.57387136
_cell_length_c   9.54452400
_cell_angle_alpha   60.10134958
_cell_angle_beta   59.99999925
_cell_angle_gamma   60.10135381
_symmetry_Int_Tables_number   1
_chemical_formula_structural   LiEr16In3Rh4
_chemical_formula_sum   'Li1 Er16 In3 Rh4'
_cell_volume   617.65326160
_cell_formula_units_Z   1
loop_
 _symmetry_equiv_pos_site_id
 _symmetry_equiv_pos_as_xyz
  1  'x, y, z'
loop_
 _atom_site_type_symbol
 _atom_site_label
 _atom_site_symmetry_multiplicity
 _atom_site_fract_x
 _atom_site_fract_y
 _atom_site_fract_z
 _atom_site_occupancy
  Li  Li0  1  0.426891  0.719326  0.426891  1
  Er  Er1  1  0.188337  0.189834  0.810914  1
  Er  Er2  1  0.436872  0.062312  0.063944  1
  Er  Er3  1  0.436872  0.062312  0.436872  1
  Er  Er4  1  0.063244  0.436057  0.063244  1
  Er  Er5  1  0.649379  0.051863  0.649379  1
  Er  Er6  1  0.185578  0.815214  0.813630  1
  Er  Er7  1  0.063944  0.062312  0.436872  1
  Er  Er8  1  0.810914  0.189834  0.188337  1
  Er  Er9  1  0.813630  0.815214  0.185578  1
  Er  Er10  1  0.650866  0.649147  0.049121  1
  Er  Er11  1  0.650866  0.649147  0.650866  1
  Er  Er12  1  0.063244  0.436057  0.437456  1
  Er  Er13  1  0.049121  0.649147  0.650866  1
  Er  Er14  1  0.810914  0.189834  0.810914  1
  Er  Er15  1  0.437456  0.436057  0.063244  1
  Er  Er16  1  0.185578  0.815214  0.185578  1
  In  In17  1  0.416297  0.421184  0.746222  1
  In  In18  1  0.746222  0.421184  0.416297  1
  In  In19  1  0.416297  0.421184  0.416297  1
  Rh  Rh20  1  0.856555  0.430334  0.856555  1
  Rh  Rh21  1  0.856520  0.859079  0.427881  1
  Rh  Rh22  1  0.427881  0.859079  0.856520  1
  Rh  Rh23  1  0.856520  0.859079  0.856520  1
