# generated using pymatgen
data_Cs6FeSe4Br
_symmetry_space_group_name_H-M   'P 1'
_cell_length_a   11.30732900
_cell_length_b   11.30732724
_cell_length_c   8.48948700
_cell_angle_alpha   90.00000000
_cell_angle_beta   90.00000000
_cell_angle_gamma   119.99999636
_symmetry_Int_Tables_number   1
_chemical_formula_structural   Cs6FeSe4Br
_chemical_formula_sum   'Cs12 Fe2 Se8 Br2'
_cell_volume   940.00915876
_cell_formula_units_Z   2
loop_
 _symmetry_equiv_pos_site_id
 _symmetry_equiv_pos_as_xyz
  1  'x, y, z'
loop_
 _atom_site_type_symbol
 _atom_site_label
 _atom_site_symmetry_multiplicity
 _atom_site_fract_x
 _atom_site_fract_y
 _atom_site_fract_z
 _atom_site_occupancy
  Cs  Cs0  1  0.141145  0.858855  0.515755  1
  Cs  Cs1  1  0.717709  0.858855  0.515755  1
  Cs  Cs2  1  0.946063  0.473032  0.318906  1
  Cs  Cs3  1  0.526968  0.473032  0.318906  1
  Cs  Cs4  1  0.858855  0.717709  0.015755  1
  Cs  Cs5  1  0.282291  0.141145  0.015755  1
  Cs  Cs6  1  0.526968  0.053937  0.318906  1
  Cs  Cs7  1  0.141145  0.282291  0.515755  1
  Cs  Cs8  1  0.858855  0.141145  0.015755  1
  Cs  Cs9  1  0.053937  0.526968  0.818906  1
  Cs  Cs10  1  0.473032  0.946063  0.818906  1
  Cs  Cs11  1  0.473032  0.526968  0.818906  1
  Fe  Fe12  1  0.666667  0.333333  0.709322  1
  Fe  Fe13  1  0.333333  0.666667  0.209322  1
  Se  Se14  1  0.429880  0.214939  0.617829  1
  Se  Se15  1  0.570120  0.785061  0.117829  1
  Se  Se16  1  0.666667  0.333333  0.001671  1
  Se  Se17  1  0.785061  0.570120  0.617829  1
  Se  Se18  1  0.214939  0.429880  0.117829  1
  Se  Se19  1  0.333333  0.666667  0.501671  1
  Se  Se20  1  0.214939  0.785061  0.117829  1
  Se  Se21  1  0.785061  0.214939  0.617829  1
  Br  Br22  1  0.000000  0.000000  0.272138  1
  Br  Br23  1  0.000000  0.000000  0.772138  1
