# generated using pymatgen
data_Hf6Mn3Fe12Si7Ni
_symmetry_space_group_name_H-M   'P 1'
_cell_length_a   8.08349647
_cell_length_b   8.08072604
_cell_length_c   8.07331015
_cell_angle_alpha   60.09109230
_cell_angle_beta   60.07040269
_cell_angle_gamma   60.05592958
_symmetry_Int_Tables_number   1
_chemical_formula_structural   Hf6Mn3Fe12Si7Ni
_chemical_formula_sum   'Hf6 Mn3 Fe12 Si7 Ni1'
_cell_volume   373.50713949
_cell_formula_units_Z   1
loop_
 _symmetry_equiv_pos_site_id
 _symmetry_equiv_pos_as_xyz
  1  'x, y, z'
loop_
 _atom_site_type_symbol
 _atom_site_label
 _atom_site_symmetry_multiplicity
 _atom_site_fract_x
 _atom_site_fract_y
 _atom_site_fract_z
 _atom_site_occupancy
  Hf  Hf0  1  0.790983  0.205946  0.789189  1
  Hf  Hf1  1  0.797668  0.798630  0.202608  1
  Hf  Hf2  1  0.207503  0.793652  0.790217  1
  Hf  Hf3  1  0.207298  0.199645  0.798019  1
  Hf  Hf4  1  0.800075  0.195789  0.206981  1
  Hf  Hf5  1  0.198328  0.802379  0.200065  1
  Mn  Mn6  1  0.176343  0.177785  0.177878  1
  Mn  Mn7  1  0.618057  0.622561  0.142191  1
  Mn  Mn8  1  0.378447  0.382203  0.380966  1
  Fe  Fe9  1  0.175259  0.475296  0.176931  1
  Fe  Fe10  1  0.174362  0.176479  0.477066  1
  Fe  Fe11  1  0.136753  0.621319  0.615202  1
  Fe  Fe12  1  0.619096  0.134241  0.619481  1
  Fe  Fe13  1  0.824472  0.823317  0.825598  1
  Fe  Fe14  1  0.862715  0.381978  0.370303  1
  Fe  Fe15  1  0.374818  0.376345  0.869154  1
  Fe  Fe16  1  0.381328  0.862522  0.371926  1
  Fe  Fe17  1  0.527352  0.823606  0.825695  1
  Fe  Fe18  1  0.622264  0.626734  0.620864  1
  Fe  Fe19  1  0.824687  0.823657  0.528026  1
  Fe  Fe20  1  0.475470  0.176805  0.176180  1
  Si  Si21  1  0.003943  0.503156  0.995442  1
  Si  Si22  1  0.501014  0.497964  0.516927  1
  Si  Si23  1  0.497713  0.502005  0.995786  1
  Si  Si24  1  0.499459  0.997200  0.499219  1
  Si  Si25  1  0.995148  0.502243  0.498529  1
  Si  Si26  1  0.000379  0.999556  0.501196  1
  Si  Si27  1  0.500469  0.003578  0.997682  1
  Ni  Ni28  1  0.828596  0.513406  0.830679  1
