# generated using pymatgen
data_Gd2Zn2P6N13
_symmetry_space_group_name_H-M   'P 1'
_cell_length_a   7.24364180
_cell_length_b   7.29046993
_cell_length_c   7.24364200
_cell_angle_alpha   109.25728624
_cell_angle_beta   109.64029881
_cell_angle_gamma   109.25729626
_symmetry_Int_Tables_number   1
_chemical_formula_structural   Gd2Zn2P6N13
_chemical_formula_sum   'Gd2 Zn2 P6 N13'
_cell_volume   295.40783394
_cell_formula_units_Z   1
loop_
 _symmetry_equiv_pos_site_id
 _symmetry_equiv_pos_as_xyz
  1  'x, y, z'
loop_
 _atom_site_type_symbol
 _atom_site_label
 _atom_site_symmetry_multiplicity
 _atom_site_fract_x
 _atom_site_fract_y
 _atom_site_fract_z
 _atom_site_occupancy
  Gd  Gd0  1  0.716471  0.000000  0.014157  1
  Gd  Gd1  1  0.014157  0.000000  0.716471  1
  Zn  Zn2  1  0.012653  0.708701  0.012653  1
  Zn  Zn3  1  0.303953  0.291299  0.303953  1
  P  P4  1  0.245449  0.748133  0.492889  1
  P  P5  1  0.744756  0.251867  0.497318  1
  P  P6  1  0.743540  0.500000  0.243540  1
  P  P7  1  0.243540  0.500000  0.743540  1
  P  P8  1  0.492889  0.748133  0.245449  1
  P  P9  1  0.497318  0.251867  0.744756  1
  N  N10  1  0.037699  0.000000  0.037699  1
  N  N11  1  0.714185  0.285134  0.279092  1
  N  N12  1  0.272291  0.721319  0.272291  1
  N  N13  1  0.290075  0.564931  0.559460  1
  N  N14  1  0.559460  0.564931  0.290075  1
  N  N15  1  0.429051  0.714866  0.993959  1
  N  N16  1  0.993959  0.714866  0.429051  1
  N  N17  1  0.550971  0.278681  0.550971  1
  N  N18  1  0.720160  0.000000  0.418657  1
  N  N19  1  0.418657  0.000000  0.720160  1
  N  N20  1  0.725144  0.435069  0.994529  1
  N  N21  1  0.279092  0.285134  0.714185  1
  N  N22  1  0.994529  0.435069  0.725144  1
