# generated using pymatgen
data_Pr8Mg2Sc9Si16Ag
_symmetry_space_group_name_H-M   'P 1'
_cell_length_a   7.14410901
_cell_length_b   7.62045534
_cell_length_c   14.22263100
_cell_angle_alpha   90.00000000
_cell_angle_beta   90.00000000
_cell_angle_gamma   90.20077980
_symmetry_Int_Tables_number   1
_chemical_formula_structural   Pr8Mg2Sc9Si16Ag
_chemical_formula_sum   'Pr8 Mg2 Sc9 Si16 Ag1'
_cell_volume   774.29467222
_cell_formula_units_Z   1
loop_
 _symmetry_equiv_pos_site_id
 _symmetry_equiv_pos_as_xyz
  1  'x, y, z'
loop_
 _atom_site_type_symbol
 _atom_site_label
 _atom_site_symmetry_multiplicity
 _atom_site_fract_x
 _atom_site_fract_y
 _atom_site_fract_z
 _atom_site_occupancy
  Pr  Pr0  1  0.013980  0.177477  0.400113  1
  Pr  Pr1  1  0.513587  0.325824  0.399216  1
  Pr  Pr2  1  0.492290  0.681162  0.899317  1
  Pr  Pr3  1  0.492290  0.681162  0.600683  1
  Pr  Pr4  1  0.981293  0.827611  0.601371  1
  Pr  Pr5  1  0.981293  0.827611  0.898629  1
  Pr  Pr6  1  0.513587  0.325824  0.100784  1
  Pr  Pr7  1  0.013980  0.177477  0.099887  1
  Mg  Mg8  1  0.844310  0.503531  0.250000  1
  Mg  Mg9  1  0.344169  0.996338  0.250000  1
  Sc  Sc10  1  0.334933  0.174383  0.625394  1
  Sc  Sc11  1  0.670466  0.819000  0.375190  1
  Sc  Sc12  1  0.168829  0.680287  0.376288  1
  Sc  Sc13  1  0.826314  0.312867  0.874887  1
  Sc  Sc14  1  0.826314  0.312867  0.625113  1
  Sc  Sc15  1  0.334933  0.174383  0.874606  1
  Sc  Sc16  1  0.168829  0.680287  0.123712  1
  Sc  Sc17  1  0.670466  0.819000  0.124810  1
  Sc  Sc18  1  0.158460  0.493628  0.750000  1
  Si  Si19  1  0.280477  0.885770  0.750000  1
  Si  Si20  1  0.461303  0.617370  0.250000  1
  Si  Si21  1  0.041551  0.121861  0.750000  1
  Si  Si22  1  0.530036  0.387247  0.750000  1
  Si  Si23  1  0.153890  0.465592  0.539977  1
  Si  Si24  1  0.962054  0.881857  0.250000  1
  Si  Si25  1  0.716375  0.103913  0.250000  1
  Si  Si26  1  0.847325  0.537422  0.034000  1
  Si  Si27  1  0.345895  0.962054  0.035689  1
  Si  Si28  1  0.153890  0.465592  0.960023  1
  Si  Si29  1  0.652779  0.041028  0.531063  1
  Si  Si30  1  0.345895  0.962054  0.464311  1
  Si  Si31  1  0.847325  0.537422  0.466000  1
  Si  Si32  1  0.792622  0.593194  0.750000  1
  Si  Si33  1  0.215778  0.398150  0.250000  1
  Si  Si34  1  0.652779  0.041028  0.968937  1
  Ag  Ag35  1  0.649701  0.007726  0.750000  1
