# generated using pymatgen
data_TmLuCdNi2
_symmetry_space_group_name_H-M   'P 1'
_cell_length_a   7.26407895
_cell_length_b   7.26407921
_cell_length_c   3.56618100
_cell_angle_alpha   90.00000000
_cell_angle_beta   90.00000000
_cell_angle_gamma   148.45640341
_symmetry_Int_Tables_number   1
_chemical_formula_structural   TmLuCdNi2
_chemical_formula_sum   'Tm1 Lu1 Cd1 Ni2'
_cell_volume   98.44380828
_cell_formula_units_Z   1
loop_
 _symmetry_equiv_pos_site_id
 _symmetry_equiv_pos_as_xyz
  1  'x, y, z'
loop_
 _atom_site_type_symbol
 _atom_site_label
 _atom_site_symmetry_multiplicity
 _atom_site_fract_x
 _atom_site_fract_y
 _atom_site_fract_z
 _atom_site_occupancy
  Tm  Tm0  1  0.640023  0.359977  0.500000  1
  Lu  Lu1  1  0.359360  0.640640  0.500000  1
  Cd  Cd2  1  0.999492  0.000508  0.000000  1
  Ni  Ni3  1  0.802611  0.197389  0.000000  1
  Ni  Ni4  1  0.198514  0.801486  0.000000  1
