# generated using pymatgen
data_Pr7Nd5(ThPt3)2
_symmetry_space_group_name_H-M   'P 1'
_cell_length_a   6.51106241
_cell_length_b   10.22760793
_cell_length_c   10.22760882
_cell_angle_alpha   119.99929803
_cell_angle_beta   89.96457897
_cell_angle_gamma   90.03542616
_symmetry_Int_Tables_number   1
_chemical_formula_structural   Pr7Nd5(ThPt3)2
_chemical_formula_sum   'Pr7 Nd5 Th2 Pt6'
_cell_volume   589.83919978
_cell_formula_units_Z   1
loop_
 _symmetry_equiv_pos_site_id
 _symmetry_equiv_pos_as_xyz
  1  'x, y, z'
loop_
 _atom_site_type_symbol
 _atom_site_label
 _atom_site_symmetry_multiplicity
 _atom_site_fract_x
 _atom_site_fract_y
 _atom_site_fract_z
 _atom_site_occupancy
  Pr  Pr0  1  0.247603  0.127775  0.872225  1
  Pr  Pr1  1  0.247713  0.744417  0.872301  1
  Pr  Pr2  1  0.247713  0.127699  0.255583  1
  Pr  Pr3  1  0.747648  0.872236  0.127764  1
  Pr  Pr4  1  0.747926  0.255571  0.127747  1
  Pr  Pr5  1  0.747926  0.872253  0.744429  1
  Pr  Pr6  1  0.446372  0.538016  0.461984  1
  Nd  Nd7  1  0.445915  0.923991  0.461853  1
  Nd  Nd8  1  0.445915  0.538147  0.076009  1
  Nd  Nd9  1  0.945834  0.461805  0.538195  1
  Nd  Nd10  1  0.945959  0.076129  0.538165  1
  Nd  Nd11  1  0.945959  0.461835  0.923871  1
  Th  Th12  1  0.464420  0.333221  0.666779  1
  Th  Th13  1  0.964345  0.666827  0.333173  1
  Pt  Pt14  1  0.182563  0.808183  0.191817  1
  Pt  Pt15  1  0.182100  0.383470  0.191284  1
  Pt  Pt16  1  0.182100  0.808716  0.616530  1
  Pt  Pt17  1  0.682489  0.191813  0.808187  1
  Pt  Pt18  1  0.682749  0.616289  0.808392  1
  Pt  Pt19  1  0.682749  0.191608  0.383711  1
