# generated using pymatgen
data_YCu4Rh
_symmetry_space_group_name_H-M   'P 1'
_cell_length_a   5.00499500
_cell_length_b   5.00499491
_cell_length_c   4.21575700
_cell_angle_alpha   90.00000000
_cell_angle_beta   90.00000000
_cell_angle_gamma   119.99999399
_symmetry_Int_Tables_number   1
_chemical_formula_structural   YCu4Rh
_chemical_formula_sum   'Y1 Cu4 Rh1'
_cell_volume   91.45627652
_cell_formula_units_Z   1
loop_
 _symmetry_equiv_pos_site_id
 _symmetry_equiv_pos_as_xyz
  1  'x, y, z'
loop_
 _atom_site_type_symbol
 _atom_site_label
 _atom_site_symmetry_multiplicity
 _atom_site_fract_x
 _atom_site_fract_y
 _atom_site_fract_z
 _atom_site_occupancy
  Y  Y0  1  0.000000  0.000000  0.000000  1
  Cu  Cu1  1  0.666667  0.333333  0.000000  1
  Cu  Cu2  1  0.501767  0.003534  0.500000  1
  Cu  Cu3  1  0.501767  0.498233  0.500000  1
  Cu  Cu4  1  0.996466  0.498233  0.500000  1
  Rh  Rh5  1  0.333333  0.666667  0.000000  1
