# generated using pymatgen
data_La4Lu2Al24GaOs7
_symmetry_space_group_name_H-M   'P 1'
_cell_length_a   8.97870235
_cell_length_b   8.97870215
_cell_length_c   9.64199404
_cell_angle_alpha   90.34145021
_cell_angle_beta   89.65854836
_cell_angle_gamma   120.34478495
_symmetry_Int_Tables_number   1
_chemical_formula_structural   La4Lu2Al24GaOs7
_chemical_formula_sum   'La4 Lu2 Al24 Ga1 Os7'
_cell_volume   670.80302474
_cell_formula_units_Z   1
loop_
 _symmetry_equiv_pos_site_id
 _symmetry_equiv_pos_as_xyz
  1  'x, y, z'
loop_
 _atom_site_type_symbol
 _atom_site_label
 _atom_site_symmetry_multiplicity
 _atom_site_fract_x
 _atom_site_fract_y
 _atom_site_fract_z
 _atom_site_occupancy
  La  La0  1  0.192231  0.379585  0.245058  1
  La  La1  1  0.807769  0.620415  0.754942  1
  La  La2  1  0.620415  0.807769  0.245058  1
  La  La3  1  0.379585  0.192231  0.754942  1
  Lu  Lu4  1  0.197786  0.802214  0.257898  1
  Lu  Lu5  1  0.802214  0.197786  0.742102  1
  Al  Al6  1  0.325704  0.674296  0.014190  1
  Al  Al7  1  0.674296  0.325704  0.985810  1
  Al  Al8  1  0.667047  0.332953  0.511636  1
  Al  Al9  1  0.332953  0.667047  0.488364  1
  Al  Al10  1  0.158571  0.325352  0.573090  1
  Al  Al11  1  0.841429  0.674648  0.426910  1
  Al  Al12  1  0.674648  0.841429  0.573090  1
  Al  Al13  1  0.858906  0.679516  0.084427  1
  Al  Al14  1  0.325352  0.158571  0.426910  1
  Al  Al15  1  0.141094  0.320484  0.915573  1
  Al  Al16  1  0.162753  0.837247  0.575132  1
  Al  Al17  1  0.320484  0.141094  0.084427  1
  Al  Al18  1  0.837247  0.162753  0.424868  1
  Al  Al19  1  0.679516  0.858906  0.915573  1
  Al  Al20  1  0.836919  0.163081  0.074468  1
  Al  Al21  1  0.163081  0.836919  0.925532  1
  Al  Al22  1  0.561591  0.120217  0.249494  1
  Al  Al23  1  0.438409  0.879783  0.750506  1
  Al  Al24  1  0.879783  0.438409  0.249494  1
  Al  Al25  1  0.120217  0.561591  0.750506  1
  Al  Al26  1  0.569062  0.430938  0.259523  1
  Al  Al27  1  0.430938  0.569062  0.740477  1
  Al  Al28  1  0.005540  0.994460  0.250845  1
  Al  Al29  1  0.994460  0.005540  0.749155  1
  Ga  Ga30  1  0.500000  0.500000  0.000000  1
  Os  Os31  1  0.500000  0.000000  0.000000  1
  Os  Os32  1  0.000000  0.500000  0.000000  1
  Os  Os33  1  0.500000  0.000000  0.500000  1
  Os  Os34  1  0.000000  0.500000  0.500000  1
  Os  Os35  1  0.500000  0.500000  0.500000  1
  Os  Os36  1  0.000000  0.000000  0.000000  1
  Os  Os37  1  0.000000  0.000000  0.500000  1
