# generated using pymatgen
data_SmZnPRh2
_symmetry_space_group_name_H-M   'P 1'
_cell_length_a   5.82138782
_cell_length_b   5.82138735
_cell_length_c   5.82138835
_cell_angle_alpha   138.38496414
_cell_angle_beta   138.38496109
_cell_angle_gamma   60.31393376
_symmetry_Int_Tables_number   1
_chemical_formula_structural   SmZnPRh2
_chemical_formula_sum   'Sm1 Zn1 P1 Rh2'
_cell_volume   86.09927597
_cell_formula_units_Z   1
loop_
 _symmetry_equiv_pos_site_id
 _symmetry_equiv_pos_as_xyz
  1  'x, y, z'
loop_
 _atom_site_type_symbol
 _atom_site_label
 _atom_site_symmetry_multiplicity
 _atom_site_fract_x
 _atom_site_fract_y
 _atom_site_fract_z
 _atom_site_occupancy
  Sm  Sm0  1  0.997287  0.997287  0.000000  1
  Zn  Zn1  1  0.612257  0.612257  0.000000  1
  P  P2  1  0.368256  0.368256  0.000000  1
  Rh  Rh3  1  0.761100  0.261100  0.500000  1
  Rh  Rh4  1  0.261100  0.761100  0.500000  1
