# generated using pymatgen
data_Dy3Lu5B24Mo3Rh
_symmetry_space_group_name_H-M   'P 1'
_cell_length_a   3.61583200
_cell_length_b   9.16860801
_cell_length_c   11.55775110
_cell_angle_alpha   90.15162915
_cell_angle_beta   90.00000000
_cell_angle_gamma   90.00000000
_symmetry_Int_Tables_number   1
_chemical_formula_structural   Dy3Lu5B24Mo3Rh
_chemical_formula_sum   'Dy3 Lu5 B24 Mo3 Rh1'
_cell_volume   383.16291273
_cell_formula_units_Z   1
loop_
 _symmetry_equiv_pos_site_id
 _symmetry_equiv_pos_as_xyz
  1  'x, y, z'
loop_
 _atom_site_type_symbol
 _atom_site_label
 _atom_site_symmetry_multiplicity
 _atom_site_fract_x
 _atom_site_fract_y
 _atom_site_fract_z
 _atom_site_occupancy
  Dy  Dy0  1  0.500000  0.318206  0.414550  1
  Dy  Dy1  1  0.500000  0.679035  0.588346  1
  Dy  Dy2  1  0.500000  0.178873  0.913727  1
  Lu  Lu3  1  0.500000  0.824686  0.082440  1
  Lu  Lu4  1  0.500000  0.443499  0.129178  1
  Lu  Lu5  1  0.500000  0.556333  0.873062  1
  Lu  Lu6  1  0.500000  0.055051  0.627745  1
  Lu  Lu7  1  0.500000  0.942483  0.370469  1
  B  B8  1  0.000000  0.097227  0.471951  1
  B  B9  1  0.000000  0.897603  0.526329  1
  B  B10  1  0.000000  0.400537  0.973390  1
  B  B11  1  0.000000  0.602492  0.030027  1
  B  B12  1  0.000000  0.130126  0.317869  1
  B  B13  1  0.000000  0.868558  0.683118  1
  B  B14  1  0.000000  0.370385  0.816209  1
  B  B15  1  0.000000  0.631948  0.183272  1
  B  B16  1  0.000000  0.051679  0.065915  1
  B  B17  1  0.000000  0.947993  0.935103  1
  B  B18  1  0.000000  0.448387  0.564500  1
  B  B19  1  0.000000  0.555358  0.432590  1
  B  B20  1  0.000000  0.483865  0.287305  1
  B  B21  1  0.000000  0.521142  0.713116  1
  B  B22  1  0.000000  0.020329  0.786360  1
  B  B23  1  0.000000  0.977463  0.212289  1
  B  B24  1  0.000000  0.252981  0.080356  1
  B  B25  1  0.000000  0.748514  0.922197  1
  B  B26  1  0.000000  0.246039  0.579136  1
  B  B27  1  0.000000  0.750406  0.418887  1
  B  B28  1  0.000000  0.295693  0.237009  1
  B  B29  1  0.000000  0.704754  0.765660  1
  B  B30  1  0.000000  0.205185  0.734781  1
  B  B31  1  0.000000  0.792066  0.263934  1
  Mo  Mo32  1  0.500000  0.139491  0.181339  1
  Mo  Mo33  1  0.500000  0.860312  0.820066  1
  Mo  Mo34  1  0.500000  0.361373  0.678168  1
  Rh  Rh35  1  0.500000  0.639928  0.319604  1
