# generated using pymatgen
data_Nd4ErLu5Sn6
_symmetry_space_group_name_H-M   'P 1'
_cell_length_a   8.98208643
_cell_length_b   9.06772196
_cell_length_c   6.54492200
_cell_angle_alpha   90.00000000
_cell_angle_beta   90.00000000
_cell_angle_gamma   120.31588200
_symmetry_Int_Tables_number   1
_chemical_formula_structural   Nd4ErLu5Sn6
_chemical_formula_sum   'Nd4 Er1 Lu5 Sn6'
_cell_volume   460.17109710
_cell_formula_units_Z   1
loop_
 _symmetry_equiv_pos_site_id
 _symmetry_equiv_pos_as_xyz
  1  'x, y, z'
loop_
 _atom_site_type_symbol
 _atom_site_label
 _atom_site_symmetry_multiplicity
 _atom_site_fract_x
 _atom_site_fract_y
 _atom_site_fract_z
 _atom_site_occupancy
  Nd  Nd0  1  0.762536  0.760572  0.750000  1
  Nd  Nd1  1  0.237464  0.998035  0.750000  1
  Nd  Nd2  1  0.237821  0.239374  0.250000  1
  Nd  Nd3  1  0.762179  0.001553  0.250000  1
  Er  Er4  1  0.000000  0.246708  0.750000  1
  Lu  Lu5  1  0.664943  0.332386  0.000077  1
  Lu  Lu6  1  0.335057  0.667444  0.000077  1
  Lu  Lu7  1  0.335057  0.667444  0.499923  1
  Lu  Lu8  1  0.664943  0.332386  0.499923  1
  Lu  Lu9  1  0.000000  0.754279  0.250000  1
  Sn  Sn10  1  0.393672  0.397974  0.750000  1
  Sn  Sn11  1  0.606328  0.004301  0.750000  1
  Sn  Sn12  1  0.000000  0.595717  0.750000  1
  Sn  Sn13  1  0.607614  0.602082  0.250000  1
  Sn  Sn14  1  0.392386  0.994467  0.250000  1
  Sn  Sn15  1  0.000000  0.405276  0.250000  1
