# generated using pymatgen
data_Pr10Si5Sb
_symmetry_space_group_name_H-M   'P 1'
_cell_length_a   7.92029592
_cell_length_b   7.92029552
_cell_length_c   9.08350017
_cell_angle_alpha   115.84713625
_cell_angle_beta   115.84713650
_cell_angle_gamma   89.99999996
_symmetry_Int_Tables_number   1
_chemical_formula_structural   Pr10Si5Sb
_chemical_formula_sum   'Pr10 Si5 Sb1'
_cell_volume   448.62342249
_cell_formula_units_Z   1
loop_
 _symmetry_equiv_pos_site_id
 _symmetry_equiv_pos_as_xyz
  1  'x, y, z'
loop_
 _atom_site_type_symbol
 _atom_site_label
 _atom_site_symmetry_multiplicity
 _atom_site_fract_x
 _atom_site_fract_y
 _atom_site_fract_z
 _atom_site_occupancy
  Pr  Pr0  1  0.499701  0.499701  0.999402  1
  Pr  Pr1  1  0.000299  0.000299  0.000598  1
  Pr  Pr2  1  0.971983  0.824593  0.285292  1
  Pr  Pr3  1  0.313309  0.460699  0.285292  1
  Pr  Pr4  1  0.824593  0.313309  0.285292  1
  Pr  Pr5  1  0.460699  0.971983  0.285292  1
  Pr  Pr6  1  0.039301  0.186691  0.714708  1
  Pr  Pr7  1  0.675407  0.528017  0.714708  1
  Pr  Pr8  1  0.186691  0.675407  0.714708  1
  Pr  Pr9  1  0.528017  0.039301  0.714708  1
  Si  Si10  1  0.250000  0.250000  0.500000  1
  Si  Si11  1  0.615110  0.884890  0.000000  1
  Si  Si12  1  0.384890  0.115110  0.000000  1
  Si  Si13  1  0.884890  0.384890  0.000000  1
  Si  Si14  1  0.115110  0.615110  0.000000  1
  Sb  Sb15  1  0.750000  0.750000  0.500000  1
