# generated using pymatgen
data_Sc3Be4Nb3Rh10
_symmetry_space_group_name_H-M   'P 1'
_cell_length_a   9.45384927
_cell_length_b   9.45384927
_cell_length_c   3.23305900
_cell_angle_alpha   90.00000000
_cell_angle_beta   90.00000000
_cell_angle_gamma   89.97260619
_symmetry_Int_Tables_number   1
_chemical_formula_structural   Sc3Be4Nb3Rh10
_chemical_formula_sum   'Sc3 Be4 Nb3 Rh10'
_cell_volume   288.95547516
_cell_formula_units_Z   1
loop_
 _symmetry_equiv_pos_site_id
 _symmetry_equiv_pos_as_xyz
  1  'x, y, z'
loop_
 _atom_site_type_symbol
 _atom_site_label
 _atom_site_symmetry_multiplicity
 _atom_site_fract_x
 _atom_site_fract_y
 _atom_site_fract_z
 _atom_site_occupancy
  Sc  Sc0  1  0.326088  0.173516  0.000000  1
  Sc  Sc1  1  0.673516  0.826088  0.000000  1
  Sc  Sc2  1  0.173747  0.673747  0.000000  1
  Be  Be3  1  0.622772  0.122772  0.000000  1
  Be  Be4  1  0.118433  0.378500  0.000000  1
  Be  Be5  1  0.878500  0.618433  0.000000  1
  Be  Be6  1  0.379554  0.879554  0.000000  1
  Nb  Nb7  1  0.826733  0.326733  0.000000  1
  Nb  Nb8  1  0.999777  0.999866  0.000000  1
  Nb  Nb9  1  0.499866  0.499777  0.000000  1
  Rh  Rh10  1  0.065600  0.213000  0.500000  1
  Rh  Rh11  1  0.212169  0.929963  0.500000  1
  Rh  Rh12  1  0.789727  0.075502  0.500000  1
  Rh  Rh13  1  0.928546  0.787222  0.500000  1
  Rh  Rh14  1  0.429963  0.712169  0.500000  1
  Rh  Rh15  1  0.575502  0.289727  0.500000  1
  Rh  Rh16  1  0.713000  0.565600  0.500000  1
  Rh  Rh17  1  0.287222  0.428546  0.500000  1
  Rh  Rh18  1  0.501160  0.001160  0.500000  1
  Rh  Rh19  1  0.998126  0.498126  0.500000  1
