# generated using pymatgen
data_La3In2Sn2Sb
_symmetry_space_group_name_H-M   'P 1'
_cell_length_a   8.77719592
_cell_length_b   8.77719553
_cell_length_c   8.77719567
_cell_angle_alpha   119.96737807
_cell_angle_beta   119.96736816
_cell_angle_gamma   90.05651921
_symmetry_Int_Tables_number   1
_chemical_formula_structural   La3In2Sn2Sb
_chemical_formula_sum   'La6 In4 Sn4 Sb2'
_cell_volume   478.37254560
_cell_formula_units_Z   2
loop_
 _symmetry_equiv_pos_site_id
 _symmetry_equiv_pos_as_xyz
  1  'x, y, z'
loop_
 _atom_site_type_symbol
 _atom_site_label
 _atom_site_symmetry_multiplicity
 _atom_site_fract_x
 _atom_site_fract_y
 _atom_site_fract_z
 _atom_site_occupancy
  La  La0  1  0.756837  0.756837  0.000000  1
  La  La1  1  0.256837  0.256837  0.000000  1
  La  La2  1  0.337055  0.837055  0.176038  1
  La  La3  1  0.661016  0.161016  0.823962  1
  La  La4  1  0.837055  0.661016  0.500000  1
  La  La5  1  0.161016  0.337055  0.500000  1
  In  In6  1  0.042003  0.542003  0.219375  1
  In  In7  1  0.322628  0.822628  0.780625  1
  In  In8  1  0.542003  0.322628  0.500000  1
  In  In9  1  0.822628  0.042003  0.500000  1
  Sn  Sn10  1  0.959828  0.459828  0.796204  1
  Sn  Sn11  1  0.663624  0.163624  0.203796  1
  Sn  Sn12  1  0.459828  0.663624  0.500000  1
  Sn  Sn13  1  0.163624  0.959828  0.500000  1
  Sb  Sb14  1  0.007008  0.007008  0.000000  1
  Sb  Sb15  1  0.507008  0.507008  0.000000  1
