# generated using pymatgen
data_Pr4DyMn2P12Ir17
_symmetry_space_group_name_H-M   'P 1'
_cell_length_a   12.71614300
_cell_length_b   12.81511324
_cell_length_c   4.00313800
_cell_angle_alpha   90.00000000
_cell_angle_beta   90.00000000
_cell_angle_gamma   119.74689252
_symmetry_Int_Tables_number   1
_chemical_formula_structural   Pr4DyMn2P12Ir17
_chemical_formula_sum   'Pr4 Dy1 Mn2 P12 Ir17'
_cell_volume   566.38411327
_cell_formula_units_Z   1
loop_
 _symmetry_equiv_pos_site_id
 _symmetry_equiv_pos_as_xyz
  1  'x, y, z'
loop_
 _atom_site_type_symbol
 _atom_site_label
 _atom_site_symmetry_multiplicity
 _atom_site_fract_x
 _atom_site_fract_y
 _atom_site_fract_z
 _atom_site_occupancy
  Pr  Pr0  1  0.332093  0.663941  0.500000  1
  Pr  Pr1  1  0.001336  0.809826  0.000000  1
  Pr  Pr2  1  0.191153  0.190932  0.000000  1
  Pr  Pr3  1  0.812770  0.999609  0.000000  1
  Dy  Dy4  1  0.668578  0.336475  0.500000  1
  Mn  Mn5  1  0.996424  0.453835  0.500000  1
  Mn  Mn6  1  0.544390  0.544480  0.500000  1
  P  P7  1  0.999809  0.630335  0.500000  1
  P  P8  1  0.368294  0.370710  0.500000  1
  P  P9  1  0.639189  0.998210  0.500000  1
  P  P10  1  0.517245  0.683939  0.000000  1
  P  P11  1  0.308432  0.825063  0.000000  1
  P  P12  1  0.164450  0.479665  0.000000  1
  P  P13  1  0.485853  0.179038  0.000000  1
  P  P14  1  0.687055  0.518203  0.000000  1
  P  P15  1  0.828716  0.313668  0.000000  1
  P  P16  1  0.999008  0.179693  0.500000  1
  P  P17  1  0.820391  0.819199  0.500000  1
  P  P18  1  0.182446  0.001030  0.500000  1
  Ir  Ir19  1  0.508797  0.870458  0.000000  1
  Ir  Ir20  1  0.125044  0.637336  0.000000  1
  Ir  Ir21  1  0.359090  0.489289  0.000000  1
  Ir  Ir22  1  0.493308  0.363887  0.000000  1
  Ir  Ir23  1  0.865266  0.505227  0.000000  1
  Ir  Ir24  1  0.637897  0.134477  0.000000  1
  Ir  Ir25  1  0.461907  0.001781  0.500000  1
  Ir  Ir26  1  0.996093  0.283526  0.000000  1
  Ir  Ir27  1  0.714452  0.714771  0.000000  1
  Ir  Ir28  1  0.291538  0.001666  0.000000  1
  Ir  Ir29  1  0.619478  0.799931  0.500000  1
  Ir  Ir30  1  0.204613  0.824093  0.500000  1
  Ir  Ir31  1  0.175320  0.377103  0.500000  1
  Ir  Ir32  1  0.382423  0.179075  0.500000  1
  Ir  Ir33  1  0.799927  0.621218  0.500000  1
  Ir  Ir34  1  0.815998  0.198390  0.500000  1
  Ir  Ir35  1  0.001217  0.999925  0.500000  1
