# generated using pymatgen
data_Cs4InWCl12
_symmetry_space_group_name_H-M   'P 1'
_cell_length_a   7.60032517
_cell_length_b   7.58338195
_cell_length_c   10.66853200
_cell_angle_alpha   90.00000000
_cell_angle_beta   90.00000000
_cell_angle_gamma   90.93656326
_symmetry_Int_Tables_number   1
_chemical_formula_structural   Cs4InWCl12
_chemical_formula_sum   'Cs4 In1 W1 Cl12'
_cell_volume   614.81116414
_cell_formula_units_Z   1
loop_
 _symmetry_equiv_pos_site_id
 _symmetry_equiv_pos_as_xyz
  1  'x, y, z'
loop_
 _atom_site_type_symbol
 _atom_site_label
 _atom_site_symmetry_multiplicity
 _atom_site_fract_x
 _atom_site_fract_y
 _atom_site_fract_z
 _atom_site_occupancy
  Cs  Cs0  1  0.500000  0.000000  0.776827  1
  Cs  Cs1  1  0.000000  0.500000  0.223254  1
  Cs  Cs2  1  0.500000  0.000000  0.223173  1
  Cs  Cs3  1  0.000000  0.500000  0.776746  1
  In  In4  1  0.000000  0.000000  0.000000  1
  W  W5  1  0.500000  0.500000  0.500000  1
  Cl  Cl6  1  0.000000  0.000000  0.759138  1
  Cl  Cl7  1  0.500000  0.500000  0.279775  1
  Cl  Cl8  1  0.720084  0.720322  0.500000  1
  Cl  Cl9  1  0.239269  0.239459  0.000000  1
  Cl  Cl10  1  0.717556  0.282241  0.500000  1
  Cl  Cl11  1  0.237696  0.762099  0.000000  1
  Cl  Cl12  1  0.000000  0.000000  0.240862  1
  Cl  Cl13  1  0.500000  0.500000  0.720225  1
  Cl  Cl14  1  0.279916  0.279678  0.500000  1
  Cl  Cl15  1  0.760731  0.760541  0.000000  1
  Cl  Cl16  1  0.282444  0.717759  0.500000  1
  Cl  Cl17  1  0.762304  0.237901  0.000000  1
