# generated using pymatgen
data_Li4ZrIn7Ir4
_symmetry_space_group_name_H-M   'P 1'
_cell_length_a   6.50504603
_cell_length_b   4.65377000
_cell_length_c   9.28195181
_cell_angle_alpha   90.00000000
_cell_angle_beta   90.02970916
_cell_angle_gamma   90.00000000
_symmetry_Int_Tables_number   1
_chemical_formula_structural   Li4ZrIn7Ir4
_chemical_formula_sum   'Li4 Zr1 In7 Ir4'
_cell_volume   280.99237876
_cell_formula_units_Z   1
loop_
 _symmetry_equiv_pos_site_id
 _symmetry_equiv_pos_as_xyz
  1  'x, y, z'
loop_
 _atom_site_type_symbol
 _atom_site_label
 _atom_site_symmetry_multiplicity
 _atom_site_fract_x
 _atom_site_fract_y
 _atom_site_fract_z
 _atom_site_occupancy
  Li  Li0  1  0.263890  0.250000  0.123313  1
  Li  Li1  1  0.745092  0.750001  0.383879  1
  Li  Li2  1  0.249426  0.250000  0.623359  1
  Li  Li3  1  0.744236  0.750001  0.869158  1
  Zr  Zr4  1  0.003899  0.750001  0.125411  1
  In  In5  1  0.505451  0.750001  0.125759  1
  In  In6  1  0.999279  0.250000  0.374009  1
  In  In7  1  0.499522  0.250000  0.372958  1
  In  In8  1  0.496269  0.750001  0.625511  1
  In  In9  1  0.000956  0.750001  0.625766  1
  In  In10  1  0.499438  0.250000  0.875745  1
  In  In11  1  0.999152  0.250000  0.875013  1
  Ir  Ir12  1  0.763817  0.250000  0.124373  1
  Ir  Ir13  1  0.242274  0.750001  0.368323  1
  Ir  Ir14  1  0.744584  0.250000  0.624328  1
  Ir  Ir15  1  0.242716  0.750001  0.883095  1
