# generated using pymatgen
data_Tb3Al3ZnGaCu
_symmetry_space_group_name_H-M   'P 1'
_cell_length_a   6.98811800
_cell_length_b   6.98811652
_cell_length_c   4.27460000
_cell_angle_alpha   90.00000000
_cell_angle_beta   90.00000000
_cell_angle_gamma   120.00000702
_symmetry_Int_Tables_number   1
_chemical_formula_structural   Tb3Al3ZnGaCu
_chemical_formula_sum   'Tb3 Al3 Zn1 Ga1 Cu1'
_cell_volume   180.77836315
_cell_formula_units_Z   1
loop_
 _symmetry_equiv_pos_site_id
 _symmetry_equiv_pos_as_xyz
  1  'x, y, z'
loop_
 _atom_site_type_symbol
 _atom_site_label
 _atom_site_symmetry_multiplicity
 _atom_site_fract_x
 _atom_site_fract_y
 _atom_site_fract_z
 _atom_site_occupancy
  Tb  Tb0  1  0.414501  0.999764  0.500000  1
  Tb  Tb1  1  0.000236  0.414737  0.500000  1
  Tb  Tb2  1  0.585263  0.585499  0.500000  1
  Al  Al3  1  0.767701  0.004702  0.000000  1
  Al  Al4  1  0.995298  0.762999  0.000000  1
  Al  Al5  1  0.237001  0.232299  0.000000  1
  Zn  Zn6  1  0.666667  0.333333  0.000000  1
  Ga  Ga7  1  0.333333  0.666667  0.000000  1
  Cu  Cu8  1  0.000000  0.000000  0.500000  1
