# generated using pymatgen
data_Sc4As6Ir3Ru4
_symmetry_space_group_name_H-M   'P 1'
_cell_length_a   7.08242840
_cell_length_b   7.08958110
_cell_length_c   7.08958093
_cell_angle_alpha   109.49164209
_cell_angle_beta   109.45078846
_cell_angle_gamma   109.45078009
_symmetry_Int_Tables_number   1
_chemical_formula_structural   Sc4As6Ir3Ru4
_chemical_formula_sum   'Sc4 As6 Ir3 Ru4'
_cell_volume   274.10120967
_cell_formula_units_Z   1
loop_
 _symmetry_equiv_pos_site_id
 _symmetry_equiv_pos_as_xyz
  1  'x, y, z'
loop_
 _atom_site_type_symbol
 _atom_site_label
 _atom_site_symmetry_multiplicity
 _atom_site_fract_x
 _atom_site_fract_y
 _atom_site_fract_z
 _atom_site_occupancy
  Sc  Sc0  1  0.000078  0.000156  0.500078  1
  Sc  Sc1  1  0.500000  0.000000  0.000000  1
  Sc  Sc2  1  0.999922  0.499922  0.999844  1
  Sc  Sc3  1  0.500000  0.499922  0.500078  1
  As  As4  1  0.683136  0.683339  0.993453  1
  As  As5  1  0.310316  0.310112  0.993453  1
  As  As6  1  0.000204  0.683339  0.689888  1
  As  As7  1  0.999796  0.310112  0.316661  1
  As  As8  1  0.689684  0.006547  0.689888  1
  As  As9  1  0.316864  0.006547  0.316661  1
  Ir  Ir10  1  0.500000  0.750924  0.249076  1
  Ir  Ir11  1  0.749076  0.498151  0.249076  1
  Ir  Ir12  1  0.250924  0.750924  0.501849  1
  Ru  Ru13  1  0.000000  0.000000  0.000000  1
  Ru  Ru14  1  0.249643  0.499287  0.749643  1
  Ru  Ru15  1  0.750357  0.250357  0.500713  1
  Ru  Ru16  1  0.500000  0.250357  0.749643  1
