# generated using pymatgen
data_AcUN2
_symmetry_space_group_name_H-M   'P 1'
_cell_length_a   6.41816578
_cell_length_b   6.41816570
_cell_length_c   6.41816580
_cell_angle_alpha   32.55506445
_cell_angle_beta   32.55506232
_cell_angle_gamma   32.55506417
_symmetry_Int_Tables_number   1
_chemical_formula_structural   AcUN2
_chemical_formula_sum   'Ac1 U1 N2'
_cell_volume   68.07876676
_cell_formula_units_Z   1
loop_
 _symmetry_equiv_pos_site_id
 _symmetry_equiv_pos_as_xyz
  1  'x, y, z'
loop_
 _atom_site_type_symbol
 _atom_site_label
 _atom_site_symmetry_multiplicity
 _atom_site_fract_x
 _atom_site_fract_y
 _atom_site_fract_z
 _atom_site_occupancy
  Ac  Ac0  1  0.000000  0.000000  0.000000  1
  U  U1  1  0.500000  0.500000  0.500000  1
  N  N2  1  0.228277  0.228277  0.228277  1
  N  N3  1  0.771723  0.771723  0.771723  1
