# generated using pymatgen
data_K8PrEuY2F20
_symmetry_space_group_name_H-M   'P 1'
_cell_length_a   6.78533479
_cell_length_b   7.48837500
_cell_length_c   11.11137601
_cell_angle_alpha   90.00000000
_cell_angle_beta   89.58692802
_cell_angle_gamma   90.00000000
_symmetry_Int_Tables_number   1
_chemical_formula_structural   K8PrEuY2F20
_chemical_formula_sum   'K8 Pr1 Eu1 Y2 F20'
_cell_volume   564.56691391
_cell_formula_units_Z   1
loop_
 _symmetry_equiv_pos_site_id
 _symmetry_equiv_pos_as_xyz
  1  'x, y, z'
loop_
 _atom_site_type_symbol
 _atom_site_label
 _atom_site_symmetry_multiplicity
 _atom_site_fract_x
 _atom_site_fract_y
 _atom_site_fract_z
 _atom_site_occupancy
  K  K0  1  0.970148  0.505602  0.672744  1
  K  K1  1  0.031926  0.999322  0.327333  1
  K  K2  1  0.529923  0.505901  0.169638  1
  K  K3  1  0.471928  0.000306  0.829870  1
  K  K4  1  0.970148  0.994398  0.672744  1
  K  K5  1  0.031926  0.500678  0.327333  1
  K  K6  1  0.529923  0.994099  0.169638  1
  K  K7  1  0.471928  0.499694  0.829870  1
  Pr  Pr8  1  0.565530  0.250000  0.495788  1
  Eu  Eu9  1  0.938854  0.250000  0.998857  1
  Y  Y10  1  0.062328  0.750000  0.001684  1
  Y  Y11  1  0.434233  0.750000  0.502607  1
  F  F12  1  0.854450  0.539089  0.923977  1
  F  F13  1  0.144743  0.027972  0.077344  1
  F  F14  1  0.646371  0.542674  0.421592  1
  F  F15  1  0.352137  0.025651  0.578985  1
  F  F16  1  0.854450  0.960911  0.923977  1
  F  F17  1  0.144743  0.472028  0.077344  1
  F  F18  1  0.646371  0.957326  0.421592  1
  F  F19  1  0.352137  0.474349  0.578985  1
  F  F20  1  0.625866  0.750000  0.664042  1
  F  F21  1  0.364981  0.250000  0.326112  1
  F  F22  1  0.872799  0.750000  0.164747  1
  F  F23  1  0.125695  0.250000  0.831036  1
  F  F24  1  0.106980  0.750000  0.512695  1
  F  F25  1  0.906706  0.250000  0.487008  1
  F  F26  1  0.389556  0.750000  0.012607  1
  F  F27  1  0.603658  0.250000  0.988722  1
  F  F28  1  0.161335  0.750000  0.810129  1
  F  F29  1  0.834493  0.250000  0.193261  1
  F  F30  1  0.339502  0.750000  0.310705  1
  F  F31  1  0.664234  0.250000  0.697029  1
