# generated using pymatgen
data_Sm4Ta3Mn17P12
_symmetry_space_group_name_H-M   'P 1'
_cell_length_a   3.66124400
_cell_length_b   10.90952224
_cell_length_c   12.45262389
_cell_angle_alpha   90.29126769
_cell_angle_beta   90.00000000
_cell_angle_gamma   90.00000000
_symmetry_Int_Tables_number   1
_chemical_formula_structural   Sm4Ta3Mn17P12
_chemical_formula_sum   'Sm4 Ta3 Mn17 P12'
_cell_volume   497.38154208
_cell_formula_units_Z   1
loop_
 _symmetry_equiv_pos_site_id
 _symmetry_equiv_pos_as_xyz
  1  'x, y, z'
loop_
 _atom_site_type_symbol
 _atom_site_label
 _atom_site_symmetry_multiplicity
 _atom_site_fract_x
 _atom_site_fract_y
 _atom_site_fract_z
 _atom_site_occupancy
  Sm  Sm0  1  0.250000  0.585458  0.704872  1
  Sm  Sm1  1  0.250000  0.913055  0.209165  1
  Sm  Sm2  1  0.750000  0.409957  0.293268  1
  Sm  Sm3  1  0.750000  0.088409  0.791678  1
  Ta  Ta4  1  0.250000  0.708631  0.983244  1
  Ta  Ta5  1  0.250000  0.794076  0.482394  1
  Ta  Ta6  1  0.750000  0.291319  0.015490  1
  Mn  Mn7  1  0.750000  0.205612  0.514318  1
  Mn  Mn8  1  0.250000  0.404215  0.494410  1
  Mn  Mn9  1  0.250000  0.090480  0.994769  1
  Mn  Mn10  1  0.750000  0.585207  0.505537  1
  Mn  Mn11  1  0.750000  0.911119  0.007072  1
  Mn  Mn12  1  0.250000  0.212168  0.181300  1
  Mn  Mn13  1  0.250000  0.287328  0.675312  1
  Mn  Mn14  1  0.750000  0.788291  0.820970  1
  Mn  Mn15  1  0.750000  0.712734  0.323009  1
  Mn  Mn16  1  0.250000  0.884900  0.694901  1
  Mn  Mn17  1  0.250000  0.616219  0.195360  1
  Mn  Mn18  1  0.750000  0.119103  0.307594  1
  Mn  Mn19  1  0.750000  0.381598  0.801608  1
  Mn  Mn20  1  0.250000  0.464069  0.933425  1
  Mn  Mn21  1  0.250000  0.038339  0.437657  1
  Mn  Mn22  1  0.750000  0.535075  0.065163  1
  Mn  Mn23  1  0.750000  0.969732  0.566374  1
  P  P24  1  0.250000  0.416716  0.116784  1
  P  P25  1  0.250000  0.089021  0.612892  1
  P  P26  1  0.750000  0.582007  0.881851  1
  P  P27  1  0.750000  0.922682  0.385373  1
  P  P28  1  0.250000  0.267972  0.866425  1
  P  P29  1  0.250000  0.231175  0.375461  1
  P  P30  1  0.750000  0.732140  0.132167  1
  P  P31  1  0.750000  0.770955  0.631265  1
  P  P32  1  0.250000  0.585232  0.384285  1
  P  P33  1  0.250000  0.913810  0.883389  1
  P  P34  1  0.750000  0.402359  0.612119  1
  P  P35  1  0.750000  0.088836  0.119099  1
