# generated using pymatgen
data_MgSc12(PtI8)2
_symmetry_space_group_name_H-M   'P 1'
_cell_length_a   9.27458238
_cell_length_b   12.08479094
_cell_length_c   12.71379829
_cell_angle_alpha   117.28734979
_cell_angle_beta   101.21036777
_cell_angle_gamma   100.73310056
_symmetry_Int_Tables_number   1
_chemical_formula_structural   MgSc12(PtI8)2
_chemical_formula_sum   'Mg1 Sc12 Pt2 I16'
_cell_volume   1178.64356469
_cell_formula_units_Z   1
loop_
 _symmetry_equiv_pos_site_id
 _symmetry_equiv_pos_as_xyz
  1  'x, y, z'
loop_
 _atom_site_type_symbol
 _atom_site_label
 _atom_site_symmetry_multiplicity
 _atom_site_fract_x
 _atom_site_fract_y
 _atom_site_fract_z
 _atom_site_occupancy
  Mg  Mg0  1  0.000000  0.500000  0.500000  1
  Sc  Sc1  1  0.092674  0.266201  0.356092  1
  Sc  Sc2  1  0.907326  0.733799  0.643908  1
  Sc  Sc3  1  0.773187  0.535753  0.326410  1
  Sc  Sc4  1  0.226813  0.464247  0.673590  1
  Sc  Sc5  1  0.283669  0.734396  0.643392  1
  Sc  Sc6  1  0.716331  0.265604  0.356608  1
  Sc  Sc7  1  0.149625  0.535833  0.326528  1
  Sc  Sc8  1  0.850375  0.464167  0.673472  1
  Sc  Sc9  1  0.407430  0.361136  0.277658  1
  Sc  Sc10  1  0.592570  0.638864  0.722342  1
  Sc  Sc11  1  0.459415  0.311596  0.520922  1
  Sc  Sc12  1  0.540585  0.688404  0.479078  1
  Pt  Pt13  1  0.340623  0.500070  0.499364  1
  Pt  Pt14  1  0.659378  0.499930  0.500636  1
  I  I15  1  0.398501  0.740171  0.883015  1
  I  I16  1  0.601499  0.259829  0.116985  1
  I  I17  1  0.186521  0.959929  0.780493  1
  I  I18  1  0.813479  0.040071  0.219507  1
  I  I19  1  0.338966  0.097626  0.252551  1
  I  I20  1  0.661034  0.902374  0.747449  1
  I  I21  1  0.556791  0.438880  0.798754  1
  I  I22  1  0.443209  0.561120  0.201246  1
  I  I23  1  0.309856  0.824759  0.461693  1
  I  I24  1  0.690144  0.175241  0.538307  1
  I  I25  1  0.169965  0.173664  0.534440  1
  I  I26  1  0.830035  0.826336  0.465560  1
  I  I27  1  0.925831  0.573184  0.161439  1
  I  I28  1  0.074169  0.426816  0.838561  1
  I  I29  1  0.920382  0.738304  0.883323  1
  I  I30  1  0.079618  0.261696  0.116677  1
