# generated using pymatgen
data_Tm7(NiSe)2
_symmetry_space_group_name_H-M   'P 1'
_cell_length_a   8.95169926
_cell_length_b   8.95169946
_cell_length_c   8.95170000
_cell_angle_alpha   155.80607214
_cell_angle_beta   66.72572930
_cell_angle_gamma   118.87952371
_symmetry_Int_Tables_number   1
_chemical_formula_structural   Tm7(NiSe)2
_chemical_formula_sum   'Tm7 Ni2 Se2'
_cell_volume   255.34935789
_cell_formula_units_Z   1
loop_
 _symmetry_equiv_pos_site_id
 _symmetry_equiv_pos_as_xyz
  1  'x, y, z'
loop_
 _atom_site_type_symbol
 _atom_site_label
 _atom_site_symmetry_multiplicity
 _atom_site_fract_x
 _atom_site_fract_y
 _atom_site_fract_z
 _atom_site_occupancy
  Tm  Tm0  1  0.323720  0.323720  0.000000  1
  Tm  Tm1  1  0.860893  0.735940  0.124952  1
  Tm  Tm2  1  0.256545  0.941674  0.314871  1
  Tm  Tm3  1  0.943963  0.584055  0.359908  1
  Tm  Tm4  1  0.224147  0.584056  0.640092  1
  Tm  Tm5  1  0.626803  0.941674  0.685129  1
  Tm  Tm6  1  0.610988  0.735940  0.875048  1
  Ni  Ni7  1  0.486827  0.247781  0.239046  1
  Ni  Ni8  1  0.008736  0.247782  0.760955  1
  Se  Se9  1  0.982543  0.982543  0.000000  1
  Se  Se10  1  0.580184  0.080184  0.500000  1
