# generated using pymatgen
data_Ce5Mg(P2Ru3)6
_symmetry_space_group_name_H-M   'P 1'
_cell_length_a   12.73507664
_cell_length_b   12.73507607
_cell_length_c   3.98582700
_cell_angle_alpha   90.00000000
_cell_angle_beta   90.00000000
_cell_angle_gamma   120.89524699
_symmetry_Int_Tables_number   1
_chemical_formula_structural   Ce5Mg(P2Ru3)6
_chemical_formula_sum   'Ce5 Mg1 P12 Ru18'
_cell_volume   554.70649486
_cell_formula_units_Z   1
loop_
 _symmetry_equiv_pos_site_id
 _symmetry_equiv_pos_as_xyz
  1  'x, y, z'
loop_
 _atom_site_type_symbol
 _atom_site_label
 _atom_site_symmetry_multiplicity
 _atom_site_fract_x
 _atom_site_fract_y
 _atom_site_fract_z
 _atom_site_occupancy
  Ce  Ce0  1  0.181271  0.181271  0.500000  1
  Ce  Ce1  1  0.814180  0.001531  0.500000  1
  Ce  Ce2  1  0.001531  0.814180  0.500000  1
  Ce  Ce3  1  0.329970  0.668634  0.000000  1
  Ce  Ce4  1  0.668634  0.329970  0.000000  1
  Mg  Mg5  1  0.561933  0.561933  0.000000  1
  P  P6  1  0.810941  0.810941  0.000000  1
  P  P7  1  0.184290  0.999062  0.000000  1
  P  P8  1  0.999062  0.184290  0.000000  1
  P  P9  1  0.171078  0.478422  0.500000  1
  P  P10  1  0.520333  0.701684  0.500000  1
  P  P11  1  0.307182  0.832197  0.500000  1
  P  P12  1  0.701684  0.520333  0.500000  1
  P  P13  1  0.832197  0.307182  0.500000  1
  P  P14  1  0.478422  0.171078  0.500000  1
  P  P15  1  0.361605  0.361605  0.000000  1
  P  P16  1  0.624042  0.000236  0.000000  1
  P  P17  1  0.000236  0.624042  0.000000  1
  Ru  Ru18  1  0.443673  0.999892  0.000000  1
  Ru  Ru19  1  0.999892  0.443673  0.000000  1
  Ru  Ru20  1  0.715300  0.715300  0.500000  1
  Ru  Ru21  1  0.283931  0.000922  0.500000  1
  Ru  Ru22  1  0.000922  0.283931  0.500000  1
  Ru  Ru23  1  0.183699  0.378581  0.000000  1
  Ru  Ru24  1  0.621315  0.806717  0.000000  1
  Ru  Ru25  1  0.190502  0.816176  0.000000  1
  Ru  Ru26  1  0.806717  0.621315  0.000000  1
  Ru  Ru27  1  0.816176  0.190502  0.000000  1
  Ru  Ru28  1  0.378581  0.183699  0.000000  1
  Ru  Ru29  1  0.366897  0.491357  0.500000  1
  Ru  Ru30  1  0.510127  0.879442  0.500000  1
  Ru  Ru31  1  0.129218  0.635182  0.500000  1
  Ru  Ru32  1  0.879442  0.510127  0.500000  1
  Ru  Ru33  1  0.635182  0.129218  0.500000  1
  Ru  Ru34  1  0.491357  0.366897  0.500000  1
  Ru  Ru35  1  0.998477  0.998477  0.000000  1
