# generated using pymatgen
data_Pr4Ga3Si
_symmetry_space_group_name_H-M   'P 1'
_cell_length_a   4.16978800
_cell_length_b   6.03587903
_cell_length_c   8.40281394
_cell_angle_alpha   89.85239696
_cell_angle_beta   90.00000000
_cell_angle_gamma   90.00000000
_symmetry_Int_Tables_number   1
_chemical_formula_structural   Pr4Ga3Si
_chemical_formula_sum   'Pr4 Ga3 Si1'
_cell_volume   211.48414236
_cell_formula_units_Z   1
loop_
 _symmetry_equiv_pos_site_id
 _symmetry_equiv_pos_as_xyz
  1  'x, y, z'
loop_
 _atom_site_type_symbol
 _atom_site_label
 _atom_site_symmetry_multiplicity
 _atom_site_fract_x
 _atom_site_fract_y
 _atom_site_fract_z
 _atom_site_occupancy
  Pr  Pr0  1  0.250000  0.386617  0.679884  1
  Pr  Pr1  1  0.750000  0.615839  0.317989  1
  Pr  Pr2  1  0.750000  0.884444  0.823052  1
  Pr  Pr3  1  0.250000  0.110844  0.178318  1
  Ga  Ga4  1  0.250000  0.877159  0.533749  1
  Ga  Ga5  1  0.750000  0.123942  0.465782  1
  Ga  Ga6  1  0.750000  0.379824  0.966913  1
  Si  Si7  1  0.250000  0.621330  0.034314  1
