# generated using pymatgen
data_NiAg2GeO4
_symmetry_space_group_name_H-M   'P 1'
_cell_length_a   5.18813247
_cell_length_b   6.07967856
_cell_length_c   7.18625900
_cell_angle_alpha   64.63295255
_cell_angle_beta   103.61339302
_cell_angle_gamma   90.03714035
_symmetry_Int_Tables_number   1
_chemical_formula_structural   NiAg2GeO4
_chemical_formula_sum   'Ni2 Ag4 Ge2 O8'
_cell_volume   197.76141996
_cell_formula_units_Z   2
loop_
 _symmetry_equiv_pos_site_id
 _symmetry_equiv_pos_as_xyz
  1  'x, y, z'
loop_
 _atom_site_type_symbol
 _atom_site_label
 _atom_site_symmetry_multiplicity
 _atom_site_fract_x
 _atom_site_fract_y
 _atom_site_fract_z
 _atom_site_occupancy
  Ni  Ni0  1  0.500079  0.251524  0.500191  1
  Ni  Ni1  1  0.999798  0.498390  0.499792  1
  Ag  Ag2  1  0.002597  0.998838  0.999881  1
  Ag  Ag3  1  0.502608  0.251408  0.999833  1
  Ag  Ag4  1  0.997465  0.498614  0.000224  1
  Ag  Ag5  1  0.497334  0.751187  0.000094  1
  Ge  Ge6  1  0.499924  0.745664  0.499611  1
  Ge  Ge7  1  0.000169  0.004386  0.500380  1
  O  O8  1  0.877178  0.686015  0.658634  1
  O  O9  1  0.377011  0.903073  0.658933  1
  O  O10  1  0.901245  0.149191  0.663653  1
  O  O11  1  0.401827  0.435438  0.663217  1
  O  O12  1  0.123215  0.847424  0.340937  1
  O  O13  1  0.623046  0.063787  0.341272  1
  O  O14  1  0.098242  0.314760  0.336916  1
  O  O15  1  0.598264  0.600304  0.336432  1
