# generated using pymatgen
data_Tm3Lu17(Bi5Au)2
_symmetry_space_group_name_H-M   'P 1'
_cell_length_a   8.03867414
_cell_length_b   9.34381600
_cell_length_c   11.80163179
_cell_angle_alpha   90.00000000
_cell_angle_beta   89.98973947
_cell_angle_gamma   90.00000000
_symmetry_Int_Tables_number   1
_chemical_formula_structural   Tm3Lu17(Bi5Au)2
_chemical_formula_sum   'Tm3 Lu17 Bi10 Au2'
_cell_volume   886.44287889
_cell_formula_units_Z   1
loop_
 _symmetry_equiv_pos_site_id
 _symmetry_equiv_pos_as_xyz
  1  'x, y, z'
loop_
 _atom_site_type_symbol
 _atom_site_label
 _atom_site_symmetry_multiplicity
 _atom_site_fract_x
 _atom_site_fract_y
 _atom_site_fract_z
 _atom_site_occupancy
  Tm  Tm0  1  0.811086  0.750000  0.217770  1
  Tm  Tm1  1  0.311162  0.750000  0.282285  1
  Tm  Tm2  1  0.675277  0.250000  0.710529  1
  Lu  Lu3  1  0.040541  0.250000  0.508235  1
  Lu  Lu4  1  0.983012  0.750000  0.490981  1
  Lu  Lu5  1  0.482823  0.750000  0.008972  1
  Lu  Lu6  1  0.540352  0.250000  0.991836  1
  Lu  Lu7  1  0.354300  0.250000  0.296884  1
  Lu  Lu8  1  0.651985  0.750000  0.718795  1
  Lu  Lu9  1  0.151785  0.750000  0.781275  1
  Lu  Lu10  1  0.854362  0.250000  0.203030  1
  Lu  Lu11  1  0.175169  0.250000  0.789942  1
  Lu  Lu12  1  0.184822  0.072766  0.056378  1
  Lu  Lu13  1  0.810037  0.952932  0.940805  1
  Lu  Lu14  1  0.310262  0.953106  0.559325  1
  Lu  Lu15  1  0.810037  0.547068  0.940805  1
  Lu  Lu16  1  0.685001  0.072661  0.443294  1
  Lu  Lu17  1  0.184822  0.427234  0.056378  1
  Lu  Lu18  1  0.685001  0.427339  0.443294  1
  Lu  Lu19  1  0.310262  0.546894  0.559325  1
  Bi  Bi20  1  0.596635  0.750000  0.459333  1
  Bi  Bi21  1  0.096631  0.750000  0.040740  1
  Bi  Bi22  1  0.058164  0.002416  0.323421  1
  Bi  Bi23  1  0.936899  0.997183  0.675904  1
  Bi  Bi24  1  0.436205  0.997254  0.824169  1
  Bi  Bi25  1  0.936899  0.502817  0.675904  1
  Bi  Bi26  1  0.558093  0.002360  0.176609  1
  Bi  Bi27  1  0.058164  0.497584  0.323421  1
  Bi  Bi28  1  0.558093  0.497640  0.176609  1
  Bi  Bi29  1  0.436205  0.502746  0.824169  1
  Au  Au30  1  0.407525  0.250000  0.536940  1
  Au  Au31  1  0.908387  0.250000  0.962646  1
