# generated using pymatgen
data_Pr6SiHg7
_symmetry_space_group_name_H-M   'P 1'
_cell_length_a   8.52761704
_cell_length_b   8.52761698
_cell_length_c   8.52761700
_cell_angle_alpha   113.87649068
_cell_angle_beta   113.87648315
_cell_angle_gamma   113.87647538
_symmetry_Int_Tables_number   1
_chemical_formula_structural   Pr6SiHg7
_chemical_formula_sum   'Pr6 Si1 Hg7'
_cell_volume   380.18718123
_cell_formula_units_Z   1
loop_
 _symmetry_equiv_pos_site_id
 _symmetry_equiv_pos_as_xyz
  1  'x, y, z'
loop_
 _atom_site_type_symbol
 _atom_site_label
 _atom_site_symmetry_multiplicity
 _atom_site_fract_x
 _atom_site_fract_y
 _atom_site_fract_z
 _atom_site_occupancy
  Pr  Pr0  1  0.012874  0.378581  0.260217  1
  Pr  Pr1  1  0.378581  0.260217  0.012874  1
  Pr  Pr2  1  0.739783  0.987126  0.621419  1
  Pr  Pr3  1  0.260217  0.012874  0.378581  1
  Pr  Pr4  1  0.621419  0.739783  0.987126  1
  Pr  Pr5  1  0.987126  0.621419  0.739783  1
  Si  Si6  1  0.000000  0.000000  0.000000  1
  Hg  Hg7  1  0.500000  0.500000  0.500000  1
  Hg  Hg8  1  0.423374  0.913725  0.751323  1
  Hg  Hg9  1  0.913725  0.751323  0.423374  1
  Hg  Hg10  1  0.248677  0.576626  0.086275  1
  Hg  Hg11  1  0.751323  0.423374  0.913725  1
  Hg  Hg12  1  0.086275  0.248677  0.576626  1
  Hg  Hg13  1  0.576626  0.086275  0.248677  1
