# generated using pymatgen
data_Pu2NpRu3
_symmetry_space_group_name_H-M   'P 1'
_cell_length_a   5.76272331
_cell_length_b   5.20864295
_cell_length_c   5.76272500
_cell_angle_alpha   56.41394501
_cell_angle_beta   59.99998453
_cell_angle_gamma   56.41395856
_symmetry_Int_Tables_number   1
_chemical_formula_structural   Pu2NpRu3
_chemical_formula_sum   'Pu2 Np1 Ru3'
_cell_volume   115.25585827
_cell_formula_units_Z   1
loop_
 _symmetry_equiv_pos_site_id
 _symmetry_equiv_pos_as_xyz
  1  'x, y, z'
loop_
 _atom_site_type_symbol
 _atom_site_label
 _atom_site_symmetry_multiplicity
 _atom_site_fract_x
 _atom_site_fract_y
 _atom_site_fract_z
 _atom_site_occupancy
  Pu  Pu0  1  0.743472  0.769583  0.743472  1
  Pu  Pu1  1  0.506528  0.480417  0.506528  1
  Np  Np2  1  0.125000  0.625000  0.125000  1
  Ru  Ru3  1  0.125000  0.125000  0.625000  1
  Ru  Ru4  1  0.125000  0.125000  0.125000  1
  Ru  Ru5  1  0.625000  0.125000  0.125000  1
