# generated using pymatgen
data_NdDyBeCoSi4
_symmetry_space_group_name_H-M   'P 1'
_cell_length_a   8.49256924
_cell_length_b   8.49256867
_cell_length_c   3.98238900
_cell_angle_alpha   90.00000000
_cell_angle_beta   90.00000000
_cell_angle_gamma   152.16330734
_symmetry_Int_Tables_number   1
_chemical_formula_structural   NdDyBeCoSi4
_chemical_formula_sum   'Nd1 Dy1 Be1 Co1 Si4'
_cell_volume   134.12046410
_cell_formula_units_Z   1
loop_
 _symmetry_equiv_pos_site_id
 _symmetry_equiv_pos_as_xyz
  1  'x, y, z'
loop_
 _atom_site_type_symbol
 _atom_site_label
 _atom_site_symmetry_multiplicity
 _atom_site_fract_x
 _atom_site_fract_y
 _atom_site_fract_z
 _atom_site_occupancy
  Nd  Nd0  1  0.887885  0.112115  0.750000  1
  Dy  Dy1  1  0.102317  0.897683  0.250000  1
  Be  Be2  1  0.327080  0.672920  0.250000  1
  Co  Co3  1  0.682033  0.317967  0.750000  1
  Si  Si4  1  0.244481  0.755519  0.750000  1
  Si  Si5  1  0.746459  0.253541  0.250000  1
  Si  Si6  1  0.546105  0.453895  0.750000  1
  Si  Si7  1  0.463639  0.536361  0.250000  1
