# generated using pymatgen
data_Ho3TmAl18CuRh5
_symmetry_space_group_name_H-M   'P 1'
_cell_length_a   7.55783021
_cell_length_b   7.55817218
_cell_length_c   9.42319906
_cell_angle_alpha   90.06177631
_cell_angle_beta   90.07836960
_cell_angle_gamma   119.56081643
_symmetry_Int_Tables_number   1
_chemical_formula_structural   Ho3TmAl18CuRh5
_chemical_formula_sum   'Ho3 Tm1 Al18 Cu1 Rh5'
_cell_volume   468.21641115
_cell_formula_units_Z   1
loop_
 _symmetry_equiv_pos_site_id
 _symmetry_equiv_pos_as_xyz
  1  'x, y, z'
loop_
 _atom_site_type_symbol
 _atom_site_label
 _atom_site_symmetry_multiplicity
 _atom_site_fract_x
 _atom_site_fract_y
 _atom_site_fract_z
 _atom_site_occupancy
  Ho  Ho0  1  0.995017  0.672909  0.749765  1
  Ho  Ho1  1  0.005158  0.327034  0.250221  1
  Ho  Ho2  1  0.672957  0.995022  0.749795  1
  Tm  Tm3  1  0.327111  0.005060  0.250175  1
  Al  Al4  1  0.129312  0.129312  0.751241  1
  Al  Al5  1  0.870676  0.870509  0.248459  1
  Al  Al6  1  0.000530  0.338617  0.577516  1
  Al  Al7  1  0.999573  0.661503  0.422559  1
  Al  Al8  1  0.000638  0.665137  0.074634  1
  Al  Al9  1  0.335184  0.999709  0.925464  1
  Al  Al10  1  0.999716  0.335187  0.925338  1
  Al  Al11  1  0.664694  0.000412  0.074631  1
  Al  Al12  1  0.661148  0.999392  0.422551  1
  Al  Al13  1  0.338631  0.000522  0.577470  1
  Al  Al14  1  0.332837  0.332630  0.050408  1
  Al  Al15  1  0.667308  0.667303  0.949399  1
  Al  Al16  1  0.664472  0.664472  0.552349  1
  Al  Al17  1  0.335491  0.335300  0.447952  1
  Al  Al18  1  0.339647  0.550555  0.750536  1
  Al  Al19  1  0.660265  0.449240  0.249542  1
  Al  Al20  1  0.550574  0.339701  0.750550  1
  Al  Al21  1  0.449410  0.660440  0.249545  1
  Cu  Cu22  1  0.999633  0.999812  0.499708  1
  Rh  Rh23  1  0.671927  0.327777  0.499993  1
  Rh  Rh24  1  0.327881  0.672199  0.499988  1
  Rh  Rh25  1  0.328041  0.672223  0.000082  1
  Rh  Rh26  1  0.672023  0.327948  0.000088  1
  Rh  Rh27  1  0.000149  0.000078  0.000039  1
