# generated using pymatgen
data_La16MgIn3OsRh3
_symmetry_space_group_name_H-M   'P 1'
_cell_length_a   10.14962202
_cell_length_b   10.18175924
_cell_length_c   10.18687447
_cell_angle_alpha   59.54255687
_cell_angle_beta   59.56741011
_cell_angle_gamma   59.60857922
_symmetry_Int_Tables_number   1
_chemical_formula_structural   La16MgIn3OsRh3
_chemical_formula_sum   'La16 Mg1 In3 Os1 Rh3'
_cell_volume   737.15807935
_cell_formula_units_Z   1
loop_
 _symmetry_equiv_pos_site_id
 _symmetry_equiv_pos_as_xyz
  1  'x, y, z'
loop_
 _atom_site_type_symbol
 _atom_site_label
 _atom_site_symmetry_multiplicity
 _atom_site_fract_x
 _atom_site_fract_y
 _atom_site_fract_z
 _atom_site_occupancy
  La  La0  1  0.347631  0.346153  0.346208  1
  La  La1  1  0.348201  0.346232  0.957523  1
  La  La2  1  0.348338  0.957300  0.346243  1
  La  La3  1  0.956544  0.347122  0.347019  1
  La  La4  1  0.811701  0.191273  0.191281  1
  La  La5  1  0.186920  0.811323  0.811192  1
  La  La6  1  0.187732  0.814336  0.188655  1
  La  La7  1  0.805353  0.193957  0.806882  1
  La  La8  1  0.187722  0.188558  0.814479  1
  La  La9  1  0.805303  0.806963  0.194041  1
  La  La10  1  0.940699  0.562419  0.562233  1
  La  La11  1  0.557392  0.940416  0.940411  1
  La  La12  1  0.561763  0.940335  0.561988  1
  La  La13  1  0.939358  0.559278  0.939386  1
  La  La14  1  0.561781  0.562125  0.940252  1
  La  La15  1  0.939382  0.939536  0.559132  1
  Mg  Mg16  1  0.275728  0.573608  0.573915  1
  In  In17  1  0.580231  0.579915  0.579830  1
  In  In18  1  0.578809  0.580265  0.259712  1
  In  In19  1  0.578774  0.259664  0.580313  1
  Os  Os20  1  0.140801  0.138689  0.138767  1
  Rh  Rh21  1  0.141186  0.139447  0.578735  1
  Rh  Rh22  1  0.141162  0.578940  0.139692  1
  Rh  Rh23  1  0.577486  0.142147  0.142110  1
