# generated using pymatgen
data_Y11TmTe6
_symmetry_space_group_name_H-M   'P 1'
_cell_length_a   4.08574000
_cell_length_b   11.54696738
_cell_length_c   22.23185300
_cell_angle_alpha   89.98527782
_cell_angle_beta   90.00000000
_cell_angle_gamma   90.00000000
_symmetry_Int_Tables_number   1
_chemical_formula_structural   Y11TmTe6
_chemical_formula_sum   'Y22 Tm2 Te12'
_cell_volume   1048.85224771
_cell_formula_units_Z   2
loop_
 _symmetry_equiv_pos_site_id
 _symmetry_equiv_pos_as_xyz
  1  'x, y, z'
loop_
 _atom_site_type_symbol
 _atom_site_label
 _atom_site_symmetry_multiplicity
 _atom_site_fract_x
 _atom_site_fract_y
 _atom_site_fract_z
 _atom_site_occupancy
  Y  Y0  1  0.250000  0.151385  0.391883  1
  Y  Y1  1  0.750000  0.848615  0.608117  1
  Y  Y2  1  0.750000  0.651879  0.108978  1
  Y  Y3  1  0.250000  0.348121  0.891022  1
  Y  Y4  1  0.250000  0.456277  0.340048  1
  Y  Y5  1  0.750000  0.543723  0.659952  1
  Y  Y6  1  0.750000  0.956343  0.160188  1
  Y  Y7  1  0.250000  0.043657  0.839812  1
  Y  Y8  1  0.250000  0.734244  0.233634  1
  Y  Y9  1  0.750000  0.265756  0.766366  1
  Y  Y10  1  0.750000  0.234253  0.266666  1
  Y  Y11  1  0.250000  0.765747  0.733334  1
  Y  Y12  1  0.250000  0.115509  0.034429  1
  Y  Y13  1  0.750000  0.884491  0.965571  1
  Y  Y14  1  0.750000  0.615737  0.465668  1
  Y  Y15  1  0.250000  0.384263  0.534332  1
  Y  Y16  1  0.250000  0.414435  0.147078  1
  Y  Y17  1  0.750000  0.585565  0.852922  1
  Y  Y18  1  0.750000  0.914636  0.353718  1
  Y  Y19  1  0.250000  0.085364  0.646282  1
  Y  Y20  1  0.250000  0.613389  0.982763  1
  Y  Y21  1  0.750000  0.386611  0.017237  1
  Tm  Tm22  1  0.750000  0.111995  0.517238  1
  Tm  Tm23  1  0.250000  0.888005  0.482762  1
  Te  Te24  1  0.250000  0.850064  0.069150  1
  Te  Te25  1  0.750000  0.149936  0.930850  1
  Te  Te26  1  0.750000  0.349833  0.430886  1
  Te  Te27  1  0.250000  0.650167  0.569114  1
  Te  Te28  1  0.250000  0.712466  0.373282  1
  Te  Te29  1  0.750000  0.287534  0.626718  1
  Te  Te30  1  0.750000  0.212147  0.127069  1
  Te  Te31  1  0.250000  0.787853  0.872931  1
  Te  Te32  1  0.250000  0.020665  0.261189  1
  Te  Te33  1  0.750000  0.979335  0.738811  1
  Te  Te34  1  0.750000  0.520655  0.238919  1
  Te  Te35  1  0.250000  0.479345  0.761081  1
