# generated using pymatgen
data_Yb3Fe4(PO4)6
_symmetry_space_group_name_H-M   'P 1'
_cell_length_a   6.45134686
_cell_length_b   8.78416858
_cell_length_c   9.04970640
_cell_angle_alpha   91.06555006
_cell_angle_beta   107.31316172
_cell_angle_gamma   106.55820813
_symmetry_Int_Tables_number   1
_chemical_formula_structural   Yb3Fe4(PO4)6
_chemical_formula_sum   'Yb3 Fe4 P6 O24'
_cell_volume   466.29891858
_cell_formula_units_Z   1
loop_
 _symmetry_equiv_pos_site_id
 _symmetry_equiv_pos_as_xyz
  1  'x, y, z'
loop_
 _atom_site_type_symbol
 _atom_site_label
 _atom_site_symmetry_multiplicity
 _atom_site_fract_x
 _atom_site_fract_y
 _atom_site_fract_z
 _atom_site_occupancy
  Yb  Yb0  1  0.738485  0.742158  0.254908  1
  Yb  Yb1  1  0.000000  0.500000  0.500000  1
  Yb  Yb2  1  0.261515  0.257842  0.745092  1
  Fe  Fe3  1  0.135947  0.375239  0.073376  1
  Fe  Fe4  1  0.634136  0.069579  0.382739  1
  Fe  Fe5  1  0.365864  0.930421  0.617261  1
  Fe  Fe6  1  0.864053  0.624761  0.926624  1
  P  P7  1  0.641845  0.351077  0.141668  1
  P  P8  1  0.242675  0.721719  0.272147  1
  P  P9  1  0.133864  0.149312  0.360059  1
  P  P10  1  0.866136  0.850688  0.639941  1
  P  P11  1  0.757325  0.278281  0.727853  1
  P  P12  1  0.358155  0.648923  0.858332  1
  O  O13  1  0.821262  0.396774  0.051583  1
  O  O14  1  0.406509  0.340577  0.021489  1
  O  O15  1  0.632009  0.189727  0.206647  1
  O  O16  1  0.456835  0.851454  0.260817  1
  O  O17  1  0.024640  0.737593  0.149848  1
  O  O18  1  0.131731  0.201195  0.198376  1
  O  O19  1  0.713607  0.482318  0.276434  1
  O  O20  1  0.904017  0.016182  0.344294  1
  O  O21  1  0.275004  0.555493  0.250858  1
  O  O22  1  0.329087  0.067178  0.419464  1
  O  O23  1  0.830334  0.711196  0.522173  1
  O  O24  1  0.211871  0.741928  0.436021  1
  O  O25  1  0.788129  0.258072  0.563979  1
  O  O26  1  0.169666  0.288804  0.477827  1
  O  O27  1  0.670913  0.932822  0.580536  1
  O  O28  1  0.724996  0.444507  0.749142  1
  O  O29  1  0.095983  0.983818  0.655706  1
  O  O30  1  0.286393  0.517682  0.723566  1
  O  O31  1  0.868269  0.798805  0.801624  1
  O  O32  1  0.975360  0.262407  0.850152  1
  O  O33  1  0.543165  0.148546  0.739183  1
  O  O34  1  0.367991  0.810273  0.793353  1
  O  O35  1  0.593491  0.659423  0.978511  1
  O  O36  1  0.178738  0.603226  0.948417  1
