# generated using pymatgen
data_PrNd(In2I5)2
_symmetry_space_group_name_H-M   'P 1'
_cell_length_a   9.19070726
_cell_length_b   9.81225400
_cell_length_c   14.40402940
_cell_angle_alpha   90.00000000
_cell_angle_beta   90.02704615
_cell_angle_gamma   90.00000000
_symmetry_Int_Tables_number   1
_chemical_formula_structural   PrNd(In2I5)2
_chemical_formula_sum   'Pr2 Nd2 In8 I20'
_cell_volume   1298.97761105
_cell_formula_units_Z   2
loop_
 _symmetry_equiv_pos_site_id
 _symmetry_equiv_pos_as_xyz
  1  'x, y, z'
loop_
 _atom_site_type_symbol
 _atom_site_label
 _atom_site_symmetry_multiplicity
 _atom_site_fract_x
 _atom_site_fract_y
 _atom_site_fract_z
 _atom_site_occupancy
  Pr  Pr0  1  0.420594  0.250000  0.994119  1
  Pr  Pr1  1  0.579406  0.750000  0.005881  1
  Nd  Nd2  1  0.920708  0.750000  0.505807  1
  Nd  Nd3  1  0.079292  0.250000  0.494193  1
  In  In4  1  0.950811  0.004461  0.826861  1
  In  In5  1  0.049189  0.995539  0.173139  1
  In  In6  1  0.450807  0.995539  0.673122  1
  In  In7  1  0.049189  0.504461  0.173139  1
  In  In8  1  0.549193  0.004461  0.326878  1
  In  In9  1  0.950811  0.495539  0.826861  1
  In  In10  1  0.549193  0.495539  0.326878  1
  In  In11  1  0.450807  0.504461  0.673122  1
  I  I12  1  0.128550  0.750000  0.684432  1
  I  I13  1  0.871450  0.250000  0.315568  1
  I  I14  1  0.629033  0.250000  0.815191  1
  I  I15  1  0.370967  0.750000  0.184809  1
  I  I16  1  0.831188  0.045216  0.579761  1
  I  I17  1  0.168812  0.954784  0.420239  1
  I  I18  1  0.330633  0.954521  0.919932  1
  I  I19  1  0.168812  0.545216  0.420239  1
  I  I20  1  0.669367  0.045479  0.080068  1
  I  I21  1  0.831188  0.454784  0.579761  1
  I  I22  1  0.669367  0.454521  0.080068  1
  I  I23  1  0.330633  0.545479  0.919932  1
  I  I24  1  0.567434  0.750000  0.505828  1
  I  I25  1  0.432566  0.250000  0.494172  1
  I  I26  1  0.066819  0.250000  0.994179  1
  I  I27  1  0.933181  0.750000  0.005821  1
  I  I28  1  0.665380  0.750000  0.790894  1
  I  I29  1  0.334620  0.250000  0.209106  1
  I  I30  1  0.165210  0.250000  0.708667  1
  I  I31  1  0.834790  0.750000  0.291333  1
