# generated using pymatgen
data_PaSiI
_symmetry_space_group_name_H-M   'P 1'
_cell_length_a   4.11545300
_cell_length_b   4.11545288
_cell_length_c   11.58863300
_cell_angle_alpha   90.00000000
_cell_angle_beta   90.00000000
_cell_angle_gamma   119.99999290
_symmetry_Int_Tables_number   1
_chemical_formula_structural   PaSiI
_chemical_formula_sum   'Pa2 Si2 I2'
_cell_volume   169.98012817
_cell_formula_units_Z   2
loop_
 _symmetry_equiv_pos_site_id
 _symmetry_equiv_pos_as_xyz
  1  'x, y, z'
loop_
 _atom_site_type_symbol
 _atom_site_label
 _atom_site_symmetry_multiplicity
 _atom_site_fract_x
 _atom_site_fract_y
 _atom_site_fract_z
 _atom_site_occupancy
  Pa  Pa0  1  0.000000  0.000000  0.849336  1
  Pa  Pa1  1  0.000000  0.000000  0.150664  1
  Si  Si2  1  0.333333  0.666667  0.998289  1
  Si  Si3  1  0.666667  0.333333  0.001711  1
  I  I4  1  0.333333  0.666667  0.341370  1
  I  I5  1  0.666667  0.333333  0.658630  1
