# generated using pymatgen
data_Gd2CdS5
_symmetry_space_group_name_H-M   'P 1'
_cell_length_a   11.87159829
_cell_length_b   10.53236697
_cell_length_c   19.44839762
_cell_angle_alpha   78.50062796
_cell_angle_beta   116.00545532
_cell_angle_gamma   106.24204692
_symmetry_Int_Tables_number   1
_chemical_formula_structural   Gd2CdS5
_chemical_formula_sum   'Gd2 Cd1 S5'
_cell_volume   2090.00260285
_cell_formula_units_Z   1
loop_
 _symmetry_equiv_pos_site_id
 _symmetry_equiv_pos_as_xyz
  1  'x, y, z'
loop_
 _atom_site_type_symbol
 _atom_site_label
 _atom_site_symmetry_multiplicity
 _atom_site_fract_x
 _atom_site_fract_y
 _atom_site_fract_z
 _atom_site_occupancy
  Gd  Gd0  1  0.389938  0.380400  0.151467  1
  Gd  Gd1  1  0.970525  0.535700  0.975562  1
  Cd  Cd2  1  0.076597  0.532392  0.265626  1
  S  S3  1  0.341711  0.509250  0.534165  1
  S  S4  1  0.606527  0.372070  0.452927  1
  S  S5  1  0.326813  0.968456  0.573364  1
  S  S6  1  0.211374  0.144202  0.747709  1
  S  S7  1  0.230630  0.809697  0.763462  1
