# generated using pymatgen
data_Tb10(BiPb)3
_symmetry_space_group_name_H-M   'P 1'
_cell_length_a   9.18058800
_cell_length_b   9.18058763
_cell_length_c   6.52104200
_cell_angle_alpha   90.00000000
_cell_angle_beta   90.00000000
_cell_angle_gamma   120.00000134
_symmetry_Int_Tables_number   1
_chemical_formula_structural   Tb10(BiPb)3
_chemical_formula_sum   'Tb10 Bi3 Pb3'
_cell_volume   475.97988674
_cell_formula_units_Z   1
loop_
 _symmetry_equiv_pos_site_id
 _symmetry_equiv_pos_as_xyz
  1  'x, y, z'
loop_
 _atom_site_type_symbol
 _atom_site_label
 _atom_site_symmetry_multiplicity
 _atom_site_fract_x
 _atom_site_fract_y
 _atom_site_fract_z
 _atom_site_occupancy
  Tb  Tb0  1  0.666667  0.333333  0.002504  1
  Tb  Tb1  1  0.333333  0.666667  0.002504  1
  Tb  Tb2  1  0.333333  0.666667  0.497496  1
  Tb  Tb3  1  0.666667  0.333333  0.497496  1
  Tb  Tb4  1  0.761771  0.761771  0.750000  1
  Tb  Tb5  1  0.238229  0.000000  0.750000  1
  Tb  Tb6  1  0.000000  0.238229  0.750000  1
  Tb  Tb7  1  0.238707  0.238707  0.250000  1
  Tb  Tb8  1  0.761293  0.000000  0.250000  1
  Tb  Tb9  1  0.000000  0.761293  0.250000  1
  Bi  Bi10  1  0.393602  0.393602  0.750000  1
  Bi  Bi11  1  0.606398  0.000000  0.750000  1
  Bi  Bi12  1  0.000000  0.606398  0.750000  1
  Pb  Pb13  1  0.606441  0.606441  0.250000  1
  Pb  Pb14  1  0.393559  0.000000  0.250000  1
  Pb  Pb15  1  0.000000  0.393559  0.250000  1
