# generated using pymatgen
data_Tm4Si3Pt
_symmetry_space_group_name_H-M   'P 1'
_cell_length_a   3.87833100
_cell_length_b   4.15432100
_cell_length_c   10.55829500
_cell_angle_alpha   90.00000000
_cell_angle_beta   90.00000000
_cell_angle_gamma   90.00000000
_symmetry_Int_Tables_number   1
_chemical_formula_structural   Tm4Si3Pt
_chemical_formula_sum   'Tm4 Si3 Pt1'
_cell_volume   170.11347438
_cell_formula_units_Z   1
loop_
 _symmetry_equiv_pos_site_id
 _symmetry_equiv_pos_as_xyz
  1  'x, y, z'
loop_
 _atom_site_type_symbol
 _atom_site_label
 _atom_site_symmetry_multiplicity
 _atom_site_fract_x
 _atom_site_fract_y
 _atom_site_fract_z
 _atom_site_occupancy
  Tm  Tm0  1  0.000000  0.000000  0.143264  1
  Tm  Tm1  1  0.000000  0.500000  0.641518  1
  Tm  Tm2  1  0.500000  0.500000  0.362098  1
  Tm  Tm3  1  0.500000  0.000000  0.858318  1
  Si  Si4  1  0.000000  0.500000  0.924947  1
  Si  Si5  1  0.500000  0.500000  0.069867  1
  Si  Si6  1  0.500000  0.000000  0.581516  1
  Pt  Pt7  1  0.000000  0.000000  0.418473  1
