# generated using pymatgen
data_CeNd7(Lu3Sn4)4
_symmetry_space_group_name_H-M   'P 1'
_cell_length_a   8.00036237
_cell_length_b   8.20931038
_cell_length_c   15.40133900
_cell_angle_alpha   90.00144473
_cell_angle_beta   89.98261152
_cell_angle_gamma   89.96682053
_symmetry_Int_Tables_number   1
_chemical_formula_structural   CeNd7(Lu3Sn4)4
_chemical_formula_sum   'Ce1 Nd7 Lu12 Sn16'
_cell_volume   1011.52057615
_cell_formula_units_Z   1
loop_
 _symmetry_equiv_pos_site_id
 _symmetry_equiv_pos_as_xyz
  1  'x, y, z'
loop_
 _atom_site_type_symbol
 _atom_site_label
 _atom_site_symmetry_multiplicity
 _atom_site_fract_x
 _atom_site_fract_y
 _atom_site_fract_z
 _atom_site_occupancy
  Ce  Ce0  1  0.009670  0.176209  0.907364  1
  Nd  Nd1  1  0.509696  0.322113  0.904235  1
  Nd  Nd2  1  0.007555  0.176987  0.596303  1
  Nd  Nd3  1  0.491504  0.676508  0.403634  1
  Nd  Nd4  1  0.992103  0.825457  0.094560  1
  Nd  Nd5  1  0.492357  0.677000  0.094761  1
  Nd  Nd6  1  0.991705  0.823374  0.403590  1
  Nd  Nd7  1  0.508646  0.323606  0.596847  1
  Lu  Lu8  1  0.346753  0.835898  0.876015  1
  Lu  Lu9  1  0.847605  0.664779  0.626106  1
  Lu  Lu10  1  0.652418  0.165199  0.374615  1
  Lu  Lu11  1  0.152193  0.333955  0.123972  1
  Lu  Lu12  1  0.651881  0.163859  0.124211  1
  Lu  Lu13  1  0.152780  0.335527  0.374473  1
  Lu  Lu14  1  0.345642  0.835808  0.625351  1
  Lu  Lu15  1  0.846636  0.664296  0.874853  1
  Lu  Lu16  1  0.180297  0.501610  0.750829  1
  Lu  Lu17  1  0.680639  0.998024  0.750719  1
  Lu  Lu18  1  0.819068  0.497674  0.249253  1
  Lu  Lu19  1  0.319047  0.002261  0.249160  1
  Sn  Sn20  1  0.313965  0.042898  0.039941  1
  Sn  Sn21  1  0.816198  0.458649  0.458741  1
  Sn  Sn22  1  0.683038  0.958029  0.541436  1
  Sn  Sn23  1  0.182514  0.537305  0.957310  1
  Sn  Sn24  1  0.689960  0.961987  0.957155  1
  Sn  Sn25  1  0.183489  0.541865  0.541420  1
  Sn  Sn26  1  0.316541  0.042084  0.458516  1
  Sn  Sn27  1  0.817768  0.456200  0.039921  1
  Sn  Sn28  1  0.544136  0.622882  0.750194  1
  Sn  Sn29  1  0.044013  0.880654  0.752349  1
  Sn  Sn30  1  0.454805  0.376944  0.249057  1
  Sn  Sn31  1  0.954445  0.123290  0.249810  1
  Sn  Sn32  1  0.311567  0.144972  0.751621  1
  Sn  Sn33  1  0.818712  0.352087  0.753440  1
  Sn  Sn34  1  0.685321  0.855482  0.249316  1
  Sn  Sn35  1  0.185330  0.644532  0.248923  1
