# generated using pymatgen
data_La8Si15Au
_symmetry_space_group_name_H-M   'P 1'
_cell_length_a   8.29368300
_cell_length_b   8.29368447
_cell_length_c   8.77034000
_cell_angle_alpha   90.00000000
_cell_angle_beta   90.00000000
_cell_angle_gamma   120.00000610
_symmetry_Int_Tables_number   1
_chemical_formula_structural   La8Si15Au
_chemical_formula_sum   'La8 Si15 Au1'
_cell_volume   522.44668222
_cell_formula_units_Z   1
loop_
 _symmetry_equiv_pos_site_id
 _symmetry_equiv_pos_as_xyz
  1  'x, y, z'
loop_
 _atom_site_type_symbol
 _atom_site_label
 _atom_site_symmetry_multiplicity
 _atom_site_fract_x
 _atom_site_fract_y
 _atom_site_fract_z
 _atom_site_occupancy
  La  La0  1  0.497145  0.502855  0.743417  1
  La  La1  1  0.497341  0.502659  0.256574  1
  La  La2  1  0.005710  0.502855  0.743417  1
  La  La3  1  0.005320  0.502659  0.256574  1
  La  La4  1  0.497145  0.994290  0.743417  1
  La  La5  1  0.497341  0.994680  0.256574  1
  La  La6  1  0.000000  0.000000  0.747892  1
  La  La7  1  0.000000  0.000000  0.252147  1
  Si  Si8  1  0.836433  0.163567  0.000080  1
  Si  Si9  1  0.166064  0.833936  0.999979  1
  Si  Si10  1  0.327135  0.163567  0.000080  1
  Si  Si11  1  0.166860  0.833140  0.499796  1
  Si  Si12  1  0.667870  0.833936  0.999979  1
  Si  Si13  1  0.833454  0.166546  0.500230  1
  Si  Si14  1  0.836433  0.672865  0.000080  1
  Si  Si15  1  0.666281  0.833140  0.499796  1
  Si  Si16  1  0.166064  0.332130  0.999979  1
  Si  Si17  1  0.333092  0.166546  0.500230  1
  Si  Si18  1  0.166860  0.333719  0.499796  1
  Si  Si19  1  0.833454  0.666908  0.500230  1
  Si  Si20  1  0.333333  0.666667  0.000201  1
  Si  Si21  1  0.333333  0.666667  0.499760  1
  Si  Si22  1  0.666667  0.333333  0.500133  1
  Au  Au23  1  0.666667  0.333333  0.999645  1
