# generated using pymatgen
data_La15NdCd4CoPt3
_symmetry_space_group_name_H-M   'P 1'
_cell_length_a   10.12690284
_cell_length_b   10.12690188
_cell_length_c   10.12972232
_cell_angle_alpha   60.06107378
_cell_angle_beta   60.06107698
_cell_angle_gamma   60.02321009
_symmetry_Int_Tables_number   1
_chemical_formula_structural   La15NdCd4CoPt3
_chemical_formula_sum   'La15 Nd1 Cd4 Co1 Pt3'
_cell_volume   735.38091548
_cell_formula_units_Z   1
loop_
 _symmetry_equiv_pos_site_id
 _symmetry_equiv_pos_as_xyz
  1  'x, y, z'
loop_
 _atom_site_type_symbol
 _atom_site_label
 _atom_site_symmetry_multiplicity
 _atom_site_fract_x
 _atom_site_fract_y
 _atom_site_fract_z
 _atom_site_occupancy
  La  La0  1  0.350119  0.350119  0.350243  1
  La  La1  1  0.343971  0.343971  0.955383  1
  La  La2  1  0.343322  0.955236  0.344310  1
  La  La3  1  0.955236  0.343322  0.344310  1
  La  La4  1  0.820971  0.189272  0.190023  1
  La  La5  1  0.191878  0.808034  0.807520  1
  La  La6  1  0.189272  0.820971  0.190023  1
  La  La7  1  0.808034  0.191878  0.807520  1
  La  La8  1  0.189655  0.189655  0.820599  1
  La  La9  1  0.807990  0.807990  0.192180  1
  La  La10  1  0.937850  0.563114  0.562266  1
  La  La11  1  0.563521  0.935515  0.935310  1
  La  La12  1  0.563114  0.937850  0.562266  1
  La  La13  1  0.935515  0.563521  0.935310  1
  La  La14  1  0.561907  0.561907  0.938464  1
  Nd  Nd15  1  0.935989  0.935989  0.562662  1
  Cd  Cd16  1  0.579474  0.579474  0.579424  1
  Cd  Cd17  1  0.580358  0.580358  0.259978  1
  Cd  Cd18  1  0.581025  0.259422  0.580287  1
  Cd  Cd19  1  0.259422  0.581025  0.580287  1
  Co  Co20  1  0.141694  0.141694  0.141854  1
  Pt  Pt21  1  0.143091  0.143091  0.573318  1
  Pt  Pt22  1  0.143113  0.573476  0.143229  1
  Pt  Pt23  1  0.573476  0.143113  0.143229  1
