# generated using pymatgen
data_Y3Lu2Tl3
_symmetry_space_group_name_H-M   'P 1'
_cell_length_a   8.97274100
_cell_length_b   8.97274156
_cell_length_c   6.58433900
_cell_angle_alpha   90.00000000
_cell_angle_beta   90.00000000
_cell_angle_gamma   120.00000164
_symmetry_Int_Tables_number   1
_chemical_formula_structural   Y3Lu2Tl3
_chemical_formula_sum   'Y6 Lu4 Tl6'
_cell_volume   459.08499476
_cell_formula_units_Z   2
loop_
 _symmetry_equiv_pos_site_id
 _symmetry_equiv_pos_as_xyz
  1  'x, y, z'
loop_
 _atom_site_type_symbol
 _atom_site_label
 _atom_site_symmetry_multiplicity
 _atom_site_fract_x
 _atom_site_fract_y
 _atom_site_fract_z
 _atom_site_occupancy
  Y  Y0  1  0.763462  0.763462  0.750000  1
  Y  Y1  1  0.236538  0.000000  0.750000  1
  Y  Y2  1  0.000000  0.236538  0.750000  1
  Y  Y3  1  0.236538  0.236538  0.250000  1
  Y  Y4  1  0.763462  0.000000  0.250000  1
  Y  Y5  1  0.000000  0.763462  0.250000  1
  Lu  Lu6  1  0.666667  0.333333  0.000000  1
  Lu  Lu7  1  0.333333  0.666667  0.000000  1
  Lu  Lu8  1  0.333333  0.666667  0.500000  1
  Lu  Lu9  1  0.666667  0.333333  0.500000  1
  Tl  Tl10  1  0.403378  0.403378  0.750000  1
  Tl  Tl11  1  0.596622  0.000000  0.750000  1
  Tl  Tl12  1  0.000000  0.596622  0.750000  1
  Tl  Tl13  1  0.596622  0.596622  0.250000  1
  Tl  Tl14  1  0.403378  0.000000  0.250000  1
  Tl  Tl15  1  0.000000  0.403378  0.250000  1
