# generated using pymatgen
data_Tb3Dy9Tc3Ni
_symmetry_space_group_name_H-M   'P 1'
_cell_length_a   6.29119703
_cell_length_b   7.32216920
_cell_length_c   9.24153300
_cell_angle_alpha   90.00000000
_cell_angle_beta   90.00000000
_cell_angle_gamma   90.18576347
_symmetry_Int_Tables_number   1
_chemical_formula_structural   Tb3Dy9Tc3Ni
_chemical_formula_sum   'Tb3 Dy9 Tc3 Ni1'
_cell_volume   425.71091271
_cell_formula_units_Z   1
loop_
 _symmetry_equiv_pos_site_id
 _symmetry_equiv_pos_as_xyz
  1  'x, y, z'
loop_
 _atom_site_type_symbol
 _atom_site_label
 _atom_site_symmetry_multiplicity
 _atom_site_fract_x
 _atom_site_fract_y
 _atom_site_fract_z
 _atom_site_occupancy
  Tb  Tb0  1  0.626430  0.041527  0.250000  1
  Tb  Tb1  1  0.141661  0.455752  0.750000  1
  Tb  Tb2  1  0.370728  0.956343  0.750000  1
  Dy  Dy3  1  0.327664  0.677275  0.067769  1
  Dy  Dy4  1  0.164283  0.177071  0.436567  1
  Dy  Dy5  1  0.668149  0.323874  0.563119  1
  Dy  Dy6  1  0.833564  0.823350  0.937677  1
  Dy  Dy7  1  0.668149  0.323874  0.936881  1
  Dy  Dy8  1  0.833564  0.823350  0.562323  1
  Dy  Dy9  1  0.327664  0.677275  0.432231  1
  Dy  Dy10  1  0.164283  0.177071  0.063433  1
  Dy  Dy11  1  0.869520  0.542200  0.250000  1
  Tc  Tc12  1  0.038829  0.887020  0.250000  1
  Tc  Tc13  1  0.459426  0.389245  0.250000  1
  Tc  Tc14  1  0.957239  0.111534  0.750000  1
  Ni  Ni15  1  0.548848  0.613237  0.750000  1
