# generated using pymatgen
data_Tb6YBI12
_symmetry_space_group_name_H-M   'P 1'
_cell_length_a   9.66268173
_cell_length_b   9.66268150
_cell_length_c   9.66268222
_cell_angle_alpha   107.70679796
_cell_angle_beta   107.70679319
_cell_angle_gamma   107.70679777
_symmetry_Int_Tables_number   1
_chemical_formula_structural   Tb6YBI12
_chemical_formula_sum   'Tb6 Y1 B1 I12'
_cell_volume   736.37735283
_cell_formula_units_Z   1
loop_
 _symmetry_equiv_pos_site_id
 _symmetry_equiv_pos_as_xyz
  1  'x, y, z'
loop_
 _atom_site_type_symbol
 _atom_site_label
 _atom_site_symmetry_multiplicity
 _atom_site_fract_x
 _atom_site_fract_y
 _atom_site_fract_z
 _atom_site_occupancy
  Tb  Tb0  1  0.030857  0.098523  0.292189  1
  Tb  Tb1  1  0.098523  0.292189  0.030857  1
  Tb  Tb2  1  0.292189  0.030857  0.098523  1
  Tb  Tb3  1  0.969143  0.901477  0.707811  1
  Tb  Tb4  1  0.901477  0.707811  0.969143  1
  Tb  Tb5  1  0.707811  0.969143  0.901477  1
  Y  Y6  1  0.500000  0.500000  0.500000  1
  B  B7  1  0.000000  0.000000  0.000000  1
  I  I8  1  0.152993  0.467866  0.387137  1
  I  I9  1  0.467866  0.387137  0.152993  1
  I  I10  1  0.387137  0.152993  0.467866  1
  I  I11  1  0.847007  0.532134  0.612863  1
  I  I12  1  0.532134  0.612863  0.847007  1
  I  I13  1  0.612863  0.847007  0.532134  1
  I  I14  1  0.684805  0.074502  0.226495  1
  I  I15  1  0.074502  0.226495  0.684805  1
  I  I16  1  0.226495  0.684805  0.074502  1
  I  I17  1  0.315195  0.925498  0.773505  1
  I  I18  1  0.925498  0.773505  0.315195  1
  I  I19  1  0.773505  0.315195  0.925498  1
