# generated using pymatgen
data_TbYMn2Co10P7
_symmetry_space_group_name_H-M   'P 1'
_cell_length_a   9.05132002
_cell_length_b   9.07403616
_cell_length_c   3.61005500
_cell_angle_alpha   90.00000000
_cell_angle_beta   90.00000000
_cell_angle_gamma   120.00880074
_symmetry_Int_Tables_number   1
_chemical_formula_structural   TbYMn2Co10P7
_chemical_formula_sum   'Tb1 Y1 Mn2 Co10 P7'
_cell_volume   256.75467191
_cell_formula_units_Z   1
loop_
 _symmetry_equiv_pos_site_id
 _symmetry_equiv_pos_as_xyz
  1  'x, y, z'
loop_
 _atom_site_type_symbol
 _atom_site_label
 _atom_site_symmetry_multiplicity
 _atom_site_fract_x
 _atom_site_fract_y
 _atom_site_fract_z
 _atom_site_occupancy
  Tb  Tb0  1  0.333502  0.667128  0.500000  1
  Y  Y1  1  0.668653  0.334042  0.000000  1
  Mn  Mn2  1  0.778980  0.899191  0.500000  1
  Mn  Mn3  1  0.120750  0.220252  0.500000  1
  Co  Co4  1  0.059897  0.631317  0.000000  1
  Co  Co5  1  0.568883  0.939764  0.000000  1
  Co  Co6  1  0.370244  0.430424  0.000000  1
  Co  Co7  1  0.274123  0.117071  0.000000  1
  Co  Co8  1  0.844431  0.725866  0.000000  1
  Co  Co9  1  0.883545  0.157880  0.000000  1
  Co  Co10  1  0.434146  0.049024  0.500000  1
  Co  Co11  1  0.615508  0.564047  0.500000  1
  Co  Co12  1  0.950011  0.386717  0.500000  1
  Co  Co13  1  0.094661  0.874454  0.500000  1
  P  P14  1  0.297503  0.888796  0.000000  1
  P  P15  1  0.589655  0.700896  0.000000  1
  P  P16  1  0.111359  0.412190  0.000000  1
  P  P17  1  0.407008  0.290497  0.500000  1
  P  P18  1  0.887485  0.598477  0.500000  1
  P  P19  1  0.710035  0.113302  0.500000  1
  P  P20  1  0.999620  0.998667  0.000000  1
