# generated using pymatgen
data_Tb7Pr3(In2Pd)4
_symmetry_space_group_name_H-M   'P 1'
_cell_length_a   3.69622900
_cell_length_b   8.23425496
_cell_length_c   18.51536364
_cell_angle_alpha   89.78928306
_cell_angle_beta   90.00000000
_cell_angle_gamma   90.00000000
_symmetry_Int_Tables_number   1
_chemical_formula_structural   Tb7Pr3(In2Pd)4
_chemical_formula_sum   'Tb7 Pr3 In8 Pd4'
_cell_volume   563.52409402
_cell_formula_units_Z   1
loop_
 _symmetry_equiv_pos_site_id
 _symmetry_equiv_pos_as_xyz
  1  'x, y, z'
loop_
 _atom_site_type_symbol
 _atom_site_label
 _atom_site_symmetry_multiplicity
 _atom_site_fract_x
 _atom_site_fract_y
 _atom_site_fract_z
 _atom_site_occupancy
  Tb  Tb0  1  0.500000  0.760268  0.217801  1
  Tb  Tb1  1  0.500000  0.260264  0.282298  1
  Tb  Tb2  1  0.500000  0.738890  0.717414  1
  Tb  Tb3  1  0.500000  0.121062  0.582989  1
  Tb  Tb4  1  0.500000  0.878319  0.415365  1
  Tb  Tb5  1  0.500000  0.378831  0.085412  1
  Tb  Tb6  1  0.500000  0.622793  0.917468  1
  Pr  Pr7  1  0.500000  0.238876  0.782950  1
  Pr  Pr8  1  0.500000  0.000397  0.000111  1
  Pr  Pr9  1  0.500000  0.499401  0.498765  1
  In  In10  1  0.000000  0.082105  0.153960  1
  In  In11  1  0.000000  0.911495  0.846449  1
  In  In12  1  0.000000  0.422502  0.651536  1
  In  In13  1  0.000000  0.582071  0.345996  1
  In  In14  1  0.000000  0.199161  0.431089  1
  In  In15  1  0.000000  0.799157  0.567661  1
  In  In16  1  0.000000  0.304371  0.934891  1
  In  In17  1  0.000000  0.699563  0.068990  1
  Pd  Pd18  1  0.000000  0.017940  0.693505  1
  Pd  Pd19  1  0.000000  0.974463  0.304141  1
  Pd  Pd20  1  0.000000  0.474768  0.196280  1
  Pd  Pd21  1  0.000000  0.533305  0.804929  1
