# generated using pymatgen
data_Dy2Y2HoBi3
_symmetry_space_group_name_H-M   'P 1'
_cell_length_a   8.26645000
_cell_length_b   9.52396000
_cell_length_c   12.09511800
_cell_angle_alpha   90.00000000
_cell_angle_beta   90.00000000
_cell_angle_gamma   90.00000000
_symmetry_Int_Tables_number   1
_chemical_formula_structural   Dy2Y2HoBi3
_chemical_formula_sum   'Dy8 Y8 Ho4 Bi12'
_cell_volume   952.24064698
_cell_formula_units_Z   4
loop_
 _symmetry_equiv_pos_site_id
 _symmetry_equiv_pos_as_xyz
  1  'x, y, z'
loop_
 _atom_site_type_symbol
 _atom_site_label
 _atom_site_symmetry_multiplicity
 _atom_site_fract_x
 _atom_site_fract_y
 _atom_site_fract_z
 _atom_site_occupancy
  Dy  Dy0  1  0.306218  0.436719  0.940082  1
  Dy  Dy1  1  0.806218  0.063281  0.559918  1
  Dy  Dy2  1  0.693782  0.936719  0.059918  1
  Dy  Dy3  1  0.193782  0.563281  0.440082  1
  Dy  Dy4  1  0.693782  0.563281  0.059918  1
  Dy  Dy5  1  0.193782  0.936719  0.440082  1
  Dy  Dy6  1  0.306218  0.063281  0.940082  1
  Dy  Dy7  1  0.806218  0.436719  0.559918  1
  Y  Y8  1  0.186230  0.750000  0.719028  1
  Y  Y9  1  0.686230  0.750000  0.780972  1
  Y  Y10  1  0.813770  0.250000  0.280972  1
  Y  Y11  1  0.313770  0.250000  0.219028  1
  Y  Y12  1  0.353803  0.750000  0.215211  1
  Y  Y13  1  0.853803  0.750000  0.284789  1
  Y  Y14  1  0.646197  0.250000  0.784789  1
  Y  Y15  1  0.146197  0.250000  0.715211  1
  Ho  Ho16  1  0.026165  0.750000  0.989019  1
  Ho  Ho17  1  0.526165  0.750000  0.510981  1
  Ho  Ho18  1  0.973835  0.250000  0.010981  1
  Ho  Ho19  1  0.473835  0.250000  0.489019  1
  Bi  Bi20  1  0.433643  0.003726  0.673517  1
  Bi  Bi21  1  0.933643  0.496274  0.826483  1
  Bi  Bi22  1  0.566357  0.503726  0.326483  1
  Bi  Bi23  1  0.066357  0.996274  0.173517  1
  Bi  Bi24  1  0.566357  0.996274  0.326483  1
  Bi  Bi25  1  0.066357  0.503726  0.173517  1
  Bi  Bi26  1  0.433643  0.496274  0.673517  1
  Bi  Bi27  1  0.933643  0.003726  0.826483  1
  Bi  Bi28  1  0.409397  0.750000  0.958135  1
  Bi  Bi29  1  0.909397  0.750000  0.541865  1
  Bi  Bi30  1  0.590603  0.250000  0.041865  1
  Bi  Bi31  1  0.090603  0.250000  0.458135  1
