# generated using pymatgen
data_La5Tb(In3Sn2)2
_symmetry_space_group_name_H-M   'P 1'
_cell_length_a   6.67169600
_cell_length_b   6.67169548
_cell_length_c   10.44367900
_cell_angle_alpha   90.00000000
_cell_angle_beta   90.00000000
_cell_angle_gamma   102.72783808
_symmetry_Int_Tables_number   1
_chemical_formula_structural   La5Tb(In3Sn2)2
_chemical_formula_sum   'La5 Tb1 In6 Sn4'
_cell_volume   453.44124937
_cell_formula_units_Z   1
loop_
 _symmetry_equiv_pos_site_id
 _symmetry_equiv_pos_as_xyz
  1  'x, y, z'
loop_
 _atom_site_type_symbol
 _atom_site_label
 _atom_site_symmetry_multiplicity
 _atom_site_fract_x
 _atom_site_fract_y
 _atom_site_fract_z
 _atom_site_occupancy
  La  La0  1  0.369641  0.369641  0.750000  1
  La  La1  1  0.207377  0.793727  0.499734  1
  La  La2  1  0.207377  0.793727  0.000266  1
  La  La3  1  0.793727  0.207377  0.499734  1
  La  La4  1  0.793727  0.207377  0.000266  1
  Tb  Tb5  1  0.633196  0.633196  0.250000  1
  In  In6  1  0.014759  0.014759  0.250000  1
  In  In7  1  0.980810  0.980810  0.750000  1
  In  In8  1  0.308563  0.308563  0.052199  1
  In  In9  1  0.693437  0.693437  0.955654  1
  In  In10  1  0.308563  0.308563  0.447801  1
  In  In11  1  0.693437  0.693437  0.544346  1
  Sn  Sn12  1  0.494752  0.068860  0.250000  1
  Sn  Sn13  1  0.924828  0.506945  0.750000  1
  Sn  Sn14  1  0.506945  0.924828  0.750000  1
  Sn  Sn15  1  0.068860  0.494752  0.250000  1
