# generated using pymatgen
data_Nd4ReB16W3
_symmetry_space_group_name_H-M   'P 1'
_cell_length_a   3.69316100
_cell_length_b   6.11697050
_cell_length_c   11.84987334
_cell_angle_alpha   90.02597205
_cell_angle_beta   90.00000000
_cell_angle_gamma   90.00000000
_symmetry_Int_Tables_number   1
_chemical_formula_structural   Nd4ReB16W3
_chemical_formula_sum   'Nd4 Re1 B16 W3'
_cell_volume   267.69994999
_cell_formula_units_Z   1
loop_
 _symmetry_equiv_pos_site_id
 _symmetry_equiv_pos_as_xyz
  1  'x, y, z'
loop_
 _atom_site_type_symbol
 _atom_site_label
 _atom_site_symmetry_multiplicity
 _atom_site_fract_x
 _atom_site_fract_y
 _atom_site_fract_z
 _atom_site_occupancy
  Nd  Nd0  1  0.000000  0.625183  0.349503  1
  Nd  Nd1  1  0.000000  0.375664  0.650673  1
  Nd  Nd2  1  0.000000  0.124896  0.150106  1
  Nd  Nd3  1  0.000000  0.875281  0.849538  1
  Re  Re4  1  0.000000  0.871457  0.584223  1
  B  B5  1  0.500000  0.782117  0.184842  1
  B  B6  1  0.500000  0.217065  0.814691  1
  B  B7  1  0.500000  0.281430  0.315941  1
  B  B8  1  0.500000  0.720658  0.682951  1
  B  B9  1  0.500000  0.862739  0.032361  1
  B  B10  1  0.500000  0.137012  0.966954  1
  B  B11  1  0.500000  0.361764  0.468588  1
  B  B12  1  0.500000  0.640065  0.533069  1
  B  B13  1  0.500000  0.886099  0.455316  1
  B  B14  1  0.500000  0.110809  0.547279  1
  B  B15  1  0.500000  0.387175  0.045501  1
  B  B16  1  0.500000  0.612463  0.953707  1
  B  B17  1  0.500000  0.974156  0.310198  1
  B  B18  1  0.500000  0.024149  0.689652  1
  B  B19  1  0.500000  0.474744  0.190760  1
  B  B20  1  0.500000  0.525907  0.808717  1
  W  W21  1  0.000000  0.627704  0.083731  1
  W  W22  1  0.000000  0.372232  0.915243  1
  W  W23  1  0.000000  0.129228  0.416456  1
