# generated using pymatgen
data_MnBe7Al3Cu
_symmetry_space_group_name_H-M   'P 1'
_cell_length_a   4.38856500
_cell_length_b   4.38856458
_cell_length_c   7.24445400
_cell_angle_alpha   90.00000000
_cell_angle_beta   90.00000000
_cell_angle_gamma   120.00001072
_symmetry_Int_Tables_number   1
_chemical_formula_structural   MnBe7Al3Cu
_chemical_formula_sum   'Mn1 Be7 Al3 Cu1'
_cell_volume   120.83180762
_cell_formula_units_Z   1
loop_
 _symmetry_equiv_pos_site_id
 _symmetry_equiv_pos_as_xyz
  1  'x, y, z'
loop_
 _atom_site_type_symbol
 _atom_site_label
 _atom_site_symmetry_multiplicity
 _atom_site_fract_x
 _atom_site_fract_y
 _atom_site_fract_z
 _atom_site_occupancy
  Mn  Mn0  1  0.333333  0.666667  0.447898  1
  Be  Be1  1  0.000000  0.000000  0.495839  1
  Be  Be2  1  0.834169  0.668338  0.263272  1
  Be  Be3  1  0.169619  0.830381  0.732987  1
  Be  Be4  1  0.660762  0.830381  0.732987  1
  Be  Be5  1  0.331662  0.165831  0.263272  1
  Be  Be6  1  0.834169  0.165831  0.263272  1
  Be  Be7  1  0.169619  0.339238  0.732987  1
  Al  Al8  1  0.333333  0.666667  0.092487  1
  Al  Al9  1  0.666667  0.333333  0.546020  1
  Al  Al10  1  0.666667  0.333333  0.936416  1
  Cu  Cu11  1  0.000000  0.000000  0.992563  1
