# generated using pymatgen
data_Eu5Ge2Pb
_symmetry_space_group_name_H-M   'P 1'
_cell_length_a   7.97939880
_cell_length_b   7.97939998
_cell_length_c   9.60813600
_cell_angle_alpha   114.53454145
_cell_angle_beta   114.53455322
_cell_angle_gamma   89.99999926
_symmetry_Int_Tables_number   1
_chemical_formula_structural   Eu5Ge2Pb
_chemical_formula_sum   'Eu10 Ge4 Pb2'
_cell_volume   495.16438549
_cell_formula_units_Z   2
loop_
 _symmetry_equiv_pos_site_id
 _symmetry_equiv_pos_as_xyz
  1  'x, y, z'
loop_
 _atom_site_type_symbol
 _atom_site_label
 _atom_site_symmetry_multiplicity
 _atom_site_fract_x
 _atom_site_fract_y
 _atom_site_fract_z
 _atom_site_occupancy
  Eu  Eu0  1  0.500000  0.500000  0.000000  1
  Eu  Eu1  1  0.000000  0.000000  0.000000  1
  Eu  Eu2  1  0.964418  0.812051  0.276469  1
  Eu  Eu3  1  0.312051  0.464418  0.276469  1
  Eu  Eu4  1  0.812051  0.312051  0.276469  1
  Eu  Eu5  1  0.464418  0.964418  0.276469  1
  Eu  Eu6  1  0.035582  0.187949  0.723531  1
  Eu  Eu7  1  0.687949  0.535582  0.723531  1
  Eu  Eu8  1  0.187949  0.687949  0.723531  1
  Eu  Eu9  1  0.535582  0.035582  0.723531  1
  Ge  Ge10  1  0.617147  0.882853  0.000000  1
  Ge  Ge11  1  0.382853  0.117147  0.000000  1
  Ge  Ge12  1  0.882853  0.382853  0.000000  1
  Ge  Ge13  1  0.117147  0.617147  0.000000  1
  Pb  Pb14  1  0.750000  0.750000  0.500000  1
  Pb  Pb15  1  0.250000  0.250000  0.500000  1
