# generated using pymatgen
data_Nd2Er18Si15Os
_symmetry_space_group_name_H-M   'P 1'
_cell_length_a   7.36362805
_cell_length_b   7.71366528
_cell_length_c   14.49491433
_cell_angle_alpha   89.74020381
_cell_angle_beta   90.00953642
_cell_angle_gamma   89.95597461
_symmetry_Int_Tables_number   1
_chemical_formula_structural   Nd2Er18Si15Os
_chemical_formula_sum   'Nd2 Er18 Si15 Os1'
_cell_volume   823.31056178
_cell_formula_units_Z   1
loop_
 _symmetry_equiv_pos_site_id
 _symmetry_equiv_pos_as_xyz
  1  'x, y, z'
loop_
 _atom_site_type_symbol
 _atom_site_label
 _atom_site_symmetry_multiplicity
 _atom_site_fract_x
 _atom_site_fract_y
 _atom_site_fract_z
 _atom_site_occupancy
  Nd  Nd0  1  0.522412  0.569452  0.342479  1
  Nd  Nd1  1  0.023871  0.428663  0.657553  1
  Er  Er2  1  0.806001  0.577080  0.877796  1
  Er  Er3  1  0.325413  0.432358  0.122863  1
  Er  Er4  1  0.182905  0.927945  0.373199  1
  Er  Er5  1  0.682108  0.069517  0.626427  1
  Er  Er6  1  0.183021  0.927582  0.628154  1
  Er  Er7  1  0.681582  0.069995  0.372232  1
  Er  Er8  1  0.808732  0.574191  0.123227  1
  Er  Er9  1  0.328119  0.437302  0.875819  1
  Er  Er10  1  0.643601  0.239686  0.999636  1
  Er  Er11  1  0.158445  0.761220  0.000465  1
  Er  Er12  1  0.350528  0.263045  0.499727  1
  Er  Er13  1  0.849472  0.734856  0.500107  1
  Er  Er14  1  0.478012  0.923157  0.849139  1
  Er  Er15  1  0.973651  0.066504  0.151509  1
  Er  Er16  1  0.476449  0.923650  0.150637  1
  Er  Er17  1  0.972120  0.067511  0.849059  1
  Er  Er18  1  0.528945  0.565255  0.652232  1
  Er  Er19  1  0.027312  0.433385  0.347297  1
  Si  Si20  1  0.017738  0.351088  0.999506  1
  Si  Si21  1  0.477032  0.859232  0.500804  1
  Si  Si22  1  0.979941  0.139585  0.499353  1
  Si  Si23  1  0.654764  0.275909  0.789441  1
  Si  Si24  1  0.148268  0.720800  0.210127  1
  Si  Si25  1  0.350840  0.216560  0.287348  1
  Si  Si26  1  0.848642  0.783246  0.712383  1
  Si  Si27  1  0.359935  0.218989  0.711087  1
  Si  Si28  1  0.856750  0.780708  0.289029  1
  Si  Si29  1  0.650456  0.269018  0.207548  1
  Si  Si30  1  0.142242  0.727417  0.792642  1
  Si  Si31  1  0.769545  0.884505  0.000592  1
  Si  Si32  1  0.259151  0.125155  0.999475  1
  Si  Si33  1  0.231178  0.624450  0.501573  1
  Si  Si34  1  0.732915  0.375141  0.499079  1
  Os  Os35  1  0.517901  0.655842  0.000451  1
