# generated using pymatgen
data_Th2Be23Ni3
_symmetry_space_group_name_H-M   'P 1'
_cell_length_a   7.33130700
_cell_length_b   7.33130657
_cell_length_c   7.38159536
_cell_angle_alpha   119.77489013
_cell_angle_beta   90.00000000
_cell_angle_gamma   119.99999741
_symmetry_Int_Tables_number   1
_chemical_formula_structural   Th2Be23Ni3
_chemical_formula_sum   'Th2 Be23 Ni3'
_cell_volume   281.49286608
_cell_formula_units_Z   1
loop_
 _symmetry_equiv_pos_site_id
 _symmetry_equiv_pos_as_xyz
  1  'x, y, z'
loop_
 _atom_site_type_symbol
 _atom_site_label
 _atom_site_symmetry_multiplicity
 _atom_site_fract_x
 _atom_site_fract_y
 _atom_site_fract_z
 _atom_site_occupancy
  Th  Th0  1  0.750948  0.501898  0.252847  1
  Th  Th1  1  0.253114  0.506228  0.759341  1
  Be  Be2  1  0.000577  0.001153  0.001730  1
  Be  Be3  1  0.434119  0.651668  0.218635  1
  Be  Be4  1  0.566967  0.001086  0.218635  1
  Be  Be5  1  0.217549  0.784517  0.218635  1
  Be  Be6  1  0.068659  0.003001  0.291069  1
  Be  Be7  1  0.934341  0.222410  0.291069  1
  Be  Be8  1  0.288068  0.356727  0.291069  1
  Be  Be9  1  0.434941  0.219581  0.432358  1
  Be  Be10  1  0.212777  0.647717  0.432358  1
  Be  Be11  1  0.784641  0.997417  0.432359  1
  Be  Be12  1  0.502032  0.004064  0.506097  1
  Be  Be13  1  0.211878  0.000204  0.564290  1
  Be  Be14  1  0.564087  0.775964  0.564290  1
  Be  Be15  1  0.788325  0.352413  0.564290  1
  Be  Be16  1  0.709349  0.644513  0.707486  1
  Be  Be17  1  0.062972  0.772321  0.707486  1
  Be  Be18  1  0.935164  0.998137  0.707487  1
  Be  Be19  1  0.564664  0.350362  0.782294  1
  Be  Be20  1  0.431934  0.996597  0.782295  1
  Be  Be21  1  0.785698  0.217631  0.782295  1
  Be  Be22  1  0.292698  0.231507  0.937142  1
  Be  Be23  1  0.705637  0.998334  0.937143  1
  Be  Be24  1  0.938809  0.644445  0.937143  1
  Ni  Ni25  1  0.300198  0.004628  0.060052  1
  Ni  Ni26  1  0.055424  0.355623  0.060052  1
  Ni  Ni27  1  0.704429  0.759853  0.060052  1
