# generated using pymatgen
data_La2Pr2YRu2
_symmetry_space_group_name_H-M   'P 1'
_cell_length_a   6.64635165
_cell_length_b   7.27101602
_cell_length_c   9.08158181
_cell_angle_alpha   95.48766156
_cell_angle_beta   111.46451258
_cell_angle_gamma   89.99999284
_symmetry_Int_Tables_number   1
_chemical_formula_structural   La2Pr2YRu2
_chemical_formula_sum   'La4 Pr4 Y2 Ru4'
_cell_volume   406.27357638
_cell_formula_units_Z   2
loop_
 _symmetry_equiv_pos_site_id
 _symmetry_equiv_pos_as_xyz
  1  'x, y, z'
loop_
 _atom_site_type_symbol
 _atom_site_label
 _atom_site_symmetry_multiplicity
 _atom_site_fract_x
 _atom_site_fract_y
 _atom_site_fract_z
 _atom_site_occupancy
  La  La0  1  0.980068  0.905261  0.186211  1
  La  La1  1  0.793858  0.594739  0.813789  1
  La  La2  1  0.019932  0.094739  0.813789  1
  La  La3  1  0.206142  0.405261  0.186211  1
  Pr  Pr4  1  0.634076  0.814015  0.427675  1
  Pr  Pr5  1  0.206402  0.685985  0.572325  1
  Pr  Pr6  1  0.365924  0.185985  0.572325  1
  Pr  Pr7  1  0.793598  0.314015  0.427675  1
  Y  Y8  1  0.430403  0.750000  0.000000  1
  Y  Y9  1  0.569597  0.250000  0.000000  1
  Ru  Ru10  1  0.827402  0.583745  0.216371  1
  Ru  Ru11  1  0.611032  0.916255  0.783629  1
  Ru  Ru12  1  0.172598  0.416255  0.783629  1
  Ru  Ru13  1  0.388968  0.083745  0.216371  1
