# generated using pymatgen
data_Zr5BeInBi2
_symmetry_space_group_name_H-M   'P 1'
_cell_length_a   8.73887134
_cell_length_b   8.73887119
_cell_length_c   5.86795800
_cell_angle_alpha   90.00000000
_cell_angle_beta   90.00000000
_cell_angle_gamma   119.74748227
_symmetry_Int_Tables_number   1
_chemical_formula_structural   Zr5BeInBi2
_chemical_formula_sum   'Zr10 Be2 In2 Bi4'
_cell_volume   389.07002726
_cell_formula_units_Z   2
loop_
 _symmetry_equiv_pos_site_id
 _symmetry_equiv_pos_as_xyz
  1  'x, y, z'
loop_
 _atom_site_type_symbol
 _atom_site_label
 _atom_site_symmetry_multiplicity
 _atom_site_fract_x
 _atom_site_fract_y
 _atom_site_fract_z
 _atom_site_occupancy
  Zr  Zr0  1  0.745484  0.005547  0.250000  1
  Zr  Zr1  1  0.005547  0.745484  0.250000  1
  Zr  Zr2  1  0.255474  0.255474  0.250000  1
  Zr  Zr3  1  0.237972  0.997587  0.750000  1
  Zr  Zr4  1  0.997587  0.237972  0.750000  1
  Zr  Zr5  1  0.759369  0.759369  0.750000  1
  Zr  Zr6  1  0.332256  0.667213  0.494987  1
  Zr  Zr7  1  0.667213  0.332256  0.494987  1
  Zr  Zr8  1  0.667213  0.332256  0.005013  1
  Zr  Zr9  1  0.332256  0.667213  0.005013  1
  Be  Be10  1  0.001321  0.001321  0.470853  1
  Be  Be11  1  0.001321  0.001321  0.029147  1
  In  In12  1  0.385611  0.001058  0.250000  1
  In  In13  1  0.001058  0.385611  0.250000  1
  Bi  Bi14  1  0.616715  0.616715  0.250000  1
  Bi  Bi15  1  0.602392  0.999716  0.750000  1
  Bi  Bi16  1  0.999716  0.602392  0.750000  1
  Bi  Bi17  1  0.391493  0.391493  0.750000  1
