# generated using pymatgen
data_TbY3ErPb3
_symmetry_space_group_name_H-M   'P 1'
_cell_length_a   9.08096200
_cell_length_b   9.08096219
_cell_length_c   6.65383800
_cell_angle_alpha   90.00000000
_cell_angle_beta   90.00000000
_cell_angle_gamma   119.99999931
_symmetry_Int_Tables_number   1
_chemical_formula_structural   TbY3ErPb3
_chemical_formula_sum   'Tb2 Y6 Er2 Pb6'
_cell_volume   475.18922385
_cell_formula_units_Z   2
loop_
 _symmetry_equiv_pos_site_id
 _symmetry_equiv_pos_as_xyz
  1  'x, y, z'
loop_
 _atom_site_type_symbol
 _atom_site_label
 _atom_site_symmetry_multiplicity
 _atom_site_fract_x
 _atom_site_fract_y
 _atom_site_fract_z
 _atom_site_occupancy
  Tb  Tb0  1  0.666667  0.333333  0.000000  1
  Tb  Tb1  1  0.333333  0.666667  0.000000  1
  Y  Y2  1  0.760589  0.760589  0.749758  1
  Y  Y3  1  0.239411  0.000000  0.749758  1
  Y  Y4  1  0.000000  0.239411  0.749758  1
  Y  Y5  1  0.239411  0.239411  0.250242  1
  Y  Y6  1  0.760589  0.000000  0.250242  1
  Y  Y7  1  0.000000  0.760589  0.250242  1
  Er  Er8  1  0.333333  0.666667  0.500000  1
  Er  Er9  1  0.666667  0.333333  0.500000  1
  Pb  Pb10  1  0.394299  0.394299  0.748741  1
  Pb  Pb11  1  0.605701  0.000000  0.748741  1
  Pb  Pb12  1  0.000000  0.605701  0.748741  1
  Pb  Pb13  1  0.605701  0.605701  0.251259  1
  Pb  Pb14  1  0.394299  0.000000  0.251259  1
  Pb  Pb15  1  0.000000  0.394299  0.251259  1
