# generated using pymatgen
data_Ti2CrSi2Os
_symmetry_space_group_name_H-M   'P 1'
_cell_length_a   7.44816690
_cell_length_b   7.42482117
_cell_length_c   7.44518457
_cell_angle_alpha   126.58398497
_cell_angle_beta   128.74598162
_cell_angle_gamma   77.21427540
_symmetry_Int_Tables_number   1
_chemical_formula_structural   Ti2CrSi2Os
_chemical_formula_sum   'Ti6 Cr3 Si6 Os3'
_cell_volume   250.17289675
_cell_formula_units_Z   3
loop_
 _symmetry_equiv_pos_site_id
 _symmetry_equiv_pos_as_xyz
  1  'x, y, z'
loop_
 _atom_site_type_symbol
 _atom_site_label
 _atom_site_symmetry_multiplicity
 _atom_site_fract_x
 _atom_site_fract_y
 _atom_site_fract_z
 _atom_site_occupancy
  Ti  Ti0  1  0.447838  0.411012  0.457289  1
  Ti  Ti1  1  0.550085  0.006566  0.950340  1
  Ti  Ti2  1  0.056217  0.006578  0.456509  1
  Ti  Ti3  1  0.953768  0.411052  0.963203  1
  Ti  Ti4  1  0.248890  0.588941  0.840790  1
  Ti  Ti5  1  0.748166  0.588951  0.340062  1
  Cr  Cr6  1  0.000159  0.263178  0.263145  1
  Cr  Cr7  1  0.500023  0.266113  0.766031  1
  Cr  Cr8  1  0.368498  0.740896  0.372404  1
  Si  Si9  1  0.253053  0.007760  0.264756  1
  Si  Si10  1  0.742882  0.007734  0.754525  1
  Si  Si11  1  0.166890  0.668878  0.502019  1
  Si  Si12  1  0.833648  0.333918  0.500269  1
  Si  Si13  1  0.666240  0.668803  0.002592  1
  Si  Si14  1  0.333902  0.338481  0.004643  1
  Os  Os15  1  0.630158  0.002708  0.372450  1
  Os  Os16  1  0.870562  0.743652  0.873182  1
  Os  Os17  1  0.129024  0.002780  0.873795  1
