# generated using pymatgen
data_Dy9HoSi5P
_symmetry_space_group_name_H-M   'P 1'
_cell_length_a   8.41919600
_cell_length_b   8.42454691
_cell_length_c   6.31422701
_cell_angle_alpha   90.00573664
_cell_angle_beta   89.99814210
_cell_angle_gamma   119.97923170
_symmetry_Int_Tables_number   1
_chemical_formula_structural   Dy9HoSi5P
_chemical_formula_sum   'Dy9 Ho1 Si5 P1'
_cell_volume   387.93489213
_cell_formula_units_Z   1
loop_
 _symmetry_equiv_pos_site_id
 _symmetry_equiv_pos_as_xyz
  1  'x, y, z'
loop_
 _atom_site_type_symbol
 _atom_site_label
 _atom_site_symmetry_multiplicity
 _atom_site_fract_x
 _atom_site_fract_y
 _atom_site_fract_z
 _atom_site_occupancy
  Dy  Dy0  1  0.000925  0.756857  0.750079  1
  Dy  Dy1  1  0.001057  0.244307  0.249934  1
  Dy  Dy2  1  0.756681  0.755745  0.249925  1
  Dy  Dy3  1  0.755029  0.999953  0.750065  1
  Dy  Dy4  1  0.244034  0.243191  0.750056  1
  Dy  Dy5  1  0.243716  0.999948  0.249948  1
  Dy  Dy6  1  0.333794  0.667517  0.500373  1
  Dy  Dy7  1  0.666251  0.332452  0.999531  1
  Dy  Dy8  1  0.666275  0.332485  0.500449  1
  Ho  Ho9  1  0.333800  0.667488  0.999678  1
  Si  Si10  1  0.394252  0.393867  0.249790  1
  Si  Si11  1  0.000828  0.606366  0.249767  1
  Si  Si12  1  0.000369  0.393740  0.750216  1
  Si  Si13  1  0.606424  0.606519  0.750211  1
  Si  Si14  1  0.607069  0.999770  0.249791  1
  P  P15  1  0.389496  0.999795  0.750188  1
