# generated using pymatgen
data_Ho3Al12FeRh3
_symmetry_space_group_name_H-M   'P 1'
_cell_length_a   8.79206800
_cell_length_b   8.79206779
_cell_length_c   9.41604500
_cell_angle_alpha   90.00000000
_cell_angle_beta   90.00000000
_cell_angle_gamma   120.00000078
_symmetry_Int_Tables_number   1
_chemical_formula_structural   Ho3Al12FeRh3
_chemical_formula_sum   'Ho6 Al24 Fe2 Rh6'
_cell_volume   630.34922051
_cell_formula_units_Z   2
loop_
 _symmetry_equiv_pos_site_id
 _symmetry_equiv_pos_as_xyz
  1  'x, y, z'
loop_
 _atom_site_type_symbol
 _atom_site_label
 _atom_site_symmetry_multiplicity
 _atom_site_fract_x
 _atom_site_fract_y
 _atom_site_fract_z
 _atom_site_occupancy
  Ho  Ho0  1  0.193787  0.387574  0.250000  1
  Ho  Ho1  1  0.806213  0.612426  0.750000  1
  Ho  Ho2  1  0.612426  0.806213  0.250000  1
  Ho  Ho3  1  0.387574  0.193787  0.750000  1
  Ho  Ho4  1  0.193787  0.806213  0.250000  1
  Ho  Ho5  1  0.806213  0.193787  0.750000  1
  Al  Al6  1  0.333333  0.666667  0.024316  1
  Al  Al7  1  0.666667  0.333333  0.975684  1
  Al  Al8  1  0.666667  0.333333  0.524316  1
  Al  Al9  1  0.333333  0.666667  0.475684  1
  Al  Al10  1  0.159330  0.318660  0.575737  1
  Al  Al11  1  0.840670  0.681340  0.424263  1
  Al  Al12  1  0.681340  0.840670  0.575737  1
  Al  Al13  1  0.840670  0.681340  0.075737  1
  Al  Al14  1  0.318660  0.159330  0.424263  1
  Al  Al15  1  0.159330  0.318660  0.924263  1
  Al  Al16  1  0.159330  0.840670  0.575737  1
  Al  Al17  1  0.318660  0.159330  0.075737  1
  Al  Al18  1  0.840670  0.159330  0.424263  1
  Al  Al19  1  0.681340  0.840670  0.924263  1
  Al  Al20  1  0.840670  0.159330  0.075737  1
  Al  Al21  1  0.159330  0.840670  0.924263  1
  Al  Al22  1  0.562098  0.124196  0.250000  1
  Al  Al23  1  0.437902  0.875804  0.750000  1
  Al  Al24  1  0.875804  0.437902  0.250000  1
  Al  Al25  1  0.124196  0.562098  0.750000  1
  Al  Al26  1  0.562098  0.437902  0.250000  1
  Al  Al27  1  0.437902  0.562098  0.750000  1
  Al  Al28  1  0.000000  0.000000  0.250000  1
  Al  Al29  1  0.000000  0.000000  0.750000  1
  Fe  Fe30  1  0.000000  0.000000  0.000000  1
  Fe  Fe31  1  0.000000  0.000000  0.500000  1
  Rh  Rh32  1  0.500000  0.000000  0.000000  1
  Rh  Rh33  1  0.000000  0.500000  0.000000  1
  Rh  Rh34  1  0.500000  0.000000  0.500000  1
  Rh  Rh35  1  0.500000  0.500000  0.000000  1
  Rh  Rh36  1  0.000000  0.500000  0.500000  1
  Rh  Rh37  1  0.500000  0.500000  0.500000  1
