# generated using pymatgen
data_HoTm2In3Pt2Au
_symmetry_space_group_name_H-M   'P 1'
_cell_length_a   7.66349787
_cell_length_b   7.65484733
_cell_length_c   3.90250900
_cell_angle_alpha   90.00000000
_cell_angle_beta   90.00000000
_cell_angle_gamma   119.93806758
_symmetry_Int_Tables_number   1
_chemical_formula_structural   HoTm2In3Pt2Au
_chemical_formula_sum   'Ho1 Tm2 In3 Pt2 Au1'
_cell_volume   198.38499128
_cell_formula_units_Z   1
loop_
 _symmetry_equiv_pos_site_id
 _symmetry_equiv_pos_as_xyz
  1  'x, y, z'
loop_
 _atom_site_type_symbol
 _atom_site_label
 _atom_site_symmetry_multiplicity
 _atom_site_fract_x
 _atom_site_fract_y
 _atom_site_fract_z
 _atom_site_occupancy
  Ho  Ho0  1  0.985726  0.591476  0.500000  1
  Tm  Tm1  1  0.606089  0.014915  0.500000  1
  Tm  Tm2  1  0.408653  0.393628  0.500000  1
  In  In3  1  0.739024  0.740193  0.000000  1
  In  In4  1  0.000480  0.260226  0.000000  1
  In  In5  1  0.260436  0.000037  0.000000  1
  Pt  Pt6  1  0.664965  0.332027  0.000000  1
  Pt  Pt7  1  0.999993  0.000552  0.500000  1
  Au  Au8  1  0.334632  0.666947  0.000000  1
