# generated using pymatgen
data_YHo(ScPt)2
_symmetry_space_group_name_H-M   'P 1'
_cell_length_a   4.61377900
_cell_length_b   6.99828000
_cell_length_c   8.42595300
_cell_angle_alpha   90.00000000
_cell_angle_beta   90.00000000
_cell_angle_gamma   90.00000000
_symmetry_Int_Tables_number   1
_chemical_formula_structural   YHo(ScPt)2
_chemical_formula_sum   'Y2 Ho2 Sc4 Pt4'
_cell_volume   272.06152921
_cell_formula_units_Z   2
loop_
 _symmetry_equiv_pos_site_id
 _symmetry_equiv_pos_as_xyz
  1  'x, y, z'
loop_
 _atom_site_type_symbol
 _atom_site_label
 _atom_site_symmetry_multiplicity
 _atom_site_fract_x
 _atom_site_fract_y
 _atom_site_fract_z
 _atom_site_occupancy
  Y  Y0  1  0.750000  0.014801  0.677015  1
  Y  Y1  1  0.750000  0.514801  0.822985  1
  Ho  Ho2  1  0.250000  0.985461  0.323829  1
  Ho  Ho3  1  0.250000  0.485461  0.176171  1
  Sc  Sc4  1  0.250000  0.858653  0.927352  1
  Sc  Sc5  1  0.250000  0.358653  0.572648  1
  Sc  Sc6  1  0.750000  0.141242  0.073818  1
  Sc  Sc7  1  0.750000  0.641242  0.426182  1
  Pt  Pt8  1  0.250000  0.243396  0.904794  1
  Pt  Pt9  1  0.250000  0.743396  0.595206  1
  Pt  Pt10  1  0.750000  0.756445  0.097415  1
  Pt  Pt11  1  0.750000  0.256445  0.402585  1
