# generated using pymatgen
data_Mg4As6Pd7
_symmetry_space_group_name_H-M   'P 1'
_cell_length_a   7.25298083
_cell_length_b   7.25298072
_cell_length_c   7.25298100
_cell_angle_alpha   109.47121862
_cell_angle_beta   109.47121832
_cell_angle_gamma   109.47122325
_symmetry_Int_Tables_number   1
_chemical_formula_structural   Mg4As6Pd7
_chemical_formula_sum   'Mg4 As6 Pd7'
_cell_volume   293.71607139
_cell_formula_units_Z   1
loop_
 _symmetry_equiv_pos_site_id
 _symmetry_equiv_pos_as_xyz
  1  'x, y, z'
loop_
 _atom_site_type_symbol
 _atom_site_label
 _atom_site_symmetry_multiplicity
 _atom_site_fract_x
 _atom_site_fract_y
 _atom_site_fract_z
 _atom_site_occupancy
  Mg  Mg0  1  0.500001  0.500001  0.500001  1
  Mg  Mg1  1  0.000000  0.000000  0.500001  1
  Mg  Mg2  1  0.500001  0.000000  0.000000  1
  Mg  Mg3  1  0.000000  0.500001  0.000000  1
  As  As4  1  0.000000  0.312382  0.312382  1
  As  As5  1  0.000000  0.687617  0.687617  1
  As  As6  1  0.312382  0.000000  0.312382  1
  As  As7  1  0.312382  0.312382  0.000000  1
  As  As8  1  0.687617  0.000000  0.687617  1
  As  As9  1  0.687617  0.687617  0.000000  1
  Pd  Pd10  1  0.500000  0.750000  0.250000  1
  Pd  Pd11  1  0.500000  0.250000  0.750000  1
  Pd  Pd12  1  0.250000  0.500000  0.750000  1
  Pd  Pd13  1  0.750000  0.250000  0.500000  1
  Pd  Pd14  1  0.750000  0.500000  0.250000  1
  Pd  Pd15  1  0.250000  0.750000  0.500000  1
  Pd  Pd16  1  0.000000  0.000000  0.000000  1
