# generated using pymatgen
data_TbHo3Mg3ZnRh4
_symmetry_space_group_name_H-M   'P 1'
_cell_length_a   4.07708500
_cell_length_b   7.04931054
_cell_length_c   8.41030660
_cell_angle_alpha   90.02696740
_cell_angle_beta   90.00000000
_cell_angle_gamma   90.00000000
_symmetry_Int_Tables_number   1
_chemical_formula_structural   TbHo3Mg3ZnRh4
_chemical_formula_sum   'Tb1 Ho3 Mg3 Zn1 Rh4'
_cell_volume   241.71755319
_cell_formula_units_Z   1
loop_
 _symmetry_equiv_pos_site_id
 _symmetry_equiv_pos_as_xyz
  1  'x, y, z'
loop_
 _atom_site_type_symbol
 _atom_site_label
 _atom_site_symmetry_multiplicity
 _atom_site_fract_x
 _atom_site_fract_y
 _atom_site_fract_z
 _atom_site_occupancy
  Tb  Tb0  1  0.250000  0.534462  0.183610  1
  Ho  Ho1  1  0.750000  0.459497  0.819265  1
  Ho  Ho2  1  0.250000  0.048983  0.328832  1
  Ho  Ho3  1  0.750000  0.961982  0.674611  1
  Mg  Mg4  1  0.250000  0.135253  0.939141  1
  Mg  Mg5  1  0.750000  0.863691  0.059944  1
  Mg  Mg6  1  0.250000  0.630672  0.556047  1
  Zn  Zn7  1  0.750000  0.366264  0.439426  1
  Rh  Rh8  1  0.750000  0.750836  0.372730  1
  Rh  Rh9  1  0.250000  0.252965  0.625513  1
  Rh  Rh10  1  0.750000  0.248050  0.131916  1
  Rh  Rh11  1  0.250000  0.747343  0.868964  1
