# generated using pymatgen
data_Hf4MoIr2Rh
_symmetry_space_group_name_H-M   'P 1'
_cell_length_a   6.64494200
_cell_length_b   4.62630300
_cell_length_c   9.18634700
_cell_angle_alpha   90.00000000
_cell_angle_beta   89.99977326
_cell_angle_gamma   90.00000000
_symmetry_Int_Tables_number   1
_chemical_formula_structural   Hf4MoIr2Rh
_chemical_formula_sum   'Hf8 Mo2 Ir4 Rh2'
_cell_volume   282.40222510
_cell_formula_units_Z   2
loop_
 _symmetry_equiv_pos_site_id
 _symmetry_equiv_pos_as_xyz
  1  'x, y, z'
loop_
 _atom_site_type_symbol
 _atom_site_label
 _atom_site_symmetry_multiplicity
 _atom_site_fract_x
 _atom_site_fract_y
 _atom_site_fract_z
 _atom_site_occupancy
  Hf  Hf0  1  0.001115  0.750000  0.124383  1
  Hf  Hf1  1  0.498860  0.750000  0.124383  1
  Hf  Hf2  1  0.998871  0.250001  0.375616  1
  Hf  Hf3  1  0.501119  0.250001  0.375618  1
  Hf  Hf4  1  0.501084  0.750000  0.625530  1
  Hf  Hf5  1  0.998928  0.750000  0.625529  1
  Hf  Hf6  1  0.498933  0.250001  0.874471  1
  Hf  Hf7  1  0.001083  0.250001  0.874471  1
  Mo  Mo8  1  0.750006  0.250001  0.623253  1
  Mo  Mo9  1  0.250007  0.750000  0.876755  1
  Ir  Ir10  1  0.249993  0.250001  0.127201  1
  Ir  Ir11  1  0.749995  0.750000  0.372803  1
  Ir  Ir12  1  0.250008  0.250001  0.623781  1
  Ir  Ir13  1  0.750009  0.750000  0.876216  1
  Rh  Rh14  1  0.749992  0.250001  0.125811  1
  Rh  Rh15  1  0.249998  0.750000  0.374178  1
