# generated using pymatgen
data_Ho16In3Hg(IrRh)2
_symmetry_space_group_name_H-M   'P 1'
_cell_length_a   9.60974110
_cell_length_b   9.62047761
_cell_length_c   9.60974135
_cell_angle_alpha   59.92367084
_cell_angle_beta   59.87838215
_cell_angle_gamma   59.92366964
_symmetry_Int_Tables_number   1
_chemical_formula_structural   Ho16In3Hg(IrRh)2
_chemical_formula_sum   'Ho16 In3 Hg1 Ir2 Rh2'
_cell_volume   626.90705960
_cell_formula_units_Z   1
loop_
 _symmetry_equiv_pos_site_id
 _symmetry_equiv_pos_as_xyz
  1  'x, y, z'
loop_
 _atom_site_type_symbol
 _atom_site_label
 _atom_site_symmetry_multiplicity
 _atom_site_fract_x
 _atom_site_fract_y
 _atom_site_fract_z
 _atom_site_occupancy
  Ho  Ho0  1  0.188824  0.189101  0.810365  1
  Ho  Ho1  1  0.601472  0.601947  0.198429  1
  Ho  Ho2  1  0.439939  0.059088  0.439939  1
  Ho  Ho3  1  0.439574  0.440005  0.059611  1
  Ho  Ho4  1  0.813379  0.184695  0.813379  1
  Ho  Ho5  1  0.189731  0.810456  0.189731  1
  Ho  Ho6  1  0.436220  0.060420  0.061113  1
  Ho  Ho7  1  0.185400  0.813384  0.811821  1
  Ho  Ho8  1  0.060981  0.436236  0.060981  1
  Ho  Ho9  1  0.811821  0.813384  0.185400  1
  Ho  Ho10  1  0.198429  0.601947  0.601472  1
  Ho  Ho11  1  0.059611  0.440005  0.439574  1
  Ho  Ho12  1  0.061113  0.060420  0.436220  1
  Ho  Ho13  1  0.810365  0.189101  0.188824  1
  Ho  Ho14  1  0.601762  0.197952  0.601762  1
  Ho  Ho15  1  0.597835  0.598886  0.597835  1
  In  In16  1  0.832022  0.832117  0.503221  1
  In  In17  1  0.503221  0.832117  0.832022  1
  In  In18  1  0.832007  0.503189  0.832007  1
  Hg  Hg19  1  0.835941  0.836204  0.835941  1
  Ir  Ir20  1  0.391469  0.824293  0.391469  1
  Ir  Ir21  1  0.393218  0.392795  0.393218  1
  Rh  Rh22  1  0.824202  0.391130  0.391467  1
  Rh  Rh23  1  0.391467  0.391130  0.824202  1
