# generated using pymatgen
data_RbBe2Cl5
_symmetry_space_group_name_H-M   'P 1'
_cell_length_a   10.68284152
_cell_length_b   10.68284207
_cell_length_c   10.68284200
_cell_angle_alpha   60.00000021
_cell_angle_beta   59.99999851
_cell_angle_gamma   59.99999892
_symmetry_Int_Tables_number   1
_chemical_formula_structural   RbBe2Cl5
_chemical_formula_sum   'Rb4 Be8 Cl20'
_cell_volume   862.07567969
_cell_formula_units_Z   4
loop_
 _symmetry_equiv_pos_site_id
 _symmetry_equiv_pos_as_xyz
  1  'x, y, z'
loop_
 _atom_site_type_symbol
 _atom_site_label
 _atom_site_symmetry_multiplicity
 _atom_site_fract_x
 _atom_site_fract_y
 _atom_site_fract_z
 _atom_site_occupancy
  Rb  Rb0  1  0.125000  0.625000  0.625000  1
  Rb  Rb1  1  0.625000  0.125000  0.625000  1
  Rb  Rb2  1  0.625000  0.625000  0.125000  1
  Rb  Rb3  1  0.625000  0.625000  0.625000  1
  Be  Be4  1  0.013436  0.328854  0.328854  1
  Be  Be5  1  0.328854  0.013436  0.328854  1
  Be  Be6  1  0.328854  0.328854  0.013436  1
  Be  Be7  1  0.328854  0.328854  0.328854  1
  Be  Be8  1  0.236564  0.921146  0.921146  1
  Be  Be9  1  0.921146  0.236564  0.921146  1
  Be  Be10  1  0.921146  0.921146  0.236564  1
  Be  Be11  1  0.921146  0.921146  0.921146  1
  Cl  Cl12  1  0.092709  0.092709  0.407291  1
  Cl  Cl13  1  0.407291  0.407291  0.092709  1
  Cl  Cl14  1  0.092709  0.407291  0.092709  1
  Cl  Cl15  1  0.407291  0.092709  0.407291  1
  Cl  Cl16  1  0.407291  0.092709  0.092709  1
  Cl  Cl17  1  0.092709  0.407291  0.407291  1
  Cl  Cl18  1  0.157291  0.157291  0.842709  1
  Cl  Cl19  1  0.842709  0.842709  0.157291  1
  Cl  Cl20  1  0.157291  0.842709  0.157291  1
  Cl  Cl21  1  0.842709  0.157291  0.842709  1
  Cl  Cl22  1  0.842709  0.157291  0.157291  1
  Cl  Cl23  1  0.157291  0.842709  0.842709  1
  Cl  Cl24  1  0.786090  0.404636  0.404636  1
  Cl  Cl25  1  0.404636  0.786090  0.404636  1
  Cl  Cl26  1  0.404636  0.404636  0.786090  1
  Cl  Cl27  1  0.404636  0.404636  0.404636  1
  Cl  Cl28  1  0.463910  0.845364  0.845364  1
  Cl  Cl29  1  0.845364  0.463910  0.845364  1
  Cl  Cl30  1  0.845364  0.845364  0.463910  1
  Cl  Cl31  1  0.845364  0.845364  0.845364  1
