# generated using pymatgen
data_Pr4Al3(Ga5Ir2)3
_symmetry_space_group_name_H-M   'P 1'
_cell_length_a   7.65398279
_cell_length_b   7.65396928
_cell_length_c   9.62011307
_cell_angle_alpha   90.00497361
_cell_angle_beta   90.00438389
_cell_angle_gamma   119.50913383
_symmetry_Int_Tables_number   1
_chemical_formula_structural   Pr4Al3(Ga5Ir2)3
_chemical_formula_sum   'Pr4 Al3 Ga15 Ir6'
_cell_volume   490.46945439
_cell_formula_units_Z   1
loop_
 _symmetry_equiv_pos_site_id
 _symmetry_equiv_pos_as_xyz
  1  'x, y, z'
loop_
 _atom_site_type_symbol
 _atom_site_label
 _atom_site_symmetry_multiplicity
 _atom_site_fract_x
 _atom_site_fract_y
 _atom_site_fract_z
 _atom_site_occupancy
  Pr  Pr0  1  0.999945  0.670085  0.250058  1
  Pr  Pr1  1  0.999817  0.330383  0.748985  1
  Pr  Pr2  1  0.670085  0.999929  0.250060  1
  Pr  Pr3  1  0.330390  0.999823  0.748978  1
  Al  Al4  1  0.663371  0.663370  0.454907  1
  Al  Al5  1  0.667496  0.667496  0.044891  1
  Al  Al6  1  0.332456  0.332456  0.953288  1
  Ga  Ga7  1  0.127884  0.127883  0.249463  1
  Ga  Ga8  1  0.872424  0.872429  0.749366  1
  Ga  Ga9  1  0.002915  0.335609  0.077374  1
  Ga  Ga10  1  0.998066  0.665014  0.921666  1
  Ga  Ga11  1  0.997001  0.664559  0.577783  1
  Ga  Ga12  1  0.336033  0.004725  0.420731  1
  Ga  Ga13  1  0.004719  0.336027  0.420730  1
  Ga  Ga14  1  0.664564  0.997010  0.577784  1
  Ga  Ga15  1  0.665010  0.998068  0.921666  1
  Ga  Ga16  1  0.335604  0.002912  0.077373  1
  Ga  Ga17  1  0.329887  0.329886  0.559805  1
  Ga  Ga18  1  0.348194  0.548650  0.249881  1
  Ga  Ga19  1  0.655094  0.452215  0.750229  1
  Ga  Ga20  1  0.548650  0.348198  0.249880  1
  Ga  Ga21  1  0.452215  0.655095  0.750232  1
  Ir  Ir22  1  0.668038  0.332223  0.999695  1
  Ir  Ir23  1  0.332231  0.668043  0.999698  1
  Ir  Ir24  1  0.331862  0.671157  0.499110  1
  Ir  Ir25  1  0.671154  0.331859  0.499110  1
  Ir  Ir26  1  0.999761  0.999763  0.999311  1
  Ir  Ir27  1  0.995130  0.995131  0.497943  1
