# generated using pymatgen
data_Ca(PPt4)2
_symmetry_space_group_name_H-M   'P 1'
_cell_length_a   6.32803881
_cell_length_b   6.32803873
_cell_length_c   9.36688761
_cell_angle_alpha   55.35726751
_cell_angle_beta   55.35726975
_cell_angle_gamma   37.35260665
_symmetry_Int_Tables_number   1
_chemical_formula_structural   Ca(PPt4)2
_chemical_formula_sum   'Ca1 P2 Pt8'
_cell_volume   182.04910185
_cell_formula_units_Z   1
loop_
 _symmetry_equiv_pos_site_id
 _symmetry_equiv_pos_as_xyz
  1  'x, y, z'
loop_
 _atom_site_type_symbol
 _atom_site_label
 _atom_site_symmetry_multiplicity
 _atom_site_fract_x
 _atom_site_fract_y
 _atom_site_fract_z
 _atom_site_occupancy
  Ca  Ca0  1  0.500000  0.500000  0.500000  1
  P  P1  1  0.059419  0.059419  0.705897  1
  P  P2  1  0.940581  0.940581  0.294103  1
  Pt  Pt3  1  0.230730  0.230730  0.410687  1
  Pt  Pt4  1  0.823054  0.823054  0.844842  1
  Pt  Pt5  1  0.176946  0.176946  0.155158  1
  Pt  Pt6  1  0.165525  0.165525  0.848862  1
  Pt  Pt7  1  0.474450  0.474450  0.870695  1
  Pt  Pt8  1  0.525550  0.525550  0.129305  1
  Pt  Pt9  1  0.769270  0.769270  0.589313  1
  Pt  Pt10  1  0.834475  0.834475  0.151138  1
