# generated using pymatgen
data_Hf2Ta(SiRu)3
_symmetry_space_group_name_H-M   'P 1'
_cell_length_a   7.51088389
_cell_length_b   7.51088340
_cell_length_c   7.51088367
_cell_angle_alpha   127.21553675
_cell_angle_beta   121.44523657
_cell_angle_gamma   82.73269740
_symmetry_Int_Tables_number   1
_chemical_formula_structural   Hf2Ta(SiRu)3
_chemical_formula_sum   'Hf4 Ta2 Si6 Ru6'
_cell_volume   276.51031461
_cell_formula_units_Z   2
loop_
 _symmetry_equiv_pos_site_id
 _symmetry_equiv_pos_as_xyz
  1  'x, y, z'
loop_
 _atom_site_type_symbol
 _atom_site_label
 _atom_site_symmetry_multiplicity
 _atom_site_fract_x
 _atom_site_fract_y
 _atom_site_fract_z
 _atom_site_occupancy
  Hf  Hf0  1  0.945219  0.902272  0.457054  1
  Hf  Hf1  1  0.054781  0.511834  0.957054  1
  Hf  Hf2  1  0.530139  0.510546  0.480406  1
  Hf  Hf3  1  0.469861  0.950268  0.980406  1
  Ta  Ta4  1  0.747409  0.081570  0.834162  1
  Ta  Ta5  1  0.252591  0.086753  0.334162  1
  Si  Si6  1  0.722786  0.458598  0.235812  1
  Si  Si7  1  0.277214  0.513026  0.735812  1
  Si  Si8  1  0.670430  0.171819  0.514170  1
  Si  Si9  1  0.329570  0.843741  0.501390  1
  Si  Si10  1  0.157649  0.171819  0.001390  1
  Si  Si11  1  0.842351  0.843741  0.014170  1
  Ru  Ru12  1  0.500000  0.747396  0.247396  1
  Ru  Ru13  1  0.000000  0.747396  0.747396  1
  Ru  Ru14  1  0.904140  0.255061  0.407590  1
  Ru  Ru15  1  0.095860  0.503450  0.350920  1
  Ru  Ru16  1  0.347470  0.255061  0.850920  1
  Ru  Ru17  1  0.652530  0.503450  0.907590  1
