# generated using pymatgen
data_YbDyYGa8Ag3
_symmetry_space_group_name_H-M   'P 1'
_cell_length_a   4.37791239
_cell_length_b   8.33212375
_cell_length_c   8.33212402
_cell_angle_alpha   70.83419173
_cell_angle_beta   74.76891198
_cell_angle_gamma   74.76890772
_symmetry_Int_Tables_number   1
_chemical_formula_structural   YbDyYGa8Ag3
_chemical_formula_sum   'Yb1 Dy1 Y1 Ga8 Ag3'
_cell_volume   271.76116695
_cell_formula_units_Z   1
loop_
 _symmetry_equiv_pos_site_id
 _symmetry_equiv_pos_as_xyz
  1  'x, y, z'
loop_
 _atom_site_type_symbol
 _atom_site_label
 _atom_site_symmetry_multiplicity
 _atom_site_fract_x
 _atom_site_fract_y
 _atom_site_fract_z
 _atom_site_occupancy
  Yb  Yb0  1  0.698164  0.301836  0.301836  1
  Dy  Dy1  1  0.299509  0.700491  0.700491  1
  Y  Y2  1  0.000395  0.999605  0.999605  1
  Ga  Ga3  1  0.338433  0.292837  0.030297  1
  Ga  Ga4  1  0.659327  0.711207  0.970140  1
  Ga  Ga5  1  0.338433  0.030297  0.292837  1
  Ga  Ga6  1  0.659327  0.970140  0.711207  1
  Ga  Ga7  1  0.143276  0.575564  0.137885  1
  Ga  Ga8  1  0.859044  0.421863  0.860047  1
  Ga  Ga9  1  0.143276  0.137885  0.575564  1
  Ga  Ga10  1  0.859044  0.860047  0.421863  1
  Ag  Ag11  1  0.500834  0.304418  0.693913  1
  Ag  Ag12  1  0.500834  0.693913  0.304418  1
  Ag  Ag13  1  0.000103  0.499897  0.499897  1
