# generated using pymatgen
data_AlAsO3
_symmetry_space_group_name_H-M   'P 1'
_cell_length_a   4.82807165
_cell_length_b   4.82802328
_cell_length_c   7.42069100
_cell_angle_alpha   71.01664988
_cell_angle_beta   71.02464054
_cell_angle_gamma   60.00032998
_symmetry_Int_Tables_number   1
_chemical_formula_structural   AlAsO3
_chemical_formula_sum   'Al2 As2 O6'
_cell_volume   138.83796219
_cell_formula_units_Z   2
loop_
 _symmetry_equiv_pos_site_id
 _symmetry_equiv_pos_as_xyz
  1  'x, y, z'
loop_
 _atom_site_type_symbol
 _atom_site_label
 _atom_site_symmetry_multiplicity
 _atom_site_fract_x
 _atom_site_fract_y
 _atom_site_fract_z
 _atom_site_occupancy
  Al  Al0  1  0.666681  0.666661  0.999993  1
  Al  Al1  1  0.333319  0.333339  0.000007  1
  As  As2  1  0.908895  0.908784  0.273558  1
  As  As3  1  0.091105  0.091216  0.726442  1
  O  O4  1  0.050901  0.390583  0.847383  1
  O  O5  1  0.711104  0.050940  0.847452  1
  O  O6  1  0.390452  0.711158  0.847434  1
  O  O7  1  0.949099  0.609417  0.152617  1
  O  O8  1  0.609548  0.288842  0.152566  1
  O  O9  1  0.288896  0.949060  0.152548  1
