# generated using pymatgen
data_CaPr(NbSe2)6
_symmetry_space_group_name_H-M   'P 1'
_cell_length_a   6.10435000
_cell_length_b   6.10435035
_cell_length_c   15.04848200
_cell_angle_alpha   90.00000000
_cell_angle_beta   90.00000000
_cell_angle_gamma   120.00000894
_symmetry_Int_Tables_number   1
_chemical_formula_structural   CaPr(NbSe2)6
_chemical_formula_sum   'Ca1 Pr1 Nb6 Se12'
_cell_volume   485.62626054
_cell_formula_units_Z   1
loop_
 _symmetry_equiv_pos_site_id
 _symmetry_equiv_pos_as_xyz
  1  'x, y, z'
loop_
 _atom_site_type_symbol
 _atom_site_label
 _atom_site_symmetry_multiplicity
 _atom_site_fract_x
 _atom_site_fract_y
 _atom_site_fract_z
 _atom_site_occupancy
  Ca  Ca0  1  0.666667  0.333333  0.750000  1
  Pr  Pr1  1  0.333333  0.666667  0.250000  1
  Nb  Nb2  1  0.333333  0.666667  0.001389  1
  Nb  Nb3  1  0.000000  0.000000  0.999389  1
  Nb  Nb4  1  0.666667  0.333333  0.998556  1
  Nb  Nb5  1  0.333333  0.666667  0.498611  1
  Nb  Nb6  1  0.000000  0.000000  0.500611  1
  Nb  Nb7  1  0.666667  0.333333  0.501444  1
  Se  Se8  1  0.674089  0.665998  0.389193  1
  Se  Se9  1  0.665862  0.671321  0.611089  1
  Se  Se10  1  0.005459  0.671321  0.888911  1
  Se  Se11  1  0.665862  0.994541  0.888911  1
  Se  Se12  1  0.674089  0.008091  0.110807  1
  Se  Se13  1  0.334002  0.008091  0.389193  1
  Se  Se14  1  0.005459  0.334138  0.611089  1
  Se  Se15  1  0.328679  0.994541  0.611089  1
  Se  Se16  1  0.991909  0.665998  0.110807  1
  Se  Se17  1  0.328679  0.334138  0.888911  1
  Se  Se18  1  0.991909  0.325911  0.389193  1
  Se  Se19  1  0.334002  0.325911  0.110807  1
