# generated using pymatgen
data_YbU3(TcB4)4
_symmetry_space_group_name_H-M   'P 1'
_cell_length_a   3.60819100
_cell_length_b   5.92705330
_cell_length_c   11.46122901
_cell_angle_alpha   90.01990597
_cell_angle_beta   90.00000000
_cell_angle_gamma   90.00000000
_symmetry_Int_Tables_number   1
_chemical_formula_structural   YbU3(TcB4)4
_chemical_formula_sum   'Yb1 U3 Tc4 B16'
_cell_volume   245.10914515
_cell_formula_units_Z   1
loop_
 _symmetry_equiv_pos_site_id
 _symmetry_equiv_pos_as_xyz
  1  'x, y, z'
loop_
 _atom_site_type_symbol
 _atom_site_label
 _atom_site_symmetry_multiplicity
 _atom_site_fract_x
 _atom_site_fract_y
 _atom_site_fract_z
 _atom_site_occupancy
  Yb  Yb0  1  0.500000  0.871439  0.649392  1
  U  U1  1  0.500000  0.628307  0.150387  1
  U  U2  1  0.500000  0.372156  0.848324  1
  U  U3  1  0.500000  0.127434  0.351008  1
  Tc  Tc4  1  0.500000  0.638151  0.404897  1
  Tc  Tc5  1  0.500000  0.361245  0.589244  1
  Tc  Tc6  1  0.500000  0.140065  0.094917  1
  Tc  Tc7  1  0.500000  0.860000  0.909546  1
  B  B8  1  0.000000  0.973470  0.192950  1
  B  B9  1  0.000000  0.027298  0.808794  1
  B  B10  1  0.000000  0.473652  0.307509  1
  B  B11  1  0.000000  0.521801  0.692494  1
  B  B12  1  0.000000  0.790863  0.312469  1
  B  B13  1  0.000000  0.215171  0.687653  1
  B  B14  1  0.000000  0.290443  0.188537  1
  B  B15  1  0.000000  0.709361  0.814316  1
  B  B16  1  0.000000  0.865656  0.466855  1
  B  B17  1  0.000000  0.136481  0.530937  1
  B  B18  1  0.000000  0.366267  0.032176  1
  B  B19  1  0.000000  0.631045  0.967563  1
  B  B20  1  0.000000  0.884651  0.046763  1
  B  B21  1  0.000000  0.113773  0.952797  1
  B  B22  1  0.000000  0.386588  0.453385  1
  B  B23  1  0.000000  0.614682  0.547087  1
