# generated using pymatgen
data_Lu5ReOsC7
_symmetry_space_group_name_H-M   'P 1'
_cell_length_a   8.08320726
_cell_length_b   8.08320699
_cell_length_c   3.38786200
_cell_angle_alpha   90.00000000
_cell_angle_beta   90.00000000
_cell_angle_gamma   121.47837767
_symmetry_Int_Tables_number   1
_chemical_formula_structural   Lu5ReOsC7
_chemical_formula_sum   'Lu5 Re1 Os1 C7'
_cell_volume   188.78144466
_cell_formula_units_Z   1
loop_
 _symmetry_equiv_pos_site_id
 _symmetry_equiv_pos_as_xyz
  1  'x, y, z'
loop_
 _atom_site_type_symbol
 _atom_site_label
 _atom_site_symmetry_multiplicity
 _atom_site_fract_x
 _atom_site_fract_y
 _atom_site_fract_z
 _atom_site_occupancy
  Lu  Lu0  1  0.338178  0.078309  0.500000  1
  Lu  Lu1  1  0.660583  0.920275  0.500000  1
  Lu  Lu2  1  0.079725  0.339417  0.500000  1
  Lu  Lu3  1  0.921691  0.661822  0.500000  1
  Lu  Lu4  1  0.499303  0.500697  0.000000  1
  Re  Re5  1  0.715651  0.284349  0.000000  1
  Os  Os6  1  0.286285  0.713715  0.000000  1
  C  C7  1  0.171935  0.171705  0.000000  1
  C  C8  1  0.828295  0.828065  0.000000  1
  C  C9  1  0.000367  0.999633  0.000000  1
  C  C10  1  0.373642  0.626358  0.500000  1
  C  C11  1  0.622592  0.377408  0.500000  1
  C  C12  1  0.501006  0.999252  0.000000  1
  C  C13  1  0.000748  0.498994  0.000000  1
