# generated using pymatgen
data_Tm4Si4OsRh3
_symmetry_space_group_name_H-M   'P 1'
_cell_length_a   4.24783400
_cell_length_b   6.83761898
_cell_length_c   7.31132521
_cell_angle_alpha   89.82839504
_cell_angle_beta   90.00000000
_cell_angle_gamma   90.00000000
_symmetry_Int_Tables_number   1
_chemical_formula_structural   Tm4Si4OsRh3
_chemical_formula_sum   'Tm4 Si4 Os1 Rh3'
_cell_volume   212.35700286
_cell_formula_units_Z   1
loop_
 _symmetry_equiv_pos_site_id
 _symmetry_equiv_pos_as_xyz
  1  'x, y, z'
loop_
 _atom_site_type_symbol
 _atom_site_label
 _atom_site_symmetry_multiplicity
 _atom_site_fract_x
 _atom_site_fract_y
 _atom_site_fract_z
 _atom_site_occupancy
  Tm  Tm0  1  0.250000  0.000128  0.812127  1
  Tm  Tm1  1  0.750000  0.999324  0.187466  1
  Tm  Tm2  1  0.250000  0.499480  0.691026  1
  Tm  Tm3  1  0.750000  0.504470  0.310309  1
  Si  Si4  1  0.250000  0.296031  0.108424  1
  Si  Si5  1  0.750000  0.706456  0.885960  1
  Si  Si6  1  0.250000  0.796109  0.399405  1
  Si  Si7  1  0.750000  0.200880  0.605531  1
  Os  Os8  1  0.750000  0.842416  0.566169  1
  Rh  Rh9  1  0.250000  0.155995  0.432633  1
  Rh  Rh10  1  0.750000  0.342986  0.933312  1
  Rh  Rh11  1  0.250000  0.655725  0.067641  1
