# generated using pymatgen
data_Er4TaNb(B2Ru5)2
_symmetry_space_group_name_H-M   'P 1'
_cell_length_a   9.65386000
_cell_length_b   9.65386000
_cell_length_c   3.12225700
_cell_angle_alpha   90.00000000
_cell_angle_beta   90.00000000
_cell_angle_gamma   90.00000000
_symmetry_Int_Tables_number   1
_chemical_formula_structural   Er4TaNb(B2Ru5)2
_chemical_formula_sum   'Er4 Ta1 Nb1 B4 Ru10'
_cell_volume   290.98502590
_cell_formula_units_Z   1
loop_
 _symmetry_equiv_pos_site_id
 _symmetry_equiv_pos_as_xyz
  1  'x, y, z'
loop_
 _atom_site_type_symbol
 _atom_site_label
 _atom_site_symmetry_multiplicity
 _atom_site_fract_x
 _atom_site_fract_y
 _atom_site_fract_z
 _atom_site_occupancy
  Er  Er0  1  0.825499  0.675079  0.000000  1
  Er  Er1  1  0.174501  0.324921  0.000000  1
  Er  Er2  1  0.324921  0.825499  0.000000  1
  Er  Er3  1  0.675079  0.174501  0.000000  1
  Ta  Ta4  1  0.000000  0.000000  0.000000  1
  Nb  Nb5  1  0.500000  0.500000  0.000000  1
  B  B6  1  0.620488  0.879928  0.000000  1
  B  B7  1  0.379512  0.120072  0.000000  1
  B  B8  1  0.120072  0.620488  0.000000  1
  B  B9  1  0.879928  0.379512  0.000000  1
  Ru  Ru10  1  0.570991  0.718080  0.500000  1
  Ru  Ru11  1  0.429009  0.281920  0.500000  1
  Ru  Ru12  1  0.070993  0.781993  0.500000  1
  Ru  Ru13  1  0.929007  0.218007  0.500000  1
  Ru  Ru14  1  0.281920  0.570991  0.500000  1
  Ru  Ru15  1  0.718080  0.429009  0.500000  1
  Ru  Ru16  1  0.218007  0.070993  0.500000  1
  Ru  Ru17  1  0.781993  0.929007  0.500000  1
  Ru  Ru18  1  0.500000  0.000000  0.500000  1
  Ru  Ru19  1  0.000000  0.500000  0.500000  1
