# generated using pymatgen
data_Ta5NbReSi6Mo5
_symmetry_space_group_name_H-M   'P 1'
_cell_length_a   7.68544097
_cell_length_b   7.69889742
_cell_length_c   7.68313857
_cell_angle_alpha   126.46249561
_cell_angle_beta   128.41323211
_cell_angle_gamma   77.51116577
_symmetry_Int_Tables_number   1
_chemical_formula_structural   Ta5NbReSi6Mo5
_chemical_formula_sum   'Ta5 Nb1 Re1 Si6 Mo5'
_cell_volume   277.90581103
_cell_formula_units_Z   1
loop_
 _symmetry_equiv_pos_site_id
 _symmetry_equiv_pos_as_xyz
  1  'x, y, z'
loop_
 _atom_site_type_symbol
 _atom_site_label
 _atom_site_symmetry_multiplicity
 _atom_site_fract_x
 _atom_site_fract_y
 _atom_site_fract_z
 _atom_site_occupancy
  Ta  Ta0  1  0.450743  0.497878  0.548126  1
  Ta  Ta1  1  0.949317  0.497076  0.046778  1
  Ta  Ta2  1  0.048669  0.091526  0.542636  1
  Ta  Ta3  1  0.752508  0.902480  0.651269  1
  Ta  Ta4  1  0.252104  0.902708  0.150423  1
  Nb  Nb5  1  0.548419  0.089474  0.042030  1
  Re  Re6  1  0.369927  0.497768  0.126438  1
  Si  Si7  1  0.747956  0.495167  0.247028  1
  Si  Si8  1  0.248684  0.496696  0.747568  1
  Si  Si9  1  0.333514  0.827727  0.493551  1
  Si  Si10  1  0.667499  0.164531  0.497288  1
  Si  Si11  1  0.834184  0.829790  0.996587  1
  Si  Si12  1  0.168905  0.166494  0.997576  1
  Mo  Mo13  1  0.498947  0.237962  0.737779  1
  Mo  Mo14  1  0.001436  0.238917  0.238361  1
  Mo  Mo15  1  0.128190  0.754837  0.624857  1
  Mo  Mo16  1  0.870090  0.497252  0.627636  1
  Mo  Mo17  1  0.628906  0.753913  0.126267  1
