# generated using pymatgen
data_La2Pr3(SbC)2
_symmetry_space_group_name_H-M   'P 1'
_cell_length_a   8.30783000
_cell_length_b   13.14490000
_cell_length_c   4.37707900
_cell_angle_alpha   90.00000000
_cell_angle_beta   90.00000000
_cell_angle_gamma   90.00000000
_symmetry_Int_Tables_number   1
_chemical_formula_structural   La2Pr3(SbC)2
_chemical_formula_sum   'La4 Pr6 Sb4 C4'
_cell_volume   478.00151466
_cell_formula_units_Z   2
loop_
 _symmetry_equiv_pos_site_id
 _symmetry_equiv_pos_as_xyz
  1  'x, y, z'
loop_
 _atom_site_type_symbol
 _atom_site_label
 _atom_site_symmetry_multiplicity
 _atom_site_fract_x
 _atom_site_fract_y
 _atom_site_fract_z
 _atom_site_occupancy
  La  La0  1  0.831128  0.059375  0.499998  1
  La  La1  1  0.331128  0.440625  0.499998  1
  La  La2  1  0.668873  0.559375  0.499998  1
  La  La3  1  0.168873  0.940625  0.499998  1
  Pr  Pr4  1  0.500000  0.000000  0.000000  1
  Pr  Pr5  1  0.168028  0.207133  0.000000  1
  Pr  Pr6  1  0.668029  0.292867  0.000000  1
  Pr  Pr7  1  0.000000  0.500000  0.000000  1
  Pr  Pr8  1  0.331972  0.707133  0.000000  1
  Pr  Pr9  1  0.831972  0.792867  0.000000  1
  Sb  Sb10  1  0.449247  0.176813  0.499998  1
  Sb  Sb11  1  0.949247  0.323187  0.499998  1
  Sb  Sb12  1  0.050752  0.676813  0.499998  1
  Sb  Sb13  1  0.550754  0.823187  0.499998  1
  C  C14  1  0.040320  0.044870  0.000000  1
  C  C15  1  0.540319  0.455130  0.000000  1
  C  C16  1  0.459680  0.544870  0.000000  1
  C  C17  1  0.959681  0.955130  0.000000  1
