# generated using pymatgen
data_Sc2Mn4Fe7NiP7
_symmetry_space_group_name_H-M   'P 1'
_cell_length_a   9.09145638
_cell_length_b   9.02390381
_cell_length_c   3.54859600
_cell_angle_alpha   90.00000000
_cell_angle_beta   90.00000000
_cell_angle_gamma   120.56584807
_symmetry_Int_Tables_number   1
_chemical_formula_structural   Sc2Mn4Fe7NiP7
_chemical_formula_sum   'Sc2 Mn4 Fe7 Ni1 P7'
_cell_volume   250.67468240
_cell_formula_units_Z   1
loop_
 _symmetry_equiv_pos_site_id
 _symmetry_equiv_pos_as_xyz
  1  'x, y, z'
loop_
 _atom_site_type_symbol
 _atom_site_label
 _atom_site_symmetry_multiplicity
 _atom_site_fract_x
 _atom_site_fract_y
 _atom_site_fract_z
 _atom_site_occupancy
  Sc  Sc0  1  0.993429  0.993379  0.000000  1
  Sc  Sc1  1  0.670316  0.338022  0.500000  1
  Mn  Mn2  1  0.285585  0.053427  0.500000  1
  Mn  Mn3  1  0.437760  0.541327  0.500000  1
  Mn  Mn4  1  0.107454  0.566957  0.500000  1
  Mn  Mn5  1  0.459620  0.896835  0.500000  1
  Fe  Fe6  1  0.388683  0.290567  0.000000  1
  Fe  Fe7  1  0.902683  0.608175  0.000000  1
  Fe  Fe8  1  0.710565  0.099706  0.000000  1
  Fe  Fe9  1  0.606525  0.784556  0.000000  1
  Fe  Fe10  1  0.173435  0.389214  0.000000  1
  Fe  Fe11  1  0.213785  0.826869  0.000000  1
  Fe  Fe12  1  0.768756  0.717749  0.500000  1
  Ni  Ni13  1  0.946514  0.224878  0.500000  1
  P  P14  1  0.632848  0.550186  0.000000  1
  P  P15  1  0.918055  0.372803  0.000000  1
  P  P16  1  0.463237  0.086514  0.000000  1
  P  P17  1  0.739476  0.948845  0.500000  1
  P  P18  1  0.211340  0.257043  0.500000  1
  P  P19  1  0.037690  0.785101  0.500000  1
  P  P20  1  0.332246  0.667846  0.000000  1
