# generated using pymatgen
data_Ba3ZnCu17P6
_symmetry_space_group_name_H-M   'P 1'
_cell_length_a   9.16671538
_cell_length_b   9.16671599
_cell_length_c   10.59628771
_cell_angle_alpha   58.47000770
_cell_angle_beta   58.47000481
_cell_angle_gamma   36.47385419
_symmetry_Int_Tables_number   1
_chemical_formula_structural   Ba3ZnCu17P6
_chemical_formula_sum   'Ba3 Zn1 Cu17 P6'
_cell_volume   441.84190878
_cell_formula_units_Z   1
loop_
 _symmetry_equiv_pos_site_id
 _symmetry_equiv_pos_as_xyz
  1  'x, y, z'
loop_
 _atom_site_type_symbol
 _atom_site_label
 _atom_site_symmetry_multiplicity
 _atom_site_fract_x
 _atom_site_fract_y
 _atom_site_fract_z
 _atom_site_occupancy
  Ba  Ba0  1  0.500000  0.500000  0.000000  1
  Ba  Ba1  1  0.834490  0.834490  0.997736  1
  Ba  Ba2  1  0.165510  0.165510  0.002264  1
  Zn  Zn3  1  0.000000  0.000000  0.500000  1
  Cu  Cu4  1  0.442288  0.942703  0.672608  1
  Cu  Cu5  1  0.771129  0.283531  0.674295  1
  Cu  Cu6  1  0.112553  0.599599  0.674711  1
  Cu  Cu7  1  0.942703  0.442288  0.672608  1
  Cu  Cu8  1  0.283531  0.771129  0.674295  1
  Cu  Cu9  1  0.599599  0.112553  0.674711  1
  Cu  Cu10  1  0.557712  0.057297  0.327392  1
  Cu  Cu11  1  0.887447  0.400401  0.325289  1
  Cu  Cu12  1  0.228871  0.716469  0.325705  1
  Cu  Cu13  1  0.057297  0.557712  0.327392  1
  Cu  Cu14  1  0.400401  0.887447  0.325289  1
  Cu  Cu15  1  0.716469  0.228871  0.325705  1
  Cu  Cu16  1  0.166601  0.166601  0.499965  1
  Cu  Cu17  1  0.500000  0.500000  0.500000  1
  Cu  Cu18  1  0.833399  0.833399  0.500035  1
  Cu  Cu19  1  0.668049  0.668049  0.500063  1
  Cu  Cu20  1  0.331951  0.331951  0.499937  1
  P  P21  1  0.068474  0.068474  0.794144  1
  P  P22  1  0.401276  0.401276  0.795284  1
  P  P23  1  0.734783  0.734783  0.794346  1
  P  P24  1  0.265217  0.265217  0.205654  1
  P  P25  1  0.598724  0.598724  0.204716  1
  P  P26  1  0.931526  0.931526  0.205856  1
