# generated using pymatgen
data_TbNd3(Lu4Bi3)4
_symmetry_space_group_name_H-M   'P 1'
_cell_length_a   8.22539373
_cell_length_b   9.39906400
_cell_length_c   11.94037100
_cell_angle_alpha   90.00000000
_cell_angle_beta   89.95330182
_cell_angle_gamma   90.00000000
_symmetry_Int_Tables_number   1
_chemical_formula_structural   TbNd3(Lu4Bi3)4
_chemical_formula_sum   'Tb1 Nd3 Lu16 Bi12'
_cell_volume   923.12174099
_cell_formula_units_Z   1
loop_
 _symmetry_equiv_pos_site_id
 _symmetry_equiv_pos_as_xyz
  1  'x, y, z'
loop_
 _atom_site_type_symbol
 _atom_site_label
 _atom_site_symmetry_multiplicity
 _atom_site_fract_x
 _atom_site_fract_y
 _atom_site_fract_z
 _atom_site_occupancy
  Tb  Tb0  1  0.185540  0.750000  0.717369  1
  Nd  Nd1  1  0.315642  0.250000  0.218773  1
  Nd  Nd2  1  0.815187  0.250000  0.281008  1
  Nd  Nd3  1  0.684615  0.750000  0.781116  1
  Lu  Lu4  1  0.352274  0.750000  0.219064  1
  Lu  Lu5  1  0.853124  0.750000  0.281401  1
  Lu  Lu6  1  0.646724  0.250000  0.780376  1
  Lu  Lu7  1  0.147319  0.250000  0.719252  1
  Lu  Lu8  1  0.690918  0.567615  0.061161  1
  Lu  Lu9  1  0.192005  0.932387  0.439249  1
  Lu  Lu10  1  0.308757  0.067468  0.938488  1
  Lu  Lu11  1  0.808096  0.432484  0.561280  1
  Lu  Lu12  1  0.308757  0.432532  0.938488  1
  Lu  Lu13  1  0.808096  0.067516  0.561280  1
  Lu  Lu14  1  0.690918  0.932385  0.061161  1
  Lu  Lu15  1  0.192005  0.567613  0.439249  1
  Lu  Lu16  1  0.477580  0.250000  0.490275  1
  Lu  Lu17  1  0.978354  0.250000  0.009914  1
  Lu  Lu18  1  0.522020  0.750000  0.511290  1
  Lu  Lu19  1  0.021798  0.750000  0.989360  1
  Bi  Bi20  1  0.399134  0.750000  0.962117  1
  Bi  Bi21  1  0.904205  0.750000  0.538837  1
  Bi  Bi22  1  0.599407  0.250000  0.036286  1
  Bi  Bi23  1  0.098631  0.250000  0.463590  1
  Bi  Bi24  1  0.565505  0.990405  0.328308  1
  Bi  Bi25  1  0.065208  0.509280  0.172121  1
  Bi  Bi26  1  0.431340  0.492741  0.672633  1
  Bi  Bi27  1  0.937393  0.007496  0.826744  1
  Bi  Bi28  1  0.431340  0.007259  0.672633  1
  Bi  Bi29  1  0.937393  0.492504  0.826744  1
  Bi  Bi30  1  0.565505  0.509595  0.328308  1
  Bi  Bi31  1  0.065208  0.990720  0.172121  1
