# generated using pymatgen
data_Th2(GaPt3)3
_symmetry_space_group_name_H-M   'P 1'
_cell_length_a   7.83829212
_cell_length_b   7.83829417
_cell_length_c   10.45214164
_cell_angle_alpha   67.41781504
_cell_angle_beta   67.41780880
_cell_angle_gamma   60.09838784
_symmetry_Int_Tables_number   1
_chemical_formula_structural   Th2(GaPt3)3
_chemical_formula_sum   'Th4 Ga6 Pt18'
_cell_volume   498.90438190
_cell_formula_units_Z   2
loop_
 _symmetry_equiv_pos_site_id
 _symmetry_equiv_pos_as_xyz
  1  'x, y, z'
loop_
 _atom_site_type_symbol
 _atom_site_label
 _atom_site_symmetry_multiplicity
 _atom_site_fract_x
 _atom_site_fract_y
 _atom_site_fract_z
 _atom_site_occupancy
  Th  Th0  1  0.244647  0.415972  0.250839  1
  Th  Th1  1  0.755353  0.584028  0.749161  1
  Th  Th2  1  0.415972  0.244647  0.750839  1
  Th  Th3  1  0.584028  0.755353  0.249161  1
  Ga  Ga4  1  0.179245  0.643608  0.499131  1
  Ga  Ga5  1  0.643608  0.179245  0.999131  1
  Ga  Ga6  1  0.000000  0.500000  0.000000  1
  Ga  Ga7  1  0.820755  0.356392  0.500869  1
  Ga  Ga8  1  0.356392  0.820755  0.000869  1
  Ga  Ga9  1  0.500000  0.000000  0.500000  1
  Pt  Pt10  1  0.132871  0.867129  0.250000  1
  Pt  Pt11  1  0.352419  0.529481  0.924976  1
  Pt  Pt12  1  0.698777  0.858589  0.925059  1
  Pt  Pt13  1  0.703970  0.084383  0.245992  1
  Pt  Pt14  1  0.858589  0.698777  0.425059  1
  Pt  Pt15  1  0.977981  0.809480  0.071915  1
  Pt  Pt16  1  0.301223  0.141411  0.074941  1
  Pt  Pt17  1  0.647581  0.470519  0.075024  1
  Pt  Pt18  1  0.915617  0.296030  0.254008  1
  Pt  Pt19  1  0.084383  0.703970  0.745992  1
  Pt  Pt20  1  0.809480  0.977981  0.571915  1
  Pt  Pt21  1  0.529481  0.352419  0.424976  1
  Pt  Pt22  1  0.141411  0.301223  0.574941  1
  Pt  Pt23  1  0.296030  0.915617  0.754008  1
  Pt  Pt24  1  0.022019  0.190520  0.928085  1
  Pt  Pt25  1  0.867129  0.132871  0.750000  1
  Pt  Pt26  1  0.470519  0.647581  0.575024  1
  Pt  Pt27  1  0.190520  0.022019  0.428085  1
