# generated using pymatgen
data_KMo3(SeO6)2
_symmetry_space_group_name_H-M   'P 1'
_cell_length_a   7.38633200
_cell_length_b   7.38631974
_cell_length_c   12.69728200
_cell_angle_alpha   90.00000000
_cell_angle_beta   90.00000000
_cell_angle_gamma   120.00007041
_symmetry_Int_Tables_number   1
_chemical_formula_structural   KMo3(SeO6)2
_chemical_formula_sum   'K2 Mo6 Se4 O24'
_cell_volume   599.92645962
_cell_formula_units_Z   2
loop_
 _symmetry_equiv_pos_site_id
 _symmetry_equiv_pos_as_xyz
  1  'x, y, z'
loop_
 _atom_site_type_symbol
 _atom_site_label
 _atom_site_symmetry_multiplicity
 _atom_site_fract_x
 _atom_site_fract_y
 _atom_site_fract_z
 _atom_site_occupancy
  K  K0  1  0.333313  0.666666  0.921443  1
  K  K1  1  0.666687  0.333334  0.421443  1
  Mo  Mo2  1  0.825915  0.157362  0.785956  1
  Mo  Mo3  1  0.668558  0.825916  0.285956  1
  Mo  Mo4  1  0.157362  0.331442  0.285956  1
  Mo  Mo5  1  0.842638  0.668558  0.785956  1
  Mo  Mo6  1  0.331442  0.174084  0.785956  1
  Mo  Mo7  1  0.174085  0.842638  0.285956  1
  Se  Se8  1  0.333334  0.666666  0.503051  1
  Se  Se9  1  0.666666  0.333334  0.003051  1
  Se  Se10  1  0.000002  0.999999  0.070910  1
  Se  Se11  1  0.999998  0.000001  0.570910  1
  O  O12  1  0.778665  0.198243  0.946904  1
  O  O13  1  0.580424  0.778664  0.446904  1
  O  O14  1  0.198241  0.419576  0.446904  1
  O  O15  1  0.801759  0.580424  0.946904  1
  O  O16  1  0.419576  0.221336  0.946904  1
  O  O17  1  0.221335  0.801757  0.446904  1
  O  O18  1  0.876515  0.122925  0.628990  1
  O  O19  1  0.753597  0.876517  0.128991  1
  O  O20  1  0.122927  0.246406  0.128990  1
  O  O21  1  0.877073  0.753594  0.628990  1
  O  O22  1  0.246403  0.123483  0.628991  1
  O  O23  1  0.123485  0.877075  0.128990  1
  O  O24  1  0.750042  0.861315  0.818265  1
  O  O25  1  0.888732  0.750044  0.318264  1
  O  O26  1  0.861316  0.111270  0.318265  1
  O  O27  1  0.138684  0.888730  0.818265  1
  O  O28  1  0.111268  0.249956  0.818264  1
  O  O29  1  0.249958  0.138685  0.318265  1
  O  O30  1  0.551253  0.087755  0.760435  1
  O  O31  1  0.463502  0.551255  0.260435  1
  O  O32  1  0.087756  0.536498  0.260434  1
  O  O33  1  0.912244  0.463502  0.760434  1
  O  O34  1  0.536498  0.448745  0.760435  1
  O  O35  1  0.448747  0.912245  0.260435  1
