# generated using pymatgen
data_Nb13Ni8W3CN3
_symmetry_space_group_name_H-M   'P 1'
_cell_length_a   8.22620855
_cell_length_b   8.22620846
_cell_length_c   8.21379367
_cell_angle_alpha   59.94998334
_cell_angle_beta   59.94998926
_cell_angle_gamma   59.99999951
_symmetry_Int_Tables_number   1
_chemical_formula_structural   Nb13Ni8W3CN3
_chemical_formula_sum   'Nb13 Ni8 W3 C1 N3'
_cell_volume   392.73489771
_cell_formula_units_Z   1
loop_
 _symmetry_equiv_pos_site_id
 _symmetry_equiv_pos_as_xyz
  1  'x, y, z'
loop_
 _atom_site_type_symbol
 _atom_site_label
 _atom_site_symmetry_multiplicity
 _atom_site_fract_x
 _atom_site_fract_y
 _atom_site_fract_z
 _atom_site_occupancy
  Nb  Nb0  1  0.434108  0.066780  0.065004  1
  Nb  Nb1  1  0.062554  0.438033  0.436859  1
  Nb  Nb2  1  0.066780  0.434108  0.065004  1
  Nb  Nb3  1  0.062554  0.062554  0.436859  1
  Nb  Nb4  1  0.438033  0.062554  0.436859  1
  Nb  Nb5  1  0.434108  0.434108  0.065004  1
  Nb  Nb6  1  0.183220  0.815892  0.184996  1
  Nb  Nb7  1  0.811967  0.187446  0.813141  1
  Nb  Nb8  1  0.815892  0.183220  0.184996  1
  Nb  Nb9  1  0.187446  0.187446  0.813141  1
  Nb  Nb10  1  0.187446  0.811967  0.813141  1
  Nb  Nb11  1  0.815892  0.815892  0.184996  1
  Nb  Nb12  1  0.625000  0.625000  0.125000  1
  Ni  Ni13  1  0.830750  0.830750  0.826080  1
  Ni  Ni14  1  0.828348  0.828348  0.514956  1
  Ni  Ni15  1  0.512418  0.830750  0.826080  1
  Ni  Ni16  1  0.830750  0.512418  0.826080  1
  Ni  Ni17  1  0.419250  0.419250  0.423920  1
  Ni  Ni18  1  0.421652  0.421652  0.735044  1
  Ni  Ni19  1  0.419250  0.737582  0.423920  1
  Ni  Ni20  1  0.737582  0.419250  0.423920  1
  W  W21  1  0.625000  0.625000  0.625000  1
  W  W22  1  0.125000  0.625000  0.625000  1
  W  W23  1  0.625000  0.125000  0.625000  1
  C  C24  1  0.125000  0.125000  0.625000  1
  N  N25  1  0.125000  0.125000  0.125000  1
  N  N26  1  0.625000  0.125000  0.125000  1
  N  N27  1  0.125000  0.625000  0.125000  1
