# generated using pymatgen
data_Ca2Pr4GaSi3
_symmetry_space_group_name_H-M   'P 1'
_cell_length_a   7.83924845
_cell_length_b   7.83924845
_cell_length_c   4.41028400
_cell_angle_alpha   90.00000000
_cell_angle_beta   90.00000000
_cell_angle_gamma   89.27604038
_symmetry_Int_Tables_number   1
_chemical_formula_structural   Ca2Pr4GaSi3
_chemical_formula_sum   'Ca2 Pr4 Ga1 Si3'
_cell_volume   271.00714706
_cell_formula_units_Z   1
loop_
 _symmetry_equiv_pos_site_id
 _symmetry_equiv_pos_as_xyz
  1  'x, y, z'
loop_
 _atom_site_type_symbol
 _atom_site_label
 _atom_site_symmetry_multiplicity
 _atom_site_fract_x
 _atom_site_fract_y
 _atom_site_fract_z
 _atom_site_occupancy
  Ca  Ca0  1  0.502848  0.499167  0.000000  1
  Ca  Ca1  1  0.999167  0.002848  0.000000  1
  Pr  Pr2  1  0.677512  0.177512  0.500000  1
  Pr  Pr3  1  0.326383  0.826383  0.500000  1
  Pr  Pr4  1  0.179067  0.316414  0.500000  1
  Pr  Pr5  1  0.816414  0.679067  0.500000  1
  Ga  Ga6  1  0.113479  0.613479  0.000000  1
  Si  Si7  1  0.885665  0.385665  0.000000  1
  Si  Si8  1  0.610167  0.889297  0.000000  1
  Si  Si9  1  0.389297  0.110167  0.000000  1
