# generated using pymatgen
data_SrLi2SiS4
_symmetry_space_group_name_H-M   'P 1'
_cell_length_a   6.03997867
_cell_length_b   6.03997797
_cell_length_c   6.03997831
_cell_angle_alpha   114.64608453
_cell_angle_beta   114.64608951
_cell_angle_gamma   99.55392697
_symmetry_Int_Tables_number   1
_chemical_formula_structural   SrLi2SiS4
_chemical_formula_sum   'Sr1 Li2 Si1 S4'
_cell_volume   165.90904205
_cell_formula_units_Z   1
loop_
 _symmetry_equiv_pos_site_id
 _symmetry_equiv_pos_as_xyz
  1  'x, y, z'
loop_
 _atom_site_type_symbol
 _atom_site_label
 _atom_site_symmetry_multiplicity
 _atom_site_fract_x
 _atom_site_fract_y
 _atom_site_fract_z
 _atom_site_occupancy
  Sr  Sr0  1  0.000000  0.000000  0.000000  1
  Li  Li1  1  0.250000  0.750000  0.500000  1
  Li  Li2  1  0.750000  0.250000  0.500000  1
  Si  Si3  1  0.500000  0.500000  0.000000  1
  S  S4  1  0.466744  0.466744  0.619030  1
  S  S5  1  0.533256  0.152286  0.000000  1
  S  S6  1  0.152286  0.533256  0.000000  1
  S  S7  1  0.847714  0.847714  0.380970  1
