# generated using pymatgen
data_Mg2H12Ir2Pb
_symmetry_space_group_name_H-M   'P 1'
_cell_length_a   4.75489000
_cell_length_b   4.75489127
_cell_length_c   7.98565500
_cell_angle_alpha   90.00000000
_cell_angle_beta   90.00000000
_cell_angle_gamma   119.99999116
_symmetry_Int_Tables_number   1
_chemical_formula_structural   Mg2H12Ir2Pb
_chemical_formula_sum   'Mg2 H12 Ir2 Pb1'
_cell_volume   156.35878208
_cell_formula_units_Z   1
loop_
 _symmetry_equiv_pos_site_id
 _symmetry_equiv_pos_as_xyz
  1  'x, y, z'
loop_
 _atom_site_type_symbol
 _atom_site_label
 _atom_site_symmetry_multiplicity
 _atom_site_fract_x
 _atom_site_fract_y
 _atom_site_fract_z
 _atom_site_occupancy
  Mg  Mg0  1  0.666667  0.333333  0.368973  1
  Mg  Mg1  1  0.333333  0.666667  0.631027  1
  H  H2  1  0.165272  0.834728  0.387034  1
  H  H3  1  0.669455  0.834728  0.387034  1
  H  H4  1  0.165272  0.330545  0.387034  1
  H  H5  1  0.834728  0.165272  0.612966  1
  H  H6  1  0.330545  0.165272  0.612966  1
  H  H7  1  0.834728  0.669455  0.612966  1
  H  H8  1  0.501664  0.003327  0.851522  1
  H  H9  1  0.501664  0.498336  0.851522  1
  H  H10  1  0.996673  0.498336  0.851522  1
  H  H11  1  0.498336  0.996673  0.148478  1
  H  H12  1  0.498336  0.501664  0.148478  1
  H  H13  1  0.003327  0.501664  0.148478  1
  Ir  Ir14  1  0.666667  0.333333  0.727784  1
  Ir  Ir15  1  0.333333  0.666667  0.272216  1
  Pb  Pb16  1  0.000000  0.000000  0.000000  1
