# generated using pymatgen
data_Sr3YbTa2O9
_symmetry_space_group_name_H-M   'P 1'
_cell_length_a   5.89350284
_cell_length_b   5.89426814
_cell_length_c   14.91854003
_cell_angle_alpha   89.94837371
_cell_angle_beta   89.97288159
_cell_angle_gamma   60.00984914
_symmetry_Int_Tables_number   1
_chemical_formula_structural   Sr3YbTa2O9
_chemical_formula_sum   'Sr6 Yb2 Ta4 O18'
_cell_volume   448.85209700
_cell_formula_units_Z   2
loop_
 _symmetry_equiv_pos_site_id
 _symmetry_equiv_pos_as_xyz
  1  'x, y, z'
loop_
 _atom_site_type_symbol
 _atom_site_label
 _atom_site_symmetry_multiplicity
 _atom_site_fract_x
 _atom_site_fract_y
 _atom_site_fract_z
 _atom_site_occupancy
  Sr  Sr0  1  0.999981  0.000291  0.250637  1
  Sr  Sr1  1  0.666475  0.667857  0.371332  1
  Sr  Sr2  1  0.667446  0.664002  0.121020  1
  Sr  Sr3  1  0.332554  0.335998  0.878980  1
  Sr  Sr4  1  0.333525  0.332143  0.628668  1
  Sr  Sr5  1  0.000019  0.999709  0.749363  1
  Yb  Yb6  1  0.000000  0.000000  0.500000  1
  Yb  Yb7  1  0.000000  0.000000  0.000000  1
  Ta  Ta8  1  0.665243  0.668851  0.851164  1
  Ta  Ta9  1  0.667121  0.665748  0.651276  1
  Ta  Ta10  1  0.332879  0.334252  0.348724  1
  Ta  Ta11  1  0.334757  0.331149  0.148836  1
  O  O12  1  0.585437  0.963274  0.750673  1
  O  O13  1  0.912092  0.742608  0.595099  1
  O  O14  1  0.911427  0.745278  0.906516  1
  O  O15  1  0.343849  0.910380  0.595623  1
  O  O16  1  0.344998  0.915796  0.907360  1
  O  O17  1  0.961961  0.451462  0.751580  1
  O  O18  1  0.451323  0.585767  0.751976  1
  O  O19  1  0.260932  0.648306  0.090293  1
  O  O20  1  0.255421  0.657774  0.403784  1
  O  O21  1  0.744579  0.342226  0.596216  1
  O  O22  1  0.739068  0.351694  0.909707  1
  O  O23  1  0.548677  0.414233  0.248024  1
  O  O24  1  0.038039  0.548538  0.248420  1
  O  O25  1  0.655002  0.084204  0.092640  1
  O  O26  1  0.656151  0.089620  0.404377  1
  O  O27  1  0.088573  0.254722  0.093484  1
  O  O28  1  0.087908  0.257392  0.404901  1
  O  O29  1  0.414563  0.036726  0.249327  1
