# generated using pymatgen
data_Nd7Ho(LuIn5)4
_symmetry_space_group_name_H-M   'P 1'
_cell_length_a   6.63578590
_cell_length_b   10.44781306
_cell_length_c   12.35871300
_cell_angle_alpha   90.05409964
_cell_angle_beta   90.05357623
_cell_angle_gamma   90.08079998
_symmetry_Int_Tables_number   1
_chemical_formula_structural   Nd7Ho(LuIn5)4
_chemical_formula_sum   'Nd7 Ho1 Lu4 In20'
_cell_volume   856.82117276
_cell_formula_units_Z   1
loop_
 _symmetry_equiv_pos_site_id
 _symmetry_equiv_pos_as_xyz
  1  'x, y, z'
loop_
 _atom_site_type_symbol
 _atom_site_label
 _atom_site_symmetry_multiplicity
 _atom_site_fract_x
 _atom_site_fract_y
 _atom_site_fract_z
 _atom_site_occupancy
  Nd  Nd0  1  0.886265  0.488088  0.142533  1
  Nd  Nd1  1  0.613390  0.011723  0.642678  1
  Nd  Nd2  1  0.113250  0.988204  0.856953  1
  Nd  Nd3  1  0.386979  0.511729  0.358271  1
  Nd  Nd4  1  0.113025  0.511886  0.857161  1
  Nd  Nd5  1  0.387158  0.988139  0.357795  1
  Nd  Nd6  1  0.886368  0.011641  0.142542  1
  Ho  Ho7  1  0.612910  0.487852  0.642394  1
  Lu  Lu8  1  0.353235  0.749837  0.053359  1
  Lu  Lu9  1  0.147987  0.750555  0.553659  1
  Lu  Lu10  1  0.647258  0.249698  0.946383  1
  Lu  Lu11  1  0.852697  0.250588  0.447025  1
  In  In12  1  0.613003  0.747106  0.506577  1
  In  In13  1  0.886782  0.749694  0.002607  1
  In  In14  1  0.389058  0.251063  0.497336  1
  In  In15  1  0.113111  0.249871  0.996623  1
  In  In16  1  0.650719  0.749678  0.241314  1
  In  In17  1  0.848117  0.747870  0.739526  1
  In  In18  1  0.350612  0.251922  0.758260  1
  In  In19  1  0.150000  0.250210  0.259517  1
  In  In20  1  0.110895  0.749701  0.276984  1
  In  In21  1  0.389594  0.749238  0.776511  1
  In  In22  1  0.885521  0.253324  0.721811  1
  In  In23  1  0.610552  0.250108  0.222957  1
  In  In24  1  0.873415  0.543355  0.403792  1
  In  In25  1  0.626248  0.955783  0.902813  1
  In  In26  1  0.126416  0.044885  0.597299  1
  In  In27  1  0.374008  0.456465  0.096795  1
  In  In28  1  0.128621  0.457293  0.597961  1
  In  In29  1  0.373739  0.043985  0.097089  1
  In  In30  1  0.873156  0.955821  0.403228  1
  In  In31  1  0.625914  0.542686  0.900250  1
