# generated using pymatgen
data_Dy2Lu4Al24Ru7Rh
_symmetry_space_group_name_H-M   'P 1'
_cell_length_a   8.77537470
_cell_length_b   8.75420519
_cell_length_c   9.56255374
_cell_angle_alpha   89.84624157
_cell_angle_beta   89.99695813
_cell_angle_gamma   120.12563292
_symmetry_Int_Tables_number   1
_chemical_formula_structural   Dy2Lu4Al24Ru7Rh
_chemical_formula_sum   'Dy2 Lu4 Al24 Ru7 Rh1'
_cell_volume   635.38006652
_cell_formula_units_Z   1
loop_
 _symmetry_equiv_pos_site_id
 _symmetry_equiv_pos_as_xyz
  1  'x, y, z'
loop_
 _atom_site_type_symbol
 _atom_site_label
 _atom_site_symmetry_multiplicity
 _atom_site_fract_x
 _atom_site_fract_y
 _atom_site_fract_z
 _atom_site_occupancy
  Dy  Dy0  1  0.806867  0.613427  0.750346  1
  Dy  Dy1  1  0.385027  0.194156  0.750881  1
  Lu  Lu2  1  0.192721  0.803735  0.248816  1
  Lu  Lu3  1  0.195013  0.389705  0.249560  1
  Lu  Lu4  1  0.611619  0.803876  0.248790  1
  Lu  Lu5  1  0.807183  0.196640  0.751309  1
  Al  Al6  1  0.560646  0.437806  0.250244  1
  Al  Al7  1  0.561055  0.121461  0.249439  1
  Al  Al8  1  0.877369  0.437582  0.250306  1
  Al  Al9  1  0.438243  0.563208  0.749724  1
  Al  Al10  1  0.439436  0.877343  0.750690  1
  Al  Al11  1  0.123949  0.561938  0.749740  1
  Al  Al12  1  0.324531  0.163411  0.420194  1
  Al  Al13  1  0.839003  0.163247  0.421015  1
  Al  Al14  1  0.837358  0.674742  0.420490  1
  Al  Al15  1  0.674696  0.836794  0.576845  1
  Al  Al16  1  0.162059  0.836075  0.576804  1
  Al  Al17  1  0.162502  0.325907  0.576599  1
  Al  Al18  1  0.674322  0.838306  0.923200  1
  Al  Al19  1  0.163995  0.837485  0.923360  1
  Al  Al20  1  0.162847  0.326589  0.923695  1
  Al  Al21  1  0.324996  0.161533  0.079704  1
  Al  Al22  1  0.836787  0.161436  0.078956  1
  Al  Al23  1  0.837048  0.674016  0.079185  1
  Al  Al24  1  0.667571  0.334529  0.518999  1
  Al  Al25  1  0.332931  0.665358  0.477722  1
  Al  Al26  1  0.333559  0.666620  0.021168  1
  Al  Al27  1  0.666694  0.332902  0.981967  1
  Al  Al28  1  0.000003  0.999383  0.250008  1
  Al  Al29  1  0.998168  0.001997  0.750081  1
  Ru  Ru30  1  0.000147  0.999862  0.500335  1
  Ru  Ru31  1  0.000152  0.999872  0.999764  1
  Ru  Ru32  1  0.499620  0.500493  0.498749  1
  Ru  Ru33  1  0.000865  0.499846  0.499202  1
  Ru  Ru34  1  0.499552  0.500367  0.001236  1
  Ru  Ru35  1  0.500253  0.999158  0.000864  1
  Ru  Ru36  1  0.000827  0.499757  0.000883  1
  Rh  Rh37  1  0.500385  0.999435  0.499131  1
