# generated using pymatgen
data_ZrGaRh3S8
_symmetry_space_group_name_H-M   'P 1'
_cell_length_a   7.00750238
_cell_length_b   7.00750218
_cell_length_c   7.00750128
_cell_angle_alpha   61.74170558
_cell_angle_beta   61.74169749
_cell_angle_gamma   61.74170405
_symmetry_Int_Tables_number   1
_chemical_formula_structural   ZrGaRh3S8
_chemical_formula_sum   'Zr1 Ga1 Rh3 S8'
_cell_volume   252.81496939
_cell_formula_units_Z   1
loop_
 _symmetry_equiv_pos_site_id
 _symmetry_equiv_pos_as_xyz
  1  'x, y, z'
loop_
 _atom_site_type_symbol
 _atom_site_label
 _atom_site_symmetry_multiplicity
 _atom_site_fract_x
 _atom_site_fract_y
 _atom_site_fract_z
 _atom_site_occupancy
  Zr  Zr0  1  0.598181  0.598181  0.598181  1
  Ga  Ga1  1  0.009513  0.009513  0.009513  1
  Rh  Rh2  1  0.624962  0.624962  0.139393  1
  Rh  Rh3  1  0.624962  0.139393  0.624962  1
  Rh  Rh4  1  0.139393  0.624962  0.624962  1
  S  S5  1  0.358457  0.358457  0.877279  1
  S  S6  1  0.358457  0.877279  0.358457  1
  S  S7  1  0.877279  0.358457  0.358457  1
  S  S8  1  0.391649  0.391649  0.391649  1
  S  S9  1  0.868446  0.868446  0.411511  1
  S  S10  1  0.868446  0.411511  0.868446  1
  S  S11  1  0.411511  0.868446  0.868446  1
  S  S12  1  0.868741  0.868741  0.868741  1
