# generated using pymatgen
data_Gd3(GeRu)2
_symmetry_space_group_name_H-M   'P 1'
_cell_length_a   5.59369600
_cell_length_b   7.76228700
_cell_length_c   13.43073900
_cell_angle_alpha   90.00000000
_cell_angle_beta   90.00000000
_cell_angle_gamma   90.00000000
_symmetry_Int_Tables_number   1
_chemical_formula_structural   Gd3(GeRu)2
_chemical_formula_sum   'Gd12 Ge8 Ru8'
_cell_volume   583.16099165
_cell_formula_units_Z   4
loop_
 _symmetry_equiv_pos_site_id
 _symmetry_equiv_pos_as_xyz
  1  'x, y, z'
loop_
 _atom_site_type_symbol
 _atom_site_label
 _atom_site_symmetry_multiplicity
 _atom_site_fract_x
 _atom_site_fract_y
 _atom_site_fract_z
 _atom_site_occupancy
  Gd  Gd0  1  0.150508  0.098222  0.098665  1
  Gd  Gd1  1  0.849491  0.598221  0.098665  1
  Gd  Gd2  1  0.628905  0.237003  0.250000  1
  Gd  Gd3  1  0.371096  0.737003  0.250000  1
  Gd  Gd4  1  0.150508  0.098222  0.401335  1
  Gd  Gd5  1  0.849491  0.598221  0.401335  1
  Gd  Gd6  1  0.150508  0.401778  0.598665  1
  Gd  Gd7  1  0.849491  0.901779  0.598665  1
  Gd  Gd8  1  0.628905  0.262998  0.750000  1
  Gd  Gd9  1  0.371096  0.762998  0.750000  1
  Gd  Gd10  1  0.150508  0.401778  0.901336  1
  Gd  Gd11  1  0.849491  0.901779  0.901336  1
  Ge  Ge12  1  0.626541  0.250000  0.000000  1
  Ge  Ge13  1  0.373459  0.750000  0.000000  1
  Ge  Ge14  1  0.129546  0.387653  0.250000  1
  Ge  Ge15  1  0.870453  0.887652  0.250000  1
  Ge  Ge16  1  0.626541  0.250000  0.500000  1
  Ge  Ge17  1  0.373459  0.750000  0.500000  1
  Ge  Ge18  1  0.129546  0.112347  0.750000  1
  Ge  Ge19  1  0.870453  0.612348  0.750000  1
  Ru  Ru20  1  0.354941  0.466717  0.091467  1
  Ru  Ru21  1  0.645060  0.966717  0.091467  1
  Ru  Ru22  1  0.354941  0.466717  0.408533  1
  Ru  Ru23  1  0.645060  0.966717  0.408533  1
  Ru  Ru24  1  0.354941  0.033283  0.591467  1
  Ru  Ru25  1  0.645060  0.533285  0.591467  1
  Ru  Ru26  1  0.354941  0.033283  0.908533  1
  Ru  Ru27  1  0.645060  0.533285  0.908533  1
