# generated using pymatgen
data_TbUCu2(PO)2
_symmetry_space_group_name_H-M   'P 1'
_cell_length_a   3.78220200
_cell_length_b   3.78220200
_cell_length_c   8.17425000
_cell_angle_alpha   90.00000000
_cell_angle_beta   90.00000000
_cell_angle_gamma   90.00000000
_symmetry_Int_Tables_number   1
_chemical_formula_structural   TbUCu2(PO)2
_chemical_formula_sum   'Tb1 U1 Cu2 P2 O2'
_cell_volume   116.93307106
_cell_formula_units_Z   1
loop_
 _symmetry_equiv_pos_site_id
 _symmetry_equiv_pos_as_xyz
  1  'x, y, z'
loop_
 _atom_site_type_symbol
 _atom_site_label
 _atom_site_symmetry_multiplicity
 _atom_site_fract_x
 _atom_site_fract_y
 _atom_site_fract_z
 _atom_site_occupancy
  Tb  Tb0  1  0.000000  0.499999  0.160167  1
  U  U1  1  0.499999  0.000000  0.841949  1
  Cu  Cu2  1  0.000000  0.000000  0.502550  1
  Cu  Cu3  1  0.499999  0.499999  0.502550  1
  P  P4  1  0.499999  0.000000  0.328602  1
  P  P5  1  0.000000  0.499999  0.680560  1
  O  O6  1  0.000000  0.000000  0.991811  1
  O  O7  1  0.499999  0.499999  0.991811  1
