# generated using pymatgen
data_Zr19Si16Os
_symmetry_space_group_name_H-M   'P 1'
_cell_length_a   7.12211299
_cell_length_b   7.12211299
_cell_length_c   12.97615839
_cell_angle_alpha   89.78108877
_cell_angle_beta   90.21891123
_cell_angle_gamma   90.00361990
_symmetry_Int_Tables_number   1
_chemical_formula_structural   Zr19Si16Os
_chemical_formula_sum   'Zr19 Si16 Os1'
_cell_volume   658.19945180
_cell_formula_units_Z   1
loop_
 _symmetry_equiv_pos_site_id
 _symmetry_equiv_pos_as_xyz
  1  'x, y, z'
loop_
 _atom_site_type_symbol
 _atom_site_label
 _atom_site_symmetry_multiplicity
 _atom_site_fract_x
 _atom_site_fract_y
 _atom_site_fract_z
 _atom_site_occupancy
  Zr  Zr0  1  0.824708  0.824708  0.500000  1
  Zr  Zr1  1  0.676511  0.323027  0.753779  1
  Zr  Zr2  1  0.323027  0.676511  0.246222  1
  Zr  Zr3  1  0.997891  0.349746  0.214786  1
  Zr  Zr4  1  0.003307  0.649954  0.718332  1
  Zr  Zr5  1  0.498055  0.149997  0.535485  1
  Zr  Zr6  1  0.501354  0.846891  0.033688  1
  Zr  Zr7  1  0.649954  0.003307  0.281669  1
  Zr  Zr8  1  0.349746  0.997891  0.785214  1
  Zr  Zr9  1  0.846891  0.501354  0.966312  1
  Zr  Zr10  1  0.149997  0.498055  0.464515  1
  Zr  Zr11  1  0.000014  0.144095  0.626541  1
  Zr  Zr12  1  0.003239  0.855756  0.119386  1
  Zr  Zr13  1  0.500166  0.356248  0.126615  1
  Zr  Zr14  1  0.501893  0.645332  0.627885  1
  Zr  Zr15  1  0.855756  0.003239  0.880614  1
  Zr  Zr16  1  0.144095  0.000014  0.373460  1
  Zr  Zr17  1  0.645332  0.501893  0.372115  1
  Zr  Zr18  1  0.356248  0.500166  0.873384  1
  Si  Si19  1  0.294949  0.352451  0.679200  1
  Si  Si20  1  0.705855  0.649626  0.177043  1
  Si  Si21  1  0.795079  0.146975  0.073023  1
  Si  Si22  1  0.205418  0.853615  0.572401  1
  Si  Si23  1  0.649626  0.705855  0.822957  1
  Si  Si24  1  0.352451  0.294949  0.320801  1
  Si  Si25  1  0.853615  0.205418  0.427598  1
  Si  Si26  1  0.146975  0.795079  0.926977  1
  Si  Si27  1  0.058130  0.294595  0.819555  1
  Si  Si28  1  0.949335  0.699464  0.311195  1
  Si  Si29  1  0.539704  0.196899  0.940132  1
  Si  Si30  1  0.447421  0.801256  0.436570  1
  Si  Si31  1  0.699464  0.949335  0.688805  1
  Si  Si32  1  0.294595  0.058130  0.180445  1
  Si  Si33  1  0.801256  0.447421  0.563431  1
  Si  Si34  1  0.196899  0.539704  0.059867  1
  Os  Os35  1  0.181046  0.181046  0.000000  1
