# generated using pymatgen
data_Tb6Tm2Sc12Si15Bi
_symmetry_space_group_name_H-M   'P 1'
_cell_length_a   7.16414045
_cell_length_b   7.41058412
_cell_length_c   14.06302765
_cell_angle_alpha   90.04163705
_cell_angle_beta   88.72596784
_cell_angle_gamma   90.26889478
_symmetry_Int_Tables_number   1
_chemical_formula_structural   Tb6Tm2Sc12Si15Bi
_chemical_formula_sum   'Tb6 Tm2 Sc12 Si15 Bi1'
_cell_volume   746.41974807
_cell_formula_units_Z   1
loop_
 _symmetry_equiv_pos_site_id
 _symmetry_equiv_pos_as_xyz
  1  'x, y, z'
loop_
 _atom_site_type_symbol
 _atom_site_label
 _atom_site_symmetry_multiplicity
 _atom_site_fract_x
 _atom_site_fract_y
 _atom_site_fract_z
 _atom_site_occupancy
  Tb  Tb0  1  0.011967  0.176951  0.096882  1
  Tb  Tb1  1  0.988232  0.824630  0.903954  1
  Tb  Tb2  1  0.488861  0.675452  0.904427  1
  Tb  Tb3  1  0.992583  0.830623  0.598179  1
  Tb  Tb4  1  0.511559  0.324550  0.097007  1
  Tb  Tb5  1  0.999852  0.170743  0.399367  1
  Tm  Tm6  1  0.511330  0.316384  0.397212  1
  Tm  Tm7  1  0.513242  0.687448  0.601384  1
  Sc  Sc8  1  0.164260  0.500887  0.755841  1
  Sc  Sc9  1  0.834589  0.498775  0.251779  1
  Sc  Sc10  1  0.335135  0.001623  0.250382  1
  Sc  Sc11  1  0.666802  0.998929  0.751081  1
  Sc  Sc12  1  0.348879  0.156164  0.631838  1
  Sc  Sc13  1  0.658495  0.826643  0.372480  1
  Sc  Sc14  1  0.154065  0.682784  0.369031  1
  Sc  Sc15  1  0.667130  0.823008  0.124275  1
  Sc  Sc16  1  0.826830  0.326896  0.625703  1
  Sc  Sc17  1  0.330858  0.175328  0.875091  1
  Sc  Sc18  1  0.831154  0.323740  0.875407  1
  Sc  Sc19  1  0.168632  0.676320  0.125232  1
  Si  Si20  1  0.036538  0.120008  0.751020  1
  Si  Si21  1  0.960668  0.884488  0.246210  1
  Si  Si22  1  0.461090  0.615654  0.247971  1
  Si  Si23  1  0.535797  0.385130  0.752506  1
  Si  Si24  1  0.290305  0.867100  0.752388  1
  Si  Si25  1  0.709829  0.126550  0.247073  1
  Si  Si26  1  0.210428  0.374025  0.249576  1
  Si  Si27  1  0.792492  0.627867  0.751093  1
  Si  Si28  1  0.809375  0.540294  0.456624  1
  Si  Si29  1  0.332368  0.963645  0.459879  1
  Si  Si30  1  0.844596  0.534699  0.039761  1
  Si  Si31  1  0.668905  0.038687  0.538281  1
  Si  Si32  1  0.154613  0.465101  0.961497  1
  Si  Si33  1  0.654713  0.034702  0.960263  1
  Si  Si34  1  0.343889  0.965997  0.040177  1
  Bi  Bi35  1  0.189933  0.458174  0.539127  1
