# generated using pymatgen
data_Y4MnCo6P12Ir13
_symmetry_space_group_name_H-M   'P 1'
_cell_length_a   3.89101800
_cell_length_b   10.63676811
_cell_length_c   12.31585352
_cell_angle_alpha   90.08150041
_cell_angle_beta   90.00000000
_cell_angle_gamma   90.00000000
_symmetry_Int_Tables_number   1
_chemical_formula_structural   Y4MnCo6P12Ir13
_chemical_formula_sum   'Y4 Mn1 Co6 P12 Ir13'
_cell_volume   509.72625838
_cell_formula_units_Z   1
loop_
 _symmetry_equiv_pos_site_id
 _symmetry_equiv_pos_as_xyz
  1  'x, y, z'
loop_
 _atom_site_type_symbol
 _atom_site_label
 _atom_site_symmetry_multiplicity
 _atom_site_fract_x
 _atom_site_fract_y
 _atom_site_fract_z
 _atom_site_occupancy
  Y  Y0  1  0.250000  0.918127  0.212364  1
  Y  Y1  1  0.750000  0.080341  0.788590  1
  Y  Y2  1  0.750000  0.414103  0.292707  1
  Y  Y3  1  0.250000  0.589445  0.709156  1
  Mn  Mn4  1  0.250000  0.786639  0.483476  1
  Co  Co5  1  0.750000  0.116144  0.305761  1
  Co  Co6  1  0.250000  0.878774  0.693783  1
  Co  Co7  1  0.250000  0.036062  0.436215  1
  Co  Co8  1  0.750000  0.965204  0.565487  1
  Co  Co9  1  0.750000  0.537470  0.064119  1
  Co  Co10  1  0.250000  0.462095  0.933303  1
  P  P11  1  0.250000  0.063168  0.611876  1
  P  P12  1  0.750000  0.932090  0.391383  1
  P  P13  1  0.750000  0.576809  0.892565  1
  P  P14  1  0.250000  0.421417  0.105433  1
  P  P15  1  0.250000  0.224773  0.370748  1
  P  P16  1  0.750000  0.775576  0.628594  1
  P  P17  1  0.750000  0.728878  0.129095  1
  P  P18  1  0.250000  0.269616  0.870937  1
  P  P19  1  0.250000  0.903420  0.874758  1
  P  P20  1  0.750000  0.096015  0.125661  1
  P  P21  1  0.750000  0.404776  0.612125  1
  P  P22  1  0.250000  0.603368  0.389531  1
  Ir  Ir23  1  0.750000  0.218658  0.512456  1
  Ir  Ir24  1  0.750000  0.276352  0.016952  1
  Ir  Ir25  1  0.250000  0.723360  0.983863  1
  Ir  Ir26  1  0.250000  0.089062  0.975648  1
  Ir  Ir27  1  0.750000  0.910356  0.025258  1
  Ir  Ir28  1  0.750000  0.596329  0.520169  1
  Ir  Ir29  1  0.250000  0.406915  0.479655  1
  Ir  Ir30  1  0.250000  0.264696  0.677510  1
  Ir  Ir31  1  0.750000  0.733508  0.321463  1
  Ir  Ir32  1  0.750000  0.776793  0.820694  1
  Ir  Ir33  1  0.250000  0.222938  0.180582  1
  Ir  Ir34  1  0.250000  0.610649  0.198542  1
  Ir  Ir35  1  0.750000  0.386079  0.799543  1
