# generated using pymatgen
data_Hf2Sc6Co7Si14Ru
_symmetry_space_group_name_H-M   'P 1'
_cell_length_a   9.48931532
_cell_length_b   9.49143578
_cell_length_c   9.51337492
_cell_angle_alpha   94.27009873
_cell_angle_beta   94.01322828
_cell_angle_gamma   148.81186993
_symmetry_Int_Tables_number   1
_chemical_formula_structural   Hf2Sc6Co7Si14Ru
_chemical_formula_sum   'Hf2 Sc6 Co7 Si14 Ru1'
_cell_volume   427.40106896
_cell_formula_units_Z   1
loop_
 _symmetry_equiv_pos_site_id
 _symmetry_equiv_pos_as_xyz
  1  'x, y, z'
loop_
 _atom_site_type_symbol
 _atom_site_label
 _atom_site_symmetry_multiplicity
 _atom_site_fract_x
 _atom_site_fract_y
 _atom_site_fract_z
 _atom_site_occupancy
  Hf  Hf0  1  0.499868  0.695381  0.195539  1
  Hf  Hf1  1  0.497799  0.303360  0.803237  1
  Sc  Sc2  1  0.139308  0.138149  0.276333  1
  Sc  Sc3  1  0.861019  0.861971  0.722564  1
  Sc  Sc4  1  0.136762  0.860197  0.000140  1
  Sc  Sc5  1  0.861988  0.138470  0.998242  1
  Sc  Sc6  1  0.304117  0.499880  0.801979  1
  Sc  Sc7  1  0.696767  0.500594  0.196289  1
  Co  Co8  1  0.395174  0.896225  0.791902  1
  Co  Co9  1  0.897691  0.100761  0.499989  1
  Co  Co10  1  0.603322  0.400256  0.502335  1
  Co  Co11  1  0.603357  0.102305  0.203584  1
  Co  Co12  1  0.897511  0.398908  0.796262  1
  Co  Co13  1  0.104038  0.897455  0.501096  1
  Co  Co14  1  0.395459  0.602007  0.498956  1
  Si  Si15  1  0.289238  0.289629  0.579245  1
  Si  Si16  1  0.710319  0.709975  0.420251  1
  Si  Si17  1  0.298530  0.717487  0.995255  1
  Si  Si18  1  0.696943  0.278187  0.995856  1
  Si  Si19  1  0.087676  0.495682  0.592002  1
  Si  Si20  1  0.894119  0.486383  0.413804  1
  Si  Si21  1  0.519453  0.926948  0.413161  1
  Si  Si22  1  0.503676  0.096025  0.592483  1
  Si  Si23  1  0.250859  0.251700  0.999549  1
  Si  Si24  1  0.748886  0.748289  0.999750  1
  Si  Si25  1  0.311361  0.013511  0.302753  1
  Si  Si26  1  0.699199  0.001460  0.698117  1
  Si  Si27  1  0.999171  0.699584  0.700805  1
  Si  Si28  1  0.992177  0.286664  0.300586  1
  Ru  Ru29  1  0.104212  0.602557  0.207936  1
