# generated using pymatgen
data_Nd4Ga18PdRu5
_symmetry_space_group_name_H-M   'P 1'
_cell_length_a   7.57934597
_cell_length_b   7.57933967
_cell_length_c   9.79729901
_cell_angle_alpha   90.07926742
_cell_angle_beta   90.07946309
_cell_angle_gamma   119.34280673
_symmetry_Int_Tables_number   1
_chemical_formula_structural   Nd4Ga18PdRu5
_chemical_formula_sum   'Nd4 Ga18 Pd1 Ru5'
_cell_volume   490.61019824
_cell_formula_units_Z   1
loop_
 _symmetry_equiv_pos_site_id
 _symmetry_equiv_pos_as_xyz
  1  'x, y, z'
loop_
 _atom_site_type_symbol
 _atom_site_label
 _atom_site_symmetry_multiplicity
 _atom_site_fract_x
 _atom_site_fract_y
 _atom_site_fract_z
 _atom_site_occupancy
  Nd  Nd0  1  0.997463  0.671599  0.250850  1
  Nd  Nd1  1  0.002537  0.328401  0.749150  1
  Nd  Nd2  1  0.671598  0.997463  0.250850  1
  Nd  Nd3  1  0.328402  0.002537  0.749150  1
  Ga  Ga4  1  0.134780  0.134780  0.254023  1
  Ga  Ga5  1  0.865220  0.865220  0.745977  1
  Ga  Ga6  1  0.006647  0.340620  0.076834  1
  Ga  Ga7  1  0.993353  0.659380  0.923166  1
  Ga  Ga8  1  0.993535  0.663526  0.573657  1
  Ga  Ga9  1  0.336473  0.006465  0.426343  1
  Ga  Ga10  1  0.006465  0.336474  0.426343  1
  Ga  Ga11  1  0.663527  0.993535  0.573657  1
  Ga  Ga12  1  0.659380  0.993353  0.923166  1
  Ga  Ga13  1  0.340620  0.006647  0.076834  1
  Ga  Ga14  1  0.337265  0.337265  0.555933  1
  Ga  Ga15  1  0.662735  0.662735  0.444067  1
  Ga  Ga16  1  0.655562  0.655562  0.061012  1
  Ga  Ga17  1  0.344438  0.344438  0.938988  1
  Ga  Ga18  1  0.336516  0.548216  0.250157  1
  Ga  Ga19  1  0.663484  0.451784  0.749843  1
  Ga  Ga20  1  0.548217  0.336516  0.250157  1
  Ga  Ga21  1  0.451783  0.663484  0.749843  1
  Pd  Pd22  1  0.000000  0.000000  0.000000  1
  Ru  Ru23  1  0.673517  0.326483  0.000000  1
  Ru  Ru24  1  0.326483  0.673517  0.000000  1
  Ru  Ru25  1  0.327084  0.672915  0.500000  1
  Ru  Ru26  1  0.672916  0.327085  0.500000  1
  Ru  Ru27  1  0.000000  0.000000  0.500000  1
