# generated using pymatgen
data_ZnBi3Ir3RhO14
_symmetry_space_group_name_H-M   'P 1'
_cell_length_a   7.35160998
_cell_length_b   7.19504375
_cell_length_c   7.35161100
_cell_angle_alpha   59.27752641
_cell_angle_beta   59.99999993
_cell_angle_gamma   59.27752643
_symmetry_Int_Tables_number   1
_chemical_formula_structural   ZnBi3Ir3RhO14
_chemical_formula_sum   'Zn1 Bi3 Ir3 Rh1 O14'
_cell_volume   271.92773314
_cell_formula_units_Z   1
loop_
 _symmetry_equiv_pos_site_id
 _symmetry_equiv_pos_as_xyz
  1  'x, y, z'
loop_
 _atom_site_type_symbol
 _atom_site_label
 _atom_site_symmetry_multiplicity
 _atom_site_fract_x
 _atom_site_fract_y
 _atom_site_fract_z
 _atom_site_occupancy
  Zn  Zn0  1  0.125000  0.625000  0.125000  1
  Bi  Bi1  1  0.125000  0.125000  0.125000  1
  Bi  Bi2  1  0.625000  0.125000  0.125000  1
  Bi  Bi3  1  0.125000  0.125000  0.625000  1
  Ir  Ir4  1  0.625000  0.625000  0.625000  1
  Ir  Ir5  1  0.625000  0.625000  0.125000  1
  Ir  Ir6  1  0.125000  0.625000  0.625000  1
  Rh  Rh7  1  0.625000  0.125000  0.625000  1
  O  O8  1  0.236848  0.289457  0.236848  1
  O  O9  1  0.297071  0.701704  0.297071  1
  O  O10  1  0.960732  0.959738  0.539765  1
  O  O11  1  0.539765  0.959738  0.539765  1
  O  O12  1  0.704154  0.701704  0.297071  1
  O  O13  1  0.952929  0.548296  0.545846  1
  O  O14  1  0.710235  0.290262  0.710235  1
  O  O15  1  0.289268  0.290262  0.710235  1
  O  O16  1  0.710235  0.290262  0.289268  1
  O  O17  1  0.297071  0.701704  0.704154  1
  O  O18  1  0.952929  0.548296  0.952929  1
  O  O19  1  0.545846  0.548296  0.952929  1
  O  O20  1  0.013152  0.960543  0.013152  1
  O  O21  1  0.539765  0.959738  0.960732  1
