# generated using pymatgen
data_DyThSi7Rh12
_symmetry_space_group_name_H-M   'P 1'
_cell_length_a   9.77756800
_cell_length_b   9.77756776
_cell_length_c   3.87500000
_cell_angle_alpha   90.00000000
_cell_angle_beta   90.00000000
_cell_angle_gamma   120.00000081
_symmetry_Int_Tables_number   1
_chemical_formula_structural   DyThSi7Rh12
_chemical_formula_sum   'Dy1 Th1 Si7 Rh12'
_cell_volume   320.82190588
_cell_formula_units_Z   1
loop_
 _symmetry_equiv_pos_site_id
 _symmetry_equiv_pos_as_xyz
  1  'x, y, z'
loop_
 _atom_site_type_symbol
 _atom_site_label
 _atom_site_symmetry_multiplicity
 _atom_site_fract_x
 _atom_site_fract_y
 _atom_site_fract_z
 _atom_site_occupancy
  Dy  Dy0  1  0.666667  0.333333  0.249938  1
  Th  Th1  1  0.333333  0.666667  0.750267  1
  Si  Si2  1  0.000000  0.000000  0.490336  1
  Si  Si3  1  0.401511  0.290814  0.751970  1
  Si  Si4  1  0.709186  0.110698  0.751970  1
  Si  Si5  1  0.889302  0.598489  0.751970  1
  Si  Si6  1  0.605609  0.710638  0.248634  1
  Si  Si7  1  0.289362  0.894969  0.248634  1
  Si  Si8  1  0.105031  0.394391  0.248634  1
  Rh  Rh9  1  0.443941  0.064585  0.751892  1
  Rh  Rh10  1  0.935415  0.379357  0.751892  1
  Rh  Rh11  1  0.620643  0.556059  0.751892  1
  Rh  Rh12  1  0.554887  0.935446  0.249138  1
  Rh  Rh13  1  0.064554  0.619442  0.249138  1
  Rh  Rh14  1  0.380558  0.445113  0.249138  1
  Rh  Rh15  1  0.143209  0.261609  0.746810  1
  Rh  Rh16  1  0.738391  0.881600  0.746810  1
  Rh  Rh17  1  0.118400  0.856791  0.746810  1
  Rh  Rh18  1  0.858953  0.737183  0.254709  1
  Rh  Rh19  1  0.262817  0.121769  0.254709  1
  Rh  Rh20  1  0.878231  0.141047  0.254709  1
