# generated using pymatgen
data_Li6CaNp2N6
_symmetry_space_group_name_H-M   'P 1'
_cell_length_a   6.01085900
_cell_length_b   6.01085824
_cell_length_c   5.45845200
_cell_angle_alpha   90.00000000
_cell_angle_beta   90.00000000
_cell_angle_gamma   119.99999870
_symmetry_Int_Tables_number   1
_chemical_formula_structural   Li6CaNp2N6
_chemical_formula_sum   'Li6 Ca1 Np2 N6'
_cell_volume   170.79421600
_cell_formula_units_Z   1
loop_
 _symmetry_equiv_pos_site_id
 _symmetry_equiv_pos_as_xyz
  1  'x, y, z'
loop_
 _atom_site_type_symbol
 _atom_site_label
 _atom_site_symmetry_multiplicity
 _atom_site_fract_x
 _atom_site_fract_y
 _atom_site_fract_z
 _atom_site_occupancy
  Li  Li0  1  0.985606  0.659895  0.608910  1
  Li  Li1  1  0.340105  0.325711  0.608910  1
  Li  Li2  1  0.674289  0.014394  0.608910  1
  Li  Li3  1  0.014394  0.340105  0.391090  1
  Li  Li4  1  0.659895  0.674289  0.391090  1
  Li  Li5  1  0.325711  0.985606  0.391090  1
  Ca  Ca6  1  0.000000  0.000000  0.000000  1
  Np  Np7  1  0.333333  0.666667  0.994465  1
  Np  Np8  1  0.666667  0.333333  0.005535  1
  N  N9  1  0.001774  0.640567  0.223070  1
  N  N10  1  0.359433  0.361209  0.223070  1
  N  N11  1  0.638791  0.998226  0.223070  1
  N  N12  1  0.998226  0.359433  0.776930  1
  N  N13  1  0.640567  0.638791  0.776930  1
  N  N14  1  0.361209  0.001774  0.776930  1
