# generated using pymatgen
data_NaV4InI12
_symmetry_space_group_name_H-M   'P 1'
_cell_length_a   7.94097800
_cell_length_b   7.94097778
_cell_length_c   13.45654000
_cell_angle_alpha   90.00000000
_cell_angle_beta   90.00000000
_cell_angle_gamma   119.99999259
_symmetry_Int_Tables_number   1
_chemical_formula_structural   NaV4InI12
_chemical_formula_sum   'Na1 V4 In1 I12'
_cell_volume   734.87258221
_cell_formula_units_Z   1
loop_
 _symmetry_equiv_pos_site_id
 _symmetry_equiv_pos_as_xyz
  1  'x, y, z'
loop_
 _atom_site_type_symbol
 _atom_site_label
 _atom_site_symmetry_multiplicity
 _atom_site_fract_x
 _atom_site_fract_y
 _atom_site_fract_z
 _atom_site_occupancy
  Na  Na0  1  0.666667  0.333333  0.372946  1
  V  V1  1  0.000000  0.000000  0.127215  1
  V  V2  1  0.000000  0.000000  0.376843  1
  V  V3  1  0.000000  0.000000  0.622069  1
  V  V4  1  0.000000  0.000000  0.876500  1
  In  In5  1  0.333333  0.666667  0.873935  1
  I  I6  1  0.986921  0.711727  0.001097  1
  I  I7  1  0.280367  0.993184  0.251724  1
  I  I8  1  0.006816  0.287182  0.251724  1
  I  I9  1  0.288273  0.275194  0.001097  1
  I  I10  1  0.282452  0.287658  0.499965  1
  I  I11  1  0.724806  0.013079  0.001097  1
  I  I12  1  0.287703  0.015487  0.750532  1
  I  I13  1  0.712818  0.719633  0.251724  1
  I  I14  1  0.727783  0.712297  0.750532  1
  I  I15  1  0.005206  0.717548  0.499965  1
  I  I16  1  0.712342  0.994794  0.499965  1
  I  I17  1  0.984513  0.272217  0.750532  1
