# generated using pymatgen
data_TlAg2Bi(Ir2O7)2
_symmetry_space_group_name_H-M   'P 1'
_cell_length_a   7.25302130
_cell_length_b   7.25302225
_cell_length_c   7.32944187
_cell_angle_alpha   59.93819233
_cell_angle_beta   59.93820499
_cell_angle_gamma   59.96804390
_symmetry_Int_Tables_number   1
_chemical_formula_structural   TlAg2Bi(Ir2O7)2
_chemical_formula_sum   'Tl1 Ag2 Bi1 Ir4 O14'
_cell_volume   272.32201506
_cell_formula_units_Z   1
loop_
 _symmetry_equiv_pos_site_id
 _symmetry_equiv_pos_as_xyz
  1  'x, y, z'
loop_
 _atom_site_type_symbol
 _atom_site_label
 _atom_site_symmetry_multiplicity
 _atom_site_fract_x
 _atom_site_fract_y
 _atom_site_fract_z
 _atom_site_occupancy
  Tl  Tl0  1  0.125000  0.125000  0.125000  1
  Ag  Ag1  1  0.625000  0.125000  0.125000  1
  Ag  Ag2  1  0.125000  0.625000  0.125000  1
  Bi  Bi3  1  0.125000  0.125000  0.625000  1
  Ir  Ir4  1  0.125000  0.625000  0.625000  1
  Ir  Ir5  1  0.625000  0.125000  0.625000  1
  Ir  Ir6  1  0.625000  0.625000  0.125000  1
  Ir  Ir7  1  0.625000  0.625000  0.625000  1
  O  O8  1  0.692672  0.692672  0.307884  1
  O  O9  1  0.291852  0.291852  0.706447  1
  O  O10  1  0.710686  0.296616  0.692896  1
  O  O11  1  0.298190  0.707910  0.302858  1
  O  O12  1  0.296616  0.710686  0.692896  1
  O  O13  1  0.707910  0.298190  0.302858  1
  O  O14  1  0.557328  0.557328  0.942116  1
  O  O15  1  0.958148  0.958148  0.543553  1
  O  O16  1  0.539314  0.953384  0.557104  1
  O  O17  1  0.951810  0.542090  0.947142  1
  O  O18  1  0.953384  0.539314  0.557104  1
  O  O19  1  0.542090  0.951810  0.947142  1
  O  O20  1  0.264111  0.264111  0.240852  1
  O  O21  1  0.985889  0.985889  0.009148  1
