# generated using pymatgen
data_Ca3Bi5O14
_symmetry_space_group_name_H-M   'P 1'
_cell_length_a   7.81775934
_cell_length_b   7.76818663
_cell_length_c   7.81775900
_cell_angle_alpha   59.78868182
_cell_angle_beta   59.99999721
_cell_angle_gamma   59.78867603
_symmetry_Int_Tables_number   1
_chemical_formula_structural   Ca3Bi5O14
_chemical_formula_sum   'Ca3 Bi5 O14'
_cell_volume   334.63751165
_cell_formula_units_Z   1
loop_
 _symmetry_equiv_pos_site_id
 _symmetry_equiv_pos_as_xyz
  1  'x, y, z'
loop_
 _atom_site_type_symbol
 _atom_site_label
 _atom_site_symmetry_multiplicity
 _atom_site_fract_x
 _atom_site_fract_y
 _atom_site_fract_z
 _atom_site_occupancy
  Ca  Ca0  1  0.000000  0.500001  0.000000  1
  Ca  Ca1  1  0.499999  0.500000  0.500001  1
  Ca  Ca2  1  0.000000  0.499999  0.500001  1
  Bi  Bi3  1  0.000000  0.000000  0.000000  1
  Bi  Bi4  1  0.500000  0.000000  0.000000  1
  Bi  Bi5  1  0.500001  0.500001  0.000000  1
  Bi  Bi6  1  0.000000  0.000000  0.499999  1
  Bi  Bi7  1  0.500001  0.000000  0.499999  1
  O  O8  1  0.583393  0.666344  0.083394  1
  O  O9  1  0.166616  0.083421  0.083349  1
  O  O10  1  0.166867  0.666343  0.083394  1
  O  O11  1  0.416606  0.333657  0.333131  1
  O  O12  1  0.416650  0.916584  0.333383  1
  O  O13  1  0.833383  0.916583  0.333385  1
  O  O14  1  0.877380  0.367864  0.377378  1
  O  O15  1  0.122621  0.632138  0.622619  1
  O  O16  1  0.583350  0.083418  0.666615  1
  O  O17  1  0.166617  0.083418  0.666615  1
  O  O18  1  0.583392  0.666344  0.666869  1
  O  O19  1  0.833386  0.916583  0.916648  1
  O  O20  1  0.416605  0.333658  0.916606  1
  O  O21  1  0.833131  0.333658  0.916606  1
