# generated using pymatgen
data_Ba3Si2Rh6Pb
_symmetry_space_group_name_H-M   'P 1'
_cell_length_a   8.74176596
_cell_length_b   8.74176587
_cell_length_c   8.74176600
_cell_angle_alpha   39.13058524
_cell_angle_beta   39.13058595
_cell_angle_gamma   39.13058945
_symmetry_Int_Tables_number   1
_chemical_formula_structural   Ba3Si2Rh6Pb
_chemical_formula_sum   'Ba3 Si2 Rh6 Pb1'
_cell_volume   239.33107456
_cell_formula_units_Z   1
loop_
 _symmetry_equiv_pos_site_id
 _symmetry_equiv_pos_as_xyz
  1  'x, y, z'
loop_
 _atom_site_type_symbol
 _atom_site_label
 _atom_site_symmetry_multiplicity
 _atom_site_fract_x
 _atom_site_fract_y
 _atom_site_fract_z
 _atom_site_occupancy
  Ba  Ba0  1  0.362875  0.362875  0.362875  1
  Ba  Ba1  1  0.500000  0.500000  0.500000  1
  Ba  Ba2  1  0.637125  0.637125  0.637125  1
  Si  Si3  1  0.167419  0.167419  0.167419  1
  Si  Si4  1  0.832581  0.832581  0.832581  1
  Rh  Rh5  1  0.571073  0.068319  0.068318  1
  Rh  Rh6  1  0.068319  0.571073  0.068318  1
  Rh  Rh7  1  0.931681  0.931681  0.428928  1
  Rh  Rh8  1  0.068319  0.068319  0.571072  1
  Rh  Rh9  1  0.931681  0.428927  0.931682  1
  Rh  Rh10  1  0.428927  0.931681  0.931682  1
  Pb  Pb11  1  0.000000  0.000000  0.000000  1
