# generated using pymatgen
data_Tb2Fe3P7(IrRu2)3
_symmetry_space_group_name_H-M   'P 1'
_cell_length_a   3.86458900
_cell_length_b   9.32374814
_cell_length_c   9.34094317
_cell_angle_alpha   119.96887146
_cell_angle_beta   90.00000000
_cell_angle_gamma   90.00000000
_symmetry_Int_Tables_number   1
_chemical_formula_structural   Tb2Fe3P7(IrRu2)3
_chemical_formula_sum   'Tb2 Fe3 P7 Ir3 Ru6'
_cell_volume   291.57571498
_cell_formula_units_Z   1
loop_
 _symmetry_equiv_pos_site_id
 _symmetry_equiv_pos_as_xyz
  1  'x, y, z'
loop_
 _atom_site_type_symbol
 _atom_site_label
 _atom_site_symmetry_multiplicity
 _atom_site_fract_x
 _atom_site_fract_y
 _atom_site_fract_z
 _atom_site_occupancy
  Tb  Tb0  1  0.000000  0.666384  0.332017  1
  Tb  Tb1  1  0.500000  0.333279  0.666296  1
  Fe  Fe2  1  0.000000  0.891713  0.732353  1
  Fe  Fe3  1  0.000000  0.269547  0.160484  1
  Fe  Fe4  1  0.000000  0.842202  0.110835  1
  P  P5  1  0.000000  0.107899  0.696993  1
  P  P6  1  0.000000  0.298941  0.412176  1
  P  P7  1  0.000000  0.592129  0.891056  1
  P  P8  1  0.500000  0.717952  0.604959  1
  P  P9  1  0.500000  0.399917  0.118163  1
  P  P10  1  0.500000  0.880676  0.277270  1
  P  P11  1  0.000000  0.000605  0.001040  1
  Ir  Ir12  1  0.000000  0.362314  0.935913  1
  Ir  Ir13  1  0.500000  0.942565  0.558749  1
  Ir  Ir14  1  0.500000  0.439851  0.385839  1
  Ru  Ru15  1  0.000000  0.060164  0.425378  1
  Ru  Ru16  1  0.000000  0.575555  0.636962  1
  Ru  Ru17  1  0.500000  0.612822  0.051225  1
  Ru  Ru18  1  0.500000  0.124491  0.912289  1
  Ru  Ru19  1  0.500000  0.087012  0.209363  1
  Ru  Ru20  1  0.500000  0.793982  0.880639  1
