# generated using pymatgen
data_PrAl5Ag6
_symmetry_space_group_name_H-M   'P 1'
_cell_length_a   11.14493558
_cell_length_b   8.82135153
_cell_length_c   8.46936700
_cell_angle_alpha   80.23747490
_cell_angle_beta   51.26517821
_cell_angle_gamma   48.49734266
_symmetry_Int_Tables_number   1
_chemical_formula_structural   PrAl5Ag6
_chemical_formula_sum   'Pr2 Al10 Ag12'
_cell_volume   441.56455742
_cell_formula_units_Z   2
loop_
 _symmetry_equiv_pos_site_id
 _symmetry_equiv_pos_as_xyz
  1  'x, y, z'
loop_
 _atom_site_type_symbol
 _atom_site_label
 _atom_site_symmetry_multiplicity
 _atom_site_fract_x
 _atom_site_fract_y
 _atom_site_fract_z
 _atom_site_occupancy
  Pr  Pr0  1  0.000000  0.000000  0.000000  1
  Pr  Pr1  1  0.250000  0.250000  0.250000  1
  Al  Al2  1  0.500000  0.500000  0.500000  1
  Al  Al3  1  0.750000  0.750000  0.750000  1
  Al  Al4  1  0.761694  0.069995  0.819164  1
  Al  Al5  1  0.819164  0.349148  0.761694  1
  Al  Al6  1  0.069995  0.761694  0.349148  1
  Al  Al7  1  0.349148  0.819164  0.069995  1
  Al  Al8  1  0.488306  0.180005  0.430836  1
  Al  Al9  1  0.430836  0.900852  0.488306  1
  Al  Al10  1  0.180005  0.488306  0.900852  1
  Al  Al11  1  0.900852  0.430836  0.180005  1
  Ag  Ag12  1  0.625000  0.125000  0.625000  1
  Ag  Ag13  1  0.625000  0.625000  0.625000  1
  Ag  Ag14  1  0.125000  0.625000  0.625000  1
  Ag  Ag15  1  0.625000  0.625000  0.125000  1
  Ag  Ag16  1  0.507459  0.404608  0.175059  1
  Ag  Ag17  1  0.175059  0.912874  0.507459  1
  Ag  Ag18  1  0.404608  0.507459  0.912874  1
  Ag  Ag19  1  0.912874  0.175059  0.404608  1
  Ag  Ag20  1  0.742541  0.845392  0.074941  1
  Ag  Ag21  1  0.074941  0.337126  0.742541  1
  Ag  Ag22  1  0.845392  0.742541  0.337126  1
  Ag  Ag23  1  0.337126  0.074941  0.845392  1
