# generated using pymatgen
data_La3Cr2(GaO4)3
_symmetry_space_group_name_H-M   'P 1'
_cell_length_a   11.07349353
_cell_length_b   11.07349325
_cell_length_c   11.07349300
_cell_angle_alpha   109.47121834
_cell_angle_beta   109.47121784
_cell_angle_gamma   109.47121876
_symmetry_Int_Tables_number   1
_chemical_formula_structural   La3Cr2(GaO4)3
_chemical_formula_sum   'La12 Cr8 Ga12 O48'
_cell_volume   1045.27865856
_cell_formula_units_Z   4
loop_
 _symmetry_equiv_pos_site_id
 _symmetry_equiv_pos_as_xyz
  1  'x, y, z'
loop_
 _atom_site_type_symbol
 _atom_site_label
 _atom_site_symmetry_multiplicity
 _atom_site_fract_x
 _atom_site_fract_y
 _atom_site_fract_z
 _atom_site_occupancy
  La  La0  1  0.250000  0.374999  0.124999  1
  La  La1  1  0.375001  0.750000  0.125001  1
  La  La2  1  0.374999  0.124999  0.250000  1
  La  La3  1  0.875000  0.625000  0.250000  1
  La  La4  1  0.124999  0.250000  0.374999  1
  La  La5  1  0.750000  0.125000  0.375001  1
  La  La6  1  0.875000  0.750001  0.624999  1
  La  La7  1  0.250000  0.875000  0.625000  1
  La  La8  1  0.624999  0.875000  0.750001  1
  La  La9  1  0.125000  0.375001  0.750000  1
  La  La10  1  0.625000  0.250000  0.875000  1
  La  La11  1  0.750001  0.624999  0.875000  1
  Cr  Cr12  1  0.000000  0.000000  0.000000  1
  Cr  Cr13  1  0.500000  0.000000  0.000000  1
  Cr  Cr14  1  0.000000  0.500000  0.000000  1
  Cr  Cr15  1  0.500001  0.500001  0.000000  1
  Cr  Cr16  1  0.000000  0.000000  0.500000  1
  Cr  Cr17  1  0.500000  0.500000  0.500000  1
  Cr  Cr18  1  0.500001  0.000000  0.500001  1
  Cr  Cr19  1  0.000000  0.500001  0.500001  1
  Ga  Ga20  1  0.875000  0.250000  0.124999  1
  Ga  Ga21  1  0.750001  0.875000  0.124999  1
  Ga  Ga22  1  0.624999  0.374999  0.250000  1
  Ga  Ga23  1  0.124999  0.875000  0.250000  1
  Ga  Ga24  1  0.250000  0.624999  0.375000  1
  Ga  Ga25  1  0.625000  0.750000  0.374999  1
  Ga  Ga26  1  0.375000  0.250000  0.624999  1
  Ga  Ga27  1  0.750001  0.374999  0.625000  1
  Ga  Ga28  1  0.875000  0.124999  0.750001  1
  Ga  Ga29  1  0.374999  0.625000  0.750001  1
  Ga  Ga30  1  0.250000  0.124999  0.875000  1
  Ga  Ga31  1  0.124999  0.750001  0.875000  1
  O  O32  1  0.320151  0.902834  0.020891  1
  O  O33  1  0.200739  0.118057  0.020892  1
  O  O34  1  0.700739  0.679848  0.082682  1
  O  O35  1  0.881943  0.402833  0.082682  1
  O  O36  1  0.618055  0.417316  0.097166  1
  O  O37  1  0.979109  0.679849  0.097167  1
  O  O38  1  0.597166  0.917316  0.118056  1
  O  O39  1  0.020892  0.200740  0.118057  1
  O  O40  1  0.479108  0.597166  0.179848  1
  O  O41  1  0.200740  0.582683  0.179849  1
  O  O42  1  0.582683  0.179849  0.200739  1
  O  O43  1  0.118057  0.020892  0.200740  1
  O  O44  1  0.479109  0.381943  0.299261  1
  O  O45  1  0.320151  0.917317  0.299262  1
  O  O46  1  0.917317  0.299262  0.320151  1
  O  O47  1  0.902834  0.020891  0.320151  1
  O  O48  1  0.582682  0.902834  0.381943  1
  O  O49  1  0.299261  0.479109  0.381943  1
  O  O50  1  0.082682  0.881943  0.402833  1
  O  O51  1  0.820150  0.520890  0.402834  1
  O  O52  1  0.097166  0.618056  0.417316  1
  O  O53  1  0.820151  0.799261  0.417318  1
  O  O54  1  0.597166  0.179848  0.479108  1
  O  O55  1  0.381943  0.299261  0.479109  1
  O  O56  1  0.402834  0.820150  0.520891  1
  O  O57  1  0.618057  0.700740  0.520892  1
  O  O58  1  0.902834  0.381943  0.582682  1
  O  O59  1  0.179849  0.200740  0.582683  1
  O  O60  1  0.917316  0.118056  0.597165  1
  O  O61  1  0.179848  0.479108  0.597166  1
  O  O62  1  0.417316  0.097166  0.618055  1
  O  O63  1  0.700740  0.520892  0.618057  1
  O  O64  1  0.082682  0.700739  0.679848  1
  O  O65  1  0.097167  0.979109  0.679849  1
  O  O66  1  0.679848  0.082682  0.700739  1
  O  O67  1  0.520892  0.618057  0.700739  1
  O  O68  1  0.417318  0.820151  0.799261  1
  O  O69  1  0.881943  0.979109  0.799261  1
  O  O70  1  0.520890  0.402834  0.820150  1
  O  O71  1  0.799261  0.417318  0.820151  1
  O  O72  1  0.402833  0.082682  0.881943  1
  O  O73  1  0.979109  0.799261  0.881943  1
  O  O74  1  0.381943  0.582682  0.902834  1
  O  O75  1  0.020891  0.320151  0.902834  1
  O  O76  1  0.299262  0.320150  0.917317  1
  O  O77  1  0.118056  0.597165  0.917316  1
  O  O78  1  0.679849  0.097167  0.979109  1
  O  O79  1  0.799261  0.881943  0.979109  1
