# generated using pymatgen
data_LuMg(Si7Rh3)2
_symmetry_space_group_name_H-M   'P 1'
_cell_length_a   7.94403932
_cell_length_b   7.94404011
_cell_length_c   7.94404033
_cell_angle_alpha   57.00360390
_cell_angle_beta   57.00359755
_cell_angle_gamma   57.00359631
_symmetry_Int_Tables_number   1
_chemical_formula_structural   LuMg(Si7Rh3)2
_chemical_formula_sum   'Lu1 Mg1 Si14 Rh6'
_cell_volume   330.00268094
_cell_formula_units_Z   1
loop_
 _symmetry_equiv_pos_site_id
 _symmetry_equiv_pos_as_xyz
  1  'x, y, z'
loop_
 _atom_site_type_symbol
 _atom_site_label
 _atom_site_symmetry_multiplicity
 _atom_site_fract_x
 _atom_site_fract_y
 _atom_site_fract_z
 _atom_site_occupancy
  Lu  Lu0  1  0.500000  0.500000  0.500000  1
  Mg  Mg1  1  0.000000  0.000000  0.000000  1
  Si  Si2  1  0.749817  0.749817  0.749817  1
  Si  Si3  1  0.250183  0.250183  0.250183  1
  Si  Si4  1  0.851911  0.065097  0.673547  1
  Si  Si5  1  0.673547  0.851911  0.065097  1
  Si  Si6  1  0.065097  0.673547  0.851911  1
  Si  Si7  1  0.649159  0.828418  0.433952  1
  Si  Si8  1  0.433952  0.649159  0.828418  1
  Si  Si9  1  0.828418  0.433952  0.649159  1
  Si  Si10  1  0.171582  0.566048  0.350841  1
  Si  Si11  1  0.566048  0.350841  0.171582  1
  Si  Si12  1  0.350841  0.171582  0.566048  1
  Si  Si13  1  0.934903  0.326453  0.148089  1
  Si  Si14  1  0.326453  0.148089  0.934903  1
  Si  Si15  1  0.148089  0.934903  0.326453  1
  Rh  Rh16  1  0.073142  0.427807  0.749520  1
  Rh  Rh17  1  0.250480  0.926858  0.572193  1
  Rh  Rh18  1  0.572193  0.250480  0.926858  1
  Rh  Rh19  1  0.926858  0.572193  0.250480  1
  Rh  Rh20  1  0.427807  0.749520  0.073142  1
  Rh  Rh21  1  0.749520  0.073142  0.427807  1
