# generated using pymatgen
data_TlBiBr18
_symmetry_space_group_name_H-M   'P 1'
_cell_length_a   9.54274585
_cell_length_b   9.50695455
_cell_length_c   9.53915299
_cell_angle_alpha   88.06985592
_cell_angle_beta   87.97311078
_cell_angle_gamma   88.25024289
_symmetry_Int_Tables_number   1
_chemical_formula_structural   TlBiBr18
_chemical_formula_sum   'Tl1 Bi1 Br18'
_cell_volume   864.01009094
_cell_formula_units_Z   1
loop_
 _symmetry_equiv_pos_site_id
 _symmetry_equiv_pos_as_xyz
  1  'x, y, z'
loop_
 _atom_site_type_symbol
 _atom_site_label
 _atom_site_symmetry_multiplicity
 _atom_site_fract_x
 _atom_site_fract_y
 _atom_site_fract_z
 _atom_site_occupancy
  Tl  Tl0  1  0.500000  0.500000  0.500000  1
  Bi  Bi1  1  0.000000  0.000000  0.000000  1
  Br  Br2  1  0.794544  0.453569  0.511343  1
  Br  Br3  1  0.513478  0.795782  0.453409  1
  Br  Br4  1  0.455014  0.512592  0.795183  1
  Br  Br5  1  0.205456  0.546431  0.488657  1
  Br  Br6  1  0.486522  0.204218  0.546591  1
  Br  Br7  1  0.544986  0.487408  0.204817  1
  Br  Br8  1  0.893284  0.377295  0.745945  1
  Br  Br9  1  0.748320  0.895188  0.377122  1
  Br  Br10  1  0.377477  0.747647  0.893613  1
  Br  Br11  1  0.106716  0.622705  0.254055  1
  Br  Br12  1  0.251680  0.104812  0.622878  1
  Br  Br13  1  0.622523  0.252353  0.106387  1
  Br  Br14  1  0.024616  0.975247  0.696056  1
  Br  Br15  1  0.696122  0.024790  0.977659  1
  Br  Br16  1  0.977915  0.694800  0.027596  1
  Br  Br17  1  0.975384  0.024753  0.303944  1
  Br  Br18  1  0.303878  0.975210  0.022341  1
  Br  Br19  1  0.022085  0.305200  0.972404  1
