# generated using pymatgen
data_Li4HfPa3Ir8
_symmetry_space_group_name_H-M   'P 1'
_cell_length_a   5.92768100
_cell_length_b   5.92681600
_cell_length_c   7.46633600
_cell_angle_alpha   90.00000000
_cell_angle_beta   89.99984593
_cell_angle_gamma   90.00000000
_symmetry_Int_Tables_number   1
_chemical_formula_structural   Li4HfPa3Ir8
_chemical_formula_sum   'Li4 Hf1 Pa3 Ir8'
_cell_volume   262.30936656
_cell_formula_units_Z   1
loop_
 _symmetry_equiv_pos_site_id
 _symmetry_equiv_pos_as_xyz
  1  'x, y, z'
loop_
 _atom_site_type_symbol
 _atom_site_label
 _atom_site_symmetry_multiplicity
 _atom_site_fract_x
 _atom_site_fract_y
 _atom_site_fract_z
 _atom_site_occupancy
  Li  Li0  1  0.750099  0.249999  0.000000  1
  Li  Li1  1  0.249897  0.749999  0.000002  1
  Li  Li2  1  0.250092  0.749999  0.499993  1
  Li  Li3  1  0.749903  0.249999  0.500006  1
  Hf  Hf4  1  0.750185  0.749999  0.500004  1
  Pa  Pa5  1  0.250200  0.249999  0.000002  1
  Pa  Pa6  1  0.749828  0.749999  0.999997  1
  Pa  Pa7  1  0.249787  0.249999  0.499998  1
  Ir  Ir8  1  0.998645  0.998653  0.252194  1
  Ir  Ir9  1  0.998645  0.501352  0.252194  1
  Ir  Ir10  1  0.501366  0.998646  0.252346  1
  Ir  Ir11  1  0.501366  0.501349  0.252346  1
  Ir  Ir12  1  0.501352  0.998648  0.747653  1
  Ir  Ir13  1  0.501352  0.501357  0.747653  1
  Ir  Ir14  1  0.998641  0.998647  0.747807  1
  Ir  Ir15  1  0.998641  0.501348  0.747807  1
