# generated using pymatgen
data_Tb2Er3Bi2Os
_symmetry_space_group_name_H-M   'P 1'
_cell_length_a   7.95467300
_cell_length_b   9.03046800
_cell_length_c   12.45859200
_cell_angle_alpha   90.00000000
_cell_angle_beta   90.00000000
_cell_angle_gamma   90.00000000
_symmetry_Int_Tables_number   1
_chemical_formula_structural   Tb2Er3Bi2Os
_chemical_formula_sum   'Tb8 Er12 Bi8 Os4'
_cell_volume   894.95573005
_cell_formula_units_Z   4
loop_
 _symmetry_equiv_pos_site_id
 _symmetry_equiv_pos_as_xyz
  1  'x, y, z'
loop_
 _atom_site_type_symbol
 _atom_site_label
 _atom_site_symmetry_multiplicity
 _atom_site_fract_x
 _atom_site_fract_y
 _atom_site_fract_z
 _atom_site_occupancy
  Tb  Tb0  1  0.661428  0.750000  0.708744  1
  Tb  Tb1  1  0.338572  0.250000  0.291256  1
  Tb  Tb2  1  0.161428  0.250000  0.791256  1
  Tb  Tb3  1  0.838572  0.750000  0.208744  1
  Tb  Tb4  1  0.127313  0.750000  0.809468  1
  Tb  Tb5  1  0.872687  0.250000  0.190532  1
  Tb  Tb6  1  0.627313  0.250000  0.690532  1
  Tb  Tb7  1  0.372687  0.750000  0.309468  1
  Er  Er8  1  0.559064  0.750000  0.994769  1
  Er  Er9  1  0.440936  0.250000  0.005231  1
  Er  Er10  1  0.059064  0.250000  0.505231  1
  Er  Er11  1  0.940936  0.750000  0.494769  1
  Er  Er12  1  0.827660  0.457985  0.935107  1
  Er  Er13  1  0.172340  0.542015  0.064893  1
  Er  Er14  1  0.327660  0.542015  0.564893  1
  Er  Er15  1  0.172340  0.957985  0.064893  1
  Er  Er16  1  0.672340  0.457985  0.435107  1
  Er  Er17  1  0.827660  0.042015  0.935107  1
  Er  Er18  1  0.672340  0.042015  0.435107  1
  Er  Er19  1  0.327660  0.957985  0.564893  1
  Bi  Bi20  1  0.935562  0.005369  0.670769  1
  Bi  Bi21  1  0.064438  0.994631  0.329231  1
  Bi  Bi22  1  0.435562  0.994631  0.829231  1
  Bi  Bi23  1  0.064438  0.505369  0.329231  1
  Bi  Bi24  1  0.564438  0.005369  0.170769  1
  Bi  Bi25  1  0.935562  0.494631  0.670769  1
  Bi  Bi26  1  0.564438  0.494631  0.170769  1
  Bi  Bi27  1  0.435562  0.505369  0.829231  1
  Os  Os28  1  0.924921  0.750000  0.990320  1
  Os  Os29  1  0.075079  0.250000  0.009680  1
  Os  Os30  1  0.424921  0.250000  0.509680  1
  Os  Os31  1  0.575079  0.750000  0.490320  1
