# generated using pymatgen
data_Er7(LuPb2)3
_symmetry_space_group_name_H-M   'P 1'
_cell_length_a   8.96190701
_cell_length_b   8.96194091
_cell_length_c   6.51584301
_cell_angle_alpha   89.99967496
_cell_angle_beta   90.00456462
_cell_angle_gamma   120.00289606
_symmetry_Int_Tables_number   1
_chemical_formula_structural   Er7(LuPb2)3
_chemical_formula_sum   'Er7 Lu3 Pb6'
_cell_volume   453.20122672
_cell_formula_units_Z   1
loop_
 _symmetry_equiv_pos_site_id
 _symmetry_equiv_pos_as_xyz
  1  'x, y, z'
loop_
 _atom_site_type_symbol
 _atom_site_label
 _atom_site_symmetry_multiplicity
 _atom_site_fract_x
 _atom_site_fract_y
 _atom_site_fract_z
 _atom_site_occupancy
  Er  Er0  1  0.236515  0.000074  0.249835  1
  Er  Er1  1  0.999902  0.236425  0.249862  1
  Er  Er2  1  0.763572  0.763491  0.249874  1
  Er  Er3  1  0.333312  0.666691  0.500029  1
  Er  Er4  1  0.763583  0.000099  0.750095  1
  Er  Er5  1  0.236525  0.236420  0.750166  1
  Er  Er6  1  0.999913  0.763479  0.750122  1
  Lu  Lu7  1  0.666678  0.333340  0.000014  1
  Lu  Lu8  1  0.333326  0.666670  0.000004  1
  Lu  Lu9  1  0.666683  0.333323  0.500008  1
  Pb  Pb10  1  0.604870  0.000380  0.249599  1
  Pb  Pb11  1  0.999588  0.604493  0.249577  1
  Pb  Pb12  1  0.395499  0.395076  0.249608  1
  Pb  Pb13  1  0.395505  0.000412  0.750381  1
  Pb  Pb14  1  0.999620  0.395106  0.750357  1
  Pb  Pb15  1  0.604910  0.604523  0.750469  1
