# generated using pymatgen
data_YbSmPt2O7
_symmetry_space_group_name_H-M   'P 1'
_cell_length_a   7.31703392
_cell_length_b   7.31299559
_cell_length_c   7.31299528
_cell_angle_alpha   60.03990239
_cell_angle_beta   59.98267501
_cell_angle_gamma   59.98265988
_symmetry_Int_Tables_number   1
_chemical_formula_structural   YbSmPt2O7
_chemical_formula_sum   'Yb2 Sm2 Pt4 O14'
_cell_volume   276.71173378
_cell_formula_units_Z   2
loop_
 _symmetry_equiv_pos_site_id
 _symmetry_equiv_pos_as_xyz
  1  'x, y, z'
loop_
 _atom_site_type_symbol
 _atom_site_label
 _atom_site_symmetry_multiplicity
 _atom_site_fract_x
 _atom_site_fract_y
 _atom_site_fract_z
 _atom_site_occupancy
  Yb  Yb0  1  0.625000  0.625000  0.125000  1
  Yb  Yb1  1  0.625000  0.125000  0.625000  1
  Sm  Sm2  1  0.625000  0.625000  0.625000  1
  Sm  Sm3  1  0.125000  0.625000  0.625000  1
  Pt  Pt4  1  0.625000  0.125000  0.125000  1
  Pt  Pt5  1  0.125000  0.125000  0.125000  1
  Pt  Pt6  1  0.125000  0.625000  0.125000  1
  Pt  Pt7  1  0.125000  0.125000  0.625000  1
  O  O8  1  0.039936  0.460073  0.460073  1
  O  O9  1  0.791561  0.791483  0.210453  1
  O  O10  1  0.792506  0.207497  0.207497  1
  O  O11  1  0.749694  0.750302  0.750302  1
  O  O12  1  0.043502  0.458514  0.039546  1
  O  O13  1  0.458439  0.039547  0.458517  1
  O  O14  1  0.043502  0.039546  0.458514  1
  O  O15  1  0.500306  0.499698  0.499698  1
  O  O16  1  0.206498  0.210454  0.791486  1
  O  O17  1  0.206498  0.791486  0.210454  1
  O  O18  1  0.791561  0.210453  0.791483  1
  O  O19  1  0.457494  0.042503  0.042503  1
  O  O20  1  0.458439  0.458517  0.039547  1
  O  O21  1  0.210064  0.789927  0.789927  1
