# generated using pymatgen
data_Tb5LuAl24ZnOs7
_symmetry_space_group_name_H-M   'P 1'
_cell_length_a   8.83860500
_cell_length_b   8.85108625
_cell_length_c   9.57258646
_cell_angle_alpha   89.96345187
_cell_angle_beta   90.00000000
_cell_angle_gamma   119.95335277
_symmetry_Int_Tables_number   1
_chemical_formula_structural   Tb5LuAl24ZnOs7
_chemical_formula_sum   'Tb5 Lu1 Al24 Zn1 Os7'
_cell_volume   648.84962426
_cell_formula_units_Z   1
loop_
 _symmetry_equiv_pos_site_id
 _symmetry_equiv_pos_as_xyz
  1  'x, y, z'
loop_
 _atom_site_type_symbol
 _atom_site_label
 _atom_site_symmetry_multiplicity
 _atom_site_fract_x
 _atom_site_fract_y
 _atom_site_fract_z
 _atom_site_occupancy
  Tb  Tb0  1  0.804957  0.609913  0.744520  1
  Tb  Tb1  1  0.617233  0.808784  0.247419  1
  Tb  Tb2  1  0.383265  0.190817  0.752497  1
  Tb  Tb3  1  0.191551  0.808784  0.247419  1
  Tb  Tb4  1  0.807552  0.190817  0.752497  1
  Lu  Lu5  1  0.198493  0.396986  0.256100  1
  Al  Al6  1  0.328644  0.657290  0.023100  1
  Al  Al7  1  0.671086  0.342171  0.978618  1
  Al  Al8  1  0.665691  0.331380  0.521455  1
  Al  Al9  1  0.334192  0.668385  0.477241  1
  Al  Al10  1  0.163429  0.326857  0.575921  1
  Al  Al11  1  0.836050  0.672102  0.422033  1
  Al  Al12  1  0.672354  0.836243  0.572852  1
  Al  Al13  1  0.836349  0.672699  0.077434  1
  Al  Al14  1  0.326500  0.163454  0.425999  1
  Al  Al15  1  0.163366  0.326732  0.924438  1
  Al  Al16  1  0.163889  0.836243  0.572852  1
  Al  Al17  1  0.322258  0.173241  0.081885  1
  Al  Al18  1  0.836953  0.163454  0.425999  1
  Al  Al19  1  0.676134  0.826671  0.919351  1
  Al  Al20  1  0.850982  0.173241  0.081885  1
  Al  Al21  1  0.150538  0.826671  0.919351  1
  Al  Al22  1  0.564347  0.128693  0.254327  1
  Al  Al23  1  0.435411  0.870821  0.745291  1
  Al  Al24  1  0.879314  0.441254  0.249452  1
  Al  Al25  1  0.121450  0.557624  0.750551  1
  Al  Al26  1  0.561938  0.441254  0.249452  1
  Al  Al27  1  0.436176  0.557624  0.750551  1
  Al  Al28  1  0.002429  0.004857  0.250368  1
  Al  Al29  1  0.000088  0.000177  0.749632  1
  Zn  Zn30  1  0.499667  0.999333  0.000057  1
  Os  Os31  1  0.000481  0.499445  0.000810  1
  Os  Os32  1  0.499868  0.999737  0.499681  1
  Os  Os33  1  0.498964  0.499445  0.000810  1
  Os  Os34  1  0.000690  0.499215  0.499083  1
  Os  Os35  1  0.498524  0.499215  0.499083  1
  Os  Os36  1  0.999596  0.999192  0.999900  1
  Os  Os37  1  0.999591  0.999183  0.500086  1
