# generated using pymatgen
data_Y3HoAl18(Os2Pd)2
_symmetry_space_group_name_H-M   'P 1'
_cell_length_a   7.58550503
_cell_length_b   7.58501333
_cell_length_c   9.54486600
_cell_angle_alpha   90.00000000
_cell_angle_beta   90.00000000
_cell_angle_gamma   119.59586861
_symmetry_Int_Tables_number   1
_chemical_formula_structural   Y3HoAl18(Os2Pd)2
_chemical_formula_sum   'Y3 Ho1 Al18 Os4 Pd2'
_cell_volume   477.52435524
_cell_formula_units_Z   1
loop_
 _symmetry_equiv_pos_site_id
 _symmetry_equiv_pos_as_xyz
  1  'x, y, z'
loop_
 _atom_site_type_symbol
 _atom_site_label
 _atom_site_symmetry_multiplicity
 _atom_site_fract_x
 _atom_site_fract_y
 _atom_site_fract_z
 _atom_site_occupancy
  Y  Y0  1  0.997736  0.669502  0.250000  1
  Y  Y1  1  0.002187  0.330640  0.750000  1
  Y  Y2  1  0.669467  0.997818  0.250000  1
  Ho  Ho3  1  0.330685  0.002142  0.750000  1
  Al  Al4  1  0.131938  0.131953  0.250000  1
  Al  Al5  1  0.868488  0.868310  0.750000  1
  Al  Al6  1  0.002555  0.339910  0.072548  1
  Al  Al7  1  0.997675  0.660266  0.927315  1
  Al  Al8  1  0.997675  0.660266  0.572685  1
  Al  Al9  1  0.339889  0.002496  0.427601  1
  Al  Al10  1  0.002555  0.339910  0.427452  1
  Al  Al11  1  0.659894  0.997447  0.572676  1
  Al  Al12  1  0.659894  0.997447  0.927324  1
  Al  Al13  1  0.339889  0.002496  0.072399  1
  Al  Al14  1  0.339268  0.339144  0.549261  1
  Al  Al15  1  0.660711  0.660738  0.450802  1
  Al  Al16  1  0.660711  0.660738  0.049198  1
  Al  Al17  1  0.339268  0.339144  0.950739  1
  Al  Al18  1  0.336675  0.549037  0.250000  1
  Al  Al19  1  0.663198  0.450719  0.750000  1
  Al  Al20  1  0.548954  0.336578  0.250000  1
  Al  Al21  1  0.450907  0.663561  0.750000  1
  Os  Os22  1  0.672334  0.327362  0.999822  1
  Os  Os23  1  0.327477  0.672533  0.999798  1
  Os  Os24  1  0.327477  0.672533  0.500202  1
  Os  Os25  1  0.672334  0.327362  0.500178  1
  Pd  Pd26  1  0.000079  0.999974  0.999935  1
  Pd  Pd27  1  0.000079  0.999974  0.500065  1
