# generated using pymatgen
data_Dy18Y2Ir11Ru
_symmetry_space_group_name_H-M   'P 1'
_cell_length_a   10.87141044
_cell_length_b   10.87127200
_cell_length_c   6.39799026
_cell_angle_alpha   90.00104139
_cell_angle_beta   90.03275409
_cell_angle_gamma   89.99849253
_symmetry_Int_Tables_number   1
_chemical_formula_structural   Dy18Y2Ir11Ru
_chemical_formula_sum   'Dy18 Y2 Ir11 Ru1'
_cell_volume   756.15313691
_cell_formula_units_Z   1
loop_
 _symmetry_equiv_pos_site_id
 _symmetry_equiv_pos_as_xyz
  1  'x, y, z'
loop_
 _atom_site_type_symbol
 _atom_site_label
 _atom_site_symmetry_multiplicity
 _atom_site_fract_x
 _atom_site_fract_y
 _atom_site_fract_z
 _atom_site_occupancy
  Dy  Dy0  1  0.707174  0.087500  0.880210  1
  Dy  Dy1  1  0.707472  0.912549  0.377449  1
  Dy  Dy2  1  0.587452  0.792778  0.880233  1
  Dy  Dy3  1  0.587415  0.207517  0.377461  1
  Dy  Dy4  1  0.412639  0.792466  0.377484  1
  Dy  Dy5  1  0.412594  0.207238  0.880233  1
  Dy  Dy6  1  0.208895  0.411528  0.621225  1
  Dy  Dy7  1  0.208890  0.588333  0.120941  1
  Dy  Dy8  1  0.791087  0.411649  0.120983  1
  Dy  Dy9  1  0.791073  0.588494  0.621267  1
  Dy  Dy10  1  0.911660  0.708888  0.120945  1
  Dy  Dy11  1  0.911521  0.291103  0.621229  1
  Dy  Dy12  1  0.088429  0.708813  0.621296  1
  Dy  Dy13  1  0.088299  0.291197  0.121035  1
  Dy  Dy14  1  0.999947  0.999996  0.499393  1
  Dy  Dy15  1  0.999959  0.000009  0.999360  1
  Dy  Dy16  1  0.499994  0.500025  0.999262  1
  Dy  Dy17  1  0.499992  0.499977  0.499293  1
  Y  Y18  1  0.292272  0.087449  0.377253  1
  Y  Y19  1  0.292593  0.912515  0.880082  1
  Ir  Ir20  1  0.847028  0.153715  0.250016  1
  Ir  Ir21  1  0.847130  0.846611  0.749776  1
  Ir  Ir22  1  0.152470  0.153654  0.750270  1
  Ir  Ir23  1  0.152561  0.846009  0.250517  1
  Ir  Ir24  1  0.653414  0.347181  0.749803  1
  Ir  Ir25  1  0.653735  0.652924  0.250065  1
  Ir  Ir26  1  0.346321  0.347402  0.249850  1
  Ir  Ir27  1  0.346641  0.652502  0.749603  1
  Ir  Ir28  1  0.500648  0.999964  0.624267  1
  Ir  Ir29  1  0.999990  0.499995  0.876999  1
  Ir  Ir30  1  0.999991  0.500005  0.377157  1
  Ru  Ru31  1  0.500714  0.000016  0.125045  1
