# generated using pymatgen
data_RbLaThSe6
_symmetry_space_group_name_H-M   'P 1'
_cell_length_a   11.92219984
_cell_length_b   11.92220037
_cell_length_c   11.92219945
_cell_angle_alpha   158.85827030
_cell_angle_beta   152.03322540
_cell_angle_gamma   35.32248003
_symmetry_Int_Tables_number   1
_chemical_formula_structural   RbLaThSe6
_chemical_formula_sum   'Rb1 La1 Th1 Se6'
_cell_volume   286.32055872
_cell_formula_units_Z   1
loop_
 _symmetry_equiv_pos_site_id
 _symmetry_equiv_pos_as_xyz
  1  'x, y, z'
loop_
 _atom_site_type_symbol
 _atom_site_label
 _atom_site_symmetry_multiplicity
 _atom_site_fract_x
 _atom_site_fract_y
 _atom_site_fract_z
 _atom_site_occupancy
  Rb  Rb0  1  0.997136  0.997136  0.000000  1
  La  La1  1  0.316333  0.816333  0.500000  1
  Th  Th2  1  0.686354  0.186354  0.500000  1
  Se  Se3  1  0.186182  0.396064  0.790118  1
  Se  Se4  1  0.221007  0.221007  0.000000  1
  Se  Se5  1  0.398869  0.607505  0.791365  1
  Se  Se6  1  0.605947  0.396064  0.209882  1
  Se  Se7  1  0.816140  0.607505  0.208635  1
  Se  Se8  1  0.772032  0.772032  0.000000  1
