# generated using pymatgen
data_Th14Os4PdRu
_symmetry_space_group_name_H-M   'P 1'
_cell_length_a   10.03816299
_cell_length_b   10.05040684
_cell_length_c   6.33727964
_cell_angle_alpha   89.89063746
_cell_angle_beta   90.16051919
_cell_angle_gamma   119.90542670
_symmetry_Int_Tables_number   1
_chemical_formula_structural   Th14Os4PdRu
_chemical_formula_sum   'Th14 Os4 Pd1 Ru1'
_cell_volume   554.22064046
_cell_formula_units_Z   1
loop_
 _symmetry_equiv_pos_site_id
 _symmetry_equiv_pos_as_xyz
  1  'x, y, z'
loop_
 _atom_site_type_symbol
 _atom_site_label
 _atom_site_symmetry_multiplicity
 _atom_site_fract_x
 _atom_site_fract_y
 _atom_site_fract_z
 _atom_site_occupancy
  Th  Th0  1  0.456767  0.538659  0.296751  1
  Th  Th1  1  0.083146  0.539808  0.296146  1
  Th  Th2  1  0.920533  0.453671  0.793859  1
  Th  Th3  1  0.253163  0.126005  0.500320  1
  Th  Th4  1  0.543568  0.085322  0.798244  1
  Th  Th5  1  0.741789  0.878367  0.000778  1
  Th  Th6  1  0.663063  0.327510  0.300077  1
  Th  Th7  1  0.135131  0.877022  0.000968  1
  Th  Th8  1  0.456905  0.915827  0.299436  1
  Th  Th9  1  0.534018  0.455094  0.792568  1
  Th  Th10  1  0.874024  0.125814  0.500174  1
  Th  Th11  1  0.125065  0.251310  0.000296  1
  Th  Th12  1  0.876523  0.752557  0.509428  1
  Th  Th13  1  0.333257  0.666559  0.786054  1
  Os  Os14  1  0.627615  0.812967  0.551114  1
  Os  Os15  1  0.376157  0.189480  0.050647  1
  Os  Os16  1  0.185022  0.373921  0.550572  1
  Os  Os17  1  0.184659  0.811335  0.552051  1
  Pd  Pd18  1  0.814002  0.626524  0.055490  1
  Ru  Ru19  1  0.815594  0.192243  0.049026  1
