# generated using pymatgen
data_CaErSi7Rh12
_symmetry_space_group_name_H-M   'P 1'
_cell_length_a   9.76813600
_cell_length_b   9.76813470
_cell_length_c   3.85382500
_cell_angle_alpha   90.00000000
_cell_angle_beta   90.00000000
_cell_angle_gamma   119.99999763
_symmetry_Int_Tables_number   1
_chemical_formula_structural   CaErSi7Rh12
_chemical_formula_sum   'Ca1 Er1 Si7 Rh12'
_cell_volume   318.45345801
_cell_formula_units_Z   1
loop_
 _symmetry_equiv_pos_site_id
 _symmetry_equiv_pos_as_xyz
  1  'x, y, z'
loop_
 _atom_site_type_symbol
 _atom_site_label
 _atom_site_symmetry_multiplicity
 _atom_site_fract_x
 _atom_site_fract_y
 _atom_site_fract_z
 _atom_site_occupancy
  Ca  Ca0  1  0.333333  0.666667  0.748877  1
  Er  Er1  1  0.666667  0.333333  0.250766  1
  Si  Si2  1  0.000000  0.000000  0.499665  1
  Si  Si3  1  0.400572  0.290531  0.750850  1
  Si  Si4  1  0.709469  0.110040  0.750850  1
  Si  Si5  1  0.889960  0.599428  0.750850  1
  Si  Si6  1  0.599948  0.710904  0.249301  1
  Si  Si7  1  0.289096  0.889044  0.249301  1
  Si  Si8  1  0.110956  0.400052  0.249301  1
  Rh  Rh9  1  0.444316  0.064898  0.751962  1
  Rh  Rh10  1  0.935102  0.379419  0.751962  1
  Rh  Rh11  1  0.620581  0.555684  0.751962  1
  Rh  Rh12  1  0.557333  0.939545  0.248192  1
  Rh  Rh13  1  0.060455  0.617787  0.248192  1
  Rh  Rh14  1  0.382213  0.442667  0.248192  1
  Rh  Rh15  1  0.142400  0.260845  0.744368  1
  Rh  Rh16  1  0.739155  0.881556  0.744368  1
  Rh  Rh17  1  0.118444  0.857600  0.744368  1
  Rh  Rh18  1  0.856329  0.738414  0.255558  1
  Rh  Rh19  1  0.261586  0.117914  0.255558  1
  Rh  Rh20  1  0.882086  0.143671  0.255558  1
