# generated using pymatgen
data_La5Zn2OsRu2
_symmetry_space_group_name_H-M   'P 1'
_cell_length_a   8.60133612
_cell_length_b   8.60133523
_cell_length_c   8.60133558
_cell_angle_alpha   109.23192773
_cell_angle_beta   109.88020943
_cell_angle_gamma   109.30231378
_symmetry_Int_Tables_number   1
_chemical_formula_structural   La5Zn2OsRu2
_chemical_formula_sum   'La10 Zn4 Os2 Ru4'
_cell_volume   489.84535108
_cell_formula_units_Z   2
loop_
 _symmetry_equiv_pos_site_id
 _symmetry_equiv_pos_as_xyz
  1  'x, y, z'
loop_
 _atom_site_type_symbol
 _atom_site_label
 _atom_site_symmetry_multiplicity
 _atom_site_fract_x
 _atom_site_fract_y
 _atom_site_fract_z
 _atom_site_occupancy
  La  La0  1  0.250000  0.689899  0.439900  1
  La  La1  1  0.750000  0.810101  0.060101  1
  La  La2  1  0.439347  0.250000  0.689346  1
  La  La3  1  0.687267  0.437268  0.250000  1
  La  La4  1  0.060654  0.750000  0.810654  1
  La  La5  1  0.812733  0.062733  0.750000  1
  La  La6  1  0.216530  0.217350  0.217855  1
  La  La7  1  0.499497  0.998675  0.282145  1
  La  La8  1  0.283470  0.501326  0.000821  1
  La  La9  1  0.000504  0.282650  0.499180  1
  Zn  Zn10  1  0.499277  0.000278  0.914725  1
  Zn  Zn11  1  0.585553  0.584552  0.585275  1
  Zn  Zn12  1  0.914447  0.499723  0.998998  1
  Zn  Zn13  1  0.000724  0.915448  0.501003  1
  Os  Os14  1  0.250001  0.126686  0.876686  1
  Os  Os15  1  0.750000  0.373313  0.623313  1
  Ru  Ru16  1  0.875398  0.250001  0.125398  1
  Ru  Ru17  1  0.124685  0.874685  0.250001  1
  Ru  Ru18  1  0.624601  0.750000  0.374601  1
  Ru  Ru19  1  0.375314  0.625314  0.750000  1
