# generated using pymatgen
data_Ir2Os3Ru
_symmetry_space_group_name_H-M   'P 1'
_cell_length_a   4.76677208
_cell_length_b   4.76825261
_cell_length_c   4.36700600
_cell_angle_alpha   90.00000000
_cell_angle_beta   90.00000000
_cell_angle_gamma   59.98990582
_symmetry_Int_Tables_number   1
_chemical_formula_structural   Ir2Os3Ru
_chemical_formula_sum   'Ir2 Os3 Ru1'
_cell_volume   85.95158284
_cell_formula_units_Z   1
loop_
 _symmetry_equiv_pos_site_id
 _symmetry_equiv_pos_as_xyz
  1  'x, y, z'
loop_
 _atom_site_type_symbol
 _atom_site_label
 _atom_site_symmetry_multiplicity
 _atom_site_fract_x
 _atom_site_fract_y
 _atom_site_fract_z
 _atom_site_occupancy
  Ir  Ir0  1  0.332870  0.334078  0.000000  1
  Ir  Ir1  1  0.667582  0.999102  0.500001  1
  Os  Os2  1  0.666753  0.664942  0.000000  1
  Os  Os3  1  0.999722  0.333029  0.500001  1
  Os  Os4  1  0.332775  0.668161  0.500001  1
  Ru  Ru5  1  0.000298  0.000689  0.000000  1
