# generated using pymatgen
data_Tm20Ir5Pt7
_symmetry_space_group_name_H-M   'P 1'
_cell_length_a   10.90498589
_cell_length_b   10.90498589
_cell_length_c   6.29872838
_cell_angle_alpha   90.02823186
_cell_angle_beta   90.02823186
_cell_angle_gamma   90.25285500
_symmetry_Int_Tables_number   1
_chemical_formula_structural   Tm20Ir5Pt7
_chemical_formula_sum   'Tm20 Ir5 Pt7'
_cell_volume   749.02922166
_cell_formula_units_Z   1
loop_
 _symmetry_equiv_pos_site_id
 _symmetry_equiv_pos_as_xyz
  1  'x, y, z'
loop_
 _atom_site_type_symbol
 _atom_site_label
 _atom_site_symmetry_multiplicity
 _atom_site_fract_x
 _atom_site_fract_y
 _atom_site_fract_z
 _atom_site_occupancy
  Tm  Tm0  1  0.295637  0.086157  0.374294  1
  Tm  Tm1  1  0.295775  0.908716  0.874949  1
  Tm  Tm2  1  0.703926  0.086618  0.874127  1
  Tm  Tm3  1  0.703913  0.912452  0.373745  1
  Tm  Tm4  1  0.583418  0.793415  0.872781  1
  Tm  Tm5  1  0.587129  0.204768  0.375365  1
  Tm  Tm6  1  0.410971  0.793098  0.378763  1
  Tm  Tm7  1  0.412533  0.203491  0.874995  1
  Tm  Tm8  1  0.206585  0.416582  0.627219  1
  Tm  Tm9  1  0.206902  0.589029  0.121237  1
  Tm  Tm10  1  0.795232  0.412871  0.124635  1
  Tm  Tm11  1  0.796509  0.587467  0.625005  1
  Tm  Tm12  1  0.913843  0.704363  0.125706  1
  Tm  Tm13  1  0.913382  0.296074  0.625873  1
  Tm  Tm14  1  0.091284  0.704225  0.625051  1
  Tm  Tm15  1  0.087548  0.296087  0.126255  1
  Tm  Tm16  1  0.999595  0.999863  0.500473  1
  Tm  Tm17  1  0.000137  0.000405  0.999527  1
  Tm  Tm18  1  0.497883  0.500878  0.999515  1
  Tm  Tm19  1  0.499122  0.502117  0.500485  1
  Ir  Ir20  1  0.346846  0.653154  0.750000  1
  Ir  Ir21  1  0.500035  0.000051  0.121272  1
  Ir  Ir22  1  0.499868  0.000117  0.620038  1
  Ir  Ir23  1  0.999883  0.500132  0.879962  1
  Ir  Ir24  1  0.999949  0.499965  0.378728  1
  Pt  Pt25  1  0.846331  0.153669  0.250000  1
  Pt  Pt26  1  0.845317  0.846373  0.750824  1
  Pt  Pt27  1  0.153627  0.154683  0.749176  1
  Pt  Pt28  1  0.152943  0.847057  0.250000  1
  Pt  Pt29  1  0.653328  0.346672  0.750000  1
  Pt  Pt30  1  0.654737  0.654189  0.249688  1
  Pt  Pt31  1  0.345811  0.345263  0.250312  1
