# generated using pymatgen
data_Ce2Y5Ho(Si3Rh)4
_symmetry_space_group_name_H-M   'P 1'
_cell_length_a   8.18040436
_cell_length_b   8.18460898
_cell_length_c   8.03194500
_cell_angle_alpha   90.00000000
_cell_angle_beta   90.00000000
_cell_angle_gamma   120.01700991
_symmetry_Int_Tables_number   1
_chemical_formula_structural   Ce2Y5Ho(Si3Rh)4
_chemical_formula_sum   'Ce2 Y5 Ho1 Si12 Rh4'
_cell_volume   465.63927020
_cell_formula_units_Z   1
loop_
 _symmetry_equiv_pos_site_id
 _symmetry_equiv_pos_as_xyz
  1  'x, y, z'
loop_
 _atom_site_type_symbol
 _atom_site_label
 _atom_site_symmetry_multiplicity
 _atom_site_fract_x
 _atom_site_fract_y
 _atom_site_fract_z
 _atom_site_occupancy
  Ce  Ce0  1  0.000032  0.000016  0.250000  1
  Ce  Ce1  1  0.000021  0.000010  0.750000  1
  Y  Y2  1  0.508602  0.491407  0.250000  1
  Y  Y3  1  0.508602  0.017195  0.250000  1
  Y  Y4  1  0.982765  0.491382  0.250000  1
  Y  Y5  1  0.491199  0.508652  0.750000  1
  Y  Y6  1  0.491199  0.982547  0.750000  1
  Ho  Ho7  1  0.016753  0.508377  0.750000  1
  Si  Si8  1  0.167207  0.832533  0.500827  1
  Si  Si9  1  0.167207  0.334672  0.500827  1
  Si  Si10  1  0.665408  0.832703  0.500394  1
  Si  Si11  1  0.832775  0.167449  0.499834  1
  Si  Si12  1  0.832775  0.665328  0.499834  1
  Si  Si13  1  0.334761  0.167381  0.499609  1
  Si  Si14  1  0.832775  0.167449  0.000166  1
  Si  Si15  1  0.832775  0.665328  0.000166  1
  Si  Si16  1  0.334761  0.167381  0.000391  1
  Si  Si17  1  0.167207  0.832533  0.999173  1
  Si  Si18  1  0.167207  0.334672  0.999173  1
  Si  Si19  1  0.665408  0.832703  0.999606  1
  Rh  Rh20  1  0.332981  0.666491  0.468222  1
  Rh  Rh21  1  0.667300  0.333649  0.533237  1
  Rh  Rh22  1  0.667300  0.333649  0.966763  1
  Rh  Rh23  1  0.332981  0.666491  0.031778  1
