# generated using pymatgen
data_Ce3U3(Co3Sb4)2
_symmetry_space_group_name_H-M   'P 1'
_cell_length_a   8.16678991
_cell_length_b   8.12028095
_cell_length_c   8.11790726
_cell_angle_alpha   109.06713525
_cell_angle_beta   110.04311909
_cell_angle_gamma   109.06562547
_symmetry_Int_Tables_number   1
_chemical_formula_structural   Ce3U3(Co3Sb4)2
_chemical_formula_sum   'Ce3 U3 Co6 Sb8'
_cell_volume   415.60513897
_cell_formula_units_Z   1
loop_
 _symmetry_equiv_pos_site_id
 _symmetry_equiv_pos_as_xyz
  1  'x, y, z'
loop_
 _atom_site_type_symbol
 _atom_site_label
 _atom_site_symmetry_multiplicity
 _atom_site_fract_x
 _atom_site_fract_y
 _atom_site_fract_z
 _atom_site_occupancy
  Ce  Ce0  1  0.874745  0.250837  0.125776  1
  Ce  Ce1  1  0.625158  0.750851  0.376038  1
  Ce  Ce2  1  0.250063  0.128802  0.878718  1
  U  U3  1  0.750010  0.365789  0.615753  1
  U  U4  1  0.122541  0.871882  0.245986  1
  U  U5  1  0.377435  0.623486  0.749405  1
  Co  Co6  1  0.379962  0.254100  0.619632  1
  Co  Co7  1  0.120209  0.739462  0.873804  1
  Co  Co8  1  0.250183  0.630468  0.380795  1
  Co  Co9  1  0.749618  0.865660  0.115488  1
  Co  Co10  1  0.642837  0.375783  0.295322  1
  Co  Co11  1  0.857142  0.152620  0.732857  1
  Sb  Sb12  1  0.662300  0.496642  0.999413  1
  Sb  Sb13  1  0.494960  0.998416  0.661623  1
  Sb  Sb14  1  0.005120  0.666634  0.503622  1
  Sb  Sb15  1  0.837562  0.837062  0.834257  1
  Sb  Sb16  1  0.496276  0.991875  0.155396  1
  Sb  Sb17  1  0.164700  0.501918  0.003100  1
  Sb  Sb18  1  0.003780  0.159231  0.495663  1
  Sb  Sb19  1  0.335398  0.338481  0.337351  1
