# generated using pymatgen
data_Lu4MgGe(B2Ir5)2
_symmetry_space_group_name_H-M   'P 1'
_cell_length_a   9.52949000
_cell_length_b   9.52949000
_cell_length_c   3.15930800
_cell_angle_alpha   90.00000000
_cell_angle_beta   90.00000000
_cell_angle_gamma   90.00000000
_symmetry_Int_Tables_number   1
_chemical_formula_structural   Lu4MgGe(B2Ir5)2
_chemical_formula_sum   'Lu4 Mg1 Ge1 B4 Ir10'
_cell_volume   286.90048639
_cell_formula_units_Z   1
loop_
 _symmetry_equiv_pos_site_id
 _symmetry_equiv_pos_as_xyz
  1  'x, y, z'
loop_
 _atom_site_type_symbol
 _atom_site_label
 _atom_site_symmetry_multiplicity
 _atom_site_fract_x
 _atom_site_fract_y
 _atom_site_fract_z
 _atom_site_occupancy
  Lu  Lu0  1  0.677567  0.175029  0.000000  1
  Lu  Lu1  1  0.322433  0.824971  0.000000  1
  Lu  Lu2  1  0.175029  0.322433  0.000000  1
  Lu  Lu3  1  0.824971  0.677567  0.000000  1
  Mg  Mg4  1  0.000000  0.000000  0.000000  1
  Ge  Ge5  1  0.500000  0.500000  0.000000  1
  B  B6  1  0.122920  0.623616  0.000000  1
  B  B7  1  0.877080  0.376384  0.000000  1
  B  B8  1  0.623616  0.877080  0.000000  1
  B  B9  1  0.376384  0.122920  0.000000  1
  Ir  Ir10  1  0.222451  0.072079  0.500000  1
  Ir  Ir11  1  0.777549  0.927921  0.500000  1
  Ir  Ir12  1  0.072079  0.777549  0.500000  1
  Ir  Ir13  1  0.716995  0.433258  0.500000  1
  Ir  Ir14  1  0.927921  0.222451  0.500000  1
  Ir  Ir15  1  0.283005  0.566742  0.500000  1
  Ir  Ir16  1  0.566742  0.716995  0.500000  1
  Ir  Ir17  1  0.433258  0.283005  0.500000  1
  Ir  Ir18  1  0.500000  0.000000  0.500000  1
  Ir  Ir19  1  0.000000  0.500000  0.500000  1
