# generated using pymatgen
data_Tb6Zn4Pd11Pt2
_symmetry_space_group_name_H-M   'P 1'
_cell_length_a   8.28630125
_cell_length_b   8.28630220
_cell_length_c   8.26794817
_cell_angle_alpha   109.45672726
_cell_angle_beta   109.45673748
_cell_angle_gamma   109.58991659
_symmetry_Int_Tables_number   1
_chemical_formula_structural   Tb6Zn4Pd11Pt2
_chemical_formula_sum   'Tb6 Zn4 Pd11 Pt2'
_cell_volume   436.53085305
_cell_formula_units_Z   1
loop_
 _symmetry_equiv_pos_site_id
 _symmetry_equiv_pos_as_xyz
  1  'x, y, z'
loop_
 _atom_site_type_symbol
 _atom_site_label
 _atom_site_symmetry_multiplicity
 _atom_site_fract_x
 _atom_site_fract_y
 _atom_site_fract_z
 _atom_site_occupancy
  Tb  Tb0  1  0.699610  0.699610  0.999339  1
  Tb  Tb1  1  0.299389  0.000937  0.300326  1
  Tb  Tb2  1  0.000937  0.299389  0.300326  1
  Tb  Tb3  1  0.299729  0.299729  0.999339  1
  Tb  Tb4  1  0.700520  0.000040  0.700560  1
  Tb  Tb5  1  0.000040  0.700520  0.700560  1
  Zn  Zn6  1  0.999878  0.999878  0.499898  1
  Zn  Zn7  1  0.999997  0.499997  0.999993  1
  Zn  Zn8  1  0.499997  0.999997  0.999993  1
  Zn  Zn9  1  0.500019  0.500019  0.499898  1
  Pd  Pd10  1  0.666324  0.000060  0.333436  1
  Pd  Pd11  1  0.000060  0.666324  0.333436  1
  Pd  Pd12  1  0.666775  0.333329  0.000105  1
  Pd  Pd13  1  0.333376  0.667114  0.333436  1
  Pd  Pd14  1  0.999440  0.333711  0.666579  1
  Pd  Pd15  1  0.333329  0.666775  0.000105  1
  Pd  Pd16  1  0.333711  0.999440  0.666579  1
  Pd  Pd17  1  0.667114  0.333376  0.333436  1
  Pd  Pd18  1  0.666759  0.666759  0.333517  1
  Pd  Pd19  1  0.667138  0.332865  0.666579  1
  Pd  Pd20  1  0.332865  0.667138  0.666579  1
  Pt  Pt21  1  0.333206  0.333206  0.666413  1
  Pt  Pt22  1  0.999785  0.999785  0.999570  1
