# generated using pymatgen
data_Sm5YCo16(TcP6)2
_symmetry_space_group_name_H-M   'P 1'
_cell_length_a   3.74060400
_cell_length_b   10.58835033
_cell_length_c   12.30895538
_cell_angle_alpha   89.97134526
_cell_angle_beta   90.00000000
_cell_angle_gamma   90.00000000
_symmetry_Int_Tables_number   1
_chemical_formula_structural   Sm5YCo16(TcP6)2
_chemical_formula_sum   'Sm5 Y1 Co16 Tc2 P12'
_cell_volume   487.51858830
_cell_formula_units_Z   1
loop_
 _symmetry_equiv_pos_site_id
 _symmetry_equiv_pos_as_xyz
  1  'x, y, z'
loop_
 _atom_site_type_symbol
 _atom_site_label
 _atom_site_symmetry_multiplicity
 _atom_site_fract_x
 _atom_site_fract_y
 _atom_site_fract_z
 _atom_site_occupancy
  Sm  Sm0  1  0.000000  0.500180  0.523380  1
  Sm  Sm1  1  0.500000  0.999648  0.476077  1
  Sm  Sm2  1  0.500000  0.182113  0.206083  1
  Sm  Sm3  1  0.000000  0.682825  0.793939  1
  Sm  Sm4  1  0.000000  0.317489  0.794229  1
  Y  Y5  1  0.500000  0.816909  0.205624  1
  Co  Co6  1  0.500000  0.500237  0.703747  1
  Co  Co7  1  0.000000  0.998680  0.295796  1
  Co  Co8  1  0.000000  0.500740  0.988488  1
  Co  Co9  1  0.500000  0.999152  0.012884  1
  Co  Co10  1  0.500000  0.332276  0.991468  1
  Co  Co11  1  0.500000  0.668539  0.991742  1
  Co  Co12  1  0.000000  0.167118  0.009271  1
  Co  Co13  1  0.000000  0.832038  0.010176  1
  Co  Co14  1  0.500000  0.296424  0.430487  1
  Co  Co15  1  0.500000  0.703767  0.429321  1
  Co  Co16  1  0.000000  0.203365  0.569337  1
  Co  Co17  1  0.000000  0.796440  0.568502  1
  Co  Co18  1  0.500000  0.880447  0.708363  1
  Co  Co19  1  0.500000  0.119566  0.708859  1
  Co  Co20  1  0.000000  0.620795  0.290454  1
  Co  Co21  1  0.000000  0.380848  0.291281  1
  Tc  Tc22  1  0.500000  0.500656  0.155768  1
  Tc  Tc23  1  0.000000  0.999552  0.844580  1
  P  P24  1  0.500000  0.500412  0.883961  1
  P  P25  1  0.000000  0.998634  0.117508  1
  P  P26  1  0.500000  0.499917  0.346153  1
  P  P27  1  0.000000  0.000039  0.653547  1
  P  P28  1  0.500000  0.309237  0.615106  1
  P  P29  1  0.500000  0.691100  0.614502  1
  P  P30  1  0.000000  0.190466  0.384746  1
  P  P31  1  0.000000  0.809616  0.382832  1
  P  P32  1  0.500000  0.847175  0.894167  1
  P  P33  1  0.500000  0.152575  0.894735  1
  P  P34  1  0.000000  0.654039  0.106952  1
  P  P35  1  0.000000  0.346986  0.105935  1
