# generated using pymatgen
data_LiH7
_symmetry_space_group_name_H-M   'P 1'
_cell_length_a   3.12070996
_cell_length_b   3.14287376
_cell_length_c   10.80767403
_cell_angle_alpha   86.37534917
_cell_angle_beta   78.99370399
_cell_angle_gamma   59.98236207
_symmetry_Int_Tables_number   1
_chemical_formula_structural   LiH7
_chemical_formula_sum   'Li1 H7'
_cell_volume   90.03050226
_cell_formula_units_Z   1
loop_
 _symmetry_equiv_pos_site_id
 _symmetry_equiv_pos_as_xyz
  1  'x, y, z'
loop_
 _atom_site_type_symbol
 _atom_site_label
 _atom_site_symmetry_multiplicity
 _atom_site_fract_x
 _atom_site_fract_y
 _atom_site_fract_z
 _atom_site_occupancy
  Li  Li0  1  0.636733  0.279451  0.188946  1
  H  H1  1  0.968894  0.616549  0.189756  1
  H  H2  1  0.956769  0.246392  0.707023  1
  H  H3  1  0.799955  0.259159  0.660666  1
  H  H4  1  0.886031  0.205428  0.947698  1
  H  H5  1  0.604420  0.375308  0.411267  1
  H  H6  1  0.430167  0.272667  0.429358  1
  H  H7  1  0.961767  0.968091  0.981355  1
