# generated using pymatgen
data_Ta8CdTcS16
_symmetry_space_group_name_H-M   'P 1'
_cell_length_a   6.69709900
_cell_length_b   6.69709850
_cell_length_c   12.84311900
_cell_angle_alpha   90.00000000
_cell_angle_beta   90.00000000
_cell_angle_gamma   120.00000741
_symmetry_Int_Tables_number   1
_chemical_formula_structural   Ta8CdTcS16
_chemical_formula_sum   'Ta8 Cd1 Tc1 S16'
_cell_volume   498.85520892
_cell_formula_units_Z   1
loop_
 _symmetry_equiv_pos_site_id
 _symmetry_equiv_pos_as_xyz
  1  'x, y, z'
loop_
 _atom_site_type_symbol
 _atom_site_label
 _atom_site_symmetry_multiplicity
 _atom_site_fract_x
 _atom_site_fract_y
 _atom_site_fract_z
 _atom_site_occupancy
  Ta  Ta0  1  0.505133  0.494867  0.768107  1
  Ta  Ta1  1  0.010267  0.505133  0.231893  1
  Ta  Ta2  1  0.494867  0.989733  0.231893  1
  Ta  Ta3  1  0.505133  0.010267  0.768107  1
  Ta  Ta4  1  0.989733  0.494867  0.768107  1
  Ta  Ta5  1  0.494867  0.505133  0.231893  1
  Ta  Ta6  1  0.000000  0.000000  0.765901  1
  Ta  Ta7  1  0.000000  0.000000  0.234099  1
  Cd  Cd8  1  0.000000  0.000000  0.500000  1
  Tc  Tc9  1  0.000000  0.000000  0.000000  1
  S  S10  1  0.830715  0.169285  0.354107  1
  S  S11  1  0.830715  0.661430  0.354107  1
  S  S12  1  0.338570  0.169285  0.354107  1
  S  S13  1  0.669191  0.834595  0.886989  1
  S  S14  1  0.169285  0.338570  0.645893  1
  S  S15  1  0.165405  0.834595  0.886989  1
  S  S16  1  0.165405  0.330809  0.886989  1
  S  S17  1  0.834595  0.165405  0.113011  1
  S  S18  1  0.330809  0.165405  0.113011  1
  S  S19  1  0.661430  0.830715  0.645893  1
  S  S20  1  0.333333  0.666667  0.108130  1
  S  S21  1  0.666667  0.333333  0.643785  1
  S  S22  1  0.666667  0.333333  0.891870  1
  S  S23  1  0.333333  0.666667  0.356215  1
  S  S24  1  0.834595  0.669191  0.113011  1
  S  S25  1  0.169285  0.830715  0.645893  1
