# generated using pymatgen
data_Er3In3HgIr
_symmetry_space_group_name_H-M   'P 1'
_cell_length_a   7.82941700
_cell_length_b   7.82941673
_cell_length_c   3.64147000
_cell_angle_alpha   90.00000000
_cell_angle_beta   90.00000000
_cell_angle_gamma   119.99999690
_symmetry_Int_Tables_number   1
_chemical_formula_structural   Er3In3HgIr
_chemical_formula_sum   'Er3 In3 Hg1 Ir1'
_cell_volume   193.31529471
_cell_formula_units_Z   1
loop_
 _symmetry_equiv_pos_site_id
 _symmetry_equiv_pos_as_xyz
  1  'x, y, z'
loop_
 _atom_site_type_symbol
 _atom_site_label
 _atom_site_symmetry_multiplicity
 _atom_site_fract_x
 _atom_site_fract_y
 _atom_site_fract_z
 _atom_site_occupancy
  Er  Er0  1  0.569041  0.973097  0.500000  1
  Er  Er1  1  0.404056  0.430960  0.500000  1
  Er  Er2  1  0.026903  0.595945  0.500000  1
  In  In3  1  0.229574  0.997055  0.000000  1
  In  In4  1  0.002945  0.232519  0.000000  1
  In  In5  1  0.767481  0.770427  0.000000  1
  Hg  Hg6  1  0.666667  0.333333  0.000000  1
  Ir  Ir7  1  0.333333  0.666666  0.000000  1
