# generated using pymatgen
data_Er2MnFeOs2
_symmetry_space_group_name_H-M   'P 1'
_cell_length_a   5.24753243
_cell_length_b   5.24753272
_cell_length_c   5.23945194
_cell_angle_alpha   60.67953166
_cell_angle_beta   60.67952647
_cell_angle_gamma   59.68474931
_symmetry_Int_Tables_number   1
_chemical_formula_structural   Er2MnFeOs2
_chemical_formula_sum   'Er2 Mn1 Fe1 Os2'
_cell_volume   102.80170692
_cell_formula_units_Z   1
loop_
 _symmetry_equiv_pos_site_id
 _symmetry_equiv_pos_as_xyz
  1  'x, y, z'
loop_
 _atom_site_type_symbol
 _atom_site_label
 _atom_site_symmetry_multiplicity
 _atom_site_fract_x
 _atom_site_fract_y
 _atom_site_fract_z
 _atom_site_occupancy
  Er  Er0  1  0.622951  0.622951  0.629208  1
  Er  Er1  1  0.377049  0.377049  0.370792  1
  Mn  Mn2  1  0.000000  0.000000  0.500000  1
  Fe  Fe3  1  0.000000  0.000000  0.000000  1
  Os  Os4  1  0.000000  0.500000  0.000000  1
  Os  Os5  1  0.500000  0.000000  0.000000  1
