# generated using pymatgen
data_Yb3ThB24
_symmetry_space_group_name_H-M   'P 1'
_cell_length_a   4.11870600
_cell_length_b   4.11870600
_cell_length_c   16.50766300
_cell_angle_alpha   90.00000000
_cell_angle_beta   90.00000000
_cell_angle_gamma   90.00000000
_symmetry_Int_Tables_number   1
_chemical_formula_structural   Yb3ThB24
_chemical_formula_sum   'Yb3 Th1 B24'
_cell_volume   280.03168852
_cell_formula_units_Z   1
loop_
 _symmetry_equiv_pos_site_id
 _symmetry_equiv_pos_as_xyz
  1  'x, y, z'
loop_
 _atom_site_type_symbol
 _atom_site_label
 _atom_site_symmetry_multiplicity
 _atom_site_fract_x
 _atom_site_fract_y
 _atom_site_fract_z
 _atom_site_occupancy
  Yb  Yb0  1  0.500000  0.500000  0.254344  1
  Yb  Yb1  1  0.500000  0.500000  0.500000  1
  Yb  Yb2  1  0.500000  0.500000  0.745656  1
  Th  Th3  1  0.500000  0.500000  0.000000  1
  B  B4  1  0.000000  0.000000  0.049686  1
  B  B5  1  0.000000  0.000000  0.300368  1
  B  B6  1  0.000000  0.000000  0.550195  1
  B  B7  1  0.000000  0.000000  0.799755  1
  B  B8  1  0.000000  0.300707  0.874549  1
  B  B9  1  0.000000  0.300707  0.125451  1
  B  B10  1  0.000000  0.299078  0.375223  1
  B  B11  1  0.000000  0.299078  0.624777  1
  B  B12  1  0.300707  0.000000  0.874549  1
  B  B13  1  0.300707  0.000000  0.125451  1
  B  B14  1  0.299078  0.000000  0.375223  1
  B  B15  1  0.299078  0.000000  0.624777  1
  B  B16  1  0.000000  0.000000  0.950314  1
  B  B17  1  0.000000  0.000000  0.200245  1
  B  B18  1  0.000000  0.000000  0.449805  1
  B  B19  1  0.000000  0.000000  0.699632  1
  B  B20  1  0.000000  0.699293  0.874549  1
  B  B21  1  0.000000  0.699293  0.125451  1
  B  B22  1  0.000000  0.700922  0.375223  1
  B  B23  1  0.000000  0.700922  0.624777  1
  B  B24  1  0.699293  0.000000  0.874549  1
  B  B25  1  0.699293  0.000000  0.125451  1
  B  B26  1  0.700922  0.000000  0.375223  1
  B  B27  1  0.700922  0.000000  0.624777  1
