# generated using pymatgen
data_Th4CuHg2Rh3
_symmetry_space_group_name_H-M   'P 1'
_cell_length_a   7.80632540
_cell_length_b   7.80632540
_cell_length_c   3.78794500
_cell_angle_alpha   90.00000000
_cell_angle_beta   90.00000000
_cell_angle_gamma   90.08976406
_symmetry_Int_Tables_number   1
_chemical_formula_structural   Th4CuHg2Rh3
_chemical_formula_sum   'Th4 Cu1 Hg2 Rh3'
_cell_volume   230.83222195
_cell_formula_units_Z   1
loop_
 _symmetry_equiv_pos_site_id
 _symmetry_equiv_pos_as_xyz
  1  'x, y, z'
loop_
 _atom_site_type_symbol
 _atom_site_label
 _atom_site_symmetry_multiplicity
 _atom_site_fract_x
 _atom_site_fract_y
 _atom_site_fract_z
 _atom_site_occupancy
  Th  Th0  1  0.315332  0.169248  0.500001  1
  Th  Th1  1  0.835677  0.335677  0.500001  1
  Th  Th2  1  0.177530  0.677530  0.500001  1
  Th  Th3  1  0.669248  0.815332  0.500001  1
  Cu  Cu4  1  0.625866  0.125868  0.000000  1
  Hg  Hg5  1  0.988762  0.001524  0.000000  1
  Hg  Hg6  1  0.501524  0.488762  0.000000  1
  Rh  Rh7  1  0.132774  0.371891  0.000000  1
  Rh  Rh8  1  0.871891  0.632772  0.000000  1
  Rh  Rh9  1  0.381398  0.881398  0.000000  1
