# generated using pymatgen
data_NbIrSeS3
_symmetry_space_group_name_H-M   'P 1'
_cell_length_a   3.53608900
_cell_length_b   11.48093900
_cell_length_c   13.04299200
_cell_angle_alpha   90.00000000
_cell_angle_beta   90.00000000
_cell_angle_gamma   90.00000000
_symmetry_Int_Tables_number   1
_chemical_formula_structural   NbIrSeS3
_chemical_formula_sum   'Nb4 Ir4 Se4 S12'
_cell_volume   529.51446037
_cell_formula_units_Z   4
loop_
 _symmetry_equiv_pos_site_id
 _symmetry_equiv_pos_as_xyz
  1  'x, y, z'
loop_
 _atom_site_type_symbol
 _atom_site_label
 _atom_site_symmetry_multiplicity
 _atom_site_fract_x
 _atom_site_fract_y
 _atom_site_fract_z
 _atom_site_occupancy
  Nb  Nb0  1  0.000000  0.043800  0.997435  1
  Nb  Nb1  1  0.500000  0.956200  0.497435  1
  Nb  Nb2  1  0.000000  0.260214  0.490117  1
  Nb  Nb3  1  0.500000  0.739786  0.990117  1
  Ir  Ir4  1  0.000000  0.531853  0.998986  1
  Ir  Ir5  1  0.500000  0.468147  0.498986  1
  Ir  Ir6  1  0.000000  0.752186  0.492443  1
  Ir  Ir7  1  0.500000  0.247814  0.992443  1
  Se  Se8  1  0.000000  0.343708  0.098596  1
  Se  Se9  1  0.500000  0.656292  0.598596  1
  Se  Se10  1  0.000000  0.409521  0.628458  1
  Se  Se11  1  0.500000  0.590479  0.128458  1
  S  S12  1  0.500000  0.098963  0.121119  1
  S  S13  1  0.000000  0.901037  0.621119  1
  S  S14  1  0.500000  0.154567  0.592990  1
  S  S15  1  0.000000  0.845433  0.092990  1
  S  S16  1  0.500000  0.320369  0.368354  1
  S  S17  1  0.000000  0.679631  0.868354  1
  S  S18  1  0.500000  0.435477  0.906684  1
  S  S19  1  0.000000  0.564523  0.406684  1
  S  S20  1  0.000000  0.062044  0.394598  1
  S  S21  1  0.500000  0.937956  0.894598  1
  S  S22  1  0.000000  0.193973  0.873280  1
  S  S23  1  0.500000  0.806027  0.373280  1
