# generated using pymatgen
data_Dy4Al3ZnPd4
_symmetry_space_group_name_H-M   'P 1'
_cell_length_a   4.43670600
_cell_length_b   6.85214934
_cell_length_c   7.83809662
_cell_angle_alpha   90.20706691
_cell_angle_beta   90.00000000
_cell_angle_gamma   90.00000000
_symmetry_Int_Tables_number   1
_chemical_formula_structural   Dy4Al3ZnPd4
_chemical_formula_sum   'Dy4 Al3 Zn1 Pd4'
_cell_volume   238.28420054
_cell_formula_units_Z   1
loop_
 _symmetry_equiv_pos_site_id
 _symmetry_equiv_pos_as_xyz
  1  'x, y, z'
loop_
 _atom_site_type_symbol
 _atom_site_label
 _atom_site_symmetry_multiplicity
 _atom_site_fract_x
 _atom_site_fract_y
 _atom_site_fract_z
 _atom_site_occupancy
  Dy  Dy0  1  0.250000  0.033122  0.315754  1
  Dy  Dy1  1  0.250000  0.532937  0.179044  1
  Dy  Dy2  1  0.750000  0.967107  0.682284  1
  Dy  Dy3  1  0.750000  0.463296  0.821592  1
  Al  Al4  1  0.250000  0.645113  0.560459  1
  Al  Al5  1  0.750000  0.856014  0.061177  1
  Al  Al6  1  0.750000  0.357714  0.440392  1
  Zn  Zn7  1  0.250000  0.148253  0.938228  1
  Pd  Pd8  1  0.250000  0.272621  0.613032  1
  Pd  Pd9  1  0.250000  0.764254  0.879803  1
  Pd  Pd10  1  0.750000  0.728732  0.380860  1
  Pd  Pd11  1  0.750000  0.230839  0.127374  1
