# generated using pymatgen
data_HoTm2Mg(GaPt)4
_symmetry_space_group_name_H-M   'P 1'
_cell_length_a   4.30500600
_cell_length_b   6.81823770
_cell_length_c   7.75806541
_cell_angle_alpha   85.92394751
_cell_angle_beta   90.00000000
_cell_angle_gamma   90.00000000
_symmetry_Int_Tables_number   1
_chemical_formula_structural   HoTm2Mg(GaPt)4
_chemical_formula_sum   'Ho1 Tm2 Mg1 Ga4 Pt4'
_cell_volume   227.14303840
_cell_formula_units_Z   1
loop_
 _symmetry_equiv_pos_site_id
 _symmetry_equiv_pos_as_xyz
  1  'x, y, z'
loop_
 _atom_site_type_symbol
 _atom_site_label
 _atom_site_symmetry_multiplicity
 _atom_site_fract_x
 _atom_site_fract_y
 _atom_site_fract_z
 _atom_site_occupancy
  Ho  Ho0  1  0.250000  0.523466  0.688635  1
  Tm  Tm1  1  0.750000  0.978760  0.179222  1
  Tm  Tm2  1  0.750000  0.470602  0.311465  1
  Mg  Mg3  1  0.250000  0.026239  0.821491  1
  Ga  Ga4  1  0.250000  0.146993  0.441954  1
  Ga  Ga5  1  0.250000  0.664260  0.062499  1
  Ga  Ga6  1  0.750000  0.845660  0.564322  1
  Ga  Ga7  1  0.750000  0.346038  0.930632  1
  Pt  Pt8  1  0.250000  0.768388  0.376227  1
  Pt  Pt9  1  0.250000  0.271842  0.113603  1
  Pt  Pt10  1  0.750000  0.218969  0.624065  1
  Pt  Pt11  1  0.750000  0.738784  0.885887  1
