# generated using pymatgen
data_NaYbCuNiH6
_symmetry_space_group_name_H-M   'P 1'
_cell_length_a   4.91417218
_cell_length_b   4.91417251
_cell_length_c   4.91417200
_cell_angle_alpha   60.00000343
_cell_angle_beta   60.00000122
_cell_angle_gamma   59.99999525
_symmetry_Int_Tables_number   1
_chemical_formula_structural   NaYbCuNiH6
_chemical_formula_sum   'Na1 Yb1 Cu1 Ni1 H6'
_cell_volume   83.91432822
_cell_formula_units_Z   1
loop_
 _symmetry_equiv_pos_site_id
 _symmetry_equiv_pos_as_xyz
  1  'x, y, z'
loop_
 _atom_site_type_symbol
 _atom_site_label
 _atom_site_symmetry_multiplicity
 _atom_site_fract_x
 _atom_site_fract_y
 _atom_site_fract_z
 _atom_site_occupancy
  Na  Na0  1  0.750000  0.750000  0.750000  1
  Yb  Yb1  1  0.250000  0.250000  0.250000  1
  Cu  Cu2  1  0.500000  0.500000  0.500000  1
  Ni  Ni3  1  0.000000  0.000000  0.000000  1
  H  H4  1  0.758881  0.241118  0.241118  1
  H  H5  1  0.241118  0.758881  0.241118  1
  H  H6  1  0.758882  0.758882  0.241119  1
  H  H7  1  0.241118  0.241118  0.758881  1
  H  H8  1  0.758882  0.241119  0.758882  1
  H  H9  1  0.241119  0.758882  0.758882  1
