# generated using pymatgen
data_Tm2Lu10Co4BiOs
_symmetry_space_group_name_H-M   'P 1'
_cell_length_a   8.15296677
_cell_length_b   8.14575597
_cell_length_c   8.15296510
_cell_angle_alpha   110.57126000
_cell_angle_beta   111.92517498
_cell_angle_gamma   106.00892842
_symmetry_Int_Tables_number   1
_chemical_formula_structural   Tm2Lu10Co4BiOs
_chemical_formula_sum   'Tm2 Lu10 Co4 Bi1 Os1'
_cell_volume   415.43707613
_cell_formula_units_Z   1
loop_
 _symmetry_equiv_pos_site_id
 _symmetry_equiv_pos_as_xyz
  1  'x, y, z'
loop_
 _atom_site_type_symbol
 _atom_site_label
 _atom_site_symmetry_multiplicity
 _atom_site_fract_x
 _atom_site_fract_y
 _atom_site_fract_z
 _atom_site_occupancy
  Tm  Tm0  1  0.217728  0.019791  0.802063  1
  Tm  Tm1  1  0.782272  0.980209  0.197937  1
  Lu  Lu2  1  0.279042  0.180843  0.458974  1
  Lu  Lu3  1  0.720958  0.819157  0.541026  1
  Lu  Lu4  1  0.278132  0.819157  0.098198  1
  Lu  Lu5  1  0.721868  0.180843  0.901802  1
  Lu  Lu6  1  0.620122  0.311926  0.309557  1
  Lu  Lu7  1  0.379878  0.688074  0.690443  1
  Lu  Lu8  1  0.002369  0.311926  0.691804  1
  Lu  Lu9  1  0.997631  0.688074  0.308196  1
  Lu  Lu10  1  0.217128  0.415257  0.198131  1
  Lu  Lu11  1  0.782872  0.584743  0.801869  1
  Co  Co12  1  0.000449  0.375480  0.375030  1
  Co  Co13  1  0.999551  0.624520  0.624970  1
  Co  Co14  1  0.388151  0.887783  0.499631  1
  Co  Co15  1  0.611849  0.112217  0.500369  1
  Bi  Bi16  1  0.500000  0.500000  0.000000  1
  Os  Os17  1  0.000000  0.000000  0.000000  1
