# generated using pymatgen
data_Pr7Eu(Sc3Pb4)4
_symmetry_space_group_name_H-M   'P 1'
_cell_length_a   8.06285393
_cell_length_b   15.35026769
_cell_length_c   8.12489700
_cell_angle_alpha   89.81857867
_cell_angle_beta   90.13363111
_cell_angle_gamma   90.32462659
_symmetry_Int_Tables_number   1
_chemical_formula_structural   Pr7Eu(Sc3Pb4)4
_chemical_formula_sum   'Pr7 Eu1 Sc12 Pb16'
_cell_volume   1005.56997773
_cell_formula_units_Z   1
loop_
 _symmetry_equiv_pos_site_id
 _symmetry_equiv_pos_as_xyz
  1  'x, y, z'
loop_
 _atom_site_type_symbol
 _atom_site_label
 _atom_site_symmetry_multiplicity
 _atom_site_fract_x
 _atom_site_fract_y
 _atom_site_fract_z
 _atom_site_occupancy
  Pr  Pr0  1  0.484377  0.595211  0.674442  1
  Pr  Pr1  1  0.985820  0.906227  0.824828  1
  Pr  Pr2  1  0.515548  0.095119  0.326108  1
  Pr  Pr3  1  0.016635  0.405437  0.173990  1
  Pr  Pr4  1  0.516995  0.404524  0.325942  1
  Pr  Pr5  1  0.015687  0.095124  0.174581  1
  Pr  Pr6  1  0.484832  0.905321  0.674881  1
  Eu  Eu7  1  0.982381  0.593212  0.825965  1
  Sc  Sc8  1  0.647594  0.626019  0.156477  1
  Sc  Sc9  1  0.148317  0.874566  0.343855  1
  Sc  Sc10  1  0.351223  0.126306  0.843011  1
  Sc  Sc11  1  0.851866  0.374149  0.657711  1
  Sc  Sc12  1  0.352171  0.373411  0.842230  1
  Sc  Sc13  1  0.851440  0.126131  0.657635  1
  Sc  Sc14  1  0.649341  0.873972  0.157135  1
  Sc  Sc15  1  0.147840  0.626001  0.343519  1
  Sc  Sc16  1  0.815308  0.749940  0.492790  1
  Sc  Sc17  1  0.313624  0.749440  0.005446  1
  Sc  Sc18  1  0.184834  0.250349  0.505830  1
  Sc  Sc19  1  0.684578  0.250059  0.993616  1
  Pb  Pb20  1  0.685160  0.454126  0.953290  1
  Pb  Pb21  1  0.187897  0.045341  0.547797  1
  Pb  Pb22  1  0.313299  0.954958  0.048159  1
  Pb  Pb23  1  0.811923  0.544653  0.450885  1
  Pb  Pb24  1  0.312684  0.544522  0.047719  1
  Pb  Pb25  1  0.811882  0.955383  0.452242  1
  Pb  Pb26  1  0.687452  0.045043  0.952743  1
  Pb  Pb27  1  0.189089  0.454075  0.545759  1
  Pb  Pb28  1  0.454859  0.750099  0.364029  1
  Pb  Pb29  1  0.955574  0.751019  0.136154  1
  Pb  Pb30  1  0.545000  0.249869  0.636274  1
  Pb  Pb31  1  0.044320  0.250245  0.863615  1
  Pb  Pb32  1  0.674154  0.750424  0.852791  1
  Pb  Pb33  1  0.173474  0.749948  0.648600  1
  Pb  Pb34  1  0.326154  0.249829  0.147988  1
  Pb  Pb35  1  0.826668  0.249949  0.351964  1
