# generated using pymatgen
data_Lu3Sc5Pt4
_symmetry_space_group_name_H-M   'P 1'
_cell_length_a   4.56778700
_cell_length_b   6.82266917
_cell_length_c   8.33060071
_cell_angle_alpha   90.64818963
_cell_angle_beta   90.00000000
_cell_angle_gamma   90.00000000
_symmetry_Int_Tables_number   1
_chemical_formula_structural   Lu3Sc5Pt4
_chemical_formula_sum   'Lu3 Sc5 Pt4'
_cell_volume   259.60238860
_cell_formula_units_Z   1
loop_
 _symmetry_equiv_pos_site_id
 _symmetry_equiv_pos_as_xyz
  1  'x, y, z'
loop_
 _atom_site_type_symbol
 _atom_site_label
 _atom_site_symmetry_multiplicity
 _atom_site_fract_x
 _atom_site_fract_y
 _atom_site_fract_z
 _atom_site_occupancy
  Lu  Lu0  1  0.250000  0.985269  0.324508  1
  Lu  Lu1  1  0.750000  0.017872  0.676470  1
  Lu  Lu2  1  0.250000  0.484463  0.172974  1
  Sc  Sc3  1  0.750000  0.514001  0.829687  1
  Sc  Sc4  1  0.750000  0.642460  0.428233  1
  Sc  Sc5  1  0.250000  0.361933  0.579089  1
  Sc  Sc6  1  0.750000  0.143328  0.071394  1
  Sc  Sc7  1  0.250000  0.851075  0.923925  1
  Pt  Pt8  1  0.250000  0.250421  0.899033  1
  Pt  Pt9  1  0.750000  0.746588  0.096693  1
  Pt  Pt10  1  0.250000  0.753452  0.597402  1
  Pt  Pt11  1  0.750000  0.249139  0.400592  1
