# generated using pymatgen
data_Ce8Hf12SiGe15
_symmetry_space_group_name_H-M   'P 1'
_cell_length_a   7.44051821
_cell_length_b   7.44485064
_cell_length_c   13.68562559
_cell_angle_alpha   89.93136166
_cell_angle_beta   90.16330064
_cell_angle_gamma   89.98709083
_symmetry_Int_Tables_number   1
_chemical_formula_structural   Ce8Hf12SiGe15
_chemical_formula_sum   'Ce8 Hf12 Si1 Ge15'
_cell_volume   758.09169834
_cell_formula_units_Z   1
loop_
 _symmetry_equiv_pos_site_id
 _symmetry_equiv_pos_as_xyz
  1  'x, y, z'
loop_
 _atom_site_type_symbol
 _atom_site_label
 _atom_site_symmetry_multiplicity
 _atom_site_fract_x
 _atom_site_fract_y
 _atom_site_fract_z
 _atom_site_occupancy
  Ce  Ce0  1  0.997948  0.340297  0.218364  1
  Ce  Ce1  1  0.003224  0.662542  0.717698  1
  Ce  Ce2  1  0.159278  0.499109  0.465945  1
  Ce  Ce3  1  0.504280  0.836910  0.032753  1
  Ce  Ce4  1  0.837623  0.503668  0.967744  1
  Ce  Ce5  1  0.496245  0.162166  0.531912  1
  Ce  Ce6  1  0.338097  0.996727  0.782099  1
  Ce  Ce7  1  0.663161  0.002369  0.282706  1
  Hf  Hf8  1  0.171053  0.170827  0.000116  1
  Hf  Hf9  1  0.830096  0.827735  0.498380  1
  Hf  Hf10  1  0.325144  0.670529  0.250827  1
  Hf  Hf11  1  0.670601  0.329023  0.749829  1
  Hf  Hf12  1  0.157059  0.993449  0.374097  1
  Hf  Hf13  1  0.839667  0.002816  0.876003  1
  Hf  Hf14  1  0.502468  0.660211  0.625656  1
  Hf  Hf15  1  0.339813  0.497436  0.873998  1
  Hf  Hf16  1  0.498430  0.340222  0.126476  1
  Hf  Hf17  1  0.661826  0.503601  0.374157  1
  Hf  Hf18  1  0.997449  0.160319  0.624436  1
  Hf  Hf19  1  0.003808  0.839363  0.125479  1
  Si  Si20  1  0.961395  0.706756  0.317096  1
  Ge  Ge21  1  0.371570  0.300370  0.321171  1
  Ge  Ge22  1  0.629394  0.698551  0.820060  1
  Ge  Ge23  1  0.198524  0.871153  0.570202  1
  Ge  Ge24  1  0.129972  0.801452  0.929946  1
  Ge  Ge25  1  0.802090  0.130009  0.070660  1
  Ge  Ge26  1  0.870902  0.198366  0.429924  1
  Ge  Ge27  1  0.301307  0.370666  0.678972  1
  Ge  Ge28  1  0.701503  0.630168  0.181703  1
  Ge  Ge29  1  0.294522  0.035899  0.181728  1
  Ge  Ge30  1  0.707045  0.964443  0.681342  1
  Ge  Ge31  1  0.463729  0.793012  0.431762  1
  Ge  Ge32  1  0.207466  0.535508  0.067804  1
  Ge  Ge33  1  0.535589  0.206363  0.932134  1
  Ge  Ge34  1  0.792838  0.464365  0.568458  1
  Ge  Ge35  1  0.034884  0.293600  0.818362  1
