# generated using pymatgen
data_La2ZnGa5Pt2
_symmetry_space_group_name_H-M   'P 1'
_cell_length_a   8.74320752
_cell_length_b   8.74294005
_cell_length_c   8.74350300
_cell_angle_alpha   140.18047225
_cell_angle_beta   107.61360129
_cell_angle_gamma   85.94801214
_symmetry_Int_Tables_number   1
_chemical_formula_structural   La2ZnGa5Pt2
_chemical_formula_sum   'La4 Zn2 Ga10 Pt4'
_cell_volume   393.35065613
_cell_formula_units_Z   2
loop_
 _symmetry_equiv_pos_site_id
 _symmetry_equiv_pos_as_xyz
  1  'x, y, z'
loop_
 _atom_site_type_symbol
 _atom_site_label
 _atom_site_symmetry_multiplicity
 _atom_site_fract_x
 _atom_site_fract_y
 _atom_site_fract_z
 _atom_site_occupancy
  La  La0  1  0.091727  0.864165  0.227843  1
  La  La1  1  0.636215  0.363860  0.272309  1
  La  La2  1  0.908273  0.135835  0.772157  1
  La  La3  1  0.363785  0.636140  0.727691  1
  Zn  Zn4  1  0.500027  0.750004  0.250043  1
  Zn  Zn5  1  0.499973  0.249996  0.749957  1
  Ga  Ga6  1  0.283352  0.033446  0.750022  1
  Ga  Ga7  1  0.283252  0.533267  0.249961  1
  Ga  Ga8  1  0.000070  0.250114  0.250045  1
  Ga  Ga9  1  0.233357  0.393871  0.839859  1
  Ga  Ga10  1  0.766643  0.606129  0.160141  1
  Ga  Ga11  1  0.716748  0.466733  0.750039  1
  Ga  Ga12  1  0.553948  0.893603  0.660250  1
  Ga  Ga13  1  0.716648  0.966554  0.249978  1
  Ga  Ga14  1  0.446052  0.106397  0.339750  1
  Ga  Ga15  1  0.999930  0.749886  0.749955  1
  Pt  Pt16  1  0.039169  0.640485  0.398982  1
  Pt  Pt17  1  0.758536  0.859870  0.899029  1
  Pt  Pt18  1  0.960831  0.359515  0.601018  1
  Pt  Pt19  1  0.241464  0.140130  0.100971  1
