# generated using pymatgen
data_Tb2P7(IrRu3)3
_symmetry_space_group_name_H-M   'P 1'
_cell_length_a   9.46036400
_cell_length_b   9.46036439
_cell_length_c   3.94598400
_cell_angle_alpha   90.00000000
_cell_angle_beta   90.00000000
_cell_angle_gamma   119.99999865
_symmetry_Int_Tables_number   1
_chemical_formula_structural   Tb2P7(IrRu3)3
_chemical_formula_sum   'Tb2 P7 Ir3 Ru9'
_cell_volume   305.84519995
_cell_formula_units_Z   1
loop_
 _symmetry_equiv_pos_site_id
 _symmetry_equiv_pos_as_xyz
  1  'x, y, z'
loop_
 _atom_site_type_symbol
 _atom_site_label
 _atom_site_symmetry_multiplicity
 _atom_site_fract_x
 _atom_site_fract_y
 _atom_site_fract_z
 _atom_site_occupancy
  Tb  Tb0  1  0.666667  0.333333  0.000000  1
  Tb  Tb1  1  0.333333  0.666667  0.500000  1
  P  P2  1  0.299020  0.880536  0.000000  1
  P  P3  1  0.581517  0.700980  0.000000  1
  P  P4  1  0.119464  0.418483  0.000000  1
  P  P5  1  0.400136  0.285961  0.500000  1
  P  P6  1  0.885826  0.599864  0.500000  1
  P  P7  1  0.714039  0.114174  0.500000  1
  P  P8  1  0.000000  0.000000  0.000000  1
  Ir  Ir9  1  0.444862  0.057569  0.500000  1
  Ir  Ir10  1  0.612707  0.555138  0.500000  1
  Ir  Ir11  1  0.942431  0.387293  0.500000  1
  Ru  Ru12  1  0.064621  0.631469  0.000000  1
  Ru  Ru13  1  0.566848  0.935379  0.000000  1
  Ru  Ru14  1  0.368531  0.433152  0.000000  1
  Ru  Ru15  1  0.271202  0.109791  0.000000  1
  Ru  Ru16  1  0.838589  0.728798  0.000000  1
  Ru  Ru17  1  0.890209  0.161411  0.000000  1
  Ru  Ru18  1  0.090081  0.870359  0.500000  1
  Ru  Ru19  1  0.780278  0.909919  0.500000  1
  Ru  Ru20  1  0.129641  0.219722  0.500000  1
