# generated using pymatgen
data_Ca6SnPd4Pb3
_symmetry_space_group_name_H-M   'P 1'
_cell_length_a   5.91724700
_cell_length_b   8.77170700
_cell_length_c   14.10239200
_cell_angle_alpha   90.00000000
_cell_angle_beta   90.00000000
_cell_angle_gamma   90.00000000
_symmetry_Int_Tables_number   1
_chemical_formula_structural   Ca6SnPd4Pb3
_chemical_formula_sum   'Ca12 Sn2 Pd8 Pb6'
_cell_volume   731.97558794
_cell_formula_units_Z   2
loop_
 _symmetry_equiv_pos_site_id
 _symmetry_equiv_pos_as_xyz
  1  'x, y, z'
loop_
 _atom_site_type_symbol
 _atom_site_label
 _atom_site_symmetry_multiplicity
 _atom_site_fract_x
 _atom_site_fract_y
 _atom_site_fract_z
 _atom_site_occupancy
  Ca  Ca0  1  0.154076  0.399274  0.598318  1
  Ca  Ca1  1  0.845924  0.600726  0.098318  1
  Ca  Ca2  1  0.154076  0.100726  0.401682  1
  Ca  Ca3  1  0.845924  0.899274  0.901682  1
  Ca  Ca4  1  0.848779  0.604937  0.402005  1
  Ca  Ca5  1  0.151221  0.395063  0.902005  1
  Ca  Ca6  1  0.848779  0.895063  0.597995  1
  Ca  Ca7  1  0.151221  0.104937  0.097995  1
  Ca  Ca8  1  0.634453  0.262224  0.751596  1
  Ca  Ca9  1  0.365547  0.737776  0.251596  1
  Ca  Ca10  1  0.634453  0.237776  0.248404  1
  Ca  Ca11  1  0.365547  0.762224  0.748404  1
  Sn  Sn12  1  0.354352  0.750000  0.500000  1
  Sn  Sn13  1  0.645648  0.250000  0.000000  1
  Pd  Pd14  1  0.371553  0.027260  0.587224  1
  Pd  Pd15  1  0.628447  0.972740  0.087224  1
  Pd  Pd16  1  0.371553  0.472740  0.412776  1
  Pd  Pd17  1  0.628447  0.527260  0.912776  1
  Pd  Pd18  1  0.621373  0.960637  0.411286  1
  Pd  Pd19  1  0.378627  0.039363  0.911286  1
  Pd  Pd20  1  0.621373  0.539363  0.588714  1
  Pd  Pd21  1  0.378627  0.460637  0.088714  1
  Pb  Pb22  1  0.652711  0.250000  0.500000  1
  Pb  Pb23  1  0.347289  0.750000  0.000000  1
  Pb  Pb24  1  0.130621  0.109616  0.748902  1
  Pb  Pb25  1  0.869379  0.890384  0.248902  1
  Pb  Pb26  1  0.130621  0.390384  0.251098  1
  Pb  Pb27  1  0.869379  0.609616  0.751098  1
