# generated using pymatgen
data_ScH5Os
_symmetry_space_group_name_H-M   'P 1'
_cell_length_a   4.26073400
_cell_length_b   4.56984600
_cell_length_c   11.08980900
_cell_angle_alpha   90.00000000
_cell_angle_beta   90.00000000
_cell_angle_gamma   90.00000000
_symmetry_Int_Tables_number   1
_chemical_formula_structural   ScH5Os
_chemical_formula_sum   'Sc4 H20 Os4'
_cell_volume   215.92854240
_cell_formula_units_Z   4
loop_
 _symmetry_equiv_pos_site_id
 _symmetry_equiv_pos_as_xyz
  1  'x, y, z'
loop_
 _atom_site_type_symbol
 _atom_site_label
 _atom_site_symmetry_multiplicity
 _atom_site_fract_x
 _atom_site_fract_y
 _atom_site_fract_z
 _atom_site_occupancy
  Sc  Sc0  1  0.708188  0.642001  0.847447  1
  Sc  Sc1  1  0.208188  0.857999  0.152553  1
  Sc  Sc2  1  0.791812  0.357999  0.347447  1
  Sc  Sc3  1  0.291812  0.142001  0.652553  1
  H  H4  1  0.465337  0.861568  0.988330  1
  H  H5  1  0.965337  0.638432  0.011670  1
  H  H6  1  0.034663  0.138432  0.488330  1
  H  H7  1  0.534663  0.361568  0.511670  1
  H  H8  1  0.120011  0.916615  0.816695  1
  H  H9  1  0.620011  0.583385  0.183305  1
  H  H10  1  0.379989  0.083385  0.316695  1
  H  H11  1  0.879989  0.416615  0.683305  1
  H  H12  1  0.684323  0.065656  0.175531  1
  H  H13  1  0.184323  0.434344  0.824469  1
  H  H14  1  0.815677  0.934344  0.675531  1
  H  H15  1  0.315677  0.565656  0.324469  1
  H  H16  1  0.635456  0.136889  0.820288  1
  H  H17  1  0.135456  0.363111  0.179712  1
  H  H18  1  0.864544  0.863111  0.320288  1
  H  H19  1  0.364544  0.636889  0.679712  1
  H  H20  1  0.976761  0.071835  0.000978  1
  H  H21  1  0.476761  0.428165  0.999022  1
  H  H22  1  0.523239  0.928165  0.500978  1
  H  H23  1  0.023239  0.571835  0.499022  1
  Os  Os24  1  0.319680  0.144981  0.908220  1
  Os  Os25  1  0.819680  0.355019  0.091780  1
  Os  Os26  1  0.180320  0.855019  0.408220  1
  Os  Os27  1  0.680320  0.644981  0.591780  1
