# generated using pymatgen
data_Pr8Ir3PbO24
_symmetry_space_group_name_H-M   'P 1'
_cell_length_a   5.52826508
_cell_length_b   9.52118071
_cell_length_c   10.36715543
_cell_angle_alpha   89.54659917
_cell_angle_beta   90.16955331
_cell_angle_gamma   90.31601840
_symmetry_Int_Tables_number   1
_chemical_formula_structural   Pr8Ir3PbO24
_chemical_formula_sum   'Pr8 Ir3 Pb1 O24'
_cell_volume   545.65385383
_cell_formula_units_Z   1
loop_
 _symmetry_equiv_pos_site_id
 _symmetry_equiv_pos_as_xyz
  1  'x, y, z'
loop_
 _atom_site_type_symbol
 _atom_site_label
 _atom_site_symmetry_multiplicity
 _atom_site_fract_x
 _atom_site_fract_y
 _atom_site_fract_z
 _atom_site_occupancy
  Pr  Pr0  1  0.039593  0.217919  0.131377  1
  Pr  Pr1  1  0.467383  0.772249  0.634057  1
  Pr  Pr2  1  0.965301  0.718748  0.371966  1
  Pr  Pr3  1  0.529896  0.286076  0.860061  1
  Pr  Pr4  1  0.035607  0.109566  0.539165  1
  Pr  Pr5  1  0.473502  0.900478  0.035686  1
  Pr  Pr6  1  0.980581  0.604550  0.963746  1
  Pr  Pr7  1  0.516829  0.405636  0.462452  1
  Ir  Ir8  1  0.546645  0.000908  0.354241  1
  Ir  Ir9  1  0.956528  0.998797  0.858330  1
  Ir  Ir10  1  0.458706  0.503829  0.144021  1
  Pb  Pb11  1  0.037102  0.487556  0.649745  1
  O  O12  1  0.437004  0.151255  0.459633  1
  O  O13  1  0.060204  0.854854  0.982935  1
  O  O14  1  0.563093  0.651129  0.027071  1
  O  O15  1  0.911808  0.337351  0.504869  1
  O  O16  1  0.723692  0.390649  0.078722  1
  O  O17  1  0.754699  0.616821  0.551229  1
  O  O18  1  0.281261  0.893149  0.432730  1
  O  O19  1  0.220625  0.110089  0.937247  1
  O  O20  1  0.255387  0.411199  0.009117  1
  O  O21  1  0.256411  0.601717  0.500882  1
  O  O22  1  0.752754  0.917722  0.491729  1
  O  O23  1  0.750178  0.090529  0.992107  1
  O  O24  1  0.189542  0.626628  0.181952  1
  O  O25  1  0.326236  0.328242  0.665781  1
  O  O26  1  0.819859  0.118539  0.312072  1
  O  O27  1  0.689173  0.873077  0.824021  1
  O  O28  1  0.343384  0.055504  0.210837  1
  O  O29  1  0.160152  0.944201  0.721560  1
  O  O30  1  0.656210  0.564366  0.281187  1
  O  O31  1  0.803890  0.456348  0.810473  1
  O  O32  1  0.326964  0.361239  0.255587  1
  O  O33  1  0.213258  0.640939  0.776017  1
  O  O34  1  0.663410  0.856554  0.242865  1
  O  O35  1  0.833134  0.141583  0.744533  1
