# generated using pymatgen
data_Tb3Ho2AlSb2
_symmetry_space_group_name_H-M   'P 1'
_cell_length_a   8.91787600
_cell_length_b   8.92170629
_cell_length_c   6.42179200
_cell_angle_alpha   90.00000000
_cell_angle_beta   90.00000000
_cell_angle_gamma   120.01421233
_symmetry_Int_Tables_number   1
_chemical_formula_structural   Tb3Ho2AlSb2
_chemical_formula_sum   'Tb6 Ho4 Al2 Sb4'
_cell_volume   442.41923803
_cell_formula_units_Z   2
loop_
 _symmetry_equiv_pos_site_id
 _symmetry_equiv_pos_as_xyz
  1  'x, y, z'
loop_
 _atom_site_type_symbol
 _atom_site_label
 _atom_site_symmetry_multiplicity
 _atom_site_fract_x
 _atom_site_fract_y
 _atom_site_fract_z
 _atom_site_occupancy
  Tb  Tb0  1  0.755734  0.998916  0.750000  1
  Tb  Tb1  1  0.755734  0.756819  0.250000  1
  Tb  Tb2  1  0.008276  0.242948  0.250000  1
  Tb  Tb3  1  0.008276  0.765327  0.750000  1
  Tb  Tb4  1  0.241630  0.232450  0.750000  1
  Tb  Tb5  1  0.241630  0.009179  0.250000  1
  Ho  Ho6  1  0.335749  0.667875  0.000000  1
  Ho  Ho7  1  0.655904  0.327951  0.500000  1
  Ho  Ho8  1  0.655904  0.327951  0.000000  1
  Ho  Ho9  1  0.335749  0.667875  0.500000  1
  Al  Al10  1  0.398403  0.997087  0.750000  1
  Al  Al11  1  0.398403  0.401316  0.250000  1
  Sb  Sb12  1  0.998747  0.606142  0.250000  1
  Sb  Sb13  1  0.998747  0.392605  0.750000  1
  Sb  Sb14  1  0.605558  0.604644  0.750000  1
  Sb  Sb15  1  0.605558  0.000913  0.250000  1
