# generated using pymatgen
data_NdY2Ga6Co4Ni5
_symmetry_space_group_name_H-M   'P 1'
_cell_length_a   8.73559506
_cell_length_b   8.73687280
_cell_length_c   4.09242200
_cell_angle_alpha   90.00000000
_cell_angle_beta   90.00000000
_cell_angle_gamma   119.68495851
_symmetry_Int_Tables_number   1
_chemical_formula_structural   NdY2Ga6Co4Ni5
_chemical_formula_sum   'Nd1 Y2 Ga6 Co4 Ni5'
_cell_volume   271.34980340
_cell_formula_units_Z   1
loop_
 _symmetry_equiv_pos_site_id
 _symmetry_equiv_pos_as_xyz
  1  'x, y, z'
loop_
 _atom_site_type_symbol
 _atom_site_label
 _atom_site_symmetry_multiplicity
 _atom_site_fract_x
 _atom_site_fract_y
 _atom_site_fract_z
 _atom_site_occupancy
  Nd  Nd0  1  0.668636  0.337107  0.500000  1
  Y  Y1  1  0.334604  0.666901  0.500000  1
  Y  Y2  1  0.000306  0.998481  0.000000  1
  Ga  Ga3  1  0.485667  0.994359  0.000000  1
  Ga  Ga4  1  0.002833  0.491107  0.000000  1
  Ga  Ga5  1  0.508608  0.514388  0.000000  1
  Ga  Ga6  1  0.727835  0.998738  0.500000  1
  Ga  Ga7  1  0.000355  0.727592  0.500000  1
  Ga  Ga8  1  0.269384  0.270051  0.500000  1
  Co  Co9  1  0.189491  0.365464  0.000000  1
  Co  Co10  1  0.637743  0.825421  0.000000  1
  Co  Co11  1  0.175456  0.809639  0.000000  1
  Co  Co12  1  0.822625  0.637471  0.000000  1
  Ni  Ni13  1  0.811124  0.176890  0.000000  1
  Ni  Ni14  1  0.367348  0.190194  0.000000  1
  Ni  Ni15  1  0.292549  0.997216  0.500000  1
  Ni  Ni16  1  0.001447  0.293678  0.500000  1
  Ni  Ni17  1  0.703986  0.705304  0.500000  1
