# generated using pymatgen
data_TbNd(ThNi2)2
_symmetry_space_group_name_H-M   'P 1'
_cell_length_a   3.71364300
_cell_length_b   4.26976600
_cell_length_c   10.77289700
_cell_angle_alpha   90.00000000
_cell_angle_beta   90.00000000
_cell_angle_gamma   90.00000000
_symmetry_Int_Tables_number   1
_chemical_formula_structural   TbNd(ThNi2)2
_chemical_formula_sum   'Tb1 Nd1 Th2 Ni4'
_cell_volume   170.81921982
_cell_formula_units_Z   1
loop_
 _symmetry_equiv_pos_site_id
 _symmetry_equiv_pos_as_xyz
  1  'x, y, z'
loop_
 _atom_site_type_symbol
 _atom_site_label
 _atom_site_symmetry_multiplicity
 _atom_site_fract_x
 _atom_site_fract_y
 _atom_site_fract_z
 _atom_site_occupancy
  Tb  Tb0  1  0.000000  0.000000  0.136983  1
  Nd  Nd1  1  0.500000  0.500000  0.356535  1
  Th  Th2  1  0.000000  0.500000  0.870944  1
  Th  Th3  1  0.500000  0.000000  0.630372  1
  Ni  Ni4  1  0.500000  0.500000  0.072842  1
  Ni  Ni5  1  0.000000  0.500000  0.591831  1
  Ni  Ni6  1  0.000000  0.000000  0.427348  1
  Ni  Ni7  1  0.500000  0.000000  0.913144  1
