# generated using pymatgen
data_NbCr(BRu)2
_symmetry_space_group_name_H-M   'P 1'
_cell_length_a   3.01038600
_cell_length_b   8.85781342
_cell_length_c   8.85772571
_cell_angle_alpha   120.00032807
_cell_angle_beta   90.00000000
_cell_angle_gamma   90.00000000
_symmetry_Int_Tables_number   1
_chemical_formula_structural   NbCr(BRu)2
_chemical_formula_sum   'Nb3 Cr3 B6 Ru6'
_cell_volume   204.55030779
_cell_formula_units_Z   3
loop_
 _symmetry_equiv_pos_site_id
 _symmetry_equiv_pos_as_xyz
  1  'x, y, z'
loop_
 _atom_site_type_symbol
 _atom_site_label
 _atom_site_symmetry_multiplicity
 _atom_site_fract_x
 _atom_site_fract_y
 _atom_site_fract_z
 _atom_site_occupancy
  Nb  Nb0  1  0.000000  0.592770  0.000000  1
  Nb  Nb1  1  0.000000  0.407216  0.407200  1
  Nb  Nb2  1  0.000000  0.000017  0.592800  1
  Cr  Cr3  1  0.000000  0.827796  0.827788  1
  Cr  Cr4  1  0.000000  0.000007  0.172212  1
  Cr  Cr5  1  0.000000  0.172078  0.000000  1
  B  B6  1  0.500000  0.000012  0.000000  1
  B  B7  1  0.500000  0.801592  0.000000  1
  B  B8  1  0.500000  0.198388  0.198375  1
  B  B9  1  0.500000  0.000013  0.801625  1
  B  B10  1  0.000000  0.333334  0.666668  1
  B  B11  1  0.000000  0.666666  0.333332  1
  Ru  Ru12  1  0.500000  0.536928  0.718170  1
  Ru  Ru13  1  0.500000  0.181264  0.463078  1
  Ru  Ru14  1  0.500000  0.281812  0.818752  1
  Ru  Ru15  1  0.500000  0.818759  0.281830  1
  Ru  Ru16  1  0.500000  0.718187  0.536922  1
  Ru  Ru17  1  0.500000  0.463060  0.181248  1
