# generated using pymatgen
data_Rb2TbDy5F20
_symmetry_space_group_name_H-M   'P 1'
_cell_length_a   8.28709828
_cell_length_b   8.28709468
_cell_length_c   8.28185100
_cell_angle_alpha   60.02090707
_cell_angle_beta   60.02079844
_cell_angle_gamma   59.95813156
_symmetry_Int_Tables_number   1
_chemical_formula_structural   Rb2TbDy5F20
_chemical_formula_sum   'Rb2 Tb1 Dy5 F20'
_cell_volume   402.17616047
_cell_formula_units_Z   1
loop_
 _symmetry_equiv_pos_site_id
 _symmetry_equiv_pos_as_xyz
  1  'x, y, z'
loop_
 _atom_site_type_symbol
 _atom_site_label
 _atom_site_symmetry_multiplicity
 _atom_site_fract_x
 _atom_site_fract_y
 _atom_site_fract_z
 _atom_site_occupancy
  Rb  Rb0  1  0.249931  0.249934  0.250069  1
  Rb  Rb1  1  0.749934  0.749931  0.750067  1
  Tb  Tb2  1  0.759631  0.759631  0.240369  1
  Dy  Dy3  1  0.759580  0.240297  0.240419  1
  Dy  Dy4  1  0.240297  0.759582  0.759702  1
  Dy  Dy5  1  0.240297  0.759581  0.240418  1
  Dy  Dy6  1  0.759582  0.240296  0.759703  1
  Dy  Dy7  1  0.240357  0.240357  0.759644  1
  F  F8  1  0.830068  0.499008  0.500991  1
  F  F9  1  0.170435  0.500018  0.499982  1
  F  F10  1  0.499009  0.830068  0.169931  1
  F  F11  1  0.500018  0.170434  0.829567  1
  F  F12  1  0.499008  0.830068  0.500991  1
  F  F13  1  0.170434  0.500018  0.829567  1
  F  F14  1  0.500019  0.170435  0.499982  1
  F  F15  1  0.830067  0.499009  0.169931  1
  F  F16  1  0.499989  0.499989  0.829480  1
  F  F17  1  0.499991  0.499990  0.170539  1
  F  F18  1  0.170520  0.829460  0.500010  1
  F  F19  1  0.829460  0.170520  0.500010  1
  F  F20  1  0.110528  0.110527  0.110486  1
  F  F21  1  0.889815  0.889815  0.888501  1
  F  F22  1  0.110527  0.110528  0.668460  1
  F  F23  1  0.111498  0.668134  0.110184  1
  F  F24  1  0.889816  0.889817  0.331866  1
  F  F25  1  0.889515  0.331540  0.889473  1
  F  F26  1  0.668132  0.111498  0.110184  1
  F  F27  1  0.331540  0.889514  0.889474  1
