# generated using pymatgen
data_Sc5Re11Tc13
_symmetry_space_group_name_H-M   'P 1'
_cell_length_a   8.42103383
_cell_length_b   8.42837962
_cell_length_c   8.43155743
_cell_angle_alpha   109.48993948
_cell_angle_beta   109.45464704
_cell_angle_gamma   109.43612286
_symmetry_Int_Tables_number   1
_chemical_formula_structural   Sc5Re11Tc13
_chemical_formula_sum   'Sc5 Re11 Tc13'
_cell_volume   460.86298688
_cell_formula_units_Z   1
loop_
 _symmetry_equiv_pos_site_id
 _symmetry_equiv_pos_as_xyz
  1  'x, y, z'
loop_
 _atom_site_type_symbol
 _atom_site_label
 _atom_site_symmetry_multiplicity
 _atom_site_fract_x
 _atom_site_fract_y
 _atom_site_fract_z
 _atom_site_occupancy
  Sc  Sc0  1  0.999568  0.999655  0.000000  1
  Sc  Sc1  1  0.630413  0.000341  0.000000  1
  Sc  Sc2  1  0.999995  0.630315  0.000000  1
  Sc  Sc3  1  0.000376  0.000353  0.630647  1
  Sc  Sc4  1  0.369727  0.369705  0.369353  1
  Re  Re5  1  0.186190  0.808254  0.808193  1
  Re  Re6  1  0.377997  0.000061  0.191807  1
  Re  Re7  1  0.192969  0.377547  0.000000  1
  Re  Re8  1  0.000040  0.377775  0.191801  1
  Re  Re9  1  0.808240  0.185974  0.808199  1
  Re  Re10  1  0.807911  0.807921  0.185763  1
  Re  Re11  1  0.999916  0.192472  0.377826  1
  Re  Re12  1  0.192568  0.999885  0.377580  1
  Re  Re13  1  0.622148  0.622158  0.814237  1
  Re  Re14  1  0.814987  0.622305  0.622420  1
  Re  Re15  1  0.622090  0.814645  0.622174  1
  Tc  Tc16  1  0.398729  0.676835  0.000000  1
  Tc  Tc17  1  0.722037  0.323138  0.323111  1
  Tc  Tc18  1  0.398926  0.000027  0.676889  1
  Tc  Tc19  1  0.675248  0.398059  0.000000  1
  Tc  Tc20  1  0.999746  0.398582  0.677047  1
  Tc  Tc21  1  0.322700  0.721535  0.322953  1
  Tc  Tc22  1  0.323254  0.323031  0.721485  1
  Tc  Tc23  1  0.999884  0.676888  0.399091  1
  Tc  Tc24  1  0.676853  0.999959  0.398836  1
  Tc  Tc25  1  0.601769  0.601546  0.278515  1
  Tc  Tc26  1  0.278017  0.601123  0.601164  1
  Tc  Tc27  1  0.600792  0.277797  0.600909  1
  Tc  Tc28  1  0.376908  0.192114  0.000000  1
