# generated using pymatgen
data_AcTh2(AgSn)3
_symmetry_space_group_name_H-M   'P 1'
_cell_length_a   4.79738000
_cell_length_b   4.79737954
_cell_length_c   12.33586900
_cell_angle_alpha   90.00000000
_cell_angle_beta   90.00000000
_cell_angle_gamma   119.99998937
_symmetry_Int_Tables_number   1
_chemical_formula_structural   AcTh2(AgSn)3
_chemical_formula_sum   'Ac1 Th2 Ag3 Sn3'
_cell_volume   245.87174642
_cell_formula_units_Z   1
loop_
 _symmetry_equiv_pos_site_id
 _symmetry_equiv_pos_as_xyz
  1  'x, y, z'
loop_
 _atom_site_type_symbol
 _atom_site_label
 _atom_site_symmetry_multiplicity
 _atom_site_fract_x
 _atom_site_fract_y
 _atom_site_fract_z
 _atom_site_occupancy
  Ac  Ac0  1  0.000000  0.000000  0.825277  1
  Th  Th1  1  0.000000  0.000000  0.486977  1
  Th  Th2  1  0.000000  0.000000  0.166949  1
  Ag  Ag3  1  0.666667  0.333333  0.031411  1
  Ag  Ag4  1  0.333333  0.666667  0.608416  1
  Ag  Ag5  1  0.333333  0.666667  0.361164  1
  Sn  Sn6  1  0.666667  0.333333  0.660784  1
  Sn  Sn7  1  0.666667  0.333333  0.309353  1
  Sn  Sn8  1  0.333333  0.666667  0.005667  1
