# generated using pymatgen
data_Hf15PaBi18
_symmetry_space_group_name_H-M   'P 1'
_cell_length_a   10.80987700
_cell_length_b   10.80987700
_cell_length_c   7.65290100
_cell_angle_alpha   90.00000000
_cell_angle_beta   90.00000000
_cell_angle_gamma   90.00000000
_symmetry_Int_Tables_number   1
_chemical_formula_structural   Hf15PaBi18
_chemical_formula_sum   'Hf15 Pa1 Bi18'
_cell_volume   894.26781361
_cell_formula_units_Z   1
loop_
 _symmetry_equiv_pos_site_id
 _symmetry_equiv_pos_as_xyz
  1  'x, y, z'
loop_
 _atom_site_type_symbol
 _atom_site_label
 _atom_site_symmetry_multiplicity
 _atom_site_fract_x
 _atom_site_fract_y
 _atom_site_fract_z
 _atom_site_occupancy
  Hf  Hf0  1  0.000170  0.000170  0.000789  1
  Hf  Hf1  1  0.499830  0.000170  0.000789  1
  Hf  Hf2  1  0.000170  0.499830  0.000789  1
  Hf  Hf3  1  0.499830  0.499830  0.000789  1
  Hf  Hf4  1  0.750000  0.105933  0.152972  1
  Hf  Hf5  1  0.750000  0.394066  0.152972  1
  Hf  Hf6  1  0.105933  0.750000  0.152972  1
  Hf  Hf7  1  0.394066  0.750000  0.152972  1
  Hf  Hf8  1  0.250000  0.250000  0.433201  1
  Hf  Hf9  1  0.750000  0.750000  0.564080  1
  Hf  Hf10  1  0.604529  0.249999  0.845350  1
  Hf  Hf11  1  0.895472  0.250000  0.845350  1
  Hf  Hf12  1  0.249999  0.604529  0.845350  1
  Hf  Hf13  1  0.250000  0.895472  0.845350  1
  Hf  Hf14  1  0.250000  0.250000  0.920859  1
  Pa  Pa15  1  0.750000  0.750000  0.082774  1
  Bi  Bi16  1  0.250000  0.015923  0.196640  1
  Bi  Bi17  1  0.015923  0.250000  0.196640  1
  Bi  Bi18  1  0.484076  0.249999  0.196640  1
  Bi  Bi19  1  0.249999  0.484076  0.196640  1
  Bi  Bi20  1  0.580119  0.580119  0.355614  1
  Bi  Bi21  1  0.919881  0.580119  0.355614  1
  Bi  Bi22  1  0.919881  0.919881  0.355614  1
  Bi  Bi23  1  0.580119  0.919881  0.355614  1
  Bi  Bi24  1  0.750000  0.250000  0.496609  1
  Bi  Bi25  1  0.250000  0.750000  0.496609  1
  Bi  Bi26  1  0.415518  0.084482  0.650487  1
  Bi  Bi27  1  0.084482  0.084482  0.650487  1
  Bi  Bi28  1  0.084482  0.415518  0.650487  1
  Bi  Bi29  1  0.415518  0.415518  0.650487  1
  Bi  Bi30  1  0.750000  0.511704  0.799618  1
  Bi  Bi31  1  0.511704  0.750000  0.799618  1
  Bi  Bi32  1  0.988296  0.750000  0.799618  1
  Bi  Bi33  1  0.750000  0.988296  0.799618  1
