# generated using pymatgen
data_Li4TbDy3(Co4P3)4
_symmetry_space_group_name_H-M   'P 1'
_cell_length_a   3.70019500
_cell_length_b   10.26845801
_cell_length_c   11.92472201
_cell_angle_alpha   89.99554347
_cell_angle_beta   90.00000000
_cell_angle_gamma   90.00000000
_symmetry_Int_Tables_number   1
_chemical_formula_structural   Li4TbDy3(Co4P3)4
_chemical_formula_sum   'Li4 Tb1 Dy3 Co16 P12'
_cell_volume   453.08335274
_cell_formula_units_Z   1
loop_
 _symmetry_equiv_pos_site_id
 _symmetry_equiv_pos_as_xyz
  1  'x, y, z'
loop_
 _atom_site_type_symbol
 _atom_site_label
 _atom_site_symmetry_multiplicity
 _atom_site_fract_x
 _atom_site_fract_y
 _atom_site_fract_z
 _atom_site_occupancy
  Li  Li0  1  0.250000  0.702427  0.992449  1
  Li  Li1  1  0.250000  0.797524  0.492480  1
  Li  Li2  1  0.750000  0.297529  0.007639  1
  Li  Li3  1  0.750000  0.202537  0.507620  1
  Tb  Tb4  1  0.750000  0.078786  0.798000  1
  Dy  Dy5  1  0.250000  0.578770  0.702001  1
  Dy  Dy6  1  0.250000  0.921227  0.201934  1
  Dy  Dy7  1  0.750000  0.421172  0.298005  1
  Co  Co8  1  0.250000  0.405870  0.485147  1
  Co  Co9  1  0.250000  0.094030  0.985652  1
  Co  Co10  1  0.750000  0.594095  0.514833  1
  Co  Co11  1  0.750000  0.905732  0.014896  1
  Co  Co12  1  0.250000  0.221759  0.172967  1
  Co  Co13  1  0.250000  0.278506  0.672794  1
  Co  Co14  1  0.750000  0.778156  0.827099  1
  Co  Co15  1  0.750000  0.721686  0.327071  1
  Co  Co16  1  0.250000  0.878551  0.699563  1
  Co  Co17  1  0.250000  0.621139  0.199746  1
  Co  Co18  1  0.750000  0.121160  0.300216  1
  Co  Co19  1  0.750000  0.379108  0.800288  1
  Co  Co20  1  0.250000  0.465839  0.932771  1
  Co  Co21  1  0.250000  0.034385  0.432527  1
  Co  Co22  1  0.750000  0.534400  0.067352  1
  Co  Co23  1  0.750000  0.965496  0.567071  1
  P  P24  1  0.250000  0.424827  0.114981  1
  P  P25  1  0.250000  0.075117  0.614608  1
  P  P26  1  0.750000  0.575226  0.885062  1
  P  P27  1  0.750000  0.924819  0.384931  1
  P  P28  1  0.250000  0.270647  0.859661  1
  P  P29  1  0.250000  0.229935  0.359628  1
  P  P30  1  0.750000  0.729907  0.140401  1
  P  P31  1  0.750000  0.770038  0.640387  1
  P  P32  1  0.250000  0.601966  0.393096  1
  P  P33  1  0.250000  0.897624  0.893282  1
  P  P34  1  0.750000  0.398013  0.606930  1
  P  P35  1  0.750000  0.101998  0.106913  1
