# generated using pymatgen
data_LaPrInSn7Rh4
_symmetry_space_group_name_H-M   'P 1'
_cell_length_a   4.58490000
_cell_length_b   7.20525500
_cell_length_c   18.76827400
_cell_angle_alpha   90.00000000
_cell_angle_beta   90.00000000
_cell_angle_gamma   90.00000000
_symmetry_Int_Tables_number   1
_chemical_formula_structural   LaPrInSn7Rh4
_chemical_formula_sum   'La2 Pr2 In2 Sn14 Rh8'
_cell_volume   620.01694435
_cell_formula_units_Z   2
loop_
 _symmetry_equiv_pos_site_id
 _symmetry_equiv_pos_as_xyz
  1  'x, y, z'
loop_
 _atom_site_type_symbol
 _atom_site_label
 _atom_site_symmetry_multiplicity
 _atom_site_fract_x
 _atom_site_fract_y
 _atom_site_fract_z
 _atom_site_occupancy
  La  La0  1  0.250000  0.999808  0.858742  1
  La  La1  1  0.250000  0.500192  0.358742  1
  Pr  Pr2  1  0.750000  0.998675  0.140997  1
  Pr  Pr3  1  0.750000  0.501325  0.640997  1
  In  In4  1  0.250000  0.303611  0.181262  1
  In  In5  1  0.250000  0.196389  0.681262  1
  Sn  Sn6  1  0.750000  0.694145  0.818929  1
  Sn  Sn7  1  0.750000  0.805855  0.318929  1
  Sn  Sn8  1  0.250000  0.720846  0.194452  1
  Sn  Sn9  1  0.250000  0.779154  0.694452  1
  Sn  Sn10  1  0.750000  0.278384  0.801127  1
  Sn  Sn11  1  0.750000  0.221616  0.301127  1
  Sn  Sn12  1  0.250000  0.863463  0.032079  1
  Sn  Sn13  1  0.250000  0.636537  0.532079  1
  Sn  Sn14  1  0.750000  0.135420  0.968472  1
  Sn  Sn15  1  0.750000  0.364580  0.468472  1
  Sn  Sn16  1  0.250000  0.518649  0.931613  1
  Sn  Sn17  1  0.250000  0.981351  0.431613  1
  Sn  Sn18  1  0.750000  0.477380  0.070574  1
  Sn  Sn19  1  0.750000  0.022620  0.570574  1
  Rh  Rh20  1  0.250000  0.250729  0.033652  1
  Rh  Rh21  1  0.250000  0.249271  0.533652  1
  Rh  Rh22  1  0.750000  0.745694  0.966853  1
  Rh  Rh23  1  0.750000  0.754306  0.466853  1
  Rh  Rh24  1  0.250000  0.014201  0.286279  1
  Rh  Rh25  1  0.250000  0.485799  0.786279  1
  Rh  Rh26  1  0.750000  0.973376  0.714968  1
  Rh  Rh27  1  0.750000  0.526624  0.214968  1
