# generated using pymatgen
data_ErZn2Ni3
_symmetry_space_group_name_H-M   'P 1'
_cell_length_a   8.71386200
_cell_length_b   8.71386076
_cell_length_c   4.04230300
_cell_angle_alpha   90.00000000
_cell_angle_beta   90.00000000
_cell_angle_gamma   119.99999712
_symmetry_Int_Tables_number   1
_chemical_formula_structural   ErZn2Ni3
_chemical_formula_sum   'Er3 Zn6 Ni9'
_cell_volume   265.81580625
_cell_formula_units_Z   3
loop_
 _symmetry_equiv_pos_site_id
 _symmetry_equiv_pos_as_xyz
  1  'x, y, z'
loop_
 _atom_site_type_symbol
 _atom_site_label
 _atom_site_symmetry_multiplicity
 _atom_site_fract_x
 _atom_site_fract_y
 _atom_site_fract_z
 _atom_site_occupancy
  Er  Er0  1  0.666667  0.333333  0.500000  1
  Er  Er1  1  0.333333  0.666667  0.500000  1
  Er  Er2  1  0.000000  0.000000  0.000000  1
  Zn  Zn3  1  0.496877  0.496877  0.000000  1
  Zn  Zn4  1  0.503123  0.000000  0.000000  1
  Zn  Zn5  1  0.000000  0.503123  0.000000  1
  Zn  Zn6  1  0.716704  0.716704  0.500000  1
  Zn  Zn7  1  0.283296  0.000000  0.500000  1
  Zn  Zn8  1  0.000000  0.283296  0.500000  1
  Ni  Ni9  1  0.817957  0.182177  0.000000  1
  Ni  Ni10  1  0.817823  0.635781  0.000000  1
  Ni  Ni11  1  0.364219  0.182043  0.000000  1
  Ni  Ni12  1  0.182177  0.817957  0.000000  1
  Ni  Ni13  1  0.635781  0.817823  0.000000  1
  Ni  Ni14  1  0.182043  0.364219  0.000000  1
  Ni  Ni15  1  0.300584  0.300584  0.500000  1
  Ni  Ni16  1  0.699416  0.000000  0.500000  1
  Ni  Ni17  1  0.000000  0.699416  0.500000  1
