# generated using pymatgen
data_Sr3PrMn2O8
_symmetry_space_group_name_H-M   'P 1'
_cell_length_a   6.80372696
_cell_length_b   6.80372651
_cell_length_c   5.53917300
_cell_angle_alpha   90.00000000
_cell_angle_beta   90.00000000
_cell_angle_gamma   131.87157922
_symmetry_Int_Tables_number   1
_chemical_formula_structural   Sr3PrMn2O8
_chemical_formula_sum   'Sr3 Pr1 Mn2 O8'
_cell_volume   190.93546540
_cell_formula_units_Z   1
loop_
 _symmetry_equiv_pos_site_id
 _symmetry_equiv_pos_as_xyz
  1  'x, y, z'
loop_
 _atom_site_type_symbol
 _atom_site_label
 _atom_site_symmetry_multiplicity
 _atom_site_fract_x
 _atom_site_fract_y
 _atom_site_fract_z
 _atom_site_occupancy
  Sr  Sr0  1  0.643894  0.356106  0.000000  1
  Sr  Sr1  1  0.358316  0.641684  0.000000  1
  Sr  Sr2  1  0.855704  0.144296  0.500000  1
  Pr  Pr3  1  0.137360  0.862640  0.500000  1
  Mn  Mn4  1  0.499006  0.500994  0.500000  1
  Mn  Mn5  1  0.998462  0.001538  0.000000  1
  O  O6  1  0.842005  0.157995  0.000000  1
  O  O7  1  0.331635  0.668365  0.500000  1
  O  O8  1  0.658577  0.341423  0.500000  1
  O  O9  1  0.160492  0.839508  0.000000  1
  O  O10  1  0.758161  0.750886  0.743544  1
  O  O11  1  0.249114  0.241839  0.256456  1
  O  O12  1  0.249114  0.241839  0.743544  1
  O  O13  1  0.758161  0.750886  0.256456  1
