# generated using pymatgen
data_Y20Si12O
_symmetry_space_group_name_H-M   'P 1'
_cell_length_a   14.66104100
_cell_length_b   6.36461985
_cell_length_c   8.41866764
_cell_angle_alpha   89.95166756
_cell_angle_beta   90.00000000
_cell_angle_gamma   90.00000000
_symmetry_Int_Tables_number   1
_chemical_formula_structural   Y20Si12O
_chemical_formula_sum   'Y20 Si12 O1'
_cell_volume   785.56203689
_cell_formula_units_Z   1
loop_
 _symmetry_equiv_pos_site_id
 _symmetry_equiv_pos_as_xyz
  1  'x, y, z'
loop_
 _atom_site_type_symbol
 _atom_site_label
 _atom_site_symmetry_multiplicity
 _atom_site_fract_x
 _atom_site_fract_y
 _atom_site_fract_z
 _atom_site_occupancy
  Y  Y0  1  0.665646  0.500000  0.500000  1
  Y  Y1  1  0.168989  0.500000  0.000000  1
  Y  Y2  1  0.831011  0.500000  0.000000  1
  Y  Y3  1  0.334354  0.500000  0.500000  1
  Y  Y4  1  0.837134  0.000000  0.000000  1
  Y  Y5  1  0.330021  0.000000  0.500000  1
  Y  Y6  1  0.669979  0.000000  0.500000  1
  Y  Y7  1  0.162866  0.000000  0.000000  1
  Y  Y8  1  0.500000  0.247647  0.755407  1
  Y  Y9  1  0.000000  0.265342  0.263950  1
  Y  Y10  1  0.621622  0.248459  0.122172  1
  Y  Y11  1  0.117797  0.260425  0.618968  1
  Y  Y12  1  0.882203  0.260425  0.618968  1
  Y  Y13  1  0.378378  0.248459  0.122172  1
  Y  Y14  1  0.000000  0.734658  0.736050  1
  Y  Y15  1  0.500000  0.752353  0.244593  1
  Y  Y16  1  0.882203  0.739575  0.381032  1
  Y  Y17  1  0.378378  0.751541  0.877828  1
  Y  Y18  1  0.621622  0.751541  0.877828  1
  Y  Y19  1  0.117797  0.739575  0.381032  1
  Si  Si20  1  0.000000  0.258404  0.898373  1
  Si  Si21  1  0.500000  0.244491  0.394412  1
  Si  Si22  1  0.802160  0.251256  0.302437  1
  Si  Si23  1  0.301971  0.247553  0.802820  1
  Si  Si24  1  0.698029  0.247553  0.802820  1
  Si  Si25  1  0.197840  0.251256  0.302437  1
  Si  Si26  1  0.500000  0.755509  0.605588  1
  Si  Si27  1  0.000000  0.741596  0.101627  1
  Si  Si28  1  0.698029  0.752447  0.197180  1
  Si  Si29  1  0.197840  0.748744  0.697563  1
  Si  Si30  1  0.802160  0.748744  0.697563  1
  Si  Si31  1  0.301971  0.752447  0.197180  1
  O  O32  1  0.000000  0.500000  0.500000  1
