# generated using pymatgen
data_Th10Sn3Sb5
_symmetry_space_group_name_H-M   'P 1'
_cell_length_a   9.63869200
_cell_length_b   9.63869139
_cell_length_c   6.62745700
_cell_angle_alpha   90.00000000
_cell_angle_beta   90.00000000
_cell_angle_gamma   119.99999524
_symmetry_Int_Tables_number   1
_chemical_formula_structural   Th10Sn3Sb5
_chemical_formula_sum   'Th10 Sn3 Sb5'
_cell_volume   533.22898571
_cell_formula_units_Z   1
loop_
 _symmetry_equiv_pos_site_id
 _symmetry_equiv_pos_as_xyz
  1  'x, y, z'
loop_
 _atom_site_type_symbol
 _atom_site_label
 _atom_site_symmetry_multiplicity
 _atom_site_fract_x
 _atom_site_fract_y
 _atom_site_fract_z
 _atom_site_occupancy
  Th  Th0  1  0.000000  0.722225  0.750000  1
  Th  Th1  1  0.277775  0.277775  0.750000  1
  Th  Th2  1  0.333333  0.666667  0.497834  1
  Th  Th3  1  0.666667  0.333333  0.497834  1
  Th  Th4  1  0.721619  0.721619  0.250000  1
  Th  Th5  1  0.722225  0.000000  0.750000  1
  Th  Th6  1  0.000000  0.278381  0.250000  1
  Th  Th7  1  0.278381  0.000000  0.250000  1
  Th  Th8  1  0.333333  0.666667  0.002166  1
  Th  Th9  1  0.666667  0.333333  0.002166  1
  Sn  Sn10  1  0.618790  0.000000  0.250000  1
  Sn  Sn11  1  0.381210  0.381210  0.250000  1
  Sn  Sn12  1  0.000000  0.618790  0.250000  1
  Sb  Sb13  1  0.616555  0.616555  0.750000  1
  Sb  Sb14  1  0.000000  0.383445  0.750000  1
  Sb  Sb15  1  0.383445  0.000000  0.750000  1
  Sb  Sb16  1  0.000000  0.000000  0.999617  1
  Sb  Sb17  1  0.000000  0.000000  0.500383  1
