# generated using pymatgen
data_PrTm3Mn4F28
_symmetry_space_group_name_H-M   'P 1'
_cell_length_a   5.39764378
_cell_length_b   8.64768078
_cell_length_c   11.62955000
_cell_angle_alpha   62.51259748
_cell_angle_beta   90.04649354
_cell_angle_gamma   90.00739318
_symmetry_Int_Tables_number   1
_chemical_formula_structural   PrTm3Mn4F28
_chemical_formula_sum   'Pr1 Tm3 Mn4 F28'
_cell_volume   481.55426991
_cell_formula_units_Z   1
loop_
 _symmetry_equiv_pos_site_id
 _symmetry_equiv_pos_as_xyz
  1  'x, y, z'
loop_
 _atom_site_type_symbol
 _atom_site_label
 _atom_site_symmetry_multiplicity
 _atom_site_fract_x
 _atom_site_fract_y
 _atom_site_fract_z
 _atom_site_occupancy
  Pr  Pr0  1  0.239166  0.813292  0.764133  1
  Tm  Tm1  1  0.262685  0.813176  0.264410  1
  Tm  Tm2  1  0.734390  0.194883  0.735710  1
  Tm  Tm3  1  0.763242  0.188076  0.236646  1
  Mn  Mn4  1  0.759138  0.724822  0.049706  1
  Mn  Mn5  1  0.238960  0.267780  0.960022  1
  Mn  Mn6  1  0.261704  0.278755  0.453446  1
  Mn  Mn7  1  0.745812  0.724506  0.537057  1
  F  F8  1  0.929360  0.704401  0.412837  1
  F  F9  1  0.067052  0.295596  0.576062  1
  F  F10  1  0.431145  0.292767  0.080234  1
  F  F11  1  0.575926  0.702665  0.925653  1
  F  F12  1  0.476144  0.727429  0.136769  1
  F  F13  1  0.520733  0.274125  0.868322  1
  F  F14  1  0.983857  0.274889  0.362567  1
  F  F15  1  0.032655  0.723500  0.621030  1
  F  F16  1  0.945513  0.743563  0.175832  1
  F  F17  1  0.047212  0.251398  0.833078  1
  F  F18  1  0.454876  0.260748  0.327955  1
  F  F19  1  0.571914  0.735662  0.669165  1
  F  F20  1  0.770860  0.484473  0.142983  1
  F  F21  1  0.216799  0.504704  0.864793  1
  F  F22  1  0.275325  0.517390  0.359558  1
  F  F23  1  0.730634  0.484779  0.633507  1
  F  F24  1  0.950576  0.274441  0.044471  1
  F  F25  1  0.048460  0.715626  0.970228  1
  F  F26  1  0.450904  0.719730  0.457166  1
  F  F27  1  0.547327  0.282684  0.540112  1
  F  F28  1  0.743932  0.963249  0.450255  1
  F  F29  1  0.261194  0.040899  0.541304  1
  F  F30  1  0.242750  0.030041  0.049946  1
  F  F31  1  0.758293  0.962522  0.955347  1
  F  F32  1  0.590258  0.971733  0.229090  1
  F  F33  1  0.399699  0.050235  0.773963  1
  F  F34  1  0.091838  0.029912  0.272330  1
  F  F35  1  0.879666  0.975549  0.724312  1
