# generated using pymatgen
data_RbLiCeF5
_symmetry_space_group_name_H-M   'P 1'
_cell_length_a   12.33554500
_cell_length_b   6.67014005
_cell_length_c   6.88847900
_cell_angle_alpha   66.27657301
_cell_angle_beta   90.00000000
_cell_angle_gamma   90.00000000
_symmetry_Int_Tables_number   1
_chemical_formula_structural   RbLiCeF5
_chemical_formula_sum   'Rb4 Li4 Ce4 F20'
_cell_volume   518.88858079
_cell_formula_units_Z   4
loop_
 _symmetry_equiv_pos_site_id
 _symmetry_equiv_pos_as_xyz
  1  'x, y, z'
loop_
 _atom_site_type_symbol
 _atom_site_label
 _atom_site_symmetry_multiplicity
 _atom_site_fract_x
 _atom_site_fract_y
 _atom_site_fract_z
 _atom_site_occupancy
  Rb  Rb0  1  0.846586  0.035940  0.948538  1
  Rb  Rb1  1  0.653414  0.535940  0.948538  1
  Rb  Rb2  1  0.346586  0.464060  0.051462  1
  Rb  Rb3  1  0.153414  0.964060  0.051462  1
  Li  Li4  1  0.748474  0.460711  0.446409  1
  Li  Li5  1  0.751526  0.960711  0.446409  1
  Li  Li6  1  0.251526  0.539289  0.553591  1
  Li  Li7  1  0.248474  0.039289  0.553591  1
  Ce  Ce8  1  0.997512  0.319189  0.320565  1
  Ce  Ce9  1  0.002488  0.680811  0.679435  1
  Ce  Ce10  1  0.502488  0.819189  0.320565  1
  Ce  Ce11  1  0.497512  0.180811  0.679435  1
  F  F12  1  0.675802  0.291042  0.697379  1
  F  F13  1  0.607158  0.967170  0.534053  1
  F  F14  1  0.324198  0.708958  0.302621  1
  F  F15  1  0.008110  0.326774  0.958763  1
  F  F16  1  0.175802  0.208958  0.302621  1
  F  F17  1  0.392842  0.032830  0.465947  1
  F  F18  1  0.892842  0.467170  0.534053  1
  F  F19  1  0.531847  0.453499  0.334711  1
  F  F20  1  0.800281  0.268784  0.295386  1
  F  F21  1  0.300281  0.231216  0.704614  1
  F  F22  1  0.468153  0.546501  0.665289  1
  F  F23  1  0.991890  0.673226  0.041237  1
  F  F24  1  0.199719  0.731216  0.704614  1
  F  F25  1  0.508110  0.173226  0.041237  1
  F  F26  1  0.968153  0.953499  0.334711  1
  F  F27  1  0.699719  0.768784  0.295386  1
  F  F28  1  0.031847  0.046501  0.665289  1
  F  F29  1  0.824198  0.791042  0.697379  1
  F  F30  1  0.107158  0.532830  0.465947  1
  F  F31  1  0.491890  0.826774  0.958763  1
