# generated using pymatgen
data_Tb7Y9Cd3AgIr4
_symmetry_space_group_name_H-M   'P 1'
_cell_length_a   9.65547836
_cell_length_b   9.66411849
_cell_length_c   9.67031786
_cell_angle_alpha   59.91663473
_cell_angle_beta   59.95228172
_cell_angle_gamma   59.99083311
_symmetry_Int_Tables_number   1
_chemical_formula_structural   Tb7Y9Cd3AgIr4
_chemical_formula_sum   'Tb7 Y9 Cd3 Ag1 Ir4'
_cell_volume   637.38335945
_cell_formula_units_Z   1
loop_
 _symmetry_equiv_pos_site_id
 _symmetry_equiv_pos_as_xyz
  1  'x, y, z'
loop_
 _atom_site_type_symbol
 _atom_site_label
 _atom_site_symmetry_multiplicity
 _atom_site_fract_x
 _atom_site_fract_y
 _atom_site_fract_z
 _atom_site_occupancy
  Tb  Tb0  1  0.348742  0.349247  0.349615  1
  Tb  Tb1  1  0.349698  0.349135  0.953000  1
  Tb  Tb2  1  0.350163  0.952578  0.348923  1
  Tb  Tb3  1  0.952787  0.350231  0.349619  1
  Tb  Tb4  1  0.809755  0.189437  0.189441  1
  Tb  Tb5  1  0.188149  0.809953  0.809673  1
  Tb  Tb6  1  0.189438  0.810165  0.189306  1
  Y  Y7  1  0.809923  0.187704  0.810033  1
  Y  Y8  1  0.189647  0.189644  0.809468  1
  Y  Y9  1  0.809603  0.810004  0.187653  1
  Y  Y10  1  0.936036  0.561892  0.561761  1
  Y  Y11  1  0.561832  0.936570  0.936376  1
  Y  Y12  1  0.561640  0.936153  0.561553  1
  Y  Y13  1  0.936508  0.561665  0.936644  1
  Y  Y14  1  0.561377  0.561439  0.936722  1
  Y  Y15  1  0.936690  0.936952  0.561411  1
  Cd  Cd16  1  0.581551  0.581396  0.258863  1
  Cd  Cd17  1  0.581141  0.259028  0.581586  1
  Cd  Cd18  1  0.258778  0.580944  0.581560  1
  Ag  Ag19  1  0.583157  0.582863  0.583108  1
  Ir  Ir20  1  0.140790  0.141203  0.142547  1
  Ir  Ir21  1  0.143460  0.142117  0.575243  1
  Ir  Ir22  1  0.143954  0.575868  0.142337  1
  Ir  Ir23  1  0.575183  0.143815  0.143557  1
