# generated using pymatgen
data_YSiTc2C
_symmetry_space_group_name_H-M   'P 1'
_cell_length_a   5.83135419
_cell_length_b   5.83135411
_cell_length_c   7.24020400
_cell_angle_alpha   90.00000000
_cell_angle_beta   90.00000000
_cell_angle_gamma   140.73768087
_symmetry_Int_Tables_number   1
_chemical_formula_structural   YSiTc2C
_chemical_formula_sum   'Y2 Si2 Tc4 C2'
_cell_volume   155.81361148
_cell_formula_units_Z   2
loop_
 _symmetry_equiv_pos_site_id
 _symmetry_equiv_pos_as_xyz
  1  'x, y, z'
loop_
 _atom_site_type_symbol
 _atom_site_label
 _atom_site_symmetry_multiplicity
 _atom_site_fract_x
 _atom_site_fract_y
 _atom_site_fract_z
 _atom_site_occupancy
  Y  Y0  1  0.544260  0.455740  0.250000  1
  Y  Y1  1  0.455740  0.544260  0.750000  1
  Si  Si2  1  0.268254  0.731746  0.250000  1
  Si  Si3  1  0.731746  0.268254  0.750000  1
  Tc  Tc4  1  0.828921  0.171079  0.060555  1
  Tc  Tc5  1  0.171079  0.828921  0.939445  1
  Tc  Tc6  1  0.171079  0.828921  0.560555  1
  Tc  Tc7  1  0.828921  0.171079  0.439445  1
  C  C8  1  0.000000  0.000000  0.000000  1
  C  C9  1  0.000000  0.000000  0.500000  1
