# generated using pymatgen
data_Er7Lu3Si5As
_symmetry_space_group_name_H-M   'P 1'
_cell_length_a   8.32769309
_cell_length_b   8.33934585
_cell_length_c   6.19172512
_cell_angle_alpha   90.00749306
_cell_angle_beta   90.01440900
_cell_angle_gamma   119.96330263
_symmetry_Int_Tables_number   1
_chemical_formula_structural   Er7Lu3Si5As
_chemical_formula_sum   'Er7 Lu3 Si5 As1'
_cell_volume   372.52844592
_cell_formula_units_Z   1
loop_
 _symmetry_equiv_pos_site_id
 _symmetry_equiv_pos_as_xyz
  1  'x, y, z'
loop_
 _atom_site_type_symbol
 _atom_site_label
 _atom_site_symmetry_multiplicity
 _atom_site_fract_x
 _atom_site_fract_y
 _atom_site_fract_z
 _atom_site_occupancy
  Er  Er0  1  0.668841  0.335844  0.001028  1
  Er  Er1  1  0.758816  0.999888  0.749865  1
  Er  Er2  1  0.756820  0.756568  0.250172  1
  Er  Er3  1  0.000533  0.243591  0.250234  1
  Er  Er4  1  0.996507  0.754169  0.749801  1
  Er  Er5  1  0.242221  0.245937  0.749753  1
  Er  Er6  1  0.242526  0.999837  0.250161  1
  Lu  Lu7  1  0.332991  0.664089  0.498724  1
  Lu  Lu8  1  0.332982  0.663973  0.001294  1
  Lu  Lu9  1  0.668943  0.335974  0.498844  1
  Si  Si10  1  0.394743  0.394112  0.250618  1
  Si  Si11  1  0.001780  0.606498  0.250596  1
  Si  Si12  1  0.000239  0.395162  0.749420  1
  Si  Si13  1  0.604584  0.605505  0.749419  1
  Si  Si14  1  0.605820  0.999407  0.250480  1
  As  As15  1  0.391654  0.999446  0.749592  1
