# generated using pymatgen
data_Sc2Co3Ni(PRu)6
_symmetry_space_group_name_H-M   'P 1'
_cell_length_a   3.73269600
_cell_length_b   10.59356400
_cell_length_c   11.98560800
_cell_angle_alpha   90.00000000
_cell_angle_beta   90.00000000
_cell_angle_gamma   90.00000000
_symmetry_Int_Tables_number   1
_chemical_formula_structural   Sc2Co3Ni(PRu)6
_chemical_formula_sum   'Sc4 Co6 Ni2 P12 Ru12'
_cell_volume   473.94155119
_cell_formula_units_Z   2
loop_
 _symmetry_equiv_pos_site_id
 _symmetry_equiv_pos_as_xyz
  1  'x, y, z'
loop_
 _atom_site_type_symbol
 _atom_site_label
 _atom_site_symmetry_multiplicity
 _atom_site_fract_x
 _atom_site_fract_y
 _atom_site_fract_z
 _atom_site_occupancy
  Sc  Sc0  1  0.250000  0.581945  0.706580  1
  Sc  Sc1  1  0.250000  0.918055  0.206580  1
  Sc  Sc2  1  0.750000  0.410839  0.294853  1
  Sc  Sc3  1  0.750000  0.089161  0.794853  1
  Co  Co4  1  0.750000  0.110207  0.302537  1
  Co  Co5  1  0.750000  0.389793  0.802537  1
  Co  Co6  1  0.250000  0.464356  0.933169  1
  Co  Co7  1  0.250000  0.035644  0.433169  1
  Co  Co8  1  0.750000  0.538559  0.068249  1
  Co  Co9  1  0.750000  0.961441  0.568249  1
  Ni  Ni10  1  0.250000  0.890951  0.699241  1
  Ni  Ni11  1  0.250000  0.609049  0.199241  1
  P  P12  1  0.250000  0.423195  0.112918  1
  P  P13  1  0.250000  0.076805  0.612918  1
  P  P14  1  0.750000  0.574562  0.885270  1
  P  P15  1  0.750000  0.925438  0.385270  1
  P  P16  1  0.250000  0.271098  0.870967  1
  P  P17  1  0.250000  0.228902  0.370967  1
  P  P18  1  0.750000  0.734096  0.126881  1
  P  P19  1  0.750000  0.765904  0.626881  1
  P  P20  1  0.250000  0.598060  0.388207  1
  P  P21  1  0.250000  0.901940  0.888207  1
  P  P22  1  0.750000  0.400768  0.614875  1
  P  P23  1  0.750000  0.099232  0.114875  1
  Ru  Ru24  1  0.250000  0.708162  0.987896  1
  Ru  Ru25  1  0.250000  0.791838  0.487896  1
  Ru  Ru26  1  0.750000  0.293467  0.012666  1
  Ru  Ru27  1  0.750000  0.206533  0.512666  1
  Ru  Ru28  1  0.250000  0.404632  0.482379  1
  Ru  Ru29  1  0.250000  0.095368  0.982379  1
  Ru  Ru30  1  0.750000  0.591964  0.514801  1
  Ru  Ru31  1  0.750000  0.908036  0.014801  1
  Ru  Ru32  1  0.250000  0.224491  0.181167  1
  Ru  Ru33  1  0.250000  0.275510  0.681167  1
  Ru  Ru34  1  0.750000  0.775411  0.817344  1
  Ru  Ru35  1  0.750000  0.724589  0.317344  1
