# generated using pymatgen
data_La2Lu4TaPtO14
_symmetry_space_group_name_H-M   'P 1'
_cell_length_a   6.42836628
_cell_length_b   6.42834946
_cell_length_c   7.52738500
_cell_angle_alpha   90.01662272
_cell_angle_beta   89.98294950
_cell_angle_gamma   109.00242821
_symmetry_Int_Tables_number   1
_chemical_formula_structural   La2Lu4TaPtO14
_chemical_formula_sum   'La2 Lu4 Ta1 Pt1 O14'
_cell_volume   294.10873372
_cell_formula_units_Z   1
loop_
 _symmetry_equiv_pos_site_id
 _symmetry_equiv_pos_as_xyz
  1  'x, y, z'
loop_
 _atom_site_type_symbol
 _atom_site_label
 _atom_site_symmetry_multiplicity
 _atom_site_fract_x
 _atom_site_fract_y
 _atom_site_fract_z
 _atom_site_occupancy
  La  La0  1  0.500000  0.500000  0.500000  1
  La  La1  1  0.500000  0.500000  0.000000  1
  Lu  Lu2  1  0.533278  0.001626  0.751957  1
  Lu  Lu3  1  0.001626  0.533279  0.248051  1
  Lu  Lu4  1  0.466722  0.998374  0.248043  1
  Lu  Lu5  1  0.998374  0.466721  0.751949  1
  Ta  Ta6  1  0.000000  0.000000  0.000000  1
  Pt  Pt7  1  0.000000  0.000000  0.500000  1
  O  O8  1  0.674164  0.933398  0.471855  1
  O  O9  1  0.933386  0.674162  0.528141  1
  O  O10  1  0.677315  0.933668  0.032960  1
  O  O11  1  0.933670  0.677313  0.967038  1
  O  O12  1  0.325836  0.066602  0.528145  1
  O  O13  1  0.066614  0.325838  0.471859  1
  O  O14  1  0.322685  0.066332  0.967040  1
  O  O15  1  0.066330  0.322687  0.032962  1
  O  O16  1  0.928587  0.071414  0.749372  1
  O  O17  1  0.071413  0.928586  0.250628  1
  O  O18  1  0.357253  0.642744  0.750783  1
  O  O19  1  0.642747  0.357256  0.249217  1
  O  O20  1  0.647536  0.352459  0.748505  1
  O  O21  1  0.352464  0.647541  0.251495  1
