# generated using pymatgen
data_Y6Tm4(GaBi)3
_symmetry_space_group_name_H-M   'P 1'
_cell_length_a   8.80137200
_cell_length_b   8.83841075
_cell_length_c   6.50366200
_cell_angle_alpha   90.00000000
_cell_angle_beta   90.00000000
_cell_angle_gamma   119.86147820
_symmetry_Int_Tables_number   1
_chemical_formula_structural   Y6Tm4(GaBi)3
_chemical_formula_sum   'Y6 Tm4 Ga3 Bi3'
_cell_volume   438.75054215
_cell_formula_units_Z   1
loop_
 _symmetry_equiv_pos_site_id
 _symmetry_equiv_pos_as_xyz
  1  'x, y, z'
loop_
 _atom_site_type_symbol
 _atom_site_label
 _atom_site_symmetry_multiplicity
 _atom_site_fract_x
 _atom_site_fract_y
 _atom_site_fract_z
 _atom_site_occupancy
  Y  Y0  1  0.234958  0.000000  0.250000  1
  Y  Y1  1  0.244019  0.228221  0.750000  1
  Y  Y2  1  0.015799  0.771779  0.750000  1
  Y  Y3  1  0.017369  0.251435  0.250000  1
  Y  Y4  1  0.765934  0.748565  0.250000  1
  Y  Y5  1  0.754209  0.000000  0.750000  1
  Tm  Tm6  1  0.324134  0.667901  0.004957  1
  Tm  Tm7  1  0.656235  0.332099  0.495043  1
  Tm  Tm8  1  0.656235  0.332099  0.004957  1
  Tm  Tm9  1  0.324134  0.667901  0.495043  1
  Ga  Ga10  1  0.998428  0.600963  0.250000  1
  Ga  Ga11  1  0.397465  0.399037  0.250000  1
  Ga  Ga12  1  0.400589  0.000000  0.750000  1
  Bi  Bi13  1  0.610960  0.000000  0.250000  1
  Bi  Bi14  1  0.603562  0.607592  0.750000  1
  Bi  Bi15  1  0.995970  0.392408  0.750000  1
