# generated using pymatgen
data_MgSc2(Co3B2)3
_symmetry_space_group_name_H-M   'P 1'
_cell_length_a   5.67202955
_cell_length_b   5.67202943
_cell_length_c   5.67202799
_cell_angle_alpha   95.41334889
_cell_angle_beta   95.41335838
_cell_angle_gamma   95.41335417
_symmetry_Int_Tables_number   1
_chemical_formula_structural   MgSc2(Co3B2)3
_chemical_formula_sum   'Mg1 Sc2 Co9 B6'
_cell_volume   179.87203316
_cell_formula_units_Z   1
loop_
 _symmetry_equiv_pos_site_id
 _symmetry_equiv_pos_as_xyz
  1  'x, y, z'
loop_
 _atom_site_type_symbol
 _atom_site_label
 _atom_site_symmetry_multiplicity
 _atom_site_fract_x
 _atom_site_fract_y
 _atom_site_fract_z
 _atom_site_occupancy
  Mg  Mg0  1  0.000000  0.000000  0.000000  1
  Sc  Sc1  1  0.673896  0.673896  0.673896  1
  Sc  Sc2  1  0.326104  0.326104  0.326104  1
  Co  Co3  1  0.500000  0.000000  0.000000  1
  Co  Co4  1  0.000000  0.500000  0.000000  1
  Co  Co5  1  0.000000  0.000000  0.500000  1
  Co  Co6  1  0.702838  0.200672  0.702838  1
  Co  Co7  1  0.702838  0.702838  0.200672  1
  Co  Co8  1  0.200672  0.702838  0.702838  1
  Co  Co9  1  0.297162  0.799328  0.297162  1
  Co  Co10  1  0.297162  0.297162  0.799328  1
  Co  Co11  1  0.799328  0.297162  0.297162  1
  B  B12  1  0.385321  0.000000  0.614679  1
  B  B13  1  0.614679  0.385321  0.000000  1
  B  B14  1  0.000000  0.614679  0.385321  1
  B  B15  1  0.614679  0.000000  0.385321  1
  B  B16  1  0.385321  0.614679  0.000000  1
  B  B17  1  0.000000  0.385321  0.614679  1
