# generated using pymatgen
data_Nd4Y2Al24Os7Pd
_symmetry_space_group_name_H-M   'P 1'
_cell_length_a   8.91096694
_cell_length_b   8.91096720
_cell_length_c   9.63939854
_cell_angle_alpha   89.77504958
_cell_angle_beta   90.22494140
_cell_angle_gamma   120.03310099
_symmetry_Int_Tables_number   1
_chemical_formula_structural   Nd4Y2Al24Os7Pd
_chemical_formula_sum   'Nd4 Y2 Al24 Os7 Pd1'
_cell_volume   662.64485456
_cell_formula_units_Z   1
loop_
 _symmetry_equiv_pos_site_id
 _symmetry_equiv_pos_as_xyz
  1  'x, y, z'
loop_
 _atom_site_type_symbol
 _atom_site_label
 _atom_site_symmetry_multiplicity
 _atom_site_fract_x
 _atom_site_fract_y
 _atom_site_fract_z
 _atom_site_occupancy
  Nd  Nd0  1  0.188633  0.382205  0.251230  1
  Nd  Nd1  1  0.811367  0.617795  0.748770  1
  Nd  Nd2  1  0.617795  0.811367  0.251230  1
  Nd  Nd3  1  0.382205  0.188633  0.748770  1
  Y  Y4  1  0.194595  0.805405  0.253390  1
  Y  Y5  1  0.805405  0.194595  0.746610  1
  Al  Al6  1  0.329942  0.670058  0.014648  1
  Al  Al7  1  0.670058  0.329942  0.985352  1
  Al  Al8  1  0.666390  0.333610  0.512709  1
  Al  Al9  1  0.333610  0.666390  0.487291  1
  Al  Al10  1  0.161513  0.325729  0.575584  1
  Al  Al11  1  0.838487  0.674271  0.424416  1
  Al  Al12  1  0.674271  0.838487  0.575584  1
  Al  Al13  1  0.845858  0.676978  0.078317  1
  Al  Al14  1  0.325729  0.161513  0.424416  1
  Al  Al15  1  0.154142  0.323022  0.921683  1
  Al  Al16  1  0.163290  0.836710  0.572665  1
  Al  Al17  1  0.323022  0.154142  0.078317  1
  Al  Al18  1  0.836710  0.163290  0.427335  1
  Al  Al19  1  0.676978  0.845858  0.921683  1
  Al  Al20  1  0.836652  0.163348  0.071967  1
  Al  Al21  1  0.163348  0.836652  0.928033  1
  Al  Al22  1  0.560104  0.122142  0.249448  1
  Al  Al23  1  0.439896  0.877858  0.750552  1
  Al  Al24  1  0.877858  0.439896  0.249448  1
  Al  Al25  1  0.122142  0.560104  0.750552  1
  Al  Al26  1  0.563230  0.436770  0.253050  1
  Al  Al27  1  0.436770  0.563230  0.746950  1
  Al  Al28  1  0.002151  0.997849  0.250405  1
  Al  Al29  1  0.997849  0.002151  0.749595  1
  Os  Os30  1  0.500000  0.000000  0.000000  1
  Os  Os31  1  0.000000  0.500000  0.000000  1
  Os  Os32  1  0.500000  0.000000  0.500000  1
  Os  Os33  1  0.000000  0.500000  0.500000  1
  Os  Os34  1  0.500000  0.500000  0.500000  1
  Os  Os35  1  0.000000  0.000000  0.000000  1
  Os  Os36  1  0.000000  0.000000  0.500000  1
  Pd  Pd37  1  0.500000  0.500000  0.000000  1
