# generated using pymatgen
data_Tm3Lu17(NiSb5)2
_symmetry_space_group_name_H-M   'P 1'
_cell_length_a   7.83304901
_cell_length_b   9.06688300
_cell_length_c   11.70090601
_cell_angle_alpha   90.00000000
_cell_angle_beta   89.99551172
_cell_angle_gamma   90.00000000
_symmetry_Int_Tables_number   1
_chemical_formula_structural   Tm3Lu17(NiSb5)2
_chemical_formula_sum   'Tm3 Lu17 Ni2 Sb10'
_cell_volume   831.01400821
_cell_formula_units_Z   1
loop_
 _symmetry_equiv_pos_site_id
 _symmetry_equiv_pos_as_xyz
  1  'x, y, z'
loop_
 _atom_site_type_symbol
 _atom_site_label
 _atom_site_symmetry_multiplicity
 _atom_site_fract_x
 _atom_site_fract_y
 _atom_site_fract_z
 _atom_site_occupancy
  Tm  Tm0  1  0.092310  0.500000  0.715217  1
  Tm  Tm1  1  0.907698  0.500000  0.215253  1
  Tm  Tm2  1  0.620045  0.000000  0.803723  1
  Lu  Lu3  1  0.431973  0.181303  0.564703  1
  Lu  Lu4  1  0.567888  0.818681  0.065024  1
  Lu  Lu5  1  0.067492  0.721260  0.434685  1
  Lu  Lu6  1  0.932608  0.278834  0.934760  1
  Lu  Lu7  1  0.067492  0.278740  0.434685  1
  Lu  Lu8  1  0.932608  0.721166  0.934760  1
  Lu  Lu9  1  0.431973  0.818697  0.564703  1
  Lu  Lu10  1  0.567888  0.181319  0.065024  1
  Lu  Lu11  1  0.573477  0.500000  0.773797  1
  Lu  Lu12  1  0.426637  0.500000  0.273768  1
  Lu  Lu13  1  0.910414  0.000000  0.205570  1
  Lu  Lu14  1  0.089588  0.000000  0.705590  1
  Lu  Lu15  1  0.267045  0.500000  0.994552  1
  Lu  Lu16  1  0.733027  0.500000  0.494538  1
  Lu  Lu17  1  0.201726  0.000000  0.999411  1
  Lu  Lu18  1  0.798448  0.000000  0.499398  1
  Lu  Lu19  1  0.379641  0.000000  0.304001  1
  Ni  Ni20  1  0.167096  0.000000  0.485332  1
  Ni  Ni21  1  0.833274  0.000000  0.985716  1
  Sb  Sb22  1  0.814203  0.740345  0.672532  1
  Sb  Sb23  1  0.185883  0.259496  0.172596  1
  Sb  Sb24  1  0.681926  0.242091  0.326044  1
  Sb  Sb25  1  0.317815  0.757793  0.826028  1
  Sb  Sb26  1  0.681926  0.757909  0.326044  1
  Sb  Sb27  1  0.317815  0.242207  0.826028  1
  Sb  Sb28  1  0.814203  0.259655  0.672532  1
  Sb  Sb29  1  0.185883  0.740504  0.172596  1
  Sb  Sb30  1  0.344315  0.500000  0.525659  1
  Sb  Sb31  1  0.655684  0.500000  0.025728  1
