# generated using pymatgen
data_Ti10ZnCu(BiPb2)2
_symmetry_space_group_name_H-M   'P 1'
_cell_length_a   8.37845760
_cell_length_b   8.37845752
_cell_length_c   5.64875605
_cell_angle_alpha   89.99247060
_cell_angle_beta   89.99246542
_cell_angle_gamma   119.81790329
_symmetry_Int_Tables_number   1
_chemical_formula_structural   Ti10ZnCu(BiPb2)2
_chemical_formula_sum   'Ti10 Zn1 Cu1 Bi2 Pb4'
_cell_volume   344.03732507
_cell_formula_units_Z   1
loop_
 _symmetry_equiv_pos_site_id
 _symmetry_equiv_pos_as_xyz
  1  'x, y, z'
loop_
 _atom_site_type_symbol
 _atom_site_label
 _atom_site_symmetry_multiplicity
 _atom_site_fract_x
 _atom_site_fract_y
 _atom_site_fract_z
 _atom_site_occupancy
  Ti  Ti0  1  0.264273  0.998465  0.752644  1
  Ti  Ti1  1  0.735727  0.001535  0.247356  1
  Ti  Ti2  1  0.998465  0.264273  0.752644  1
  Ti  Ti3  1  0.001535  0.735727  0.247356  1
  Ti  Ti4  1  0.734325  0.734325  0.752029  1
  Ti  Ti5  1  0.265675  0.265675  0.247971  1
  Ti  Ti6  1  0.333379  0.666621  0.500000  1
  Ti  Ti7  1  0.666621  0.333379  0.500000  1
  Ti  Ti8  1  0.666821  0.333179  0.000000  1
  Ti  Ti9  1  0.333179  0.666821  0.000000  1
  Zn  Zn10  1  0.000000  0.000000  0.500000  1
  Cu  Cu11  1  0.000000  0.000000  0.000000  1
  Bi  Bi12  1  0.382010  0.382010  0.749533  1
  Bi  Bi13  1  0.617990  0.617990  0.250467  1
  Pb  Pb14  1  0.616223  0.000285  0.749449  1
  Pb  Pb15  1  0.383777  0.999715  0.250551  1
  Pb  Pb16  1  0.000285  0.616223  0.749449  1
  Pb  Pb17  1  0.999715  0.383777  0.250551  1
