# generated using pymatgen
data_YbDy3(IrRu3)2
_symmetry_space_group_name_H-M   'P 1'
_cell_length_a   5.24490529
_cell_length_b   5.24490414
_cell_length_c   8.98085500
_cell_angle_alpha   90.00126550
_cell_angle_beta   89.99873198
_cell_angle_gamma   120.01003207
_symmetry_Int_Tables_number   1
_chemical_formula_structural   YbDy3(IrRu3)2
_chemical_formula_sum   'Yb1 Dy3 Ir2 Ru6'
_cell_volume   213.93390092
_cell_formula_units_Z   1
loop_
 _symmetry_equiv_pos_site_id
 _symmetry_equiv_pos_as_xyz
  1  'x, y, z'
loop_
 _atom_site_type_symbol
 _atom_site_label
 _atom_site_symmetry_multiplicity
 _atom_site_fract_x
 _atom_site_fract_y
 _atom_site_fract_z
 _atom_site_occupancy
  Yb  Yb0  1  0.666652  0.333348  0.933190  1
  Dy  Dy1  1  0.666643  0.333357  0.574457  1
  Dy  Dy2  1  0.333353  0.666647  0.430244  1
  Dy  Dy3  1  0.333357  0.666643  0.064583  1
  Ir  Ir4  1  0.000006  0.999994  0.499239  1
  Ir  Ir5  1  0.000011  0.999989  0.998929  1
  Ru  Ru6  1  0.170195  0.340449  0.749493  1
  Ru  Ru7  1  0.170245  0.829755  0.749491  1
  Ru  Ru8  1  0.659551  0.829805  0.749493  1
  Ru  Ru9  1  0.829476  0.658936  0.250286  1
  Ru  Ru10  1  0.829445  0.170555  0.250310  1
  Ru  Ru11  1  0.341064  0.170524  0.250286  1
