# generated using pymatgen
data_La8Rh5Au
_symmetry_space_group_name_H-M   'P 1'
_cell_length_a   7.87358884
_cell_length_b   7.87358952
_cell_length_c   7.87358849
_cell_angle_alpha   108.99578789
_cell_angle_beta   110.42633027
_cell_angle_gamma   108.99578817
_symmetry_Int_Tables_number   1
_chemical_formula_structural   La8Rh5Au
_chemical_formula_sum   'La8 Rh5 Au1'
_cell_volume   375.66922505
_cell_formula_units_Z   1
loop_
 _symmetry_equiv_pos_site_id
 _symmetry_equiv_pos_as_xyz
  1  'x, y, z'
loop_
 _atom_site_type_symbol
 _atom_site_label
 _atom_site_symmetry_multiplicity
 _atom_site_fract_x
 _atom_site_fract_y
 _atom_site_fract_z
 _atom_site_occupancy
  La  La0  1  0.118272  0.508524  0.993740  1
  La  La1  1  0.495665  0.996964  0.603993  1
  La  La2  1  0.396007  0.391672  0.392971  1
  La  La3  1  0.001299  0.108328  0.504335  1
  La  La4  1  0.890251  0.875467  0.881728  1
  La  La5  1  0.006260  0.624533  0.514784  1
  La  La6  1  0.607029  0.503036  0.998701  1
  La  La7  1  0.485216  0.991476  0.109749  1
  Rh  Rh8  1  0.123538  0.872475  0.248213  1
  Rh  Rh9  1  0.375738  0.627525  0.751063  1
  Rh  Rh10  1  0.248937  0.124675  0.876462  1
  Rh  Rh11  1  0.751787  0.375325  0.624262  1
  Rh  Rh12  1  0.625000  0.750000  0.375000  1
  Au  Au13  1  0.875000  0.250000  0.125000  1
