# generated using pymatgen
data_Tb10Ir5Os
_symmetry_space_group_name_H-M   'P 1'
_cell_length_a   10.91698900
_cell_length_b   10.91698900
_cell_length_c   6.42887900
_cell_angle_alpha   90.00000000
_cell_angle_beta   90.00000000
_cell_angle_gamma   90.00000000
_symmetry_Int_Tables_number   1
_chemical_formula_structural   Tb10Ir5Os
_chemical_formula_sum   'Tb20 Ir10 Os2'
_cell_volume   766.19797044
_cell_formula_units_Z   2
loop_
 _symmetry_equiv_pos_site_id
 _symmetry_equiv_pos_as_xyz
  1  'x, y, z'
loop_
 _atom_site_type_symbol
 _atom_site_label
 _atom_site_symmetry_multiplicity
 _atom_site_fract_x
 _atom_site_fract_y
 _atom_site_fract_z
 _atom_site_occupancy
  Tb  Tb0  1  0.294234  0.086290  0.378650  1
  Tb  Tb1  1  0.294234  0.913710  0.878650  1
  Tb  Tb2  1  0.705766  0.086290  0.878650  1
  Tb  Tb3  1  0.705766  0.913710  0.378650  1
  Tb  Tb4  1  0.586290  0.794234  0.878650  1
  Tb  Tb5  1  0.586290  0.205766  0.378650  1
  Tb  Tb6  1  0.413710  0.794234  0.378650  1
  Tb  Tb7  1  0.413710  0.205766  0.878650  1
  Tb  Tb8  1  0.209109  0.411887  0.620626  1
  Tb  Tb9  1  0.209109  0.588113  0.120626  1
  Tb  Tb10  1  0.790891  0.411887  0.120626  1
  Tb  Tb11  1  0.790891  0.588113  0.620626  1
  Tb  Tb12  1  0.911887  0.709109  0.120626  1
  Tb  Tb13  1  0.911887  0.290891  0.620626  1
  Tb  Tb14  1  0.088113  0.709109  0.620626  1
  Tb  Tb15  1  0.088113  0.290891  0.120626  1
  Tb  Tb16  1  0.000000  0.000000  0.498922  1
  Tb  Tb17  1  0.000000  0.000000  0.998922  1
  Tb  Tb18  1  0.500000  0.500000  0.998922  1
  Tb  Tb19  1  0.500000  0.500000  0.498922  1
  Ir  Ir20  1  0.848492  0.153908  0.250074  1
  Ir  Ir21  1  0.848492  0.846092  0.750074  1
  Ir  Ir22  1  0.151508  0.153908  0.750074  1
  Ir  Ir23  1  0.151508  0.846092  0.250074  1
  Ir  Ir24  1  0.653908  0.348492  0.750074  1
  Ir  Ir25  1  0.653908  0.651508  0.250074  1
  Ir  Ir26  1  0.346092  0.348492  0.250074  1
  Ir  Ir27  1  0.346092  0.651508  0.750074  1
  Ir  Ir28  1  0.000000  0.500000  0.879962  1
  Ir  Ir29  1  0.000000  0.500000  0.379962  1
  Os  Os30  1  0.500000  0.000000  0.124792  1
  Os  Os31  1  0.500000  0.000000  0.624792  1
