# generated using pymatgen
data_CaYb12(DyBi4)3
_symmetry_space_group_name_H-M   'P 1'
_cell_length_a   9.61925940
_cell_length_b   9.61926019
_cell_length_c   9.61925900
_cell_angle_alpha   90.31588405
_cell_angle_beta   90.31588529
_cell_angle_gamma   89.68411481
_symmetry_Int_Tables_number   1
_chemical_formula_structural   CaYb12(DyBi4)3
_chemical_formula_sum   'Ca1 Yb12 Dy3 Bi12'
_cell_volume   890.03113137
_cell_formula_units_Z   1
loop_
 _symmetry_equiv_pos_site_id
 _symmetry_equiv_pos_as_xyz
  1  'x, y, z'
loop_
 _atom_site_type_symbol
 _atom_site_label
 _atom_site_symmetry_multiplicity
 _atom_site_fract_x
 _atom_site_fract_y
 _atom_site_fract_z
 _atom_site_occupancy
  Ca  Ca0  1  0.073180  0.573180  0.926820  1
  Yb  Yb1  1  0.824780  0.324780  0.175220  1
  Yb  Yb2  1  0.930902  0.927813  0.930558  1
  Yb  Yb3  1  0.826788  0.673919  0.325655  1
  Yb  Yb4  1  0.176610  0.822463  0.322693  1
  Yb  Yb5  1  0.173919  0.174345  0.173212  1
  Yb  Yb6  1  0.325158  0.825158  0.674842  1
  Yb  Yb7  1  0.069442  0.430902  0.572187  1
  Yb  Yb8  1  0.322463  0.177307  0.823390  1
  Yb  Yb9  1  0.674345  0.326788  0.826081  1
  Yb  Yb10  1  0.677307  0.676610  0.677537  1
  Yb  Yb11  1  0.569261  0.069261  0.430739  1
  Yb  Yb12  1  0.427813  0.569442  0.069098  1
  Dy  Dy13  1  0.929815  0.071668  0.572530  1
  Dy  Dy14  1  0.427470  0.429815  0.428332  1
  Dy  Dy15  1  0.571668  0.927470  0.070185  1
  Bi  Bi16  1  0.746107  0.369188  0.500106  1
  Bi  Bi17  1  0.869188  0.999894  0.253893  1
  Bi  Bi18  1  0.999105  0.757032  0.625932  1
  Bi  Bi19  1  0.245952  0.129195  0.499194  1
  Bi  Bi20  1  0.131069  0.498164  0.251502  1
  Bi  Bi21  1  0.998164  0.248498  0.868931  1
  Bi  Bi22  1  0.257032  0.874068  0.000895  1
  Bi  Bi23  1  0.374068  0.499105  0.742968  1
  Bi  Bi24  1  0.499894  0.246107  0.130812  1
  Bi  Bi25  1  0.748498  0.631069  0.001836  1
  Bi  Bi26  1  0.629195  0.000806  0.754048  1
  Bi  Bi27  1  0.500806  0.745952  0.370805  1
