# generated using pymatgen
data_PrTm2Ni9
_symmetry_space_group_name_H-M   'P 1'
_cell_length_a   8.56907163
_cell_length_b   8.56891668
_cell_length_c   8.56853147
_cell_angle_alpha   33.75384312
_cell_angle_beta   33.75532198
_cell_angle_gamma   33.75899630
_symmetry_Int_Tables_number   1
_chemical_formula_structural   PrTm2Ni9
_chemical_formula_sum   'Pr1 Tm2 Ni9'
_cell_volume   173.08786123
_cell_formula_units_Z   1
loop_
 _symmetry_equiv_pos_site_id
 _symmetry_equiv_pos_as_xyz
  1  'x, y, z'
loop_
 _atom_site_type_symbol
 _atom_site_label
 _atom_site_symmetry_multiplicity
 _atom_site_fract_x
 _atom_site_fract_y
 _atom_site_fract_z
 _atom_site_occupancy
  Pr  Pr0  1  0.000000  0.000000  0.000000  1
  Tm  Tm1  1  0.140175  0.140175  0.140177  1
  Tm  Tm2  1  0.859825  0.859825  0.859823  1
  Ni  Ni3  1  0.584992  0.584993  0.081457  1
  Ni  Ni4  1  0.333154  0.333151  0.333150  1
  Ni  Ni5  1  0.918545  0.415005  0.415007  1
  Ni  Ni6  1  0.415006  0.918545  0.415007  1
  Ni  Ni7  1  0.500000  0.500000  0.500000  1
  Ni  Ni8  1  0.584994  0.081455  0.584993  1
  Ni  Ni9  1  0.081455  0.584995  0.584993  1
  Ni  Ni10  1  0.666846  0.666849  0.666850  1
  Ni  Ni11  1  0.415008  0.415007  0.918543  1
