# generated using pymatgen
data_Mn6AlCo12Si5
_symmetry_space_group_name_H-M   'P 1'
_cell_length_a   3.99097400
_cell_length_b   5.65723600
_cell_length_c   11.97204000
_cell_angle_alpha   90.00056594
_cell_angle_beta   89.99976551
_cell_angle_gamma   90.00002448
_symmetry_Int_Tables_number   1
_chemical_formula_structural   Mn6AlCo12Si5
_chemical_formula_sum   'Mn6 Al1 Co12 Si5'
_cell_volume   270.30330387
_cell_formula_units_Z   1
loop_
 _symmetry_equiv_pos_site_id
 _symmetry_equiv_pos_as_xyz
  1  'x, y, z'
loop_
 _atom_site_type_symbol
 _atom_site_label
 _atom_site_symmetry_multiplicity
 _atom_site_fract_x
 _atom_site_fract_y
 _atom_site_fract_z
 _atom_site_occupancy
  Mn  Mn0  1  0.000006  0.499993  0.998848  1
  Mn  Mn1  1  0.499992  0.000005  0.168189  1
  Mn  Mn2  1  0.999965  0.500001  0.333338  1
  Mn  Mn3  1  0.500006  0.000001  0.498485  1
  Mn  Mn4  1  0.000027  0.500007  0.667821  1
  Mn  Mn5  1  0.499990  0.999997  0.833323  1
  Al  Al6  1  0.500010  0.499997  0.833328  1
  Co  Co7  1  0.500004  0.245892  0.003219  1
  Co  Co8  1  0.500004  0.754110  0.003220  1
  Co  Co9  1  0.999989  0.250210  0.167007  1
  Co  Co10  1  0.999989  0.749791  0.167010  1
  Co  Co11  1  0.499982  0.250887  0.333339  1
  Co  Co12  1  0.499982  0.749117  0.333337  1
  Co  Co13  1  0.000006  0.250213  0.499663  1
  Co  Co14  1  0.000006  0.749790  0.499664  1
  Co  Co15  1  0.500019  0.245901  0.663441  1
  Co  Co16  1  0.500020  0.754099  0.663444  1
  Co  Co17  1  0.000017  0.241521  0.833331  1
  Co  Co18  1  0.000017  0.758471  0.833328  1
  Si  Si19  1  0.000004  0.000006  0.000349  1
  Si  Si20  1  0.499983  0.499997  0.166443  1
  Si  Si21  1  0.999961  0.999998  0.333337  1
  Si  Si22  1  0.500004  0.500003  0.500225  1
  Si  Si23  1  0.000019  0.999995  0.666316  1
