# generated using pymatgen
data_LiNi6Mo
_symmetry_space_group_name_H-M   'P 1'
_cell_length_a   5.06555931
_cell_length_b   5.06555984
_cell_length_c   3.55777200
_cell_angle_alpha   90.00000000
_cell_angle_beta   90.00000000
_cell_angle_gamma   90.57767489
_symmetry_Int_Tables_number   1
_chemical_formula_structural   LiNi6Mo
_chemical_formula_sum   'Li1 Ni6 Mo1'
_cell_volume   91.28741167
_cell_formula_units_Z   1
loop_
 _symmetry_equiv_pos_site_id
 _symmetry_equiv_pos_as_xyz
  1  'x, y, z'
loop_
 _atom_site_type_symbol
 _atom_site_label
 _atom_site_symmetry_multiplicity
 _atom_site_fract_x
 _atom_site_fract_y
 _atom_site_fract_z
 _atom_site_occupancy
  Li  Li0  1  0.627028  0.372972  0.000000  1
  Ni  Ni1  1  0.623899  0.873717  0.000000  1
  Ni  Ni2  1  0.126283  0.376101  0.000000  1
  Ni  Ni3  1  0.872147  0.623011  0.500000  1
  Ni  Ni4  1  0.376989  0.127853  0.500000  1
  Ni  Ni5  1  0.876165  0.123835  0.500000  1
  Ni  Ni6  1  0.373267  0.626733  0.500000  1
  Mo  Mo7  1  0.124226  0.875774  0.000000  1
