# generated using pymatgen
data_UTc3C
_symmetry_space_group_name_H-M   'P 1'
_cell_length_a   4.17407900
_cell_length_b   4.17407900
_cell_length_c   4.17407900
_cell_angle_alpha   90.00000000
_cell_angle_beta   90.00000000
_cell_angle_gamma   90.00000000
_symmetry_Int_Tables_number   1
_chemical_formula_structural   UTc3C
_chemical_formula_sum   'U1 Tc3 C1'
_cell_volume   72.72470918
_cell_formula_units_Z   1
loop_
 _symmetry_equiv_pos_site_id
 _symmetry_equiv_pos_as_xyz
  1  'x, y, z'
loop_
 _atom_site_type_symbol
 _atom_site_label
 _atom_site_symmetry_multiplicity
 _atom_site_fract_x
 _atom_site_fract_y
 _atom_site_fract_z
 _atom_site_occupancy
  U  U0  1  0.000000  0.000000  0.000000  1
  Tc  Tc1  1  0.500001  0.500001  0.000000  1
  Tc  Tc2  1  0.500001  0.000000  0.500001  1
  Tc  Tc3  1  0.000000  0.500001  0.500001  1
  C  C4  1  0.500001  0.500001  0.500001  1
