# generated using pymatgen
data_Nb8V2SiB4P
_symmetry_space_group_name_H-M   'P 1'
_cell_length_a   7.23010605
_cell_length_b   7.23010686
_cell_length_c   7.23010810
_cell_angle_alpha   129.81646749
_cell_angle_beta   129.81647129
_cell_angle_gamma   73.70033883
_symmetry_Int_Tables_number   1
_chemical_formula_structural   Nb8V2SiB4P
_chemical_formula_sum   'Nb8 V2 Si1 B4 P1'
_cell_volume   217.55539951
_cell_formula_units_Z   1
loop_
 _symmetry_equiv_pos_site_id
 _symmetry_equiv_pos_as_xyz
  1  'x, y, z'
loop_
 _atom_site_type_symbol
 _atom_site_label
 _atom_site_symmetry_multiplicity
 _atom_site_fract_x
 _atom_site_fract_y
 _atom_site_fract_z
 _atom_site_occupancy
  Nb  Nb0  1  0.808909  0.305892  0.841362  1
  Nb  Nb1  1  0.194108  0.691091  0.158638  1
  Nb  Nb2  1  0.464531  0.967548  0.158638  1
  Nb  Nb3  1  0.305892  0.464531  0.496983  1
  Nb  Nb4  1  0.035469  0.194108  0.503017  1
  Nb  Nb5  1  0.532452  0.035469  0.841362  1
  Nb  Nb6  1  0.691091  0.532452  0.496983  1
  Nb  Nb7  1  0.967548  0.808909  0.503017  1
  V  V8  1  0.998621  0.998621  0.000000  1
  V  V9  1  0.501379  0.501379  0.000000  1
  Si  Si10  1  0.750000  0.750000  0.000000  1
  B  B11  1  0.117371  0.617371  0.734742  1
  B  B12  1  0.882629  0.382629  0.265258  1
  B  B13  1  0.617371  0.882629  0.500000  1
  B  B14  1  0.382629  0.117371  0.500000  1
  P  P15  1  0.250000  0.250000  0.000000  1
