# generated using pymatgen
data_Tm6P13Ir20
_symmetry_space_group_name_H-M   'P 1'
_cell_length_a   13.33249600
_cell_length_b   13.33249443
_cell_length_c   3.94824500
_cell_angle_alpha   90.00000000
_cell_angle_beta   90.00000000
_cell_angle_gamma   119.99999893
_symmetry_Int_Tables_number   1
_chemical_formula_structural   Tm6P13Ir20
_chemical_formula_sum   'Tm6 P13 Ir20'
_cell_volume   607.79567244
_cell_formula_units_Z   1
loop_
 _symmetry_equiv_pos_site_id
 _symmetry_equiv_pos_as_xyz
  1  'x, y, z'
loop_
 _atom_site_type_symbol
 _atom_site_label
 _atom_site_symmetry_multiplicity
 _atom_site_fract_x
 _atom_site_fract_y
 _atom_site_fract_z
 _atom_site_occupancy
  Tm  Tm0  1  0.525330  0.715864  0.248130  1
  Tm  Tm1  1  0.284136  0.809467  0.248130  1
  Tm  Tm2  1  0.190533  0.474670  0.248130  1
  Tm  Tm3  1  0.474670  0.284136  0.751870  1
  Tm  Tm4  1  0.715864  0.190533  0.751870  1
  Tm  Tm5  1  0.809467  0.525330  0.751870  1
  P  P6  1  0.527897  0.140985  0.250016  1
  P  P7  1  0.859015  0.386913  0.250016  1
  P  P8  1  0.613087  0.472103  0.250016  1
  P  P9  1  0.942951  0.709834  0.258886  1
  P  P10  1  0.290166  0.233118  0.258886  1
  P  P11  1  0.766882  0.057049  0.258886  1
  P  P12  1  0.386913  0.527897  0.749984  1
  P  P13  1  0.472103  0.859015  0.749984  1
  P  P14  1  0.140985  0.613087  0.749984  1
  P  P15  1  0.709834  0.766882  0.741114  1
  P  P16  1  0.233118  0.942951  0.741114  1
  P  P17  1  0.057049  0.290166  0.741114  1
  P  P18  1  0.000000  0.000000  0.000000  1
  Ir  Ir19  1  0.333333  0.666667  0.751630  1
  Ir  Ir20  1  0.915666  0.247824  0.251554  1
  Ir  Ir21  1  0.752176  0.667843  0.251554  1
  Ir  Ir22  1  0.332157  0.084334  0.251554  1
  Ir  Ir23  1  0.434807  0.018446  0.751374  1
  Ir  Ir24  1  0.981554  0.416361  0.751374  1
  Ir  Ir25  1  0.583639  0.565193  0.751374  1
  Ir  Ir26  1  0.666667  0.333333  0.248370  1
  Ir  Ir27  1  0.098024  0.187118  0.251871  1
  Ir  Ir28  1  0.812882  0.910906  0.251871  1
  Ir  Ir29  1  0.089094  0.901976  0.251871  1
  Ir  Ir30  1  0.018446  0.583639  0.248626  1
  Ir  Ir31  1  0.416361  0.434807  0.248626  1
  Ir  Ir32  1  0.565193  0.981554  0.248626  1
  Ir  Ir33  1  0.667843  0.915666  0.748446  1
  Ir  Ir34  1  0.084334  0.752176  0.748446  1
  Ir  Ir35  1  0.247824  0.332157  0.748446  1
  Ir  Ir36  1  0.901976  0.812882  0.748129  1
  Ir  Ir37  1  0.187118  0.089094  0.748129  1
  Ir  Ir38  1  0.910906  0.098024  0.748129  1
