# generated using pymatgen
data_Tb2Dy4GaTcNi
_symmetry_space_group_name_H-M   'P 1'
_cell_length_a   8.35731095
_cell_length_b   8.35731223
_cell_length_c   8.35731130
_cell_angle_alpha   104.33164196
_cell_angle_beta   111.12120613
_cell_angle_gamma   113.08670808
_symmetry_Int_Tables_number   1
_chemical_formula_structural   Tb2Dy4GaTcNi
_chemical_formula_sum   'Tb4 Dy8 Ga2 Tc2 Ni2'
_cell_volume   446.51870844
_cell_formula_units_Z   2
loop_
 _symmetry_equiv_pos_site_id
 _symmetry_equiv_pos_as_xyz
  1  'x, y, z'
loop_
 _atom_site_type_symbol
 _atom_site_label
 _atom_site_symmetry_multiplicity
 _atom_site_fract_x
 _atom_site_fract_y
 _atom_site_fract_z
 _atom_site_occupancy
  Tb  Tb0  1  0.600729  0.780892  0.819836  1
  Tb  Tb1  1  0.961056  0.780892  0.180164  1
  Tb  Tb2  1  0.038944  0.219108  0.819836  1
  Tb  Tb3  1  0.399271  0.219108  0.180164  1
  Dy  Dy4  1  0.690077  0.256868  0.946946  1
  Dy  Dy5  1  0.309923  0.743132  0.053054  1
  Dy  Dy6  1  0.690077  0.743132  0.433210  1
  Dy  Dy7  1  0.309923  0.256868  0.566790  1
  Dy  Dy8  1  0.814944  0.147277  0.332333  1
  Dy  Dy9  1  0.814944  0.482611  0.667667  1
  Dy  Dy10  1  0.185056  0.852723  0.667667  1
  Dy  Dy11  1  0.185056  0.517389  0.332333  1
  Ga  Ga12  1  0.500000  0.500000  0.000000  1
  Ga  Ga13  1  0.500000  0.000000  0.500000  1
  Tc  Tc14  1  0.820752  0.500000  0.320752  1
  Tc  Tc15  1  0.179248  0.500000  0.679248  1
  Ni  Ni16  1  0.000000  0.117321  0.117321  1
  Ni  Ni17  1  0.000000  0.882679  0.882679  1
