# generated using pymatgen
data_Lu10GaSi4As
_symmetry_space_group_name_H-M   'P 1'
_cell_length_a   8.26549893
_cell_length_b   8.26452609
_cell_length_c   6.17827900
_cell_angle_alpha   90.00000000
_cell_angle_beta   90.00000000
_cell_angle_gamma   120.05828707
_symmetry_Int_Tables_number   1
_chemical_formula_structural   Lu10GaSi4As
_chemical_formula_sum   'Lu10 Ga1 Si4 As1'
_cell_volume   365.28328437
_cell_formula_units_Z   1
loop_
 _symmetry_equiv_pos_site_id
 _symmetry_equiv_pos_as_xyz
  1  'x, y, z'
loop_
 _atom_site_type_symbol
 _atom_site_label
 _atom_site_symmetry_multiplicity
 _atom_site_fract_x
 _atom_site_fract_y
 _atom_site_fract_z
 _atom_site_occupancy
  Lu  Lu0  1  0.669426  0.335979  0.001044  1
  Lu  Lu1  1  0.332895  0.664305  0.498934  1
  Lu  Lu2  1  0.332895  0.664305  0.001066  1
  Lu  Lu3  1  0.669426  0.335979  0.498956  1
  Lu  Lu4  1  0.759761  0.999743  0.750000  1
  Lu  Lu5  1  0.758964  0.758478  0.250000  1
  Lu  Lu6  1  0.999982  0.242357  0.250000  1
  Lu  Lu7  1  0.995843  0.754888  0.750000  1
  Lu  Lu8  1  0.240563  0.244286  0.750000  1
  Lu  Lu9  1  0.241409  0.999452  0.250000  1
  Ga  Ga10  1  0.395533  0.394300  0.250000  1
  Si  Si11  1  0.001281  0.606615  0.250000  1
  Si  Si12  1  0.999244  0.394407  0.750000  1
  Si  Si13  1  0.604954  0.605196  0.750000  1
  Si  Si14  1  0.606364  0.000033  0.250000  1
  As  As15  1  0.391458  0.999676  0.750000  1
