# generated using pymatgen
data_Ti4NbBi4
_symmetry_space_group_name_H-M   'P 1'
_cell_length_a   7.80120789
_cell_length_b   7.80120807
_cell_length_c   7.80120680
_cell_angle_alpha   93.07582189
_cell_angle_beta   93.07581850
_cell_angle_gamma   153.21260812
_symmetry_Int_Tables_number   1
_chemical_formula_structural   Ti4NbBi4
_chemical_formula_sum   'Ti4 Nb1 Bi4'
_cell_volume   208.15127443
_cell_formula_units_Z   1
loop_
 _symmetry_equiv_pos_site_id
 _symmetry_equiv_pos_as_xyz
  1  'x, y, z'
loop_
 _atom_site_type_symbol
 _atom_site_label
 _atom_site_symmetry_multiplicity
 _atom_site_fract_x
 _atom_site_fract_y
 _atom_site_fract_z
 _atom_site_occupancy
  Ti  Ti0  1  0.613519  0.678762  0.292281  1
  Ti  Ti1  1  0.386481  0.321238  0.707719  1
  Ti  Ti2  1  0.321238  0.613519  0.934757  1
  Ti  Ti3  1  0.678762  0.386481  0.065243  1
  Nb  Nb4  1  0.000000  0.000000  0.000000  1
  Bi  Bi5  1  0.708901  0.936675  0.645576  1
  Bi  Bi6  1  0.291099  0.063325  0.354424  1
  Bi  Bi7  1  0.063325  0.708901  0.772228  1
  Bi  Bi8  1  0.936675  0.291099  0.227772  1
