# generated using pymatgen
data_SrPr6IrBr12
_symmetry_space_group_name_H-M   'P 1'
_cell_length_a   9.65023700
_cell_length_b   9.64304159
_cell_length_c   9.63228846
_cell_angle_alpha   106.18007745
_cell_angle_beta   106.19463801
_cell_angle_gamma   106.29515735
_symmetry_Int_Tables_number   1
_chemical_formula_structural   SrPr6IrBr12
_chemical_formula_sum   'Sr1 Pr6 Ir1 Br12'
_cell_volume   761.75823158
_cell_formula_units_Z   1
loop_
 _symmetry_equiv_pos_site_id
 _symmetry_equiv_pos_as_xyz
  1  'x, y, z'
loop_
 _atom_site_type_symbol
 _atom_site_label
 _atom_site_symmetry_multiplicity
 _atom_site_fract_x
 _atom_site_fract_y
 _atom_site_fract_z
 _atom_site_occupancy
  Sr  Sr0  1  0.500000  0.500000  0.500000  1
  Pr  Pr1  1  0.103848  0.313632  0.021760  1
  Pr  Pr2  1  0.314038  0.021654  0.103982  1
  Pr  Pr3  1  0.021698  0.104025  0.313436  1
  Pr  Pr4  1  0.978303  0.895975  0.686565  1
  Pr  Pr5  1  0.685962  0.978347  0.896018  1
  Pr  Pr6  1  0.896152  0.686368  0.978240  1
  Ir  Ir7  1  0.000000  0.000000  0.000000  1
  Br  Br8  1  0.218777  0.681744  0.074012  1
  Br  Br9  1  0.449119  0.368657  0.152286  1
  Br  Br10  1  0.681779  0.073958  0.218890  1
  Br  Br11  1  0.926062  0.781282  0.318286  1
  Br  Br12  1  0.152375  0.449206  0.368731  1
  Br  Br13  1  0.368658  0.152288  0.449143  1
  Br  Br14  1  0.631342  0.847712  0.550858  1
  Br  Br15  1  0.847626  0.550794  0.631269  1
  Br  Br16  1  0.073939  0.218718  0.681715  1
  Br  Br17  1  0.318222  0.926043  0.781110  1
  Br  Br18  1  0.550881  0.631343  0.847715  1
  Br  Br19  1  0.781223  0.318256  0.925988  1
