# generated using pymatgen
data_Er2ScB4Ru10W3
_symmetry_space_group_name_H-M   'P 1'
_cell_length_a   9.52910990
_cell_length_b   9.53527311
_cell_length_c   3.04725700
_cell_angle_alpha   90.00000000
_cell_angle_beta   90.00000000
_cell_angle_gamma   90.09279029
_symmetry_Int_Tables_number   1
_chemical_formula_structural   Er2ScB4Ru10W3
_chemical_formula_sum   'Er2 Sc1 B4 Ru10 W3'
_cell_volume   276.88152992
_cell_formula_units_Z   1
loop_
 _symmetry_equiv_pos_site_id
 _symmetry_equiv_pos_as_xyz
  1  'x, y, z'
loop_
 _atom_site_type_symbol
 _atom_site_label
 _atom_site_symmetry_multiplicity
 _atom_site_fract_x
 _atom_site_fract_y
 _atom_site_fract_z
 _atom_site_occupancy
  Er  Er0  1  0.175153  0.824345  0.000000  1
  Er  Er1  1  0.325075  0.325770  0.000000  1
  Sc  Sc2  1  0.674896  0.676941  0.000000  1
  B  B3  1  0.622332  0.379131  0.000000  1
  B  B4  1  0.382923  0.618714  0.000000  1
  B  B5  1  0.119918  0.120769  0.000000  1
  B  B6  1  0.876817  0.877497  0.000000  1
  Ru  Ru7  1  0.508423  0.501336  0.500000  1
  Ru  Ru8  1  0.989380  0.008465  0.500000  1
  Ru  Ru9  1  0.583130  0.212046  0.500000  1
  Ru  Ru10  1  0.436147  0.782551  0.500000  1
  Ru  Ru11  1  0.056657  0.280861  0.500000  1
  Ru  Ru12  1  0.924165  0.716628  0.500000  1
  Ru  Ru13  1  0.281536  0.070656  0.500000  1
  Ru  Ru14  1  0.717382  0.939794  0.500000  1
  Ru  Ru15  1  0.217515  0.567800  0.500000  1
  Ru  Ru16  1  0.788088  0.419016  0.500000  1
  W  W17  1  0.497706  0.996568  0.000000  1
  W  W18  1  0.000307  0.503646  0.000000  1
  W  W19  1  0.822451  0.177465  0.000000  1
