# generated using pymatgen
data_Nd4Zn(Sb4Pd)2
_symmetry_space_group_name_H-M   'P 1'
_cell_length_a   11.04237509
_cell_length_b   11.04237516
_cell_length_c   11.04237502
_cell_angle_alpha   147.15162283
_cell_angle_beta   147.15162431
_cell_angle_gamma   47.13933164
_symmetry_Int_Tables_number   1
_chemical_formula_structural   Nd4Zn(Sb4Pd)2
_chemical_formula_sum   'Nd4 Zn1 Sb8 Pd2'
_cell_volume   394.64763424
_cell_formula_units_Z   1
loop_
 _symmetry_equiv_pos_site_id
 _symmetry_equiv_pos_as_xyz
  1  'x, y, z'
loop_
 _atom_site_type_symbol
 _atom_site_label
 _atom_site_symmetry_multiplicity
 _atom_site_fract_x
 _atom_site_fract_y
 _atom_site_fract_z
 _atom_site_occupancy
  Nd  Nd0  1  0.630498  0.124818  0.000000  1
  Nd  Nd1  1  0.124818  0.630498  0.000000  1
  Nd  Nd2  1  0.875182  0.875182  0.505681  1
  Nd  Nd3  1  0.369502  0.369502  0.494319  1
  Zn  Zn4  1  0.000000  0.000000  0.000000  1
  Sb  Sb5  1  0.250049  0.250049  0.000000  1
  Sb  Sb6  1  0.749951  0.749951  0.000000  1
  Sb  Sb7  1  0.250000  0.750000  0.500000  1
  Sb  Sb8  1  0.750000  0.250000  0.500000  1
  Sb  Sb9  1  0.334014  0.818816  0.000000  1
  Sb  Sb10  1  0.818816  0.334014  0.000000  1
  Sb  Sb11  1  0.181184  0.181184  0.515197  1
  Sb  Sb12  1  0.665986  0.665986  0.484803  1
  Pd  Pd13  1  0.500000  0.000000  0.500000  1
  Pd  Pd14  1  0.000000  0.500000  0.500000  1
