# generated using pymatgen
data_ThS23
_symmetry_space_group_name_H-M   'P 1'
_cell_length_a   5.18016281
_cell_length_b   9.92495129
_cell_length_c   15.15909483
_cell_angle_alpha   92.66163910
_cell_angle_beta   81.69470528
_cell_angle_gamma   82.41973003
_symmetry_Int_Tables_number   1
_chemical_formula_structural   ThS23
_chemical_formula_sum   'Th1 S23'
_cell_volume   762.75329686
_cell_formula_units_Z   1
loop_
 _symmetry_equiv_pos_site_id
 _symmetry_equiv_pos_as_xyz
  1  'x, y, z'
loop_
 _atom_site_type_symbol
 _atom_site_label
 _atom_site_symmetry_multiplicity
 _atom_site_fract_x
 _atom_site_fract_y
 _atom_site_fract_z
 _atom_site_occupancy
  Th  Th0  1  0.561443  0.317485  0.420765  1
  S  S1  1  0.459071  0.846961  0.392286  1
  S  S2  1  0.945181  0.307575  0.145951  1
  S  S3  1  0.091610  0.184163  0.418514  1
  S  S4  1  0.254586  0.793398  0.513061  1
  S  S5  1  0.124665  0.232643  0.021083  1
  S  S6  1  0.810436  0.738525  0.011837  1
  S  S7  1  0.081105  0.366887  0.354397  1
  S  S8  1  0.725298  0.680880  0.345574  1
  S  S9  1  0.750285  0.155368  0.208859  1
  S  S10  1  0.214934  0.886783  0.125551  1
  S  S11  1  0.705239  0.562811  0.583070  1
  S  S12  1  0.291940  0.333560  0.608065  1
  S  S13  1  0.213719  0.862611  0.853383  1
  S  S14  1  0.715373  0.119078  0.891478  1
  S  S15  1  0.049275  0.709808  0.108590  1
  S  S16  1  0.529258  0.766351  0.596152  1
  S  S17  1  0.545015  0.159269  0.569600  1
  S  S18  1  0.038951  0.693213  0.887598  1
  S  S19  1  0.893196  0.284996  0.923213  1
  S  S20  1  0.499482  0.536657  0.309195  1
  S  S21  1  0.041308  0.003852  0.239883  1
  S  S22  1  0.495149  0.462461  0.679522  1
  S  S23  1  0.963479  0.994664  0.792376  1
