# generated using pymatgen
data_Y2TmAl12RuRh3
_symmetry_space_group_name_H-M   'P 1'
_cell_length_a   8.80104000
_cell_length_b   8.83424718
_cell_length_c   9.50960200
_cell_angle_alpha   90.00000000
_cell_angle_beta   90.00000000
_cell_angle_gamma   119.87574130
_symmetry_Int_Tables_number   1
_chemical_formula_structural   Y2TmAl12RuRh3
_chemical_formula_sum   'Y4 Tm2 Al24 Ru2 Rh6'
_cell_volume   641.11943034
_cell_formula_units_Z   2
loop_
 _symmetry_equiv_pos_site_id
 _symmetry_equiv_pos_as_xyz
  1  'x, y, z'
loop_
 _atom_site_type_symbol
 _atom_site_label
 _atom_site_symmetry_multiplicity
 _atom_site_fract_x
 _atom_site_fract_y
 _atom_site_fract_z
 _atom_site_occupancy
  Y  Y0  1  0.808034  0.190986  0.750000  1
  Y  Y1  1  0.191966  0.809014  0.250000  1
  Y  Y2  1  0.382952  0.190986  0.750000  1
  Y  Y3  1  0.617048  0.809014  0.250000  1
  Tm  Tm4  1  0.806734  0.613468  0.750000  1
  Tm  Tm5  1  0.193266  0.386532  0.250000  1
  Al  Al6  1  0.666587  0.333173  0.971264  1
  Al  Al7  1  0.333413  0.666827  0.028736  1
  Al  Al8  1  0.333413  0.666827  0.471264  1
  Al  Al9  1  0.666587  0.333173  0.528736  1
  Al  Al10  1  0.837400  0.164586  0.422706  1
  Al  Al11  1  0.162600  0.835414  0.577294  1
  Al  Al12  1  0.327186  0.164586  0.422706  1
  Al  Al13  1  0.162600  0.835414  0.922706  1
  Al  Al14  1  0.672814  0.835414  0.577294  1
  Al  Al15  1  0.837400  0.164586  0.077294  1
  Al  Al16  1  0.836227  0.672454  0.424644  1
  Al  Al17  1  0.672814  0.835414  0.922706  1
  Al  Al18  1  0.163773  0.327546  0.575356  1
  Al  Al19  1  0.327186  0.164586  0.077294  1
  Al  Al20  1  0.163773  0.327546  0.924644  1
  Al  Al21  1  0.836227  0.672454  0.075356  1
  Al  Al22  1  0.437758  0.562112  0.750000  1
  Al  Al23  1  0.562242  0.437888  0.250000  1
  Al  Al24  1  0.124352  0.562112  0.750000  1
  Al  Al25  1  0.875648  0.437888  0.250000  1
  Al  Al26  1  0.437566  0.875133  0.750000  1
  Al  Al27  1  0.562434  0.124867  0.250000  1
  Al  Al28  1  0.998086  0.996173  0.750000  1
  Al  Al29  1  0.001914  0.003827  0.250000  1
  Ru  Ru30  1  0.000000  0.000000  0.000000  1
  Ru  Ru31  1  0.000000  0.000000  0.500000  1
  Rh  Rh32  1  0.500000  0.500000  0.000000  1
  Rh  Rh33  1  0.000000  0.500000  0.000000  1
  Rh  Rh34  1  0.500000  0.500000  0.500000  1
  Rh  Rh35  1  0.500000  0.000000  0.000000  1
  Rh  Rh36  1  0.000000  0.500000  0.500000  1
  Rh  Rh37  1  0.500000  0.000000  0.500000  1
