# generated using pymatgen
data_DyAl4(FeRe)4
_symmetry_space_group_name_H-M   'P 1'
_cell_length_a   4.83034518
_cell_length_b   6.70478496
_cell_length_c   6.70478600
_cell_angle_alpha   82.54452518
_cell_angle_beta   68.88650781
_cell_angle_gamma   68.88652517
_symmetry_Int_Tables_number   1
_chemical_formula_structural   DyAl4(FeRe)4
_chemical_formula_sum   'Dy1 Al4 Fe4 Re4'
_cell_volume   188.96834888
_cell_formula_units_Z   1
loop_
 _symmetry_equiv_pos_site_id
 _symmetry_equiv_pos_as_xyz
  1  'x, y, z'
loop_
 _atom_site_type_symbol
 _atom_site_label
 _atom_site_symmetry_multiplicity
 _atom_site_fract_x
 _atom_site_fract_y
 _atom_site_fract_z
 _atom_site_occupancy
  Dy  Dy0  1  0.000000  0.000000  0.000000  1
  Al  Al1  1  0.500000  0.775910  0.224090  1
  Al  Al2  1  0.500000  0.224090  0.775910  1
  Al  Al3  1  0.724090  0.775910  0.775910  1
  Al  Al4  1  0.275910  0.224090  0.224090  1
  Fe  Fe5  1  0.000000  0.000000  0.500000  1
  Fe  Fe6  1  0.500000  0.000000  0.500000  1
  Fe  Fe7  1  0.500000  0.500000  0.000000  1
  Fe  Fe8  1  0.000000  0.500000  0.000000  1
  Re  Re9  1  0.000000  0.359023  0.640977  1
  Re  Re10  1  0.000000  0.640977  0.359023  1
  Re  Re11  1  0.640977  0.359023  0.359023  1
  Re  Re12  1  0.359023  0.640977  0.640977  1
