# generated using pymatgen
data_NaSm2(BPt2)3
_symmetry_space_group_name_H-M   'P 1'
_cell_length_a   5.47119327
_cell_length_b   5.53820627
_cell_length_c   7.64162100
_cell_angle_alpha   90.00000000
_cell_angle_beta   90.00000000
_cell_angle_gamma   120.40600128
_symmetry_Int_Tables_number   1
_chemical_formula_structural   NaSm2(BPt2)3
_chemical_formula_sum   'Na1 Sm2 B3 Pt6'
_cell_volume   199.69903829
_cell_formula_units_Z   1
loop_
 _symmetry_equiv_pos_site_id
 _symmetry_equiv_pos_as_xyz
  1  'x, y, z'
loop_
 _atom_site_type_symbol
 _atom_site_label
 _atom_site_symmetry_multiplicity
 _atom_site_fract_x
 _atom_site_fract_y
 _atom_site_fract_z
 _atom_site_occupancy
  Na  Na0  1  0.000000  0.500000  0.666667  1
  Sm  Sm1  1  0.500000  0.500000  0.343667  1
  Sm  Sm2  1  0.500000  0.000000  0.989666  1
  B  B3  1  0.000000  0.500000  0.166667  1
  B  B4  1  0.500000  0.500000  0.821819  1
  B  B5  1  0.500000  0.000000  0.511514  1
  Pt  Pt6  1  0.284410  0.142206  0.666667  1
  Pt  Pt7  1  0.157703  0.853839  0.332534  1
  Pt  Pt8  1  0.842297  0.696136  0.000799  1
  Pt  Pt9  1  0.842297  0.146161  0.332534  1
  Pt  Pt10  1  0.157703  0.303864  0.000799  1
  Pt  Pt11  1  0.715590  0.857794  0.666667  1
