# generated using pymatgen
data_Li2MgSc(Ta2N3)4
_symmetry_space_group_name_H-M   'P 1'
_cell_length_a   5.25174500
_cell_length_b   5.25174424
_cell_length_c   10.42569300
_cell_angle_alpha   90.00000000
_cell_angle_beta   90.00000000
_cell_angle_gamma   119.99999846
_symmetry_Int_Tables_number   1
_chemical_formula_structural   Li2MgSc(Ta2N3)4
_chemical_formula_sum   'Li2 Mg1 Sc1 Ta8 N12'
_cell_volume   249.02489722
_cell_formula_units_Z   1
loop_
 _symmetry_equiv_pos_site_id
 _symmetry_equiv_pos_as_xyz
  1  'x, y, z'
loop_
 _atom_site_type_symbol
 _atom_site_label
 _atom_site_symmetry_multiplicity
 _atom_site_fract_x
 _atom_site_fract_y
 _atom_site_fract_z
 _atom_site_occupancy
  Li  Li0  1  0.333333  0.666667  0.000000  1
  Li  Li1  1  0.333333  0.666667  0.500000  1
  Mg  Mg2  1  0.666667  0.333333  0.000000  1
  Sc  Sc3  1  0.666667  0.333333  0.500000  1
  Ta  Ta4  1  0.004126  0.343525  0.249429  1
  Ta  Ta5  1  0.656475  0.995874  0.750571  1
  Ta  Ta6  1  0.339398  0.343525  0.750571  1
  Ta  Ta7  1  0.000000  0.000000  0.500000  1
  Ta  Ta8  1  0.000000  0.000000  0.000000  1
  Ta  Ta9  1  0.656475  0.660602  0.249429  1
  Ta  Ta10  1  0.339398  0.995874  0.249429  1
  Ta  Ta11  1  0.004126  0.660602  0.750571  1
  N  N12  1  0.673285  0.674436  0.622367  1
  N  N13  1  0.675749  0.672759  0.877940  1
  N  N14  1  0.327241  0.324251  0.122060  1
  N  N15  1  0.325564  0.326715  0.377633  1
  N  N16  1  0.327241  0.002989  0.877940  1
  N  N17  1  0.325564  0.998848  0.622367  1
  N  N18  1  0.001152  0.674436  0.377633  1
  N  N19  1  0.997011  0.672759  0.122060  1
  N  N20  1  0.675749  0.002989  0.122060  1
  N  N21  1  0.673285  0.998848  0.377633  1
  N  N22  1  0.997011  0.324251  0.877940  1
  N  N23  1  0.001152  0.326715  0.622367  1
