# generated using pymatgen
data_Hf3Ga3IrRhAu
_symmetry_space_group_name_H-M   'P 1'
_cell_length_a   7.27681600
_cell_length_b   7.27681505
_cell_length_c   3.44472600
_cell_angle_alpha   90.00000000
_cell_angle_beta   90.00000000
_cell_angle_gamma   119.99999521
_symmetry_Int_Tables_number   1
_chemical_formula_structural   Hf3Ga3IrRhAu
_chemical_formula_sum   'Hf3 Ga3 Ir1 Rh1 Au1'
_cell_volume   157.96761689
_cell_formula_units_Z   1
loop_
 _symmetry_equiv_pos_site_id
 _symmetry_equiv_pos_as_xyz
  1  'x, y, z'
loop_
 _atom_site_type_symbol
 _atom_site_label
 _atom_site_symmetry_multiplicity
 _atom_site_fract_x
 _atom_site_fract_y
 _atom_site_fract_z
 _atom_site_occupancy
  Hf  Hf0  1  0.398385  0.018032  0.500000  1
  Hf  Hf1  1  0.981968  0.380353  0.500000  1
  Hf  Hf2  1  0.619647  0.601615  0.500000  1
  Ga  Ga3  1  0.732785  0.998313  0.000000  1
  Ga  Ga4  1  0.001687  0.734471  0.000000  1
  Ga  Ga5  1  0.265529  0.267215  0.000000  1
  Ir  Ir6  1  0.666667  0.333333  0.000000  1
  Rh  Rh7  1  0.000000  0.000000  0.500000  1
  Au  Au8  1  0.333333  0.666667  0.000000  1
