# generated using pymatgen
data_Li4DyHo3Si8
_symmetry_space_group_name_H-M   'P 1'
_cell_length_a   3.78938200
_cell_length_b   7.57078746
_cell_length_c   10.13999810
_cell_angle_alpha   90.04347809
_cell_angle_beta   90.00000000
_cell_angle_gamma   90.00000000
_symmetry_Int_Tables_number   1
_chemical_formula_structural   Li4DyHo3Si8
_chemical_formula_sum   'Li4 Dy1 Ho3 Si8'
_cell_volume   290.90232356
_cell_formula_units_Z   1
loop_
 _symmetry_equiv_pos_site_id
 _symmetry_equiv_pos_as_xyz
  1  'x, y, z'
loop_
 _atom_site_type_symbol
 _atom_site_label
 _atom_site_symmetry_multiplicity
 _atom_site_fract_x
 _atom_site_fract_y
 _atom_site_fract_z
 _atom_site_occupancy
  Li  Li0  1  0.250000  0.989083  0.392478  1
  Li  Li1  1  0.750000  0.011641  0.607992  1
  Li  Li2  1  0.250000  0.488597  0.107069  1
  Li  Li3  1  0.750000  0.510278  0.893053  1
  Dy  Dy4  1  0.750000  0.360076  0.363483  1
  Ho  Ho5  1  0.250000  0.139725  0.863561  1
  Ho  Ho6  1  0.750000  0.859410  0.136212  1
  Ho  Ho7  1  0.250000  0.640629  0.636186  1
  Si  Si8  1  0.750000  0.265533  0.067595  1
  Si  Si9  1  0.750000  0.767509  0.432186  1
  Si  Si10  1  0.250000  0.233902  0.568221  1
  Si  Si11  1  0.750000  0.844938  0.820051  1
  Si  Si12  1  0.250000  0.154197  0.179944  1
  Si  Si13  1  0.750000  0.345747  0.680215  1
  Si  Si14  1  0.250000  0.655844  0.319635  1
  Si  Si15  1  0.250000  0.732893  0.932121  1
