# generated using pymatgen
data_Bi24PtRh5Br4
_symmetry_space_group_name_H-M   'P 1'
_cell_length_a   18.35343976
_cell_length_b   16.66960469
_cell_length_c   9.31467865
_cell_angle_alpha   84.73357248
_cell_angle_beta   64.69891728
_cell_angle_gamma   30.14127105
_symmetry_Int_Tables_number   1
_chemical_formula_structural   Bi24PtRh5Br4
_chemical_formula_sum   'Bi24 Pt1 Rh5 Br4'
_cell_volume   1023.18944784
_cell_formula_units_Z   1
loop_
 _symmetry_equiv_pos_site_id
 _symmetry_equiv_pos_as_xyz
  1  'x, y, z'
loop_
 _atom_site_type_symbol
 _atom_site_label
 _atom_site_symmetry_multiplicity
 _atom_site_fract_x
 _atom_site_fract_y
 _atom_site_fract_z
 _atom_site_occupancy
  Bi  Bi0  1  0.439087  0.453784  0.309776  1
  Bi  Bi1  1  0.366848  0.857363  0.051602  1
  Bi  Bi2  1  0.303519  0.799888  0.445875  1
  Bi  Bi3  1  0.946481  0.450112  0.804125  1
  Bi  Bi4  1  0.719264  0.056767  0.856399  1
  Bi  Bi5  1  0.796992  0.810218  0.454549  1
  Bi  Bi6  1  0.105843  0.786031  0.788331  1
  Bi  Bi7  1  0.144157  0.463969  0.461669  1
  Bi  Bi8  1  0.784880  0.107813  0.319388  1
  Bi  Bi9  1  0.192796  0.531156  0.882845  1
  Bi  Bi10  1  0.930610  0.464824  0.463024  1
  Bi  Bi11  1  0.530736  0.193233  0.393601  1
  Bi  Bi12  1  0.794365  0.309747  0.457090  1
  Bi  Bi13  1  0.394809  0.880183  0.531057  1
  Bi  Bi14  1  0.788900  0.315366  0.110349  1
  Bi  Bi15  1  0.455635  0.940253  0.792910  1
  Bi  Bi16  1  0.453008  0.439782  0.795451  1
  Bi  Bi17  1  0.057204  0.718844  0.367155  1
  Bi  Bi18  1  0.855191  0.369817  0.718943  1
  Bi  Bi19  1  0.810913  0.796216  0.940224  1
  Bi  Bi20  1  0.465120  0.142187  0.930612  1
  Bi  Bi21  1  0.883152  0.392637  0.198398  1
  Bi  Bi22  1  0.319390  0.785176  0.786976  1
  Bi  Bi23  1  0.461100  0.934634  0.139651  1
  Pt  Pt24  1  0.625000  0.625000  0.125000  1
  Rh  Rh25  1  0.752946  0.747496  0.750157  1
  Rh  Rh26  1  0.625000  0.125000  0.625000  1
  Rh  Rh27  1  0.625000  0.625000  0.625000  1
  Rh  Rh28  1  0.125000  0.625000  0.625000  1
  Rh  Rh29  1  0.497054  0.502504  0.499843  1
  Br  Br30  1  0.797976  0.203244  0.789086  1
  Br  Br31  1  0.208937  0.792862  0.204954  1
  Br  Br32  1  0.041063  0.457138  0.045046  1
  Br  Br33  1  0.452024  0.046756  0.460914  1
