# generated using pymatgen
data_Dy5Tm11In4IrPt3
_symmetry_space_group_name_H-M   'P 1'
_cell_length_a   9.58694366
_cell_length_b   9.59656885
_cell_length_c   9.59656712
_cell_angle_alpha   60.18486427
_cell_angle_beta   60.18674537
_cell_angle_gamma   60.18674115
_symmetry_Int_Tables_number   1
_chemical_formula_structural   Dy5Tm11In4IrPt3
_chemical_formula_sum   'Dy5 Tm11 In4 Ir1 Pt3'
_cell_volume   626.93665884
_cell_formula_units_Z   1
loop_
 _symmetry_equiv_pos_site_id
 _symmetry_equiv_pos_as_xyz
  1  'x, y, z'
loop_
 _atom_site_type_symbol
 _atom_site_label
 _atom_site_symmetry_multiplicity
 _atom_site_fract_x
 _atom_site_fract_y
 _atom_site_fract_z
 _atom_site_occupancy
  Dy  Dy0  1  0.811686  0.190730  0.190730  1
  Dy  Dy1  1  0.815028  0.186656  0.810359  1
  Dy  Dy2  1  0.189225  0.810767  0.188279  1
  Dy  Dy3  1  0.815028  0.810359  0.186656  1
  Dy  Dy4  1  0.189225  0.188279  0.810767  1
  Tm  Tm5  1  0.601855  0.597062  0.597062  1
  Tm  Tm6  1  0.603364  0.599877  0.198472  1
  Tm  Tm7  1  0.603364  0.198472  0.599877  1
  Tm  Tm8  1  0.194054  0.601720  0.601720  1
  Tm  Tm9  1  0.057942  0.439214  0.439214  1
  Tm  Tm10  1  0.442404  0.059233  0.059233  1
  Tm  Tm11  1  0.440049  0.059868  0.440431  1
  Tm  Tm12  1  0.056644  0.441884  0.062650  1
  Tm  Tm13  1  0.440049  0.440431  0.059868  1
  Tm  Tm14  1  0.056644  0.062650  0.441884  1
  Tm  Tm15  1  0.188715  0.811051  0.811051  1
  In  In16  1  0.833730  0.833866  0.833866  1
  In  In17  1  0.831947  0.833020  0.502545  1
  In  In18  1  0.831947  0.502545  0.833020  1
  In  In19  1  0.501015  0.832903  0.832903  1
  Ir  Ir20  1  0.824107  0.390766  0.390766  1
  Pt  Pt21  1  0.392432  0.392804  0.392804  1
  Pt  Pt22  1  0.389774  0.392410  0.823430  1
  Pt  Pt23  1  0.389774  0.823430  0.392410  1
