# generated using pymatgen
data_NaAgPS3
_symmetry_space_group_name_H-M   'P 1'
_cell_length_a   11.47629900
_cell_length_b   6.64069984
_cell_length_c   8.35087915
_cell_angle_alpha   78.70397830
_cell_angle_beta   90.00000000
_cell_angle_gamma   90.00000000
_symmetry_Int_Tables_number   1
_chemical_formula_structural   NaAgPS3
_chemical_formula_sum   'Na4 Ag4 P4 S12'
_cell_volume   624.09730784
_cell_formula_units_Z   4
loop_
 _symmetry_equiv_pos_site_id
 _symmetry_equiv_pos_as_xyz
  1  'x, y, z'
loop_
 _atom_site_type_symbol
 _atom_site_label
 _atom_site_symmetry_multiplicity
 _atom_site_fract_x
 _atom_site_fract_y
 _atom_site_fract_z
 _atom_site_occupancy
  Na  Na0  1  0.182468  0.063286  0.538775  1
  Na  Na1  1  0.682468  0.936714  0.961225  1
  Na  Na2  1  0.817532  0.936714  0.461225  1
  Na  Na3  1  0.317532  0.063286  0.038775  1
  Ag  Ag4  1  0.106749  0.586568  0.900725  1
  Ag  Ag5  1  0.606749  0.413432  0.599275  1
  Ag  Ag6  1  0.893251  0.413432  0.099275  1
  Ag  Ag7  1  0.393251  0.586568  0.400725  1
  P  P8  1  0.491292  0.910865  0.633666  1
  P  P9  1  0.991292  0.089135  0.866334  1
  P  P10  1  0.508708  0.089135  0.366334  1
  P  P11  1  0.008708  0.910865  0.133666  1
  S  S12  1  0.343983  0.737169  0.648272  1
  S  S13  1  0.843983  0.262831  0.851728  1
  S  S14  1  0.656017  0.262831  0.351728  1
  S  S15  1  0.156017  0.737169  0.148272  1
  S  S16  1  0.482775  0.130388  0.772644  1
  S  S17  1  0.982775  0.869612  0.727356  1
  S  S18  1  0.517225  0.869612  0.227356  1
  S  S19  1  0.017225  0.130388  0.272644  1
  S  S20  1  0.642834  0.743767  0.686211  1
  S  S21  1  0.142834  0.256233  0.813789  1
  S  S22  1  0.357166  0.256233  0.313789  1
  S  S23  1  0.857166  0.743767  0.186211  1
