# generated using pymatgen
data_SmSi4(RuRh)3
_symmetry_space_group_name_H-M   'P 1'
_cell_length_a   7.02236400
_cell_length_b   7.02236433
_cell_length_c   3.82424700
_cell_angle_alpha   90.00000000
_cell_angle_beta   90.00000000
_cell_angle_gamma   119.99999844
_symmetry_Int_Tables_number   1
_chemical_formula_structural   SmSi4(RuRh)3
_chemical_formula_sum   'Sm1 Si4 Ru3 Rh3'
_cell_volume   163.32146534
_cell_formula_units_Z   1
loop_
 _symmetry_equiv_pos_site_id
 _symmetry_equiv_pos_as_xyz
  1  'x, y, z'
loop_
 _atom_site_type_symbol
 _atom_site_label
 _atom_site_symmetry_multiplicity
 _atom_site_fract_x
 _atom_site_fract_y
 _atom_site_fract_z
 _atom_site_occupancy
  Sm  Sm0  1  0.000000  0.000000  0.000000  1
  Si  Si1  1  0.333333  0.666666  0.000000  1
  Si  Si2  1  0.403152  0.201577  0.500000  1
  Si  Si3  1  0.798424  0.201577  0.500000  1
  Si  Si4  1  0.798424  0.596847  0.500000  1
  Ru  Ru5  1  0.534679  0.069356  0.000000  1
  Ru  Ru6  1  0.930643  0.465322  0.000000  1
  Ru  Ru7  1  0.534678  0.465322  0.000000  1
  Rh  Rh8  1  0.199391  0.398781  0.500000  1
  Rh  Rh9  1  0.199391  0.800610  0.500000  1
  Rh  Rh10  1  0.601219  0.800610  0.500000  1
