# generated using pymatgen
data_Ba3MnB5PO14
_symmetry_space_group_name_H-M   'P 1'
_cell_length_a   7.24111400
_cell_length_b   8.31375600
_cell_length_c   10.55797200
_cell_angle_alpha   90.00000000
_cell_angle_beta   90.00000000
_cell_angle_gamma   90.00000000
_symmetry_Int_Tables_number   1
_chemical_formula_structural   Ba3MnB5PO14
_chemical_formula_sum   'Ba6 Mn2 B10 P2 O28'
_cell_volume   635.59894109
_cell_formula_units_Z   2
loop_
 _symmetry_equiv_pos_site_id
 _symmetry_equiv_pos_as_xyz
  1  'x, y, z'
loop_
 _atom_site_type_symbol
 _atom_site_label
 _atom_site_symmetry_multiplicity
 _atom_site_fract_x
 _atom_site_fract_y
 _atom_site_fract_z
 _atom_site_occupancy
  Ba  Ba0  1  0.562794  0.438239  0.728600  1
  Ba  Ba1  1  0.562794  0.438239  0.271400  1
  Ba  Ba2  1  0.437206  0.938239  0.771400  1
  Ba  Ba3  1  0.437206  0.938239  0.228600  1
  Ba  Ba4  1  0.973465  0.227626  0.500000  1
  Ba  Ba5  1  0.026535  0.727626  0.000000  1
  Mn  Mn6  1  0.249437  0.331182  0.000000  1
  Mn  Mn7  1  0.750563  0.831182  0.500000  1
  B  B8  1  0.049556  0.428593  0.761668  1
  B  B9  1  0.049556  0.428593  0.238332  1
  B  B10  1  0.950444  0.928593  0.738332  1
  B  B11  1  0.950444  0.928593  0.261668  1
  B  B12  1  0.900694  0.176484  0.878112  1
  B  B13  1  0.900694  0.176484  0.121888  1
  B  B14  1  0.099306  0.676484  0.621888  1
  B  B15  1  0.099306  0.676484  0.378112  1
  B  B16  1  0.601428  0.153304  0.000000  1
  B  B17  1  0.398572  0.653304  0.500000  1
  P  P18  1  0.437671  0.159988  0.500000  1
  P  P19  1  0.562329  0.659988  0.000000  1
  O  O20  1  0.323653  0.199317  0.621833  1
  O  O21  1  0.323653  0.199317  0.378167  1
  O  O22  1  0.676347  0.699317  0.878167  1
  O  O23  1  0.676347  0.699317  0.121833  1
  O  O24  1  0.971199  0.234622  0.000000  1
  O  O25  1  0.028801  0.734622  0.500000  1
  O  O26  1  0.305372  0.657370  0.615084  1
  O  O27  1  0.305372  0.657370  0.384916  1
  O  O28  1  0.694628  0.157370  0.884916  1
  O  O29  1  0.694628  0.157370  0.115084  1
  O  O30  1  0.612772  0.268548  0.500000  1
  O  O31  1  0.387228  0.768548  0.000000  1
  O  O32  1  0.415271  0.129258  0.000000  1
  O  O33  1  0.584729  0.629258  0.500000  1
  O  O34  1  0.483515  0.977407  0.500000  1
  O  O35  1  0.516485  0.477407  0.000000  1
  O  O36  1  0.186015  0.467425  0.842941  1
  O  O37  1  0.186015  0.467425  0.157059  1
  O  O38  1  0.813985  0.967425  0.657059  1
  O  O39  1  0.813985  0.967425  0.342941  1
  O  O40  1  0.929906  0.296259  0.773760  1
  O  O41  1  0.929906  0.296259  0.226240  1
  O  O42  1  0.070094  0.796259  0.726240  1
  O  O43  1  0.070094  0.796259  0.273760  1
  O  O44  1  0.008913  0.519710  0.653480  1
  O  O45  1  0.008913  0.519710  0.346520  1
  O  O46  1  0.991087  0.019710  0.846520  1
  O  O47  1  0.991087  0.019710  0.153480  1
