# generated using pymatgen
data_Dy4Tm7(Lu3Bi4)3
_symmetry_space_group_name_H-M   'P 1'
_cell_length_a   8.16573057
_cell_length_b   9.42552927
_cell_length_c   11.85551700
_cell_angle_alpha   89.98950801
_cell_angle_beta   89.97866248
_cell_angle_gamma   90.00876170
_symmetry_Int_Tables_number   1
_chemical_formula_structural   Dy4Tm7(Lu3Bi4)3
_chemical_formula_sum   'Dy4 Tm7 Lu9 Bi12'
_cell_volume   912.47557353
_cell_formula_units_Z   1
loop_
 _symmetry_equiv_pos_site_id
 _symmetry_equiv_pos_as_xyz
  1  'x, y, z'
loop_
 _atom_site_type_symbol
 _atom_site_label
 _atom_site_symmetry_multiplicity
 _atom_site_fract_x
 _atom_site_fract_y
 _atom_site_fract_z
 _atom_site_occupancy
  Dy  Dy0  1  0.313247  0.250071  0.217426  1
  Dy  Dy1  1  0.813202  0.250026  0.282749  1
  Dy  Dy2  1  0.686814  0.750049  0.782631  1
  Dy  Dy3  1  0.186827  0.749951  0.717371  1
  Tm  Tm4  1  0.352471  0.750026  0.217802  1
  Tm  Tm5  1  0.852496  0.750046  0.282209  1
  Tm  Tm6  1  0.647723  0.250188  0.782114  1
  Tm  Tm7  1  0.147461  0.250079  0.717712  1
  Tm  Tm8  1  0.691821  0.566594  0.059171  1
  Tm  Tm9  1  0.191772  0.933356  0.440866  1
  Tm  Tm10  1  0.308221  0.066611  0.940851  1
  Lu  Lu11  1  0.808109  0.432950  0.559144  1
  Lu  Lu12  1  0.308219  0.433003  0.940870  1
  Lu  Lu13  1  0.808194  0.067086  0.559148  1
  Lu  Lu14  1  0.691739  0.932972  0.059112  1
  Lu  Lu15  1  0.191844  0.567005  0.440829  1
  Lu  Lu16  1  0.477825  0.250058  0.489297  1
  Lu  Lu17  1  0.977576  0.250037  0.010695  1
  Lu  Lu18  1  0.522491  0.749932  0.510740  1
  Lu  Lu19  1  0.022338  0.750125  0.989268  1
  Bi  Bi20  1  0.402354  0.749552  0.958146  1
  Bi  Bi21  1  0.902183  0.749787  0.541959  1
  Bi  Bi22  1  0.597637  0.249538  0.041830  1
  Bi  Bi23  1  0.097498  0.250631  0.458233  1
  Bi  Bi24  1  0.565346  0.995208  0.325824  1
  Bi  Bi25  1  0.065253  0.504882  0.174222  1
  Bi  Bi26  1  0.434756  0.495173  0.674140  1
  Bi  Bi27  1  0.934700  0.004907  0.825754  1
  Bi  Bi28  1  0.434693  0.004833  0.674157  1
  Bi  Bi29  1  0.934673  0.495235  0.825713  1
  Bi  Bi30  1  0.565219  0.504844  0.325824  1
  Bi  Bi31  1  0.065296  0.995243  0.174192  1
