# generated using pymatgen
data_TbNd2(CuSn)4
_symmetry_space_group_name_H-M   'P 1'
_cell_length_a   8.56652294
_cell_length_b   8.56652190
_cell_length_c   8.56652197
_cell_angle_alpha   148.94757652
_cell_angle_beta   132.06423031
_cell_angle_gamma   58.22000827
_symmetry_Int_Tables_number   1
_chemical_formula_structural   TbNd2(CuSn)4
_chemical_formula_sum   'Tb1 Nd2 Cu4 Sn4'
_cell_volume   238.89683937
_cell_formula_units_Z   1
loop_
 _symmetry_equiv_pos_site_id
 _symmetry_equiv_pos_as_xyz
  1  'x, y, z'
loop_
 _atom_site_type_symbol
 _atom_site_label
 _atom_site_symmetry_multiplicity
 _atom_site_fract_x
 _atom_site_fract_y
 _atom_site_fract_z
 _atom_site_occupancy
  Tb  Tb0  1  0.500000  0.000000  0.500000  1
  Nd  Nd1  1  0.132591  0.132591  0.000000  1
  Nd  Nd2  1  0.867409  0.867409  0.000000  1
  Cu  Cu3  1  0.852579  0.668389  0.184190  1
  Cu  Cu4  1  0.484198  0.668389  0.815810  1
  Cu  Cu5  1  0.515802  0.331611  0.184190  1
  Cu  Cu6  1  0.147421  0.331611  0.815810  1
  Sn  Sn7  1  0.795044  0.500000  0.295044  1
  Sn  Sn8  1  0.204956  0.500000  0.704956  1
  Sn  Sn9  1  0.714983  0.214983  0.500000  1
  Sn  Sn10  1  0.285017  0.785017  0.500000  1
