# generated using pymatgen
data_Ho3Th3Si4
_symmetry_space_group_name_H-M   'P 1'
_cell_length_a   7.60680707
_cell_length_b   7.60680707
_cell_length_c   4.23601500
_cell_angle_alpha   90.00000000
_cell_angle_beta   90.00000000
_cell_angle_gamma   90.63029533
_symmetry_Int_Tables_number   1
_chemical_formula_structural   Ho3Th3Si4
_chemical_formula_sum   'Ho3 Th3 Si4'
_cell_volume   245.09588126
_cell_formula_units_Z   1
loop_
 _symmetry_equiv_pos_site_id
 _symmetry_equiv_pos_as_xyz
  1  'x, y, z'
loop_
 _atom_site_type_symbol
 _atom_site_label
 _atom_site_symmetry_multiplicity
 _atom_site_fract_x
 _atom_site_fract_y
 _atom_site_fract_z
 _atom_site_occupancy
  Ho  Ho0  1  0.500931  0.501403  0.000000  1
  Ho  Ho1  1  0.001403  0.000931  0.000000  1
  Ho  Ho2  1  0.676444  0.176444  0.500000  1
  Th  Th3  1  0.322373  0.822373  0.500000  1
  Th  Th4  1  0.178551  0.319674  0.500000  1
  Th  Th5  1  0.819674  0.678551  0.500000  1
  Si  Si6  1  0.116100  0.616100  0.000000  1
  Si  Si7  1  0.879797  0.379797  0.000000  1
  Si  Si8  1  0.618180  0.886547  0.000000  1
  Si  Si9  1  0.386547  0.118180  0.000000  1
