# generated using pymatgen
data_Nd2CoP4Ru5
_symmetry_space_group_name_H-M   'P 1'
_cell_length_a   11.10519499
_cell_length_b   3.94756200
_cell_length_c   12.78547027
_cell_angle_alpha   90.00000000
_cell_angle_beta   89.75585169
_cell_angle_gamma   90.00000000
_symmetry_Int_Tables_number   1
_chemical_formula_structural   Nd2CoP4Ru5
_chemical_formula_sum   'Nd6 Co3 P12 Ru15'
_cell_volume   560.49005605
_cell_formula_units_Z   3
loop_
 _symmetry_equiv_pos_site_id
 _symmetry_equiv_pos_as_xyz
  1  'x, y, z'
loop_
 _atom_site_type_symbol
 _atom_site_label
 _atom_site_symmetry_multiplicity
 _atom_site_fract_x
 _atom_site_fract_y
 _atom_site_fract_z
 _atom_site_occupancy
  Nd  Nd0  1  0.068121  0.749999  0.204303  1
  Nd  Nd1  1  0.428734  0.749999  0.203665  1
  Nd  Nd2  1  0.250427  0.749999  0.474158  1
  Nd  Nd3  1  0.749854  0.249999  0.526331  1
  Nd  Nd4  1  0.571286  0.249999  0.795962  1
  Nd  Nd5  1  0.929672  0.249999  0.795101  1
  Co  Co6  1  0.245615  0.749999  0.010306  1
  Co  Co7  1  0.756256  0.249999  0.988707  1
  Co  Co8  1  0.915502  0.749999  0.990215  1
  P  P9  1  0.600019  0.249999  0.099596  1
  P  P10  1  0.898304  0.249999  0.104411  1
  P  P11  1  0.246562  0.249999  0.111619  1
  P  P12  1  0.751047  0.749999  0.334497  1
  P  P13  1  0.052253  0.249999  0.384829  1
  P  P14  1  0.449249  0.249999  0.382888  1
  P  P15  1  0.551520  0.749999  0.615628  1
  P  P16  1  0.948962  0.749999  0.616046  1
  P  P17  1  0.249459  0.249999  0.665717  1
  P  P18  1  0.755533  0.749999  0.888976  1
  P  P19  1  0.094746  0.749999  0.899629  1
  P  P20  1  0.399861  0.749999  0.899718  1
  Ru  Ru21  1  0.075780  0.249999  0.007220  1
  Ru  Ru22  1  0.414065  0.249999  0.005963  1
  Ru  Ru23  1  0.759486  0.749999  0.151233  1
  Ru  Ru24  1  0.630188  0.249999  0.281651  1
  Ru  Ru25  1  0.871333  0.249999  0.286622  1
  Ru  Ru26  1  0.249753  0.249999  0.301214  1
  Ru  Ru27  1  0.551547  0.749999  0.428366  1
  Ru  Ru28  1  0.949969  0.749999  0.430541  1
  Ru  Ru29  1  0.051468  0.249999  0.570769  1
  Ru  Ru30  1  0.449918  0.249999  0.570039  1
  Ru  Ru31  1  0.750218  0.749999  0.699329  1
  Ru  Ru32  1  0.128281  0.749999  0.716816  1
  Ru  Ru33  1  0.370767  0.749999  0.716828  1
  Ru  Ru34  1  0.246694  0.249999  0.847182  1
  Ru  Ru35  1  0.587550  0.749999  0.993926  1
