# generated using pymatgen
data_NdHoCo9Mo3P7
_symmetry_space_group_name_H-M   'P 1'
_cell_length_a   3.75004600
_cell_length_b   9.15928829
_cell_length_c   9.15928800
_cell_angle_alpha   119.99999173
_cell_angle_beta   90.00000000
_cell_angle_gamma   90.00000000
_symmetry_Int_Tables_number   1
_chemical_formula_structural   NdHoCo9Mo3P7
_chemical_formula_sum   'Nd1 Ho1 Co9 Mo3 P7'
_cell_volume   272.45244308
_cell_formula_units_Z   1
loop_
 _symmetry_equiv_pos_site_id
 _symmetry_equiv_pos_as_xyz
  1  'x, y, z'
loop_
 _atom_site_type_symbol
 _atom_site_label
 _atom_site_symmetry_multiplicity
 _atom_site_fract_x
 _atom_site_fract_y
 _atom_site_fract_z
 _atom_site_occupancy
  Nd  Nd0  1  0.500000  0.333333  0.666667  1
  Ho  Ho1  1  0.000000  0.666667  0.333333  1
  Co  Co2  1  0.000000  0.569746  0.941771  1
  Co  Co3  1  0.000000  0.372025  0.430254  1
  Co  Co4  1  0.000000  0.058229  0.627975  1
  Co  Co5  1  0.000000  0.878385  0.158236  1
  Co  Co6  1  0.000000  0.279851  0.121615  1
  Co  Co7  1  0.000000  0.841764  0.720149  1
  Co  Co8  1  0.500000  0.945840  0.383630  1
  Co  Co9  1  0.500000  0.437789  0.054160  1
  Co  Co10  1  0.500000  0.616370  0.562211  1
  Mo  Mo11  1  0.500000  0.780498  0.903569  1
  Mo  Mo12  1  0.500000  0.123071  0.219502  1
  Mo  Mo13  1  0.500000  0.096431  0.876929  1
  P  P14  1  0.000000  0.000000  0.000000  1
  P  P15  1  0.500000  0.708250  0.118081  1
  P  P16  1  0.500000  0.409833  0.291750  1
  P  P17  1  0.500000  0.881919  0.590167  1
  P  P18  1  0.000000  0.590858  0.697773  1
  P  P19  1  0.000000  0.106916  0.409142  1
  P  P20  1  0.000000  0.302227  0.893084  1
