# generated using pymatgen
data_Ba3LaScSe6
_symmetry_space_group_name_H-M   'P 1'
_cell_length_a   8.82495198
_cell_length_b   8.82495121
_cell_length_c   8.82495198
_cell_angle_alpha   91.77670441
_cell_angle_beta   91.77670177
_cell_angle_gamma   91.77669700
_symmetry_Int_Tables_number   1
_chemical_formula_structural   Ba3LaScSe6
_chemical_formula_sum   'Ba6 La2 Sc2 Se12'
_cell_volume   686.27301068
_cell_formula_units_Z   2
loop_
 _symmetry_equiv_pos_site_id
 _symmetry_equiv_pos_as_xyz
  1  'x, y, z'
loop_
 _atom_site_type_symbol
 _atom_site_label
 _atom_site_symmetry_multiplicity
 _atom_site_fract_x
 _atom_site_fract_y
 _atom_site_fract_z
 _atom_site_occupancy
  Ba  Ba0  1  0.367474  0.750000  0.132526  1
  Ba  Ba1  1  0.132526  0.367474  0.750000  1
  Ba  Ba2  1  0.750000  0.132526  0.367474  1
  Ba  Ba3  1  0.632526  0.250000  0.867474  1
  Ba  Ba4  1  0.867474  0.632526  0.250000  1
  Ba  Ba5  1  0.250000  0.867474  0.632526  1
  La  La6  1  0.250000  0.250000  0.250000  1
  La  La7  1  0.750000  0.750000  0.750000  1
  Sc  Sc8  1  0.500000  0.500000  0.500000  1
  Sc  Sc9  1  0.000000  0.000000  0.000000  1
  Se  Se10  1  0.545558  0.417188  0.202359  1
  Se  Se11  1  0.202359  0.545558  0.417188  1
  Se  Se12  1  0.417188  0.202359  0.545558  1
  Se  Se13  1  0.954442  0.297641  0.082812  1
  Se  Se14  1  0.082812  0.954442  0.297641  1
  Se  Se15  1  0.297641  0.082812  0.954442  1
  Se  Se16  1  0.454442  0.582812  0.797641  1
  Se  Se17  1  0.797641  0.454442  0.582812  1
  Se  Se18  1  0.582812  0.797641  0.454442  1
  Se  Se19  1  0.045558  0.702359  0.917188  1
  Se  Se20  1  0.702359  0.917188  0.045558  1
  Se  Se21  1  0.917188  0.045558  0.702359  1
