# generated using pymatgen
data_Tb2YAl3Ga2Ir
_symmetry_space_group_name_H-M   'P 1'
_cell_length_a   6.99486054
_cell_length_b   6.99486125
_cell_length_c   4.29373200
_cell_angle_alpha   90.00000000
_cell_angle_beta   90.00000000
_cell_angle_gamma   119.92457541
_symmetry_Int_Tables_number   1
_chemical_formula_structural   Tb2YAl3Ga2Ir
_chemical_formula_sum   'Tb2 Y1 Al3 Ga2 Ir1'
_cell_volume   182.07625179
_cell_formula_units_Z   1
loop_
 _symmetry_equiv_pos_site_id
 _symmetry_equiv_pos_as_xyz
  1  'x, y, z'
loop_
 _atom_site_type_symbol
 _atom_site_label
 _atom_site_symmetry_multiplicity
 _atom_site_fract_x
 _atom_site_fract_y
 _atom_site_fract_z
 _atom_site_occupancy
  Tb  Tb0  1  0.415605  0.000200  0.000000  1
  Tb  Tb1  1  0.000200  0.415605  0.000000  1
  Y  Y2  1  0.583782  0.583782  0.000000  1
  Al  Al3  1  0.771010  0.999652  0.500001  1
  Al  Al4  1  0.229043  0.229043  0.500001  1
  Al  Al5  1  0.999652  0.771010  0.500001  1
  Ga  Ga6  1  0.666601  0.333293  0.500001  1
  Ga  Ga7  1  0.333293  0.666601  0.500001  1
  Ir  Ir8  1  0.000814  0.000814  0.000000  1
