# generated using pymatgen
data_La19PrSi15S
_symmetry_space_group_name_H-M   'P 1'
_cell_length_a   8.03454080
_cell_length_b   8.09021155
_cell_length_c   15.51439700
_cell_angle_alpha   89.71028375
_cell_angle_beta   84.88521437
_cell_angle_gamma   89.98405405
_symmetry_Int_Tables_number   1
_chemical_formula_structural   La19PrSi15S
_chemical_formula_sum   'La19 Pr1 Si15 S1'
_cell_volume   1004.42498578
_cell_formula_units_Z   1
loop_
 _symmetry_equiv_pos_site_id
 _symmetry_equiv_pos_as_xyz
  1  'x, y, z'
loop_
 _atom_site_type_symbol
 _atom_site_label
 _atom_site_symmetry_multiplicity
 _atom_site_fract_x
 _atom_site_fract_y
 _atom_site_fract_z
 _atom_site_occupancy
  La  La0  1  0.165978  0.509930  0.745309  1
  La  La1  1  0.864019  0.343691  0.610659  1
  La  La2  1  0.463907  0.691690  0.895124  1
  La  La3  1  0.963367  0.809535  0.895258  1
  La  La4  1  0.181427  0.678348  0.120240  1
  La  La5  1  0.679973  0.816820  0.120775  1
  La  La6  1  0.321046  0.182764  0.880627  1
  La  La7  1  0.130593  0.660905  0.387083  1
  La  La8  1  0.036342  0.188521  0.105293  1
  La  La9  1  0.366519  0.163927  0.615019  1
  La  La10  1  0.832174  0.494127  0.247662  1
  La  La11  1  0.330911  0.001714  0.253855  1
  La  La12  1  0.493291  0.315881  0.397991  1
  La  La13  1  0.819732  0.320908  0.879442  1
  La  La14  1  0.012468  0.831727  0.606642  1
  La  La15  1  0.499625  0.688930  0.605450  1
  La  La16  1  0.993118  0.177482  0.396437  1
  La  La17  1  0.634240  0.830919  0.386277  1
  La  La18  1  0.668151  0.996631  0.746014  1
  Pr  Pr19  1  0.538112  0.305870  0.107071  1
  Si  Si20  1  0.449182  0.597531  0.252046  1
  Si  Si21  1  0.227822  0.376995  0.249557  1
  Si  Si22  1  0.550830  0.402484  0.749704  1
  Si  Si23  1  0.632510  0.025676  0.958273  1
  Si  Si24  1  0.049403  0.105628  0.751318  1
  Si  Si25  1  0.771863  0.622051  0.751010  1
  Si  Si26  1  0.725303  0.118468  0.250006  1
  Si  Si27  1  0.288297  0.968610  0.453933  1
  Si  Si28  1  0.948954  0.897754  0.250756  1
  Si  Si29  1  0.370243  0.976931  0.043882  1
  Si  Si30  1  0.719034  0.029758  0.543079  1
  Si  Si31  1  0.130218  0.475997  0.957096  1
  Si  Si32  1  0.217281  0.472589  0.545323  1
  Si  Si33  1  0.868134  0.521338  0.043710  1
  Si  Si34  1  0.273162  0.882366  0.752902  1
  S  S35  1  0.782767  0.515503  0.445174  1
