# generated using pymatgen
data_Tb3Ge4Rh7
_symmetry_space_group_name_H-M   'P 1'
_cell_length_a   8.00674077
_cell_length_b   8.00674078
_cell_length_c   9.38792835
_cell_angle_alpha   56.44136669
_cell_angle_beta   56.44136659
_cell_angle_gamma   29.48058018
_symmetry_Int_Tables_number   1
_chemical_formula_structural   Tb3Ge4Rh7
_chemical_formula_sum   'Tb3 Ge4 Rh7'
_cell_volume   243.02718249
_cell_formula_units_Z   1
loop_
 _symmetry_equiv_pos_site_id
 _symmetry_equiv_pos_as_xyz
  1  'x, y, z'
loop_
 _atom_site_type_symbol
 _atom_site_label
 _atom_site_symmetry_multiplicity
 _atom_site_fract_x
 _atom_site_fract_y
 _atom_site_fract_z
 _atom_site_occupancy
  Tb  Tb0  1  0.666373  0.666373  0.339619  1
  Tb  Tb1  1  0.333627  0.333627  0.660381  1
  Tb  Tb2  1  0.000000  0.000000  0.000000  1
  Ge  Ge3  1  0.333350  0.333350  0.275735  1
  Ge  Ge4  1  0.666650  0.666650  0.724265  1
  Ge  Ge5  1  0.888177  0.888177  0.835369  1
  Ge  Ge6  1  0.111823  0.111823  0.164631  1
  Rh  Rh7  1  0.304601  0.304601  0.042116  1
  Rh  Rh8  1  0.695399  0.695399  0.957884  1
  Rh  Rh9  1  0.506042  0.506042  0.725166  1
  Rh  Rh10  1  0.838198  0.838198  0.422501  1
  Rh  Rh11  1  0.493958  0.493958  0.274834  1
  Rh  Rh12  1  0.161802  0.161802  0.577499  1
  Rh  Rh13  1  0.000000  0.000000  0.500000  1
