# generated using pymatgen
data_Eu3HoTc3B16W
_symmetry_space_group_name_H-M   'P 1'
_cell_length_a   3.63006800
_cell_length_b   6.07708438
_cell_length_c   11.76454825
_cell_angle_alpha   90.10420439
_cell_angle_beta   90.00000000
_cell_angle_gamma   90.00000000
_symmetry_Int_Tables_number   1
_chemical_formula_structural   Eu3HoTc3B16W
_chemical_formula_sum   'Eu3 Ho1 Tc3 B16 W1'
_cell_volume   259.52820553
_cell_formula_units_Z   1
loop_
 _symmetry_equiv_pos_site_id
 _symmetry_equiv_pos_as_xyz
  1  'x, y, z'
loop_
 _atom_site_type_symbol
 _atom_site_label
 _atom_site_symmetry_multiplicity
 _atom_site_fract_x
 _atom_site_fract_y
 _atom_site_fract_z
 _atom_site_occupancy
  Eu  Eu0  1  0.000000  0.124420  0.151827  1
  Eu  Eu1  1  0.000000  0.873873  0.848670  1
  Eu  Eu2  1  0.000000  0.628442  0.349077  1
  Ho  Ho3  1  0.000000  0.372282  0.649097  1
  Tc  Tc4  1  0.000000  0.131911  0.417900  1
  Tc  Tc5  1  0.000000  0.869849  0.584139  1
  Tc  Tc6  1  0.000000  0.627008  0.083543  1
  B  B7  1  0.500000  0.476063  0.191478  1
  B  B8  1  0.500000  0.525763  0.805645  1
  B  B9  1  0.500000  0.977692  0.310604  1
  B  B10  1  0.500000  0.025110  0.690339  1
  B  B11  1  0.500000  0.282799  0.316903  1
  B  B12  1  0.500000  0.716177  0.683314  1
  B  B13  1  0.500000  0.780965  0.183747  1
  B  B14  1  0.500000  0.214498  0.811801  1
  B  B15  1  0.500000  0.363921  0.469365  1
  B  B16  1  0.500000  0.636950  0.532920  1
  B  B17  1  0.500000  0.862015  0.032783  1
  B  B18  1  0.500000  0.134406  0.968240  1
  B  B19  1  0.500000  0.387331  0.047731  1
  B  B20  1  0.500000  0.615037  0.953832  1
  B  B21  1  0.500000  0.888774  0.454551  1
  B  B22  1  0.500000  0.113896  0.547479  1
  W  W23  1  0.000000  0.370819  0.915015  1
