# generated using pymatgen
data_Tm12Fe4BiAu
_symmetry_space_group_name_H-M   'P 1'
_cell_length_a   8.27936816
_cell_length_b   8.27936815
_cell_length_c   8.27936800
_cell_angle_alpha   110.51956635
_cell_angle_beta   111.31479171
_cell_angle_gamma   106.61749381
_symmetry_Int_Tables_number   1
_chemical_formula_structural   Tm12Fe4BiAu
_chemical_formula_sum   'Tm12 Fe4 Bi1 Au1'
_cell_volume   436.05770466
_cell_formula_units_Z   1
loop_
 _symmetry_equiv_pos_site_id
 _symmetry_equiv_pos_as_xyz
  1  'x, y, z'
loop_
 _atom_site_type_symbol
 _atom_site_label
 _atom_site_symmetry_multiplicity
 _atom_site_fract_x
 _atom_site_fract_y
 _atom_site_fract_z
 _atom_site_occupancy
  Tm  Tm0  1  0.289432  0.185959  0.475392  1
  Tm  Tm1  1  0.710568  0.814041  0.524608  1
  Tm  Tm2  1  0.289432  0.814041  0.103472  1
  Tm  Tm3  1  0.710568  0.185959  0.896528  1
  Tm  Tm4  1  0.614404  0.310429  0.303975  1
  Tm  Tm5  1  0.385596  0.689571  0.696025  1
  Tm  Tm6  1  0.006453  0.310429  0.696025  1
  Tm  Tm7  1  0.993547  0.689571  0.303975  1
  Tm  Tm8  1  0.215991  0.427433  0.211446  1
  Tm  Tm9  1  0.784009  0.572567  0.788554  1
  Tm  Tm10  1  0.215991  0.004545  0.788554  1
  Tm  Tm11  1  0.784009  0.995455  0.211446  1
  Fe  Fe12  1  0.000000  0.386136  0.386136  1
  Fe  Fe13  1  0.000000  0.613864  0.613864  1
  Fe  Fe14  1  0.391979  0.891979  0.500000  1
  Fe  Fe15  1  0.608021  0.108021  0.500000  1
  Bi  Bi16  1  0.500000  0.500000  0.000000  1
  Au  Au17  1  0.000000  0.000000  0.000000  1
