# generated using pymatgen
data_Dy2Er10GaCo5
_symmetry_space_group_name_H-M   'P 1'
_cell_length_a   8.15248500
_cell_length_b   8.15253319
_cell_length_c   8.14753916
_cell_angle_alpha   110.80371665
_cell_angle_beta   110.74905605
_cell_angle_gamma   106.91683349
_symmetry_Int_Tables_number   1
_chemical_formula_structural   Dy2Er10GaCo5
_chemical_formula_sum   'Dy2 Er10 Ga1 Co5'
_cell_volume   416.10144013
_cell_formula_units_Z   1
loop_
 _symmetry_equiv_pos_site_id
 _symmetry_equiv_pos_as_xyz
  1  'x, y, z'
loop_
 _atom_site_type_symbol
 _atom_site_label
 _atom_site_symmetry_multiplicity
 _atom_site_fract_x
 _atom_site_fract_y
 _atom_site_fract_z
 _atom_site_occupancy
  Dy  Dy0  1  0.288775  0.185901  0.474669  1
  Dy  Dy1  1  0.711225  0.814099  0.525331  1
  Er  Er2  1  0.288459  0.814012  0.102497  1
  Er  Er3  1  0.711541  0.185988  0.897503  1
  Er  Er4  1  0.619121  0.315878  0.302706  1
  Er  Er5  1  0.380879  0.684122  0.697294  1
  Er  Er6  1  0.013191  0.316420  0.697316  1
  Er  Er7  1  0.986809  0.683580  0.302684  1
  Er  Er8  1  0.215462  0.407206  0.191020  1
  Er  Er9  1  0.784538  0.592794  0.808980  1
  Er  Er10  1  0.216195  0.024466  0.808996  1
  Er  Er11  1  0.783805  0.975534  0.191004  1
  Ga  Ga12  1  0.500000  0.500000  0.000000  1
  Co  Co13  1  0.999762  0.375867  0.375635  1
  Co  Co14  1  0.000238  0.624133  0.624365  1
  Co  Co15  1  0.386188  0.886192  0.500002  1
  Co  Co16  1  0.613812  0.113808  0.499998  1
  Co  Co17  1  0.000000  0.000000  0.000000  1
