# generated using pymatgen
data_Y5P12Ru18Pt
_symmetry_space_group_name_H-M   'P 1'
_cell_length_a   12.58663838
_cell_length_b   12.48501635
_cell_length_c   3.99440600
_cell_angle_alpha   90.00000000
_cell_angle_beta   90.00000000
_cell_angle_gamma   119.73327096
_symmetry_Int_Tables_number   1
_chemical_formula_structural   Y5P12Ru18Pt
_chemical_formula_sum   'Y5 P12 Ru18 Pt1'
_cell_volume   545.05799456
_cell_formula_units_Z   1
loop_
 _symmetry_equiv_pos_site_id
 _symmetry_equiv_pos_as_xyz
  1  'x, y, z'
loop_
 _atom_site_type_symbol
 _atom_site_label
 _atom_site_symmetry_multiplicity
 _atom_site_fract_x
 _atom_site_fract_y
 _atom_site_fract_z
 _atom_site_occupancy
  Y  Y0  1  0.000000  0.182574  0.500000  1
  Y  Y1  1  0.816342  0.815430  0.500000  1
  Y  Y2  1  0.183658  0.999088  0.500000  1
  Y  Y3  1  0.661311  0.329850  0.000000  1
  Y  Y4  1  0.338689  0.668540  0.000000  1
  P  P5  1  0.000000  0.811896  0.000000  1
  P  P6  1  0.183081  0.184321  0.000000  1
  P  P7  1  0.816919  0.001240  0.000000  1
  P  P8  1  0.693266  0.173178  0.500000  1
  P  P9  1  0.817971  0.519047  0.500000  1
  P  P10  1  0.474493  0.305674  0.500000  1
  P  P11  1  0.182029  0.701076  0.500000  1
  P  P12  1  0.525507  0.831181  0.500000  1
  P  P13  1  0.306734  0.479913  0.500000  1
  P  P14  1  0.000000  0.364170  0.000000  1
  P  P15  1  0.626707  0.627306  0.000000  1
  P  P16  1  0.373293  0.000599  0.000000  1
  Ru  Ru17  1  0.444239  0.446746  0.000000  1
  Ru  Ru18  1  0.555761  0.002507  0.000000  1
  Ru  Ru19  1  0.000000  0.710181  0.500000  1
  Ru  Ru20  1  0.281308  0.283589  0.500000  1
  Ru  Ru21  1  0.718692  0.002281  0.500000  1
  Ru  Ru22  1  0.807436  0.186388  0.000000  1
  Ru  Ru23  1  0.814648  0.620234  0.000000  1
  Ru  Ru24  1  0.374397  0.191302  0.000000  1
  Ru  Ru25  1  0.185352  0.805585  0.000000  1
  Ru  Ru26  1  0.625603  0.816904  0.000000  1
  Ru  Ru27  1  0.192564  0.378951  0.000000  1
  Ru  Ru28  1  0.872809  0.367558  0.500000  1
  Ru  Ru29  1  0.629844  0.508112  0.500000  1
  Ru  Ru30  1  0.492236  0.127945  0.500000  1
  Ru  Ru31  1  0.370156  0.878268  0.500000  1
  Ru  Ru32  1  0.507764  0.635708  0.500000  1
  Ru  Ru33  1  0.127191  0.494749  0.500000  1
  Ru  Ru34  1  0.000000  0.997569  0.000000  1
  Pt  Pt35  1  0.000000  0.550341  0.000000  1
