# generated using pymatgen
data_Sr12GaSn11Au12
_symmetry_space_group_name_H-M   'P 1'
_cell_length_a   23.80286134
_cell_length_b   4.89122100
_cell_length_c   8.32599713
_cell_angle_alpha   90.00000000
_cell_angle_beta   90.01958254
_cell_angle_gamma   90.00000000
_symmetry_Int_Tables_number   1
_chemical_formula_structural   Sr12GaSn11Au12
_chemical_formula_sum   'Sr12 Ga1 Sn11 Au12'
_cell_volume   969.35461856
_cell_formula_units_Z   1
loop_
 _symmetry_equiv_pos_site_id
 _symmetry_equiv_pos_as_xyz
  1  'x, y, z'
loop_
 _atom_site_type_symbol
 _atom_site_label
 _atom_site_symmetry_multiplicity
 _atom_site_fract_x
 _atom_site_fract_y
 _atom_site_fract_z
 _atom_site_occupancy
  Sr  Sr0  1  0.168478  0.750001  0.204574  1
  Sr  Sr1  1  0.834004  0.750001  0.208009  1
  Sr  Sr2  1  0.497348  0.750001  0.211449  1
  Sr  Sr3  1  0.998149  0.750001  0.287588  1
  Sr  Sr4  1  0.331802  0.750001  0.285520  1
  Sr  Sr5  1  0.666465  0.750001  0.292738  1
  Sr  Sr6  1  0.332078  0.250001  0.711068  1
  Sr  Sr7  1  0.666011  0.250001  0.708371  1
  Sr  Sr8  1  0.002405  0.250001  0.712734  1
  Sr  Sr9  1  0.501538  0.250001  0.789771  1
  Sr  Sr10  1  0.167697  0.250001  0.798056  1
  Sr  Sr11  1  0.833510  0.250001  0.792796  1
  Ga  Ga12  1  0.269601  0.250001  0.078921  1
  Sn  Sn13  1  0.395955  0.250001  0.082521  1
  Sn  Sn14  1  0.064583  0.250001  0.087055  1
  Sn  Sn15  1  0.565267  0.250001  0.414088  1
  Sn  Sn16  1  0.897903  0.250001  0.416457  1
  Sn  Sn17  1  0.769064  0.250001  0.418428  1
  Sn  Sn18  1  0.231080  0.750001  0.581624  1
  Sn  Sn19  1  0.102649  0.750001  0.583105  1
  Sn  Sn20  1  0.435047  0.750001  0.585932  1
  Sn  Sn21  1  0.934718  0.750001  0.913716  1
  Sn  Sn22  1  0.602167  0.750001  0.916710  1
  Sn  Sn23  1  0.730920  0.750001  0.918531  1
  Au  Au24  1  0.933235  0.250001  0.084138  1
  Au  Au25  1  0.593989  0.250001  0.086218  1
  Au  Au26  1  0.739295  0.250001  0.086194  1
  Au  Au27  1  0.240226  0.250001  0.401843  1
  Au  Au28  1  0.093365  0.250001  0.414144  1
  Au  Au29  1  0.432827  0.250001  0.415566  1
  Au  Au30  1  0.566628  0.750001  0.584333  1
  Au  Au31  1  0.906294  0.750001  0.585992  1
  Au  Au32  1  0.760841  0.750001  0.586367  1
  Au  Au33  1  0.261549  0.750001  0.925495  1
  Au  Au34  1  0.406349  0.750001  0.914577  1
  Au  Au35  1  0.066962  0.750001  0.915368  1
