# generated using pymatgen
data_La2Y10AlInCo4
_symmetry_space_group_name_H-M   'P 1'
_cell_length_a   8.56305492
_cell_length_b   8.33485093
_cell_length_c   8.33550725
_cell_angle_alpha   111.46767996
_cell_angle_beta   109.17547815
_cell_angle_gamma   106.76779173
_symmetry_Int_Tables_number   1
_chemical_formula_structural   La2Y10AlInCo4
_chemical_formula_sum   'La2 Y10 Al1 In1 Co4'
_cell_volume   462.96319342
_cell_formula_units_Z   1
loop_
 _symmetry_equiv_pos_site_id
 _symmetry_equiv_pos_as_xyz
  1  'x, y, z'
loop_
 _atom_site_type_symbol
 _atom_site_label
 _atom_site_symmetry_multiplicity
 _atom_site_fract_x
 _atom_site_fract_y
 _atom_site_fract_z
 _atom_site_occupancy
  La  La0  1  0.430558  0.224383  0.206353  1
  La  La1  1  0.569442  0.775617  0.793647  1
  Y  Y2  1  0.037198  0.238723  0.798485  1
  Y  Y3  1  0.962802  0.761277  0.201515  1
  Y  Y4  1  0.178511  0.283876  0.462684  1
  Y  Y5  1  0.821489  0.716124  0.537316  1
  Y  Y6  1  0.178651  0.715856  0.894695  1
  Y  Y7  1  0.821349  0.284144  0.105305  1
  Y  Y8  1  0.315771  0.638571  0.304423  1
  Y  Y9  1  0.684229  0.361429  0.695577  1
  Y  Y10  1  0.315856  0.011366  0.677189  1
  Y  Y11  1  0.684144  0.988634  0.322811  1
  Al  Al12  1  0.000000  0.000000  0.000000  1
  In  In13  1  0.500000  0.500000  0.000000  1
  Co  Co14  1  0.333399  0.003779  0.329740  1
  Co  Co15  1  0.666601  0.996221  0.670260  1
  Co  Co16  1  0.095179  0.611770  0.483460  1
  Co  Co17  1  0.904821  0.388230  0.516540  1
