# generated using pymatgen
data_GdY3Ho4(MoO6)4
_symmetry_space_group_name_H-M   'P 1'
_cell_length_a   5.39146600
_cell_length_b   7.71248572
_cell_length_c   11.45369119
_cell_angle_alpha   75.54219202
_cell_angle_beta   90.00000000
_cell_angle_gamma   90.00000000
_symmetry_Int_Tables_number   1
_chemical_formula_structural   GdY3Ho4(MoO6)4
_chemical_formula_sum   'Gd1 Y3 Ho4 Mo4 O24'
_cell_volume   461.18044856
_cell_formula_units_Z   1
loop_
 _symmetry_equiv_pos_site_id
 _symmetry_equiv_pos_as_xyz
  1  'x, y, z'
loop_
 _atom_site_type_symbol
 _atom_site_label
 _atom_site_symmetry_multiplicity
 _atom_site_fract_x
 _atom_site_fract_y
 _atom_site_fract_z
 _atom_site_occupancy
  Gd  Gd0  1  0.681391  0.500000  0.750000  1
  Y  Y1  1  0.739721  0.000000  0.750000  1
  Y  Y2  1  0.261315  0.000000  0.250000  1
  Y  Y3  1  0.319055  0.500000  0.250000  1
  Ho  Ho4  1  0.183881  0.798098  0.578065  1
  Ho  Ho5  1  0.816444  0.797439  0.078875  1
  Ho  Ho6  1  0.183881  0.201902  0.921935  1
  Ho  Ho7  1  0.816444  0.202561  0.421125  1
  Mo  Mo8  1  0.254242  0.722379  0.887119  1
  Mo  Mo9  1  0.745626  0.721611  0.386208  1
  Mo  Mo10  1  0.254242  0.277621  0.612881  1
  Mo  Mo11  1  0.745626  0.278389  0.113792  1
  O  O12  1  0.038689  0.938491  0.898153  1
  O  O13  1  0.529026  0.846070  0.930718  1
  O  O14  1  0.960788  0.938894  0.396837  1
  O  O15  1  0.461680  0.788417  0.725599  1
  O  O16  1  0.472099  0.846419  0.430624  1
  O  O17  1  0.986110  0.714566  0.769481  1
  O  O18  1  0.536889  0.786986  0.225604  1
  O  O19  1  0.849610  0.634614  0.547064  1
  O  O20  1  0.351601  0.490883  0.887571  1
  O  O21  1  0.015092  0.711766  0.269842  1
  O  O22  1  0.351601  0.509117  0.612429  1
  O  O23  1  0.849610  0.365386  0.952936  1
  O  O24  1  0.152601  0.635511  0.048704  1
  O  O25  1  0.644880  0.490681  0.386707  1
  O  O26  1  0.986110  0.285434  0.730519  1
  O  O27  1  0.644880  0.509319  0.113293  1
  O  O28  1  0.152601  0.364489  0.451296  1
  O  O29  1  0.461680  0.211583  0.774401  1
  O  O30  1  0.015092  0.288234  0.230158  1
  O  O31  1  0.529026  0.153930  0.569282  1
  O  O32  1  0.536889  0.213014  0.274396  1
  O  O33  1  0.038689  0.061509  0.601847  1
  O  O34  1  0.472099  0.153581  0.069376  1
  O  O35  1  0.960788  0.061106  0.103163  1
