# generated using pymatgen
data_Na2HgAs2O7
_symmetry_space_group_name_H-M   'P 1'
_cell_length_a   8.20009118
_cell_length_b   8.20009064
_cell_length_c   8.95365216
_cell_angle_alpha   69.73523226
_cell_angle_beta   69.73523569
_cell_angle_gamma   45.15697648
_symmetry_Int_Tables_number   1
_chemical_formula_structural   Na2HgAs2O7
_chemical_formula_sum   'Na4 Hg2 As4 O14'
_cell_volume   395.71253125
_cell_formula_units_Z   2
loop_
 _symmetry_equiv_pos_site_id
 _symmetry_equiv_pos_as_xyz
  1  'x, y, z'
loop_
 _atom_site_type_symbol
 _atom_site_label
 _atom_site_symmetry_multiplicity
 _atom_site_fract_x
 _atom_site_fract_y
 _atom_site_fract_z
 _atom_site_occupancy
  Na  Na0  1  0.919663  0.624710  0.305572  1
  Na  Na1  1  0.375290  0.080337  0.194428  1
  Na  Na2  1  0.080337  0.375290  0.694428  1
  Na  Na3  1  0.624710  0.919663  0.805572  1
  Hg  Hg4  1  0.000000  0.000000  0.500000  1
  Hg  Hg5  1  0.000000  0.000000  0.000000  1
  As  As6  1  0.465794  0.758867  0.639172  1
  As  As7  1  0.241133  0.534206  0.860828  1
  As  As8  1  0.534206  0.241133  0.360828  1
  As  As9  1  0.758867  0.465794  0.139172  1
  O  O10  1  0.481245  0.518755  0.750000  1
  O  O11  1  0.518755  0.481245  0.250000  1
  O  O12  1  0.305542  0.964061  0.760415  1
  O  O13  1  0.035939  0.694458  0.739585  1
  O  O14  1  0.694458  0.035939  0.239585  1
  O  O15  1  0.964061  0.305542  0.260415  1
  O  O16  1  0.742743  0.641874  0.579811  1
  O  O17  1  0.358126  0.257257  0.920189  1
  O  O18  1  0.257257  0.358126  0.420189  1
  O  O19  1  0.641874  0.742743  0.079811  1
  O  O20  1  0.864085  0.339950  0.968429  1
  O  O21  1  0.660050  0.135915  0.531571  1
  O  O22  1  0.135915  0.660050  0.031571  1
  O  O23  1  0.339950  0.864085  0.468429  1
