# generated using pymatgen
data_Tm5Ta3(ReB6)4
_symmetry_space_group_name_H-M   'P 1'
_cell_length_a   3.56676700
_cell_length_b   8.94491331
_cell_length_c   11.30830193
_cell_angle_alpha   89.91726273
_cell_angle_beta   90.00000000
_cell_angle_gamma   90.00000000
_symmetry_Int_Tables_number   1
_chemical_formula_structural   Tm5Ta3(ReB6)4
_chemical_formula_sum   'Tm5 Ta3 Re4 B24'
_cell_volume   360.78445620
_cell_formula_units_Z   1
loop_
 _symmetry_equiv_pos_site_id
 _symmetry_equiv_pos_as_xyz
  1  'x, y, z'
loop_
 _atom_site_type_symbol
 _atom_site_label
 _atom_site_symmetry_multiplicity
 _atom_site_fract_x
 _atom_site_fract_y
 _atom_site_fract_z
 _atom_site_occupancy
  Tm  Tm0  1  0.000000  0.321869  0.413948  1
  Tm  Tm1  1  0.000000  0.677381  0.587519  1
  Tm  Tm2  1  0.000000  0.822028  0.086192  1
  Tm  Tm3  1  0.000000  0.177760  0.912422  1
  Tm  Tm4  1  0.000000  0.945145  0.373844  1
  Ta  Ta5  1  0.000000  0.055659  0.627981  1
  Ta  Ta6  1  0.000000  0.445360  0.123557  1
  Ta  Ta7  1  0.000000  0.555561  0.875925  1
  Re  Re8  1  0.000000  0.634666  0.315008  1
  Re  Re9  1  0.000000  0.358753  0.683878  1
  Re  Re10  1  0.000000  0.147178  0.177725  1
  Re  Re11  1  0.000000  0.857309  0.820146  1
  B  B12  1  0.500000  0.551242  0.433820  1
  B  B13  1  0.500000  0.445155  0.566672  1
  B  B14  1  0.500000  0.054940  0.065117  1
  B  B15  1  0.500000  0.946169  0.933975  1
  B  B16  1  0.500000  0.748862  0.418139  1
  B  B17  1  0.500000  0.245974  0.583026  1
  B  B18  1  0.500000  0.255435  0.079519  1
  B  B19  1  0.500000  0.745626  0.919062  1
  B  B20  1  0.500000  0.793271  0.262601  1
  B  B21  1  0.500000  0.204211  0.738239  1
  B  B22  1  0.500000  0.296892  0.234712  1
  B  B23  1  0.500000  0.703748  0.763193  1
  B  B24  1  0.500000  0.628029  0.181380  1
  B  B25  1  0.500000  0.371533  0.818677  1
  B  B26  1  0.500000  0.132838  0.315729  1
  B  B27  1  0.500000  0.871209  0.682729  1
  B  B28  1  0.500000  0.983323  0.211154  1
  B  B29  1  0.500000  0.019405  0.787764  1
  B  B30  1  0.500000  0.479043  0.286078  1
  B  B31  1  0.500000  0.520139  0.713174  1
  B  B32  1  0.500000  0.599467  0.025780  1
  B  B33  1  0.500000  0.401562  0.972607  1
  B  B34  1  0.500000  0.102087  0.477510  1
  B  B35  1  0.500000  0.901173  0.531200  1
