# generated using pymatgen
data_CeTh(CoC2)2
_symmetry_space_group_name_H-M   'P 1'
_cell_length_a   3.76137863
_cell_length_b   3.77200641
_cell_length_c   7.43407406
_cell_angle_alpha   82.32812616
_cell_angle_beta   82.16588957
_cell_angle_gamma   90.02586957
_symmetry_Int_Tables_number   1
_chemical_formula_structural   CeTh(CoC2)2
_chemical_formula_sum   'Ce1 Th1 Co2 C4'
_cell_volume   103.53583859
_cell_formula_units_Z   1
loop_
 _symmetry_equiv_pos_site_id
 _symmetry_equiv_pos_as_xyz
  1  'x, y, z'
loop_
 _atom_site_type_symbol
 _atom_site_label
 _atom_site_symmetry_multiplicity
 _atom_site_fract_x
 _atom_site_fract_y
 _atom_site_fract_z
 _atom_site_occupancy
  Ce  Ce0  1  0.931062  0.063732  0.498966  1
  Th  Th1  1  0.066753  0.931224  0.998818  1
  Co  Co2  1  0.374948  0.510985  0.694737  1
  Co  Co3  1  0.511258  0.376457  0.196811  1
  C  C4  1  0.443828  0.594504  0.428974  1
  C  C5  1  0.591868  0.441428  0.927590  1
  C  C6  1  0.490228  0.857111  0.275488  1
  C  C7  1  0.857055  0.491560  0.772415  1
