# generated using pymatgen
data_Er2Al2NiRh
_symmetry_space_group_name_H-M   'P 1'
_cell_length_a   4.21203300
_cell_length_b   6.70427900
_cell_length_c   7.75927400
_cell_angle_alpha   90.00000000
_cell_angle_beta   90.00000000
_cell_angle_gamma   90.00000000
_symmetry_Int_Tables_number   1
_chemical_formula_structural   Er2Al2NiRh
_chemical_formula_sum   'Er4 Al4 Ni2 Rh2'
_cell_volume   219.11137920
_cell_formula_units_Z   2
loop_
 _symmetry_equiv_pos_site_id
 _symmetry_equiv_pos_as_xyz
  1  'x, y, z'
loop_
 _atom_site_type_symbol
 _atom_site_label
 _atom_site_symmetry_multiplicity
 _atom_site_fract_x
 _atom_site_fract_y
 _atom_site_fract_z
 _atom_site_occupancy
  Er  Er0  1  0.250000  0.967578  0.319765  1
  Er  Er1  1  0.750000  0.536179  0.825998  1
  Er  Er2  1  0.250000  0.467578  0.180235  1
  Er  Er3  1  0.750000  0.036179  0.674002  1
  Al  Al4  1  0.750000  0.633378  0.435898  1
  Al  Al5  1  0.750000  0.133378  0.064102  1
  Al  Al6  1  0.250000  0.359689  0.554643  1
  Al  Al7  1  0.250000  0.859689  0.945357  1
  Ni  Ni8  1  0.750000  0.768731  0.127615  1
  Ni  Ni9  1  0.750000  0.268731  0.372385  1
  Rh  Rh10  1  0.250000  0.234445  0.878522  1
  Rh  Rh11  1  0.250000  0.734445  0.621478  1
