# generated using pymatgen
data_Y7Er13Cd3Hg3Rh2
_symmetry_space_group_name_H-M   'P 1'
_cell_length_a   9.62228464
_cell_length_b   9.61524139
_cell_length_c   9.61908785
_cell_angle_alpha   89.99999877
_cell_angle_beta   90.14398915
_cell_angle_gamma   119.97578641
_symmetry_Int_Tables_number   1
_chemical_formula_structural   Y7Er13Cd3Hg3Rh2
_chemical_formula_sum   'Y7 Er13 Cd3 Hg3 Rh2'
_cell_volume   770.91589380
_cell_formula_units_Z   1
loop_
 _symmetry_equiv_pos_site_id
 _symmetry_equiv_pos_as_xyz
  1  'x, y, z'
loop_
 _atom_site_type_symbol
 _atom_site_label
 _atom_site_symmetry_multiplicity
 _atom_site_fract_x
 _atom_site_fract_y
 _atom_site_fract_z
 _atom_site_occupancy
  Y  Y0  1  0.583612  0.791807  0.061101  1
  Y  Y1  1  0.541377  0.457998  0.250613  1
  Y  Y2  1  0.541377  0.083380  0.250613  1
  Y  Y3  1  0.917998  0.458999  0.250263  1
  Y  Y4  1  0.458396  0.541392  0.749374  1
  Y  Y5  1  0.458396  0.917003  0.749374  1
  Y  Y6  1  0.084241  0.542120  0.749996  1
  Er  Er7  1  0.999363  0.999682  0.486801  1
  Er  Er8  1  0.001121  0.000560  0.012436  1
  Er  Er9  1  0.208614  0.791404  0.438970  1
  Er  Er10  1  0.208614  0.417211  0.438970  1
  Er  Er11  1  0.581003  0.790502  0.439364  1
  Er  Er12  1  0.791452  0.208885  0.560286  1
  Er  Er13  1  0.791452  0.582567  0.560286  1
  Er  Er14  1  0.417007  0.208504  0.560346  1
  Er  Er15  1  0.792086  0.209468  0.939512  1
  Er  Er16  1  0.792086  0.582618  0.939512  1
  Er  Er17  1  0.417867  0.208933  0.939816  1
  Er  Er18  1  0.208538  0.791312  0.061342  1
  Er  Er19  1  0.208538  0.417226  0.061342  1
  Cd  Cd20  1  0.111872  0.888448  0.749762  1
  Cd  Cd21  1  0.111872  0.223426  0.749762  1
  Cd  Cd22  1  0.776649  0.888324  0.749641  1
  Hg  Hg23  1  0.877779  0.121611  0.249820  1
  Hg  Hg24  1  0.877779  0.756169  0.249820  1
  Hg  Hg25  1  0.243784  0.121893  0.250408  1
  Rh  Rh26  1  0.330341  0.665170  0.250997  1
  Rh  Rh27  1  0.666783  0.333391  0.749474  1
