# generated using pymatgen
data_Lu6MgAg5C2
_symmetry_space_group_name_H-M   'P 1'
_cell_length_a   9.16148408
_cell_length_b   9.12661583
_cell_length_c   9.12661600
_cell_angle_alpha   59.67304067
_cell_angle_beta   59.87353651
_cell_angle_gamma   59.87353340
_symmetry_Int_Tables_number   1
_chemical_formula_structural   Lu6MgAg5C2
_chemical_formula_sum   'Lu12 Mg2 Ag10 C4'
_cell_volume   537.22600166
_cell_formula_units_Z   2
loop_
 _symmetry_equiv_pos_site_id
 _symmetry_equiv_pos_as_xyz
  1  'x, y, z'
loop_
 _atom_site_type_symbol
 _atom_site_label
 _atom_site_symmetry_multiplicity
 _atom_site_fract_x
 _atom_site_fract_y
 _atom_site_fract_z
 _atom_site_occupancy
  Lu  Lu0  1  0.439981  0.439720  0.057990  1
  Lu  Lu1  1  0.062310  0.439720  0.057990  1
  Lu  Lu2  1  0.438216  0.061784  0.061784  1
  Lu  Lu3  1  0.062310  0.057990  0.439720  1
  Lu  Lu4  1  0.439981  0.057990  0.439720  1
  Lu  Lu5  1  0.059193  0.440807  0.440807  1
  Lu  Lu6  1  0.810019  0.810280  0.192010  1
  Lu  Lu7  1  0.187690  0.810280  0.192010  1
  Lu  Lu8  1  0.811784  0.188216  0.188216  1
  Lu  Lu9  1  0.187690  0.192010  0.810280  1
  Lu  Lu10  1  0.810019  0.192010  0.810280  1
  Lu  Lu11  1  0.190807  0.809193  0.809193  1
  Mg  Mg12  1  0.625000  0.625000  0.125000  1
  Mg  Mg13  1  0.625000  0.125000  0.625000  1
  Ag  Ag14  1  0.830588  0.837307  0.501518  1
  Ag  Ag15  1  0.830588  0.501518  0.837307  1
  Ag  Ag16  1  0.500231  0.835468  0.835468  1
  Ag  Ag17  1  0.828835  0.835468  0.835468  1
  Ag  Ag18  1  0.419412  0.412693  0.748482  1
  Ag  Ag19  1  0.419412  0.748482  0.412693  1
  Ag  Ag20  1  0.749769  0.414532  0.414532  1
  Ag  Ag21  1  0.421165  0.414532  0.414532  1
  Ag  Ag22  1  0.125000  0.625000  0.625000  1
  Ag  Ag23  1  0.625000  0.625000  0.625000  1
  C  C24  1  0.125000  0.125000  0.625000  1
  C  C25  1  0.125000  0.625000  0.125000  1
  C  C26  1  0.625000  0.125000  0.125000  1
  C  C27  1  0.125000  0.125000  0.125000  1
