# generated using pymatgen
data_Tm8Sc11Si16Mo
_symmetry_space_group_name_H-M   'P 1'
_cell_length_a   6.98763724
_cell_length_b   7.31323320
_cell_length_c   13.82960600
_cell_angle_alpha   90.00000000
_cell_angle_beta   90.00000000
_cell_angle_gamma   90.13886211
_symmetry_Int_Tables_number   1
_chemical_formula_structural   Tm8Sc11Si16Mo
_chemical_formula_sum   'Tm8 Sc11 Si16 Mo1'
_cell_volume   706.72150239
_cell_formula_units_Z   1
loop_
 _symmetry_equiv_pos_site_id
 _symmetry_equiv_pos_as_xyz
  1  'x, y, z'
loop_
 _atom_site_type_symbol
 _atom_site_label
 _atom_site_symmetry_multiplicity
 _atom_site_fract_x
 _atom_site_fract_y
 _atom_site_fract_z
 _atom_site_occupancy
  Tm  Tm0  1  0.012692  0.178251  0.093305  1
  Tm  Tm1  1  0.991935  0.817836  0.900698  1
  Tm  Tm2  1  0.486018  0.674153  0.902465  1
  Tm  Tm3  1  0.991935  0.817836  0.599302  1
  Tm  Tm4  1  0.511844  0.322566  0.094907  1
  Tm  Tm5  1  0.012692  0.178251  0.406695  1
  Tm  Tm6  1  0.511844  0.322566  0.405093  1
  Tm  Tm7  1  0.486018  0.674153  0.597535  1
  Sc  Sc8  1  0.842148  0.495993  0.250000  1
  Sc  Sc9  1  0.342687  0.004269  0.250000  1
  Sc  Sc10  1  0.657084  0.994117  0.750000  1
  Sc  Sc11  1  0.326881  0.178483  0.627711  1
  Sc  Sc12  1  0.671958  0.824150  0.374452  1
  Sc  Sc13  1  0.172869  0.673965  0.376732  1
  Sc  Sc14  1  0.671958  0.824150  0.125548  1
  Sc  Sc15  1  0.827307  0.330161  0.628372  1
  Sc  Sc16  1  0.326881  0.178483  0.872289  1
  Sc  Sc17  1  0.827307  0.330161  0.871628  1
  Sc  Sc18  1  0.172869  0.673965  0.123268  1
  Si  Si19  1  0.029126  0.118048  0.750000  1
  Si  Si20  1  0.972940  0.887681  0.250000  1
  Si  Si21  1  0.469539  0.612813  0.250000  1
  Si  Si22  1  0.519571  0.397661  0.750000  1
  Si  Si23  1  0.283065  0.858564  0.750000  1
  Si  Si24  1  0.718426  0.131485  0.250000  1
  Si  Si25  1  0.215241  0.368995  0.250000  1
  Si  Si26  1  0.791986  0.630794  0.750000  1
  Si  Si27  1  0.155851  0.466791  0.547571  1
  Si  Si28  1  0.841922  0.534990  0.462951  1
  Si  Si29  1  0.344771  0.965522  0.462768  1
  Si  Si30  1  0.841922  0.534990  0.037049  1
  Si  Si31  1  0.659430  0.034290  0.539726  1
  Si  Si32  1  0.155851  0.466791  0.952429  1
  Si  Si33  1  0.659430  0.034290  0.960274  1
  Si  Si34  1  0.344771  0.965522  0.037232  1
  Mo  Mo35  1  0.151230  0.497266  0.750000  1
