# generated using pymatgen
data_Sm7PaInPd24
_symmetry_space_group_name_H-M   'P 1'
_cell_length_a   8.48723932
_cell_length_b   8.48723932
_cell_length_c   8.48723932
_cell_angle_alpha   89.91821849
_cell_angle_beta   89.91821849
_cell_angle_gamma   89.91821849
_symmetry_Int_Tables_number   1
_chemical_formula_structural   Sm7PaInPd24
_chemical_formula_sum   'Sm7 Pa1 In1 Pd24'
_cell_volume   611.36140621
_cell_formula_units_Z   1
loop_
 _symmetry_equiv_pos_site_id
 _symmetry_equiv_pos_as_xyz
  1  'x, y, z'
loop_
 _atom_site_type_symbol
 _atom_site_label
 _atom_site_symmetry_multiplicity
 _atom_site_fract_x
 _atom_site_fract_y
 _atom_site_fract_z
 _atom_site_occupancy
  Sm  Sm0  1  0.748505  0.748505  0.748505  1
  Sm  Sm1  1  0.748620  0.748620  0.250810  1
  Sm  Sm2  1  0.748620  0.250810  0.748620  1
  Sm  Sm3  1  0.251010  0.251010  0.750691  1
  Sm  Sm4  1  0.251010  0.750691  0.251010  1
  Sm  Sm5  1  0.250810  0.748620  0.748620  1
  Sm  Sm6  1  0.750691  0.251010  0.251010  1
  Pa  Pa7  1  0.251480  0.251480  0.251480  1
  In  In8  1  0.999301  0.999301  0.999301  1
  Pd  Pd9  1  0.265979  0.497265  0.005499  1
  Pd  Pd10  1  0.734100  0.499031  0.000041  1
  Pd  Pd11  1  0.005499  0.265979  0.497265  1
  Pd  Pd12  1  0.497265  0.265979  0.005499  1
  Pd  Pd13  1  0.000041  0.734100  0.499031  1
  Pd  Pd14  1  0.499031  0.734100  0.000041  1
  Pd  Pd15  1  0.497265  0.005499  0.265979  1
  Pd  Pd16  1  0.265979  0.005499  0.497265  1
  Pd  Pd17  1  0.499031  0.000041  0.734100  1
  Pd  Pd18  1  0.734100  0.000041  0.499031  1
  Pd  Pd19  1  0.005499  0.497265  0.265979  1
  Pd  Pd20  1  0.000041  0.499031  0.734100  1
  Pd  Pd21  1  0.255159  0.496413  0.496413  1
  Pd  Pd22  1  0.745491  0.499342  0.499342  1
  Pd  Pd23  1  0.496413  0.255159  0.496413  1
  Pd  Pd24  1  0.499342  0.745491  0.499342  1
  Pd  Pd25  1  0.496413  0.496413  0.255159  1
  Pd  Pd26  1  0.499342  0.499342  0.745491  1
  Pd  Pd27  1  0.311019  0.002511  0.002511  1
  Pd  Pd28  1  0.687843  0.000039  0.000039  1
  Pd  Pd29  1  0.002511  0.311019  0.002511  1
  Pd  Pd30  1  0.000039  0.687843  0.000039  1
  Pd  Pd31  1  0.002511  0.002511  0.311019  1
  Pd  Pd32  1  0.000039  0.000039  0.687843  1
