# generated using pymatgen
data_PrU(NbN2)2
_symmetry_space_group_name_H-M   'P 1'
_cell_length_a   3.32970500
_cell_length_b   5.78987725
_cell_length_c   11.07219046
_cell_angle_alpha   90.00023907
_cell_angle_beta   90.00000000
_cell_angle_gamma   90.00000000
_symmetry_Int_Tables_number   1
_chemical_formula_structural   PrU(NbN2)2
_chemical_formula_sum   'Pr2 U2 Nb4 N8'
_cell_volume   213.45614506
_cell_formula_units_Z   2
loop_
 _symmetry_equiv_pos_site_id
 _symmetry_equiv_pos_as_xyz
  1  'x, y, z'
loop_
 _atom_site_type_symbol
 _atom_site_label
 _atom_site_symmetry_multiplicity
 _atom_site_fract_x
 _atom_site_fract_y
 _atom_site_fract_z
 _atom_site_occupancy
  Pr  Pr0  1  0.250000  0.579958  0.856363  1
  Pr  Pr1  1  0.750000  0.420042  0.143637  1
  U  U2  1  0.750000  0.921353  0.359342  1
  U  U3  1  0.250000  0.078647  0.640658  1
  Nb  Nb4  1  0.250000  0.922748  0.101991  1
  Nb  Nb5  1  0.750000  0.077252  0.898009  1
  Nb  Nb6  1  0.750000  0.576291  0.597350  1
  Nb  Nb7  1  0.250000  0.423709  0.402650  1
  N  N8  1  0.250000  0.675424  0.257751  1
  N  N9  1  0.750000  0.324576  0.742249  1
  N  N10  1  0.750000  0.851503  0.735706  1
  N  N11  1  0.250000  0.148497  0.264294  1
  N  N12  1  0.250000  0.766130  0.506576  1
  N  N13  1  0.750000  0.233870  0.493424  1
  N  N14  1  0.750000  0.762185  0.008871  1
  N  N15  1  0.250000  0.237815  0.991129  1
