# generated using pymatgen
data_Pr3Nd2(BN3)2
_symmetry_space_group_name_H-M   'P 1'
_cell_length_a   6.45046558
_cell_length_b   6.45046545
_cell_length_c   8.93251931
_cell_angle_alpha   74.88049285
_cell_angle_beta   74.88049260
_cell_angle_gamma   32.76968080
_symmetry_Int_Tables_number   1
_chemical_formula_structural   Pr3Nd2(BN3)2
_chemical_formula_sum   'Pr3 Nd2 B2 N6'
_cell_volume   193.59313395
_cell_formula_units_Z   1
loop_
 _symmetry_equiv_pos_site_id
 _symmetry_equiv_pos_as_xyz
  1  'x, y, z'
loop_
 _atom_site_type_symbol
 _atom_site_label
 _atom_site_symmetry_multiplicity
 _atom_site_fract_x
 _atom_site_fract_y
 _atom_site_fract_z
 _atom_site_occupancy
  Pr  Pr0  1  0.624320  0.624320  0.627302  1
  Pr  Pr1  1  0.307823  0.307823  0.820339  1
  Pr  Pr2  1  0.692268  0.692268  0.179941  1
  Nd  Nd3  1  0.999802  0.999802  0.000462  1
  Nd  Nd4  1  0.375611  0.375611  0.373040  1
  B  B5  1  0.055187  0.055187  0.409883  1
  B  B6  1  0.945111  0.945111  0.589787  1
  N  N7  1  0.024391  0.024391  0.261852  1
  N  N8  1  0.345164  0.345164  0.080954  1
  N  N9  1  0.827999  0.827999  0.582617  1
  N  N10  1  0.974422  0.974422  0.739027  1
  N  N11  1  0.654912  0.654912  0.919584  1
  N  N12  1  0.172990  0.172990  0.415213  1
