# generated using pymatgen
data_Tb11Y5Cd4Ir3Pd
_symmetry_space_group_name_H-M   'P 1'
_cell_length_a   9.67180979
_cell_length_b   9.67486609
_cell_length_c   9.67486471
_cell_angle_alpha   60.26470084
_cell_angle_beta   60.25878366
_cell_angle_gamma   60.25878061
_symmetry_Int_Tables_number   1
_chemical_formula_structural   Tb11Y5Cd4Ir3Pd
_chemical_formula_sum   'Tb11 Y5 Cd4 Ir3 Pd1'
_cell_volume   643.92954940
_cell_formula_units_Z   1
loop_
 _symmetry_equiv_pos_site_id
 _symmetry_equiv_pos_as_xyz
  1  'x, y, z'
loop_
 _atom_site_type_symbol
 _atom_site_label
 _atom_site_symmetry_multiplicity
 _atom_site_fract_x
 _atom_site_fract_y
 _atom_site_fract_z
 _atom_site_occupancy
  Tb  Tb0  1  0.347143  0.347280  0.347280  1
  Tb  Tb1  1  0.353617  0.353409  0.947750  1
  Tb  Tb2  1  0.353617  0.947750  0.353409  1
  Tb  Tb3  1  0.948079  0.353575  0.353575  1
  Tb  Tb4  1  0.804269  0.190781  0.190781  1
  Tb  Tb5  1  0.188668  0.810056  0.810056  1
  Tb  Tb6  1  0.190659  0.804171  0.190728  1
  Tb  Tb7  1  0.810124  0.188786  0.810042  1
  Tb  Tb8  1  0.190659  0.190728  0.804171  1
  Tb  Tb9  1  0.810124  0.810042  0.188786  1
  Tb  Tb10  1  0.938685  0.563194  0.563194  1
  Y  Y11  1  0.564941  0.937229  0.937229  1
  Y  Y12  1  0.563181  0.938636  0.563243  1
  Y  Y13  1  0.936997  0.564874  0.937363  1
  Y  Y14  1  0.563181  0.563243  0.938636  1
  Y  Y15  1  0.936997  0.937363  0.564874  1
  Cd  Cd16  1  0.580676  0.580943  0.580943  1
  Cd  Cd17  1  0.580754  0.580639  0.256076  1
  Cd  Cd18  1  0.580754  0.256076  0.580639  1
  Cd  Cd19  1  0.256108  0.580735  0.580735  1
  Ir  Ir20  1  0.141963  0.141651  0.573829  1
  Ir  Ir21  1  0.141963  0.573829  0.141651  1
  Ir  Ir22  1  0.573843  0.141810  0.141810  1
  Pd  Pd23  1  0.142999  0.143202  0.143202  1
