# generated using pymatgen
data_Zr10GaCu(Sn2Bi)2
_symmetry_space_group_name_H-M   'P 1'
_cell_length_a   8.76209702
_cell_length_b   8.76733387
_cell_length_c   5.89317568
_cell_angle_alpha   90.02760983
_cell_angle_beta   89.94474732
_cell_angle_gamma   119.98024300
_symmetry_Int_Tables_number   1
_chemical_formula_structural   Zr10GaCu(Sn2Bi)2
_chemical_formula_sum   'Zr10 Ga1 Cu1 Sn4 Bi2'
_cell_volume   392.14063512
_cell_formula_units_Z   1
loop_
 _symmetry_equiv_pos_site_id
 _symmetry_equiv_pos_as_xyz
  1  'x, y, z'
loop_
 _atom_site_type_symbol
 _atom_site_label
 _atom_site_symmetry_multiplicity
 _atom_site_fract_x
 _atom_site_fract_y
 _atom_site_fract_z
 _atom_site_occupancy
  Zr  Zr0  1  0.734495  0.000000  0.248837  1
  Zr  Zr1  1  0.000206  0.735781  0.249528  1
  Zr  Zr2  1  0.264425  0.264219  0.249528  1
  Zr  Zr3  1  0.265851  0.000000  0.750796  1
  Zr  Zr4  1  0.996055  0.260761  0.750801  1
  Zr  Zr5  1  0.735294  0.739239  0.750801  1
  Zr  Zr6  1  0.335163  0.668887  0.497398  1
  Zr  Zr7  1  0.666277  0.331113  0.497398  1
  Zr  Zr8  1  0.666312  0.331011  0.002759  1
  Zr  Zr9  1  0.335299  0.668989  0.002759  1
  Ga  Ga10  1  0.999849  0.000000  0.498617  1
  Cu  Cu11  1  0.999501  0.000000  0.001705  1
  Sn  Sn12  1  0.386889  0.000000  0.250052  1
  Sn  Sn13  1  0.000302  0.385676  0.250014  1
  Sn  Sn14  1  0.614626  0.614324  0.250014  1
  Sn  Sn15  1  0.612400  0.000000  0.749494  1
  Bi  Bi16  1  0.999689  0.612322  0.749749  1
  Bi  Bi17  1  0.387367  0.387678  0.749749  1
