# generated using pymatgen
data_Pr4Al17GaIr6
_symmetry_space_group_name_H-M   'P 1'
_cell_length_a   7.62198252
_cell_length_b   7.62198158
_cell_length_c   9.66871800
_cell_angle_alpha   90.00000000
_cell_angle_beta   90.00000000
_cell_angle_gamma   119.27676985
_symmetry_Int_Tables_number   1
_chemical_formula_structural   Pr4Al17GaIr6
_chemical_formula_sum   'Pr4 Al17 Ga1 Ir6'
_cell_volume   489.95307362
_cell_formula_units_Z   1
loop_
 _symmetry_equiv_pos_site_id
 _symmetry_equiv_pos_as_xyz
  1  'x, y, z'
loop_
 _atom_site_type_symbol
 _atom_site_label
 _atom_site_symmetry_multiplicity
 _atom_site_fract_x
 _atom_site_fract_y
 _atom_site_fract_z
 _atom_site_occupancy
  Pr  Pr0  1  0.993510  0.674247  0.250000  1
  Pr  Pr1  1  0.004867  0.328642  0.750000  1
  Pr  Pr2  1  0.674247  0.993510  0.250000  1
  Pr  Pr3  1  0.328642  0.004867  0.750000  1
  Al  Al4  1  0.867595  0.867595  0.750000  1
  Al  Al5  1  0.002984  0.335983  0.070820  1
  Al  Al6  1  0.996973  0.664161  0.928067  1
  Al  Al7  1  0.996973  0.664161  0.571933  1
  Al  Al8  1  0.335983  0.002984  0.429180  1
  Al  Al9  1  0.002984  0.335983  0.429180  1
  Al  Al10  1  0.664161  0.996973  0.571933  1
  Al  Al11  1  0.664161  0.996973  0.928067  1
  Al  Al12  1  0.335983  0.002984  0.070820  1
  Al  Al13  1  0.334135  0.334135  0.548114  1
  Al  Al14  1  0.664760  0.664760  0.455310  1
  Al  Al15  1  0.664760  0.664760  0.044690  1
  Al  Al16  1  0.334135  0.334135  0.951886  1
  Al  Al17  1  0.337997  0.546694  0.250000  1
  Al  Al18  1  0.660638  0.453807  0.750000  1
  Al  Al19  1  0.546694  0.337997  0.250000  1
  Al  Al20  1  0.453807  0.660638  0.750000  1
  Ga  Ga21  1  0.137484  0.137484  0.250000  1
  Ir  Ir22  1  0.670175  0.328752  0.000328  1
  Ir  Ir23  1  0.328752  0.670175  0.000328  1
  Ir  Ir24  1  0.328752  0.670175  0.499672  1
  Ir  Ir25  1  0.670175  0.328752  0.499672  1
  Ir  Ir26  1  0.999338  0.999338  0.997019  1
  Ir  Ir27  1  0.999338  0.999338  0.502981  1
