# generated using pymatgen
data_Tm4MnB16Mo3
_symmetry_space_group_name_H-M   'P 1'
_cell_length_a   3.54508200
_cell_length_b   5.97013389
_cell_length_c   11.53115873
_cell_angle_alpha   89.93735559
_cell_angle_beta   90.00000000
_cell_angle_gamma   90.00000000
_symmetry_Int_Tables_number   1
_chemical_formula_structural   Tm4MnB16Mo3
_chemical_formula_sum   'Tm4 Mn1 B16 Mo3'
_cell_volume   244.05237976
_cell_formula_units_Z   1
loop_
 _symmetry_equiv_pos_site_id
 _symmetry_equiv_pos_as_xyz
  1  'x, y, z'
loop_
 _atom_site_type_symbol
 _atom_site_label
 _atom_site_symmetry_multiplicity
 _atom_site_fract_x
 _atom_site_fract_y
 _atom_site_fract_z
 _atom_site_occupancy
  Tm  Tm0  1  0.500000  0.377084  0.148622  1
  Tm  Tm1  1  0.500000  0.627003  0.851992  1
  Tm  Tm2  1  0.500000  0.127316  0.650895  1
  Tm  Tm3  1  0.500000  0.872532  0.346544  1
  Mn  Mn4  1  0.500000  0.870995  0.083037  1
  B  B5  1  0.000000  0.109819  0.051020  1
  B  B6  1  0.000000  0.882024  0.956011  1
  B  B7  1  0.000000  0.383878  0.547121  1
  B  B8  1  0.000000  0.615879  0.450911  1
  B  B9  1  0.000000  0.131369  0.466985  1
  B  B10  1  0.000000  0.868542  0.531693  1
  B  B11  1  0.000000  0.367178  0.970830  1
  B  B12  1  0.000000  0.637596  0.033632  1
  B  B13  1  0.000000  0.019383  0.191660  1
  B  B14  1  0.000000  0.975236  0.808135  1
  B  B15  1  0.000000  0.475428  0.694966  1
  B  B16  1  0.000000  0.526963  0.303324  1
  B  B17  1  0.000000  0.209151  0.310836  1
  B  B18  1  0.000000  0.789032  0.687604  1
  B  B19  1  0.000000  0.287027  0.815040  1
  B  B20  1  0.000000  0.718375  0.182258  1
  Mo  Mo21  1  0.500000  0.369946  0.413712  1
  Mo  Mo22  1  0.500000  0.629994  0.584219  1
  Mo  Mo23  1  0.500000  0.128251  0.918955  1
