# generated using pymatgen
data_NdHo2RuO7
_symmetry_space_group_name_H-M   'P 1'
_cell_length_a   6.44242772
_cell_length_b   6.44242778
_cell_length_c   7.47383700
_cell_angle_alpha   90.00000000
_cell_angle_beta   90.00000000
_cell_angle_gamma   110.07443527
_symmetry_Int_Tables_number   1
_chemical_formula_structural   NdHo2RuO7
_chemical_formula_sum   'Nd2 Ho4 Ru2 O14'
_cell_volume   291.35520513
_cell_formula_units_Z   2
loop_
 _symmetry_equiv_pos_site_id
 _symmetry_equiv_pos_as_xyz
  1  'x, y, z'
loop_
 _atom_site_type_symbol
 _atom_site_label
 _atom_site_symmetry_multiplicity
 _atom_site_fract_x
 _atom_site_fract_y
 _atom_site_fract_z
 _atom_site_occupancy
  Nd  Nd0  1  0.000000  0.000000  0.500000  1
  Nd  Nd1  1  0.000000  0.000000  0.000000  1
  Ho  Ho2  1  0.481681  0.930346  0.750000  1
  Ho  Ho3  1  0.518319  0.069654  0.250000  1
  Ho  Ho4  1  0.930346  0.481681  0.750000  1
  Ho  Ho5  1  0.069654  0.518319  0.250000  1
  Ru  Ru6  1  0.500000  0.500000  0.500000  1
  Ru  Ru7  1  0.500000  0.500000  0.000000  1
  O  O8  1  0.590023  0.590023  0.750000  1
  O  O9  1  0.409977  0.409977  0.250000  1
  O  O10  1  0.836918  0.117397  0.750000  1
  O  O11  1  0.163082  0.882603  0.250000  1
  O  O12  1  0.117397  0.836918  0.750000  1
  O  O13  1  0.882603  0.163082  0.250000  1
  O  O14  1  0.440527  0.181136  0.962625  1
  O  O15  1  0.559473  0.818864  0.462625  1
  O  O16  1  0.181136  0.440527  0.962625  1
  O  O17  1  0.818864  0.559473  0.462625  1
  O  O18  1  0.440527  0.181136  0.537375  1
  O  O19  1  0.559473  0.818864  0.037375  1
  O  O20  1  0.818864  0.559473  0.037375  1
  O  O21  1  0.181136  0.440527  0.537375  1
