# generated using pymatgen
data_HoTa3(NbCl6)3
_symmetry_space_group_name_H-M   'P 1'
_cell_length_a   10.16243032
_cell_length_b   10.16164949
_cell_length_c   10.16364907
_cell_angle_alpha   56.00266085
_cell_angle_beta   55.98752067
_cell_angle_gamma   55.98715113
_symmetry_Int_Tables_number   1
_chemical_formula_structural   HoTa3(NbCl6)3
_chemical_formula_sum   'Ho1 Ta3 Nb3 Cl18'
_cell_volume   673.25133896
_cell_formula_units_Z   1
loop_
 _symmetry_equiv_pos_site_id
 _symmetry_equiv_pos_as_xyz
  1  'x, y, z'
loop_
 _atom_site_type_symbol
 _atom_site_label
 _atom_site_symmetry_multiplicity
 _atom_site_fract_x
 _atom_site_fract_y
 _atom_site_fract_z
 _atom_site_occupancy
  Ho  Ho0  1  0.999572  0.999992  0.000824  1
  Ta  Ta1  1  0.408474  0.301014  0.649067  1
  Ta  Ta2  1  0.350547  0.591829  0.698754  1
  Ta  Ta3  1  0.699293  0.350698  0.591145  1
  Nb  Nb4  1  0.300156  0.650351  0.407535  1
  Nb  Nb5  1  0.650181  0.408341  0.299482  1
  Nb  Nb6  1  0.592008  0.700215  0.349377  1
  Cl  Cl7  1  0.566685  0.160179  0.444749  1
  Cl  Cl8  1  0.224148  0.371117  0.907524  1
  Cl  Cl9  1  0.909021  0.222871  0.373175  1
  Cl  Cl10  1  0.370214  0.909949  0.222948  1
  Cl  Cl11  1  0.777233  0.629667  0.090089  1
  Cl  Cl12  1  0.091796  0.775847  0.631627  1
  Cl  Cl13  1  0.705130  0.958518  0.159228  1
  Cl  Cl14  1  0.954809  0.160946  0.704261  1
  Cl  Cl15  1  0.161808  0.703151  0.955375  1
  Cl  Cl16  1  0.296522  0.044664  0.839030  1
  Cl  Cl17  1  0.041065  0.840725  0.295437  1
  Cl  Cl18  1  0.841538  0.294583  0.041455  1
  Cl  Cl19  1  0.557951  0.431574  0.838041  1
  Cl  Cl20  1  0.161971  0.439248  0.570490  1
  Cl  Cl21  1  0.441788  0.568685  0.160117  1
  Cl  Cl22  1  0.429613  0.837968  0.560841  1
  Cl  Cl23  1  0.839714  0.555326  0.433431  1
  Cl  Cl24  1  0.628762  0.092542  0.775999  1
