# generated using pymatgen
data_Tm3Zr(Ni4P3)2
_symmetry_space_group_name_H-M   'P 1'
_cell_length_a   3.76907800
_cell_length_b   10.74699000
_cell_length_c   12.35106400
_cell_angle_alpha   90.00000000
_cell_angle_beta   90.00000000
_cell_angle_gamma   90.00000000
_symmetry_Int_Tables_number   1
_chemical_formula_structural   Tm3Zr(Ni4P3)2
_chemical_formula_sum   'Tm6 Zr2 Ni16 P12'
_cell_volume   500.29520680
_cell_formula_units_Z   2
loop_
 _symmetry_equiv_pos_site_id
 _symmetry_equiv_pos_as_xyz
  1  'x, y, z'
loop_
 _atom_site_type_symbol
 _atom_site_label
 _atom_site_symmetry_multiplicity
 _atom_site_fract_x
 _atom_site_fract_y
 _atom_site_fract_z
 _atom_site_occupancy
  Tm  Tm0  1  0.000000  0.500000  0.528734  1
  Tm  Tm1  1  0.500000  0.000000  0.471266  1
  Tm  Tm2  1  0.500000  0.821509  0.205749  1
  Tm  Tm3  1  0.500000  0.178491  0.205749  1
  Tm  Tm4  1  0.000000  0.678491  0.794251  1
  Tm  Tm5  1  0.000000  0.321509  0.794251  1
  Zr  Zr6  1  0.500000  0.500000  0.155990  1
  Zr  Zr7  1  0.000000  0.000000  0.844010  1
  Ni  Ni8  1  0.500000  0.500000  0.701043  1
  Ni  Ni9  1  0.000000  0.000000  0.298957  1
  Ni  Ni10  1  0.000000  0.500000  0.982535  1
  Ni  Ni11  1  0.500000  0.000000  0.017465  1
  Ni  Ni12  1  0.500000  0.334252  0.987760  1
  Ni  Ni13  1  0.500000  0.665748  0.987760  1
  Ni  Ni14  1  0.000000  0.165748  0.012240  1
  Ni  Ni15  1  0.000000  0.834252  0.012240  1
  Ni  Ni16  1  0.500000  0.299629  0.431268  1
  Ni  Ni17  1  0.500000  0.700371  0.431268  1
  Ni  Ni18  1  0.000000  0.200371  0.568732  1
  Ni  Ni19  1  0.000000  0.799629  0.568732  1
  Ni  Ni20  1  0.500000  0.876107  0.703791  1
  Ni  Ni21  1  0.500000  0.123893  0.703791  1
  Ni  Ni22  1  0.000000  0.623893  0.296209  1
  Ni  Ni23  1  0.000000  0.376107  0.296209  1
  P  P24  1  0.500000  0.500000  0.878384  1
  P  P25  1  0.000000  0.000000  0.121616  1
  P  P26  1  0.500000  0.500000  0.362968  1
  P  P27  1  0.000000  0.000000  0.637032  1
  P  P28  1  0.500000  0.315124  0.615548  1
  P  P29  1  0.500000  0.684876  0.615548  1
  P  P30  1  0.000000  0.184876  0.384452  1
  P  P31  1  0.000000  0.815124  0.384452  1
  P  P32  1  0.500000  0.837813  0.892656  1
  P  P33  1  0.500000  0.162187  0.892656  1
  P  P34  1  0.000000  0.662187  0.107344  1
  P  P35  1  0.000000  0.337813  0.107344  1
