# generated using pymatgen
data_Ta12MnAl8Ir3C4
_symmetry_space_group_name_H-M   'P 1'
_cell_length_a   8.29323806
_cell_length_b   8.29323874
_cell_length_c   8.29323861
_cell_angle_alpha   59.91267900
_cell_angle_beta   59.91267492
_cell_angle_gamma   59.91267996
_symmetry_Int_Tables_number   1
_chemical_formula_structural   Ta12MnAl8Ir3C4
_chemical_formula_sum   'Ta12 Mn1 Al8 Ir3 C4'
_cell_volume   402.52820651
_cell_formula_units_Z   1
loop_
 _symmetry_equiv_pos_site_id
 _symmetry_equiv_pos_as_xyz
  1  'x, y, z'
loop_
 _atom_site_type_symbol
 _atom_site_label
 _atom_site_symmetry_multiplicity
 _atom_site_fract_x
 _atom_site_fract_y
 _atom_site_fract_z
 _atom_site_occupancy
  Ta  Ta0  1  0.562644  0.938040  0.562644  1
  Ta  Ta1  1  0.311960  0.687356  0.687356  1
  Ta  Ta2  1  0.697307  0.308374  0.308374  1
  Ta  Ta3  1  0.308374  0.697307  0.308374  1
  Ta  Ta4  1  0.687356  0.687356  0.311960  1
  Ta  Ta5  1  0.308374  0.308374  0.697307  1
  Ta  Ta6  1  0.562644  0.562644  0.938040  1
  Ta  Ta7  1  0.938040  0.562644  0.562644  1
  Ta  Ta8  1  0.552693  0.941626  0.941626  1
  Ta  Ta9  1  0.941626  0.941626  0.552693  1
  Ta  Ta10  1  0.687356  0.311960  0.687356  1
  Ta  Ta11  1  0.941626  0.552693  0.941626  1
  Mn  Mn12  1  0.125000  0.125000  0.125000  1
  Al  Al13  1  0.915552  0.915552  0.915552  1
  Al  Al14  1  0.002199  0.330215  0.330215  1
  Al  Al15  1  0.330215  0.002199  0.330215  1
  Al  Al16  1  0.330215  0.330215  0.002199  1
  Al  Al17  1  0.919785  0.247801  0.919785  1
  Al  Al18  1  0.919785  0.919785  0.247801  1
  Al  Al19  1  0.247801  0.919785  0.919785  1
  Al  Al20  1  0.334448  0.334448  0.334448  1
  Ir  Ir21  1  0.625000  0.125000  0.125000  1
  Ir  Ir22  1  0.125000  0.625000  0.125000  1
  Ir  Ir23  1  0.125000  0.125000  0.625000  1
  C  C24  1  0.625000  0.625000  0.625000  1
  C  C25  1  0.125000  0.625000  0.625000  1
  C  C26  1  0.625000  0.125000  0.625000  1
  C  C27  1  0.625000  0.625000  0.125000  1
