# generated using pymatgen
data_Pr2Re17C3
_symmetry_space_group_name_H-M   'P 1'
_cell_length_a   7.06814180
_cell_length_b   7.06814052
_cell_length_c   7.06814157
_cell_angle_alpha   82.94834101
_cell_angle_beta   97.05165677
_cell_angle_gamma   97.05164888
_symmetry_Int_Tables_number   1
_chemical_formula_structural   Pr2Re17C3
_chemical_formula_sum   'Pr2 Re17 C3'
_cell_volume   345.70753367
_cell_formula_units_Z   1
loop_
 _symmetry_equiv_pos_site_id
 _symmetry_equiv_pos_as_xyz
  1  'x, y, z'
loop_
 _atom_site_type_symbol
 _atom_site_label
 _atom_site_symmetry_multiplicity
 _atom_site_fract_x
 _atom_site_fract_y
 _atom_site_fract_z
 _atom_site_occupancy
  Pr  Pr0  1  0.650463  0.349536  0.349536  1
  Pr  Pr1  1  0.349536  0.650464  0.650464  1
  Re  Re2  1  0.500000  0.000000  0.000000  1
  Re  Re3  1  0.279156  0.279156  0.000000  1
  Re  Re4  1  0.000000  0.500000  0.000000  1
  Re  Re5  1  0.720843  0.720843  0.000000  1
  Re  Re6  1  0.902800  0.097199  0.097199  1
  Re  Re7  1  0.348038  0.651961  0.136492  1
  Re  Re8  1  0.000000  0.720844  0.279156  1
  Re  Re9  1  0.279156  0.000000  0.279156  1
  Re  Re10  1  0.136494  0.348038  0.348039  1
  Re  Re11  1  0.651961  0.863506  0.348039  1
  Re  Re12  1  0.000000  0.000000  0.500000  1
  Re  Re13  1  0.348039  0.136493  0.651961  1
  Re  Re14  1  0.863506  0.651961  0.651961  1
  Re  Re15  1  0.000000  0.279156  0.720843  1
  Re  Re16  1  0.720844  0.000000  0.720843  1
  Re  Re17  1  0.651962  0.348038  0.863507  1
  Re  Re18  1  0.097200  0.902800  0.902800  1
  C  C19  1  0.500000  0.500000  0.000000  1
  C  C20  1  0.000000  0.500000  0.500000  1
  C  C21  1  0.500000  0.000000  0.500000  1
