# generated using pymatgen
data_Ta6Be8Al8Ir7
_symmetry_space_group_name_H-M   'P 1'
_cell_length_a   8.24911822
_cell_length_b   8.24911740
_cell_length_c   8.24911700
_cell_angle_alpha   59.99999761
_cell_angle_beta   60.00000088
_cell_angle_gamma   59.99999963
_symmetry_Int_Tables_number   1
_chemical_formula_structural   Ta6Be8Al8Ir7
_chemical_formula_sum   'Ta6 Be8 Al8 Ir7'
_cell_volume   396.92410262
_cell_formula_units_Z   1
loop_
 _symmetry_equiv_pos_site_id
 _symmetry_equiv_pos_as_xyz
  1  'x, y, z'
loop_
 _atom_site_type_symbol
 _atom_site_label
 _atom_site_symmetry_multiplicity
 _atom_site_fract_x
 _atom_site_fract_y
 _atom_site_fract_z
 _atom_site_occupancy
  Ta  Ta0  1  0.679261  0.320739  0.320739  1
  Ta  Ta1  1  0.320739  0.679261  0.679261  1
  Ta  Ta2  1  0.320739  0.679261  0.320739  1
  Ta  Ta3  1  0.679261  0.320739  0.679261  1
  Ta  Ta4  1  0.320739  0.320739  0.679261  1
  Ta  Ta5  1  0.679261  0.679261  0.320739  1
  Be  Be6  1  0.343708  0.343708  0.343708  1
  Be  Be7  1  0.656292  0.656292  0.656292  1
  Be  Be8  1  0.343708  0.343708  0.968877  1
  Be  Be9  1  0.343708  0.968877  0.343708  1
  Be  Be10  1  0.656292  0.656292  0.031123  1
  Be  Be11  1  0.656292  0.031123  0.656292  1
  Be  Be12  1  0.968877  0.343708  0.343708  1
  Be  Be13  1  0.031123  0.656292  0.656292  1
  Al  Al14  1  0.126407  0.126407  0.126407  1
  Al  Al15  1  0.873593  0.873593  0.873593  1
  Al  Al16  1  0.126407  0.126407  0.620779  1
  Al  Al17  1  0.126407  0.620779  0.126407  1
  Al  Al18  1  0.873593  0.873593  0.379221  1
  Al  Al19  1  0.873593  0.379221  0.873593  1
  Al  Al20  1  0.620779  0.126407  0.126407  1
  Al  Al21  1  0.379221  0.873593  0.873593  1
  Ir  Ir22  1  0.500000  0.000000  0.000000  1
  Ir  Ir23  1  0.000000  0.500000  0.500000  1
  Ir  Ir24  1  0.000000  0.500000  0.000000  1
  Ir  Ir25  1  0.500000  0.000000  0.500000  1
  Ir  Ir26  1  0.000000  0.000000  0.500000  1
  Ir  Ir27  1  0.500000  0.500000  0.000000  1
  Ir  Ir28  1  0.000000  0.000000  0.000000  1
