# generated using pymatgen
data_Ac2Cu7(AsO4)6
_symmetry_space_group_name_H-M   'P 1'
_cell_length_a   5.28944680
_cell_length_b   8.43031280
_cell_length_c   11.59993957
_cell_angle_alpha   90.64934741
_cell_angle_beta   91.79516843
_cell_angle_gamma   92.67829543
_symmetry_Int_Tables_number   1
_chemical_formula_structural   Ac2Cu7(AsO4)6
_chemical_formula_sum   'Ac2 Cu7 As6 O24'
_cell_volume   516.39987779
_cell_formula_units_Z   1
loop_
 _symmetry_equiv_pos_site_id
 _symmetry_equiv_pos_as_xyz
  1  'x, y, z'
loop_
 _atom_site_type_symbol
 _atom_site_label
 _atom_site_symmetry_multiplicity
 _atom_site_fract_x
 _atom_site_fract_y
 _atom_site_fract_z
 _atom_site_occupancy
  Ac  Ac0  1  0.500555  0.456384  0.677861  1
  Ac  Ac1  1  0.499445  0.543616  0.322139  1
  Cu  Cu2  1  0.980618  0.275443  0.170277  1
  Cu  Cu3  1  0.979885  0.930622  0.315675  1
  Cu  Cu4  1  0.020115  0.069378  0.684325  1
  Cu  Cu5  1  0.000000  0.000000  0.000000  1
  Cu  Cu6  1  0.019382  0.724557  0.829723  1
  Cu  Cu7  1  0.500000  0.500000  0.000000  1
  Cu  Cu8  1  0.500000  0.000000  0.500000  1
  As  As9  1  0.036048  0.659674  0.114193  1
  As  As10  1  0.969041  0.273402  0.452749  1
  As  As11  1  0.963952  0.340326  0.885807  1
  As  As12  1  0.480612  0.083429  0.224564  1
  As  As13  1  0.519388  0.916571  0.775436  1
  As  As14  1  0.030959  0.726598  0.547251  1
  O  O15  1  0.883842  0.220287  0.000083  1
  O  O16  1  0.770293  0.900724  0.873451  1
  O  O17  1  0.380091  0.724981  0.767716  1
  O  O18  1  0.825876  0.086489  0.422275  1
  O  O19  1  0.671251  0.973186  0.647691  1
  O  O20  1  0.720177  0.598311  0.125655  1
  O  O21  1  0.274962  0.607726  0.510157  1
  O  O22  1  0.725038  0.392274  0.489843  1
  O  O23  1  0.191783  0.261859  0.562793  1
  O  O24  1  0.174124  0.913511  0.577725  1
  O  O25  1  0.328749  0.026814  0.352309  1
  O  O26  1  0.895959  0.645894  0.669984  1
  O  O27  1  0.116158  0.779713  0.999917  1
  O  O28  1  0.859948  0.259319  0.754842  1
  O  O29  1  0.104041  0.354106  0.330016  1
  O  O30  1  0.619909  0.275019  0.232284  1
  O  O31  1  0.279823  0.401689  0.874345  1
  O  O32  1  0.215879  0.490366  0.106972  1
  O  O33  1  0.784121  0.509634  0.893028  1
  O  O34  1  0.299656  0.051732  0.807609  1
  O  O35  1  0.700344  0.948268  0.192391  1
  O  O36  1  0.229707  0.099276  0.126549  1
  O  O37  1  0.808217  0.738141  0.437207  1
  O  O38  1  0.140052  0.740681  0.245158  1
