# generated using pymatgen
data_YEr15In4Ir3Ru
_symmetry_space_group_name_H-M   'P 1'
_cell_length_a   9.60193432
_cell_length_b   9.60193281
_cell_length_c   9.60012926
_cell_angle_alpha   59.92877843
_cell_angle_beta   59.92877861
_cell_angle_gamma   59.92153534
_symmetry_Int_Tables_number   1
_chemical_formula_structural   YEr15In4Ir3Ru
_chemical_formula_sum   'Y1 Er15 In4 Ir3 Ru1'
_cell_volume   624.81791251
_cell_formula_units_Z   1
loop_
 _symmetry_equiv_pos_site_id
 _symmetry_equiv_pos_as_xyz
  1  'x, y, z'
loop_
 _atom_site_type_symbol
 _atom_site_label
 _atom_site_symmetry_multiplicity
 _atom_site_fract_x
 _atom_site_fract_y
 _atom_site_fract_z
 _atom_site_occupancy
  Y  Y0  1  0.059668  0.059668  0.440786  1
  Er  Er1  1  0.650536  0.045965  0.651065  1
  Er  Er2  1  0.191851  0.808803  0.191615  1
  Er  Er3  1  0.440173  0.060703  0.439227  1
  Er  Er4  1  0.191709  0.191709  0.809511  1
  Er  Er5  1  0.651287  0.651287  0.651280  1
  Er  Er6  1  0.045965  0.650536  0.651065  1
  Er  Er7  1  0.442096  0.059047  0.058591  1
  Er  Er8  1  0.650865  0.650865  0.045857  1
  Er  Er9  1  0.190465  0.808663  0.809898  1
  Er  Er10  1  0.808663  0.190465  0.809898  1
  Er  Er11  1  0.808803  0.191851  0.191615  1
  Er  Er12  1  0.809171  0.809171  0.190361  1
  Er  Er13  1  0.060703  0.440173  0.439227  1
  Er  Er14  1  0.439237  0.439237  0.060901  1
  Er  Er15  1  0.059047  0.442096  0.058591  1
  In  In16  1  0.749049  0.417614  0.417019  1
  In  In17  1  0.417040  0.417040  0.749513  1
  In  In18  1  0.417614  0.749049  0.417019  1
  In  In19  1  0.417016  0.417016  0.417056  1
  Ir  Ir20  1  0.422537  0.858787  0.858624  1
  Ir  Ir21  1  0.858436  0.858436  0.422452  1
  Ir  Ir22  1  0.858787  0.422537  0.858624  1
  Ru  Ru23  1  0.859286  0.859286  0.860207  1
