# generated using pymatgen
data_NaAc(CuO2)4
_symmetry_space_group_name_H-M   'P 1'
_cell_length_a   6.31181434
_cell_length_b   6.31181420
_cell_length_c   6.31181400
_cell_angle_alpha   124.51737285
_cell_angle_beta   124.51736094
_cell_angle_gamma   82.33897618
_symmetry_Int_Tables_number   1
_chemical_formula_structural   NaAc(CuO2)4
_chemical_formula_sum   'Na1 Ac1 Cu4 O8'
_cell_volume   164.05336294
_cell_formula_units_Z   1
loop_
 _symmetry_equiv_pos_site_id
 _symmetry_equiv_pos_as_xyz
  1  'x, y, z'
loop_
 _atom_site_type_symbol
 _atom_site_label
 _atom_site_symmetry_multiplicity
 _atom_site_fract_x
 _atom_site_fract_y
 _atom_site_fract_z
 _atom_site_occupancy
  Na  Na0  1  0.000000  0.000000  0.000000  1
  Ac  Ac1  1  0.750000  0.250000  0.500000  1
  Cu  Cu2  1  0.878743  0.624927  0.254916  1
  Cu  Cu3  1  0.376173  0.121257  0.746184  1
  Cu  Cu4  1  0.375073  0.629989  0.253816  1
  Cu  Cu5  1  0.370011  0.623827  0.745084  1
  O  O6  1  0.333031  0.966026  0.900314  1
  O  O7  1  0.693134  0.815022  0.413125  1
  O  O8  1  0.719991  0.306866  0.121889  1
  O  O9  1  0.567283  0.666969  0.632995  1
  O  O10  1  0.184978  0.598102  0.878111  1
  O  O11  1  0.033974  0.934288  0.367005  1
  O  O12  1  0.065712  0.432717  0.099686  1
  O  O13  1  0.401898  0.280009  0.586875  1
