# generated using pymatgen
data_CeTh(Ga2Ir3)2
_symmetry_space_group_name_H-M   'P 1'
_cell_length_a   6.84418645
_cell_length_b   6.84418537
_cell_length_c   6.84418700
_cell_angle_alpha   131.22714484
_cell_angle_beta   110.88172611
_cell_angle_gamma   89.11269245
_symmetry_Int_Tables_number   1
_chemical_formula_structural   CeTh(Ga2Ir3)2
_chemical_formula_sum   'Ce1 Th1 Ga4 Ir6'
_cell_volume   214.02272625
_cell_formula_units_Z   1
loop_
 _symmetry_equiv_pos_site_id
 _symmetry_equiv_pos_as_xyz
  1  'x, y, z'
loop_
 _atom_site_type_symbol
 _atom_site_label
 _atom_site_symmetry_multiplicity
 _atom_site_fract_x
 _atom_site_fract_y
 _atom_site_fract_z
 _atom_site_occupancy
  Ce  Ce0  1  0.750000  0.037833  0.287833  1
  Th  Th1  1  0.250000  0.950920  0.700920  1
  Ga  Ga2  1  0.078417  0.284842  0.206425  1
  Ga  Ga3  1  0.912557  0.700324  0.787766  1
  Ga  Ga4  1  0.421583  0.628007  0.206425  1
  Ga  Ga5  1  0.587443  0.375209  0.787766  1
  Ir  Ir6  1  0.494407  0.498539  0.492947  1
  Ir  Ir7  1  0.005593  0.498539  0.004131  1
  Ir  Ir8  1  0.267216  0.001639  0.278469  1
  Ir  Ir9  1  0.723170  0.001639  0.734424  1
  Ir  Ir10  1  0.232784  0.511254  0.734424  1
  Ir  Ir11  1  0.776830  0.511254  0.278469  1
