# generated using pymatgen
data_Ta16Al3VTe16
_symmetry_space_group_name_H-M   'P 1'
_cell_length_a   4.87358900
_cell_length_b   11.16058864
_cell_length_c   19.41485758
_cell_angle_alpha   90.28750650
_cell_angle_beta   90.00000000
_cell_angle_gamma   90.00000000
_symmetry_Int_Tables_number   1
_chemical_formula_structural   Ta16Al3VTe16
_chemical_formula_sum   'Ta16 Al3 V1 Te16'
_cell_volume   1056.00200790
_cell_formula_units_Z   1
loop_
 _symmetry_equiv_pos_site_id
 _symmetry_equiv_pos_as_xyz
  1  'x, y, z'
loop_
 _atom_site_type_symbol
 _atom_site_label
 _atom_site_symmetry_multiplicity
 _atom_site_fract_x
 _atom_site_fract_y
 _atom_site_fract_z
 _atom_site_occupancy
  Ta  Ta0  1  0.500120  0.567275  0.383652  1
  Ta  Ta1  1  0.500120  0.432725  0.616348  1
  Ta  Ta2  1  0.501790  0.064020  0.117058  1
  Ta  Ta3  1  0.501790  0.935980  0.882942  1
  Ta  Ta4  1  0.499721  0.705279  0.533965  1
  Ta  Ta5  1  0.499721  0.294721  0.466035  1
  Ta  Ta6  1  0.501527  0.203486  0.963858  1
  Ta  Ta7  1  0.501527  0.796514  0.036142  1
  Ta  Ta8  1  0.000221  0.689156  0.441982  1
  Ta  Ta9  1  0.000221  0.310844  0.558018  1
  Ta  Ta10  1  0.998317  0.189141  0.057432  1
  Ta  Ta11  1  0.998317  0.810859  0.942568  1
  Ta  Ta12  1  0.999833  0.402106  0.391507  1
  Ta  Ta13  1  0.999833  0.597894  0.608493  1
  Ta  Ta14  1  0.998534  0.901539  0.108354  1
  Ta  Ta15  1  0.998534  0.098461  0.891646  1
  Al  Al16  1  0.249670  0.500000  0.500000  1
  Al  Al17  1  0.750131  0.000000  0.000000  1
  Al  Al18  1  0.750297  0.500000  0.500000  1
  V  V19  1  0.250238  0.000000  0.000000  1
  Te  Te20  1  0.999696  0.841668  0.561748  1
  Te  Te21  1  0.999696  0.158332  0.438252  1
  Te  Te22  1  0.004103  0.342298  0.939205  1
  Te  Te23  1  0.004103  0.657702  0.060795  1
  Te  Te24  1  0.499773  0.334498  0.319913  1
  Te  Te25  1  0.499773  0.665502  0.680087  1
  Te  Te26  1  0.496158  0.834559  0.182313  1
  Te  Te27  1  0.496158  0.165441  0.817687  1
  Te  Te28  1  0.500228  0.822388  0.402931  1
  Te  Te29  1  0.500228  0.177612  0.597069  1
  Te  Te30  1  0.495612  0.318371  0.096548  1
  Te  Te31  1  0.495612  0.681629  0.903452  1
  Te  Te32  1  0.000215  0.605007  0.301914  1
  Te  Te33  1  0.000215  0.394993  0.698086  1
  Te  Te34  1  0.003983  0.107437  0.197083  1
  Te  Te35  1  0.003983  0.892563  0.802917  1
