# generated using pymatgen
data_Tb3DyRh4F28
_symmetry_space_group_name_H-M   'P 1'
_cell_length_a   5.53899027
_cell_length_b   8.91582399
_cell_length_c   11.95715058
_cell_angle_alpha   62.43464964
_cell_angle_beta   90.00981650
_cell_angle_gamma   90.02508858
_symmetry_Int_Tables_number   1
_chemical_formula_structural   Tb3DyRh4F28
_chemical_formula_sum   'Tb3 Dy1 Rh4 F28'
_cell_volume   523.46837471
_cell_formula_units_Z   1
loop_
 _symmetry_equiv_pos_site_id
 _symmetry_equiv_pos_as_xyz
  1  'x, y, z'
loop_
 _atom_site_type_symbol
 _atom_site_label
 _atom_site_symmetry_multiplicity
 _atom_site_fract_x
 _atom_site_fract_y
 _atom_site_fract_z
 _atom_site_occupancy
  Tb  Tb0  1  0.739335  0.186829  0.735169  1
  Tb  Tb1  1  0.760757  0.185981  0.235303  1
  Tb  Tb2  1  0.239092  0.813097  0.764692  1
  Dy  Dy3  1  0.260935  0.813305  0.264767  1
  Rh  Rh4  1  0.758042  0.726219  0.043847  1
  Rh  Rh5  1  0.242359  0.273564  0.956884  1
  Rh  Rh6  1  0.257814  0.274523  0.456407  1
  Rh  Rh7  1  0.742053  0.726123  0.542830  1
  F  F8  1  0.938172  0.707189  0.414728  1
  F  F9  1  0.062764  0.293250  0.584753  1
  F  F10  1  0.437719  0.292737  0.085201  1
  F  F11  1  0.562292  0.707188  0.915698  1
  F  F12  1  0.467330  0.729329  0.135244  1
  F  F13  1  0.533726  0.271048  0.865692  1
  F  F14  1  0.967057  0.271247  0.365394  1
  F  F15  1  0.032918  0.728816  0.634330  1
  F  F16  1  0.951307  0.743789  0.174222  1
  F  F17  1  0.050262  0.256531  0.825986  1
  F  F18  1  0.449730  0.257128  0.325830  1
  F  F19  1  0.549539  0.743238  0.673528  1
  F  F20  1  0.768866  0.482107  0.139682  1
  F  F21  1  0.231302  0.518049  0.860641  1
  F  F22  1  0.268724  0.518737  0.360395  1
  F  F23  1  0.730900  0.481815  0.639085  1
  F  F24  1  0.944195  0.280437  0.043043  1
  F  F25  1  0.055236  0.719305  0.957360  1
  F  F26  1  0.444098  0.719538  0.456269  1
  F  F27  1  0.555516  0.281185  0.542534  1
  F  F28  1  0.740806  0.970418  0.450138  1
  F  F29  1  0.259356  0.030473  0.549358  1
  F  F30  1  0.240583  0.029174  0.050014  1
  F  F31  1  0.759782  0.970116  0.950721  1
  F  F32  1  0.587247  0.968399  0.230719  1
  F  F33  1  0.410709  0.031104  0.769537  1
  F  F34  1  0.088919  0.029391  0.269450  1
  F  F35  1  0.910560  0.968620  0.730550  1
