# generated using pymatgen
data_Tb8SnPd13Pt11
_symmetry_space_group_name_H-M   'P 1'
_cell_length_a   8.42390004
_cell_length_b   8.42516104
_cell_length_c   8.42226402
_cell_angle_alpha   90.00654348
_cell_angle_beta   89.99474841
_cell_angle_gamma   90.00944003
_symmetry_Int_Tables_number   1
_chemical_formula_structural   Tb8SnPd13Pt11
_chemical_formula_sum   'Tb8 Sn1 Pd13 Pt11'
_cell_volume   597.75092472
_cell_formula_units_Z   1
loop_
 _symmetry_equiv_pos_site_id
 _symmetry_equiv_pos_as_xyz
  1  'x, y, z'
loop_
 _atom_site_type_symbol
 _atom_site_label
 _atom_site_symmetry_multiplicity
 _atom_site_fract_x
 _atom_site_fract_y
 _atom_site_fract_z
 _atom_site_occupancy
  Tb  Tb0  1  0.253443  0.252741  0.253419  1
  Tb  Tb1  1  0.747101  0.745930  0.747120  1
  Tb  Tb2  1  0.746708  0.746829  0.252958  1
  Tb  Tb3  1  0.746613  0.254037  0.746725  1
  Tb  Tb4  1  0.253372  0.253267  0.746498  1
  Tb  Tb5  1  0.253279  0.747399  0.253347  1
  Tb  Tb6  1  0.252962  0.746809  0.746652  1
  Tb  Tb7  1  0.746489  0.253226  0.253248  1
  Sn  Sn8  1  0.000298  0.000262  0.000256  1
  Pd  Pd9  1  0.500297  0.999953  0.735327  1
  Pd  Pd10  1  0.734967  0.000030  0.500311  1
  Pd  Pd11  1  0.000015  0.500040  0.264478  1
  Pd  Pd12  1  0.999995  0.500076  0.735646  1
  Pd  Pd13  1  0.499949  0.745392  0.499878  1
  Pd  Pd14  1  0.500079  0.500088  0.254743  1
  Pd  Pd15  1  0.500045  0.500040  0.745257  1
  Pd  Pd16  1  0.308442  0.999875  0.999580  1
  Pd  Pd17  1  0.691807  0.999933  0.999668  1
  Pd  Pd18  1  0.999942  0.308564  0.999907  1
  Pd  Pd19  1  0.000000  0.691783  0.999955  1
  Pd  Pd20  1  0.999554  0.999875  0.308269  1
  Pd  Pd21  1  0.999648  0.999922  0.691990  1
  Pt  Pt22  1  0.264381  0.500058  0.999990  1
  Pt  Pt23  1  0.735735  0.500097  0.999981  1
  Pt  Pt24  1  0.999820  0.264686  0.500059  1
  Pt  Pt25  1  0.500049  0.264339  0.999937  1
  Pt  Pt26  1  0.999858  0.735054  0.500059  1
  Pt  Pt27  1  0.500049  0.735600  0.999961  1
  Pt  Pt28  1  0.500149  0.000038  0.264631  1
  Pt  Pt29  1  0.265010  0.000125  0.500170  1
  Pt  Pt30  1  0.253955  0.499908  0.500116  1
  Pt  Pt31  1  0.746040  0.499861  0.500064  1
  Pt  Pt32  1  0.499950  0.254163  0.499799  1
