# generated using pymatgen
data_RbDyUSe6
_symmetry_space_group_name_H-M   'P 1'
_cell_length_a   11.84696575
_cell_length_b   11.84696724
_cell_length_c   11.84696640
_cell_angle_alpha   159.80232719
_cell_angle_beta   152.67354950
_cell_angle_gamma   34.21713181
_symmetry_Int_Tables_number   1
_chemical_formula_structural   RbDyUSe6
_chemical_formula_sum   'Rb1 Dy1 U1 Se6'
_cell_volume   263.28711359
_cell_formula_units_Z   1
loop_
 _symmetry_equiv_pos_site_id
 _symmetry_equiv_pos_as_xyz
  1  'x, y, z'
loop_
 _atom_site_type_symbol
 _atom_site_label
 _atom_site_symmetry_multiplicity
 _atom_site_fract_x
 _atom_site_fract_y
 _atom_site_fract_z
 _atom_site_occupancy
  Rb  Rb0  1  0.998591  0.998591  0.000000  1
  Dy  Dy1  1  0.315193  0.815193  0.500000  1
  U  U2  1  0.686801  0.186801  0.500000  1
  Se  Se3  1  0.772485  0.772485  0.000000  1
  Se  Se4  1  0.832258  0.611319  0.220940  1
  Se  Se5  1  0.173671  0.390706  0.782964  1
  Se  Se6  1  0.222880  0.222880  0.000000  1
  Se  Se7  1  0.390380  0.611319  0.779060  1
  Se  Se8  1  0.607743  0.390706  0.217036  1
