# generated using pymatgen
data_Ba8Li2Ta3Nb3O24
_symmetry_space_group_name_H-M   'P 1'
_cell_length_a   5.87499600
_cell_length_b   5.87499655
_cell_length_c   19.36164600
_cell_angle_alpha   90.00000000
_cell_angle_beta   90.00000000
_cell_angle_gamma   119.99998562
_symmetry_Int_Tables_number   1
_chemical_formula_structural   Ba8Li2Ta3Nb3O24
_chemical_formula_sum   'Ba8 Li2 Ta3 Nb3 O24'
_cell_volume   578.74621198
_cell_formula_units_Z   1
loop_
 _symmetry_equiv_pos_site_id
 _symmetry_equiv_pos_as_xyz
  1  'x, y, z'
loop_
 _atom_site_type_symbol
 _atom_site_label
 _atom_site_symmetry_multiplicity
 _atom_site_fract_x
 _atom_site_fract_y
 _atom_site_fract_z
 _atom_site_occupancy
  Ba  Ba0  1  0.666667  0.333333  0.249409  1
  Ba  Ba1  1  0.333333  0.666667  0.749880  1
  Ba  Ba2  1  0.666667  0.333333  0.870856  1
  Ba  Ba3  1  0.333333  0.666667  0.370965  1
  Ba  Ba4  1  0.666667  0.333333  0.642908  1
  Ba  Ba5  1  0.333333  0.666667  0.143819  1
  Ba  Ba6  1  0.000000  0.000000  0.501308  1
  Ba  Ba7  1  0.000000  0.000000  0.002456  1
  Li  Li8  1  0.000000  0.000000  0.164431  1
  Li  Li9  1  0.000000  0.000000  0.665075  1
  Ta  Ta10  1  0.666667  0.333333  0.439447  1
  Ta  Ta11  1  0.333333  0.666667  0.939678  1
  Ta  Ta12  1  0.666667  0.333333  0.066313  1
  Nb  Nb13  1  0.333333  0.666667  0.567171  1
  Nb  Nb14  1  0.000000  0.000000  0.808630  1
  Nb  Nb15  1  0.000000  0.000000  0.308400  1
  O  O16  1  0.840601  0.681203  0.757123  1
  O  O17  1  0.159554  0.319108  0.257037  1
  O  O18  1  0.680892  0.840446  0.257037  1
  O  O19  1  0.840601  0.159399  0.757123  1
  O  O20  1  0.170948  0.829052  0.879149  1
  O  O21  1  0.341135  0.170567  0.378955  1
  O  O22  1  0.829433  0.658865  0.378955  1
  O  O23  1  0.170948  0.341896  0.879149  1
  O  O24  1  0.658104  0.829052  0.879149  1
  O  O25  1  0.829433  0.170567  0.378955  1
  O  O26  1  0.172921  0.827079  0.618803  1
  O  O27  1  0.347472  0.173735  0.118009  1
  O  O28  1  0.159554  0.840446  0.257037  1
  O  O29  1  0.318797  0.159399  0.757123  1
  O  O30  1  0.498807  0.501193  0.997035  1
  O  O31  1  0.995409  0.497704  0.496974  1
  O  O32  1  0.502296  0.004591  0.496974  1
  O  O33  1  0.498807  0.997615  0.997035  1
  O  O34  1  0.002385  0.501193  0.997035  1
  O  O35  1  0.502296  0.497704  0.496974  1
  O  O36  1  0.826265  0.173735  0.118009  1
  O  O37  1  0.654156  0.827079  0.618803  1
  O  O38  1  0.172921  0.345844  0.618803  1
  O  O39  1  0.826265  0.652528  0.118009  1
