# generated using pymatgen
data_Dy2Sc2Mn9Fe11P12
_symmetry_space_group_name_H-M   'P 1'
_cell_length_a   3.61752300
_cell_length_b   10.23789969
_cell_length_c   12.05945934
_cell_angle_alpha   89.73489069
_cell_angle_beta   90.00000000
_cell_angle_gamma   90.00000000
_symmetry_Int_Tables_number   1
_chemical_formula_structural   Dy2Sc2Mn9Fe11P12
_chemical_formula_sum   'Dy2 Sc2 Mn9 Fe11 P12'
_cell_volume   446.62739654
_cell_formula_units_Z   1
loop_
 _symmetry_equiv_pos_site_id
 _symmetry_equiv_pos_as_xyz
  1  'x, y, z'
loop_
 _atom_site_type_symbol
 _atom_site_label
 _atom_site_symmetry_multiplicity
 _atom_site_fract_x
 _atom_site_fract_y
 _atom_site_fract_z
 _atom_site_occupancy
  Dy  Dy0  1  0.750000  0.424332  0.291409  1
  Dy  Dy1  1  0.750000  0.080091  0.788308  1
  Sc  Sc2  1  0.250000  0.579882  0.710830  1
  Sc  Sc3  1  0.250000  0.916131  0.211501  1
  Mn  Mn4  1  0.250000  0.706194  0.992431  1
  Mn  Mn5  1  0.250000  0.794425  0.492654  1
  Mn  Mn6  1  0.750000  0.291992  0.011774  1
  Mn  Mn7  1  0.750000  0.206797  0.508469  1
  Mn  Mn8  1  0.250000  0.411745  0.493850  1
  Mn  Mn9  1  0.250000  0.088993  0.991032  1
  Mn  Mn10  1  0.750000  0.592497  0.512601  1
  Mn  Mn11  1  0.750000  0.903906  0.010148  1
  Mn  Mn12  1  0.250000  0.217166  0.174158  1
  Fe  Fe13  1  0.250000  0.279963  0.671853  1
  Fe  Fe14  1  0.750000  0.776667  0.826712  1
  Fe  Fe15  1  0.750000  0.723337  0.327820  1
  Fe  Fe16  1  0.250000  0.875263  0.694722  1
  Fe  Fe17  1  0.250000  0.626265  0.195899  1
  Fe  Fe18  1  0.750000  0.124307  0.299463  1
  Fe  Fe19  1  0.750000  0.378623  0.804133  1
  Fe  Fe20  1  0.250000  0.464199  0.934003  1
  Fe  Fe21  1  0.250000  0.036575  0.432399  1
  Fe  Fe22  1  0.750000  0.540117  0.062695  1
  Fe  Fe23  1  0.750000  0.960701  0.562213  1
  P  P24  1  0.250000  0.426955  0.112317  1
  P  P25  1  0.250000  0.076307  0.611180  1
  P  P26  1  0.750000  0.576162  0.882642  1
  P  P27  1  0.750000  0.923766  0.382667  1
  P  P28  1  0.250000  0.268627  0.861740  1
  P  P29  1  0.250000  0.235729  0.368175  1
  P  P30  1  0.750000  0.735451  0.140037  1
  P  P31  1  0.750000  0.764194  0.639558  1
  P  P32  1  0.250000  0.605623  0.382733  1
  P  P33  1  0.250000  0.895832  0.880854  1
  P  P34  1  0.750000  0.401120  0.621506  1
  P  P35  1  0.750000  0.090069  0.115512  1
