# generated using pymatgen
data_NdEu2(ZnRu)2
_symmetry_space_group_name_H-M   'P 1'
_cell_length_a   5.66396600
_cell_length_b   7.98861800
_cell_length_c   14.17077600
_cell_angle_alpha   90.00000000
_cell_angle_beta   90.00000000
_cell_angle_gamma   90.00000000
_symmetry_Int_Tables_number   1
_chemical_formula_structural   NdEu2(ZnRu)2
_chemical_formula_sum   'Nd4 Eu8 Zn8 Ru8'
_cell_volume   641.18879655
_cell_formula_units_Z   4
loop_
 _symmetry_equiv_pos_site_id
 _symmetry_equiv_pos_as_xyz
  1  'x, y, z'
loop_
 _atom_site_type_symbol
 _atom_site_label
 _atom_site_symmetry_multiplicity
 _atom_site_fract_x
 _atom_site_fract_y
 _atom_site_fract_z
 _atom_site_occupancy
  Nd  Nd0  1  0.846664  0.594296  0.405729  1
  Nd  Nd1  1  0.153336  0.405704  0.905729  1
  Nd  Nd2  1  0.846664  0.905704  0.594271  1
  Nd  Nd3  1  0.153336  0.094296  0.094271  1
  Eu  Eu4  1  0.153208  0.401156  0.595516  1
  Eu  Eu5  1  0.846792  0.598844  0.095516  1
  Eu  Eu6  1  0.153208  0.098844  0.404484  1
  Eu  Eu7  1  0.846792  0.901156  0.904484  1
  Eu  Eu8  1  0.630368  0.257849  0.750719  1
  Eu  Eu9  1  0.369632  0.742151  0.250719  1
  Eu  Eu10  1  0.630368  0.242151  0.249281  1
  Eu  Eu11  1  0.369632  0.757849  0.749281  1
  Zn  Zn12  1  0.149267  0.101867  0.750380  1
  Zn  Zn13  1  0.850733  0.898133  0.250380  1
  Zn  Zn14  1  0.149267  0.398133  0.249620  1
  Zn  Zn15  1  0.850733  0.601867  0.749620  1
  Zn  Zn16  1  0.619777  0.250000  0.500000  1
  Zn  Zn17  1  0.380223  0.750000  0.000000  1
  Zn  Zn18  1  0.368387  0.750000  0.500000  1
  Zn  Zn19  1  0.631613  0.250000  0.000000  1
  Ru  Ru20  1  0.349411  0.033992  0.591696  1
  Ru  Ru21  1  0.650589  0.966008  0.091696  1
  Ru  Ru22  1  0.349411  0.466008  0.408304  1
  Ru  Ru23  1  0.650589  0.533992  0.908304  1
  Ru  Ru24  1  0.664132  0.957669  0.412516  1
  Ru  Ru25  1  0.335868  0.042331  0.912516  1
  Ru  Ru26  1  0.664132  0.542331  0.587484  1
  Ru  Ru27  1  0.335868  0.457669  0.087484  1
