# generated using pymatgen
data_Tb8Ti3Si16Tc9
_symmetry_space_group_name_H-M   'P 1'
_cell_length_a   6.80303321
_cell_length_b   6.80303321
_cell_length_c   12.97134623
_cell_angle_alpha   89.97934409
_cell_angle_beta   90.02065591
_cell_angle_gamma   89.49511369
_symmetry_Int_Tables_number   1
_chemical_formula_structural   Tb8Ti3Si16Tc9
_chemical_formula_sum   'Tb8 Ti3 Si16 Tc9'
_cell_volume   600.30687189
_cell_formula_units_Z   1
loop_
 _symmetry_equiv_pos_site_id
 _symmetry_equiv_pos_as_xyz
  1  'x, y, z'
loop_
 _atom_site_type_symbol
 _atom_site_label
 _atom_site_symmetry_multiplicity
 _atom_site_fract_x
 _atom_site_fract_y
 _atom_site_fract_z
 _atom_site_occupancy
  Tb  Tb0  1  0.336842  0.002540  0.471156  1
  Tb  Tb1  1  0.509062  0.823253  0.716786  1
  Tb  Tb2  1  0.488367  0.179489  0.216667  1
  Tb  Tb3  1  0.823253  0.509062  0.283214  1
  Tb  Tb4  1  0.179489  0.488367  0.783333  1
  Tb  Tb5  1  0.662498  0.998164  0.971787  1
  Tb  Tb6  1  0.002540  0.336842  0.528844  1
  Tb  Tb7  1  0.998164  0.662498  0.028213  1
  Ti  Ti8  1  0.155944  0.844723  0.249003  1
  Ti  Ti9  1  0.844723  0.155944  0.750997  1
  Ti  Ti10  1  0.665773  0.665773  0.500000  1
  Si  Si11  1  0.210990  0.117287  0.681286  1
  Si  Si12  1  0.398119  0.680816  0.941116  1
  Si  Si13  1  0.610881  0.308347  0.438436  1
  Si  Si14  1  0.680816  0.398119  0.058884  1
  Si  Si15  1  0.308347  0.610881  0.561564  1
  Si  Si16  1  0.787410  0.884443  0.183125  1
  Si  Si17  1  0.117287  0.210990  0.318714  1
  Si  Si18  1  0.884443  0.787410  0.816875  1
  Si  Si19  1  0.262420  0.986394  0.055236  1
  Si  Si20  1  0.525242  0.802851  0.314166  1
  Si  Si21  1  0.471908  0.198669  0.815100  1
  Si  Si22  1  0.802851  0.525242  0.685834  1
  Si  Si23  1  0.198669  0.471908  0.184900  1
  Si  Si24  1  0.730738  0.022660  0.557507  1
  Si  Si25  1  0.986394  0.262420  0.944764  1
  Si  Si26  1  0.022660  0.730738  0.442493  1
  Tc  Tc27  1  0.334449  0.334449  0.000000  1
  Tc  Tc28  1  0.182167  0.983008  0.864550  1
  Tc  Tc29  1  0.473664  0.693232  0.132166  1
  Tc  Tc30  1  0.523710  0.314664  0.632518  1
  Tc  Tc31  1  0.693232  0.473664  0.867834  1
  Tc  Tc32  1  0.314664  0.523710  0.367482  1
  Tc  Tc33  1  0.818527  0.010750  0.364126  1
  Tc  Tc34  1  0.983008  0.182167  0.135450  1
  Tc  Tc35  1  0.010750  0.818527  0.635874  1
