# generated using pymatgen
data_Dy10Tl3Tc
_symmetry_space_group_name_H-M   'P 1'
_cell_length_a   9.55556800
_cell_length_b   9.55556832
_cell_length_c   9.96543100
_cell_angle_alpha   90.00000000
_cell_angle_beta   90.00000000
_cell_angle_gamma   119.99999891
_symmetry_Int_Tables_number   1
_chemical_formula_structural   Dy10Tl3Tc
_chemical_formula_sum   'Dy20 Tl6 Tc2'
_cell_volume   788.02455804
_cell_formula_units_Z   2
loop_
 _symmetry_equiv_pos_site_id
 _symmetry_equiv_pos_as_xyz
  1  'x, y, z'
loop_
 _atom_site_type_symbol
 _atom_site_label
 _atom_site_symmetry_multiplicity
 _atom_site_fract_x
 _atom_site_fract_y
 _atom_site_fract_z
 _atom_site_occupancy
  Dy  Dy0  1  0.000000  0.000000  0.500000  1
  Dy  Dy1  1  0.000000  0.000000  0.000000  1
  Dy  Dy2  1  0.210369  0.789631  0.440030  1
  Dy  Dy3  1  0.210369  0.420739  0.440030  1
  Dy  Dy4  1  0.579261  0.789631  0.440030  1
  Dy  Dy5  1  0.789631  0.210369  0.559970  1
  Dy  Dy6  1  0.789631  0.579261  0.559970  1
  Dy  Dy7  1  0.420739  0.210369  0.559970  1
  Dy  Dy8  1  0.789631  0.210369  0.940030  1
  Dy  Dy9  1  0.789631  0.579261  0.940030  1
  Dy  Dy10  1  0.420739  0.210369  0.940030  1
  Dy  Dy11  1  0.210369  0.789631  0.059970  1
  Dy  Dy12  1  0.210369  0.420739  0.059970  1
  Dy  Dy13  1  0.579261  0.789631  0.059970  1
  Dy  Dy14  1  0.538319  0.461681  0.250000  1
  Dy  Dy15  1  0.538319  0.076637  0.250000  1
  Dy  Dy16  1  0.923363  0.461681  0.250000  1
  Dy  Dy17  1  0.461681  0.538319  0.750000  1
  Dy  Dy18  1  0.461681  0.923363  0.750000  1
  Dy  Dy19  1  0.076637  0.538319  0.750000  1
  Tl  Tl20  1  0.883785  0.116215  0.250000  1
  Tl  Tl21  1  0.883785  0.767572  0.250000  1
  Tl  Tl22  1  0.232428  0.116215  0.250000  1
  Tl  Tl23  1  0.116215  0.883785  0.750000  1
  Tl  Tl24  1  0.116215  0.232428  0.750000  1
  Tl  Tl25  1  0.767572  0.883785  0.750000  1
  Tc  Tc26  1  0.333333  0.666667  0.250000  1
  Tc  Tc27  1  0.666667  0.333333  0.750000  1
