# generated using pymatgen
data_Ho4Lu2GaNiOs
_symmetry_space_group_name_H-M   'P 1'
_cell_length_a   8.28586622
_cell_length_b   8.28586510
_cell_length_c   8.28586561
_cell_angle_alpha   113.20068334
_cell_angle_beta   110.49769184
_cell_angle_gamma   104.82558085
_symmetry_Int_Tables_number   1
_chemical_formula_structural   Ho4Lu2GaNiOs
_chemical_formula_sum   'Ho8 Lu4 Ga2 Ni2 Os2'
_cell_volume   435.51598953
_cell_formula_units_Z   2
loop_
 _symmetry_equiv_pos_site_id
 _symmetry_equiv_pos_as_xyz
  1  'x, y, z'
loop_
 _atom_site_type_symbol
 _atom_site_label
 _atom_site_symmetry_multiplicity
 _atom_site_fract_x
 _atom_site_fract_y
 _atom_site_fract_z
 _atom_site_occupancy
  Ho  Ho0  1  0.435095  0.243143  0.191952  1
  Ho  Ho1  1  0.564905  0.756857  0.808048  1
  Ho  Ho2  1  0.051191  0.243143  0.808048  1
  Ho  Ho3  1  0.948809  0.756857  0.191952  1
  Ho  Ho4  1  0.179147  0.279371  0.458518  1
  Ho  Ho5  1  0.820853  0.720629  0.541482  1
  Ho  Ho6  1  0.179147  0.720629  0.899777  1
  Ho  Ho7  1  0.820853  0.279371  0.100223  1
  Lu  Lu8  1  0.332792  0.647591  0.314799  1
  Lu  Lu9  1  0.667208  0.352409  0.685201  1
  Lu  Lu10  1  0.332792  0.017992  0.685201  1
  Lu  Lu11  1  0.667208  0.982008  0.314799  1
  Ga  Ga12  1  0.500000  0.500000  0.000000  1
  Ga  Ga13  1  0.000000  0.000000  0.000000  1
  Ni  Ni14  1  0.121791  0.621791  0.500000  1
  Ni  Ni15  1  0.878209  0.378209  0.500000  1
  Os  Os16  1  0.329645  0.000000  0.329645  1
  Os  Os17  1  0.670355  0.000000  0.670355  1
