# generated using pymatgen
data_TbSc15(Ga3Fe)2
_symmetry_space_group_name_H-M   'P 1'
_cell_length_a   9.38679200
_cell_length_b   9.38679171
_cell_length_c   6.50408900
_cell_angle_alpha   90.00000000
_cell_angle_beta   90.00000000
_cell_angle_gamma   120.00000101
_symmetry_Int_Tables_number   1
_chemical_formula_structural   TbSc15(Ga3Fe)2
_chemical_formula_sum   'Tb1 Sc15 Ga6 Fe2'
_cell_volume   496.30823169
_cell_formula_units_Z   1
loop_
 _symmetry_equiv_pos_site_id
 _symmetry_equiv_pos_as_xyz
  1  'x, y, z'
loop_
 _atom_site_type_symbol
 _atom_site_label
 _atom_site_symmetry_multiplicity
 _atom_site_fract_x
 _atom_site_fract_y
 _atom_site_fract_z
 _atom_site_occupancy
  Tb  Tb0  1  0.000000  0.000000  0.272132  1
  Sc  Sc1  1  0.823900  0.647800  0.495778  1
  Sc  Sc2  1  0.352200  0.176100  0.495778  1
  Sc  Sc3  1  0.823900  0.176100  0.495778  1
  Sc  Sc4  1  0.175767  0.351531  0.990145  1
  Sc  Sc5  1  0.648469  0.824233  0.990145  1
  Sc  Sc6  1  0.175767  0.824233  0.990145  1
  Sc  Sc7  1  0.666667  0.333333  0.169450  1
  Sc  Sc8  1  0.333333  0.666667  0.671779  1
  Sc  Sc9  1  0.533434  0.066865  0.789957  1
  Sc  Sc10  1  0.933135  0.466566  0.789957  1
  Sc  Sc11  1  0.533434  0.466566  0.789957  1
  Sc  Sc12  1  0.466195  0.932391  0.289938  1
  Sc  Sc13  1  0.067609  0.533805  0.289938  1
  Sc  Sc14  1  0.466195  0.533805  0.289938  1
  Sc  Sc15  1  0.000000  0.000000  0.770270  1
  Ga  Ga16  1  0.834455  0.668913  0.033842  1
  Ga  Ga17  1  0.331087  0.165545  0.033842  1
  Ga  Ga18  1  0.834455  0.165545  0.033842  1
  Ga  Ga19  1  0.164958  0.329915  0.541250  1
  Ga  Ga20  1  0.670085  0.835042  0.541250  1
  Ga  Ga21  1  0.164958  0.835042  0.541250  1
  Fe  Fe22  1  0.666667  0.333333  0.558986  1
  Fe  Fe23  1  0.333333  0.666667  0.060726  1
