# generated using pymatgen
data_Dy3Ho7Lu6(Ga3Co)2
_symmetry_space_group_name_H-M   'P 1'
_cell_length_a   9.87928400
_cell_length_b   9.87999977
_cell_length_c   6.91349700
_cell_angle_alpha   89.99915996
_cell_angle_beta   90.00339325
_cell_angle_gamma   119.99819973
_symmetry_Int_Tables_number   1
_chemical_formula_structural   Dy3Ho7Lu6(Ga3Co)2
_chemical_formula_sum   'Dy3 Ho7 Lu6 Ga6 Co2'
_cell_volume   584.41141839
_cell_formula_units_Z   1
loop_
 _symmetry_equiv_pos_site_id
 _symmetry_equiv_pos_as_xyz
  1  'x, y, z'
loop_
 _atom_site_type_symbol
 _atom_site_label
 _atom_site_symmetry_multiplicity
 _atom_site_fract_x
 _atom_site_fract_y
 _atom_site_fract_z
 _atom_site_occupancy
  Dy  Dy0  1  0.536781  0.073567  0.708012  1
  Dy  Dy1  1  0.000033  0.000056  0.232030  1
  Dy  Dy2  1  0.999993  0.999994  0.732044  1
  Ho  Ho3  1  0.333258  0.666515  0.826155  1
  Ho  Ho4  1  0.666770  0.333525  0.326039  1
  Ho  Ho5  1  0.463044  0.536935  0.207918  1
  Ho  Ho6  1  0.073899  0.536942  0.207900  1
  Ho  Ho7  1  0.462974  0.925959  0.207969  1
  Ho  Ho8  1  0.536940  0.463183  0.707899  1
  Ho  Ho9  1  0.926230  0.463182  0.707893  1
  Lu  Lu10  1  0.173215  0.826457  0.511126  1
  Lu  Lu11  1  0.653252  0.826470  0.511118  1
  Lu  Lu12  1  0.173423  0.346832  0.511277  1
  Lu  Lu13  1  0.826746  0.173459  0.011399  1
  Lu  Lu14  1  0.346715  0.173459  0.011399  1
  Lu  Lu15  1  0.826585  0.653175  0.011243  1
  Ga  Ga16  1  0.163133  0.836845  0.958868  1
  Ga  Ga17  1  0.673711  0.836847  0.958877  1
  Ga  Ga18  1  0.163136  0.326263  0.958755  1
  Ga  Ga19  1  0.837010  0.163160  0.458657  1
  Ga  Ga20  1  0.326145  0.163162  0.458650  1
  Ga  Ga21  1  0.836851  0.673700  0.458841  1
  Co  Co22  1  0.333328  0.666654  0.445284  1
  Co  Co23  1  0.666827  0.333658  0.945483  1
