# generated using pymatgen
data_NaMo2(As2O7)2
_symmetry_space_group_name_H-M   'P 1'
_cell_length_a   5.14630402
_cell_length_b   7.36867254
_cell_length_c   8.66356698
_cell_angle_alpha   91.20864718
_cell_angle_beta   91.88758744
_cell_angle_gamma   106.31562564
_symmetry_Int_Tables_number   1
_chemical_formula_structural   NaMo2(As2O7)2
_chemical_formula_sum   'Na1 Mo2 As4 O14'
_cell_volume   314.97547782
_cell_formula_units_Z   1
loop_
 _symmetry_equiv_pos_site_id
 _symmetry_equiv_pos_as_xyz
  1  'x, y, z'
loop_
 _atom_site_type_symbol
 _atom_site_label
 _atom_site_symmetry_multiplicity
 _atom_site_fract_x
 _atom_site_fract_y
 _atom_site_fract_z
 _atom_site_occupancy
  Na  Na0  1  0.613131  0.991197  0.032871  1
  Mo  Mo1  1  0.498246  0.001002  0.500257  1
  Mo  Mo2  1  0.001261  0.502485  0.998726  1
  As  As3  1  0.467458  0.364054  0.242473  1
  As  As4  1  0.533180  0.636020  0.756018  1
  As  As5  1  0.887531  0.758591  0.310825  1
  As  As6  1  0.107487  0.238528  0.691082  1
  O  O7  1  0.685675  0.910861  0.317433  1
  O  O8  1  0.311259  0.089284  0.679636  1
  O  O9  1  0.847999  0.200616  0.554056  1
  O  O10  1  0.150713  0.798025  0.444559  1
  O  O11  1  0.213261  0.460311  0.202490  1
  O  O12  1  0.791503  0.543078  0.794214  1
  O  O13  1  0.025425  0.244209  0.879662  1
  O  O14  1  0.957192  0.753461  0.120062  1
  O  O15  1  0.291835  0.467510  0.633212  1
  O  O16  1  0.702464  0.531231  0.370494  1
  O  O17  1  0.636635  0.313634  0.087771  1
  O  O18  1  0.374861  0.688152  0.915008  1
  O  O19  1  0.648206  0.830647  0.648457  1
  O  O20  1  0.349582  0.167304  0.346997  1
