# generated using pymatgen
data_Ho3Lu7(AlBi)4
_symmetry_space_group_name_H-M   'P 1'
_cell_length_a   8.67924423
_cell_length_b   8.81405591
_cell_length_c   7.99225100
_cell_angle_alpha   89.95413246
_cell_angle_beta   89.84630437
_cell_angle_gamma   125.76311561
_symmetry_Int_Tables_number   1
_chemical_formula_structural   Ho3Lu7(AlBi)4
_chemical_formula_sum   'Ho3 Lu7 Al4 Bi4'
_cell_volume   496.11224062
_cell_formula_units_Z   1
loop_
 _symmetry_equiv_pos_site_id
 _symmetry_equiv_pos_as_xyz
  1  'x, y, z'
loop_
 _atom_site_type_symbol
 _atom_site_label
 _atom_site_symmetry_multiplicity
 _atom_site_fract_x
 _atom_site_fract_y
 _atom_site_fract_z
 _atom_site_occupancy
  Ho  Ho0  1  0.192935  0.453637  0.827964  1
  Ho  Ho1  1  0.693586  0.955185  0.672324  1
  Ho  Ho2  1  0.309176  0.045917  0.327428  1
  Lu  Lu3  1  0.038503  0.289458  0.333295  1
  Lu  Lu4  1  0.963393  0.712112  0.666639  1
  Lu  Lu5  1  0.461935  0.211211  0.833615  1
  Lu  Lu6  1  0.801327  0.545429  0.169913  1
  Lu  Lu7  1  0.537905  0.787660  0.166375  1
  Lu  Lu8  1  0.998894  0.998477  0.000731  1
  Lu  Lu9  1  0.501623  0.500736  0.499600  1
  Al  Al10  1  0.375708  0.375004  0.123290  1
  Al  Al11  1  0.623835  0.624201  0.876127  1
  Al  Al12  1  0.124288  0.124174  0.622972  1
  Al  Al13  1  0.877318  0.875678  0.375981  1
  Bi  Bi14  1  0.782928  0.200405  0.013719  1
  Bi  Bi15  1  0.212374  0.797292  0.990284  1
  Bi  Bi16  1  0.717736  0.303352  0.510447  1
  Bi  Bi17  1  0.286536  0.700071  0.489294  1
