# generated using pymatgen
data_Ho8Er8In4IrPd3
_symmetry_space_group_name_H-M   'P 1'
_cell_length_a   9.64108426
_cell_length_b   9.66205441
_cell_length_c   9.65317516
_cell_angle_alpha   60.04148979
_cell_angle_beta   59.97880702
_cell_angle_gamma   60.03497246
_symmetry_Int_Tables_number   1
_chemical_formula_structural   Ho8Er8In4IrPd3
_chemical_formula_sum   'Ho8 Er8 In4 Ir1 Pd3'
_cell_volume   636.10905361
_cell_formula_units_Z   1
loop_
 _symmetry_equiv_pos_site_id
 _symmetry_equiv_pos_as_xyz
  1  'x, y, z'
loop_
 _atom_site_type_symbol
 _atom_site_label
 _atom_site_symmetry_multiplicity
 _atom_site_fract_x
 _atom_site_fract_y
 _atom_site_fract_z
 _atom_site_occupancy
  Ho  Ho0  1  0.063167  0.063171  0.436973  1
  Ho  Ho1  1  0.647153  0.060094  0.646598  1
  Ho  Ho2  1  0.190302  0.808518  0.190651  1
  Ho  Ho3  1  0.436419  0.063640  0.436534  1
  Ho  Ho4  1  0.185416  0.193876  0.810173  1
  Ho  Ho5  1  0.651312  0.644564  0.651075  1
  Ho  Ho6  1  0.054017  0.644636  0.650831  1
  Ho  Ho7  1  0.436565  0.063660  0.063377  1
  Er  Er8  1  0.651590  0.644676  0.052561  1
  Er  Er9  1  0.190165  0.808746  0.810367  1
  Er  Er10  1  0.810248  0.193357  0.811096  1
  Er  Er11  1  0.809799  0.193820  0.185318  1
  Er  Er12  1  0.810328  0.809510  0.189927  1
  Er  Er13  1  0.062623  0.434880  0.440317  1
  Er  Er14  1  0.439693  0.434552  0.062833  1
  Er  Er15  1  0.062526  0.435161  0.062044  1
  In  In16  1  0.749616  0.416983  0.416601  1
  In  In17  1  0.416548  0.416630  0.750448  1
  In  In18  1  0.416990  0.749292  0.416788  1
  In  In19  1  0.416666  0.416674  0.416256  1
  Ir  Ir20  1  0.856964  0.428774  0.857384  1
  Pd  Pd21  1  0.856211  0.858082  0.856185  1
  Pd  Pd22  1  0.429761  0.858230  0.856004  1
  Pd  Pd23  1  0.855924  0.858478  0.429664  1
