# generated using pymatgen
data_K6TmInAs4
_symmetry_space_group_name_H-M   'P 1'
_cell_length_a   9.35995596
_cell_length_b   9.35995601
_cell_length_c   9.35995585
_cell_angle_alpha   129.46466690
_cell_angle_beta   68.50017947
_cell_angle_gamma   136.96156416
_symmetry_Int_Tables_number   1
_chemical_formula_structural   K6TmInAs4
_chemical_formula_sum   'K6 Tm1 In1 As4'
_cell_volume   424.51090679
_cell_formula_units_Z   1
loop_
 _symmetry_equiv_pos_site_id
 _symmetry_equiv_pos_as_xyz
  1  'x, y, z'
loop_
 _atom_site_type_symbol
 _atom_site_label
 _atom_site_symmetry_multiplicity
 _atom_site_fract_x
 _atom_site_fract_y
 _atom_site_fract_z
 _atom_site_occupancy
  K  K0  1  0.250000  0.250000  0.000000  1
  K  K1  1  0.750000  0.750000  0.000000  1
  K  K2  1  0.300683  0.796297  0.118166  1
  K  K3  1  0.199317  0.317483  0.495613  1
  K  K4  1  0.821871  0.703703  0.504387  1
  K  K5  1  0.678130  0.182517  0.881833  1
  Tm  Tm6  1  0.750000  0.250000  0.500000  1
  In  In7  1  0.250000  0.750000  0.500000  1
  As  As8  1  0.902575  0.309596  0.204988  1
  As  As9  1  0.597426  0.802414  0.407020  1
  As  As10  1  0.395392  0.190404  0.592979  1
  As  As11  1  0.104607  0.697586  0.795011  1
