# generated using pymatgen
data_ThInCu4Rh
_symmetry_space_group_name_H-M   'P 1'
_cell_length_a   4.97244500
_cell_length_b   8.46016600
_cell_length_c   10.88335600
_cell_angle_alpha   90.00000000
_cell_angle_beta   90.00000000
_cell_angle_gamma   90.00000000
_symmetry_Int_Tables_number   1
_chemical_formula_structural   ThInCu4Rh
_chemical_formula_sum   'Th4 In4 Cu16 Rh4'
_cell_volume   457.83786540
_cell_formula_units_Z   4
loop_
 _symmetry_equiv_pos_site_id
 _symmetry_equiv_pos_as_xyz
  1  'x, y, z'
loop_
 _atom_site_type_symbol
 _atom_site_label
 _atom_site_symmetry_multiplicity
 _atom_site_fract_x
 _atom_site_fract_y
 _atom_site_fract_z
 _atom_site_occupancy
  Th  Th0  1  0.750000  0.237485  0.935414  1
  Th  Th1  1  0.250000  0.762515  0.064586  1
  Th  Th2  1  0.750000  0.737485  0.564586  1
  Th  Th3  1  0.250000  0.262515  0.435414  1
  In  In4  1  0.750000  0.353981  0.642727  1
  In  In5  1  0.250000  0.646019  0.357273  1
  In  In6  1  0.750000  0.853981  0.857273  1
  In  In7  1  0.250000  0.146019  0.142727  1
  Cu  Cu8  1  0.998907  0.434617  0.188660  1
  Cu  Cu9  1  0.498907  0.565383  0.811340  1
  Cu  Cu10  1  0.501093  0.934617  0.311340  1
  Cu  Cu11  1  0.001093  0.065383  0.688660  1
  Cu  Cu12  1  0.001093  0.565383  0.811340  1
  Cu  Cu13  1  0.501093  0.434617  0.188660  1
  Cu  Cu14  1  0.498907  0.065383  0.688660  1
  Cu  Cu15  1  0.998907  0.934617  0.311340  1
  Cu  Cu16  1  0.750000  0.188143  0.265019  1
  Cu  Cu17  1  0.250000  0.811857  0.734981  1
  Cu  Cu18  1  0.750000  0.688143  0.234981  1
  Cu  Cu19  1  0.250000  0.311857  0.765019  1
  Cu  Cu20  1  0.750000  0.076773  0.487811  1
  Cu  Cu21  1  0.250000  0.923227  0.512189  1
  Cu  Cu22  1  0.750000  0.576773  0.012189  1
  Cu  Cu23  1  0.250000  0.423227  0.987811  1
  Rh  Rh24  1  0.750000  0.456422  0.406965  1
  Rh  Rh25  1  0.250000  0.543578  0.593035  1
  Rh  Rh26  1  0.750000  0.956422  0.093035  1
  Rh  Rh27  1  0.250000  0.043578  0.906965  1
