# generated using pymatgen
data_Nd6Dy3LuPb6
_symmetry_space_group_name_H-M   'P 1'
_cell_length_a   9.26460800
_cell_length_b   9.26460860
_cell_length_c   6.76268500
_cell_angle_alpha   90.00000000
_cell_angle_beta   90.00000000
_cell_angle_gamma   120.00000500
_symmetry_Int_Tables_number   1
_chemical_formula_structural   Nd6Dy3LuPb6
_chemical_formula_sum   'Nd6 Dy3 Lu1 Pb6'
_cell_volume   502.69422211
_cell_formula_units_Z   1
loop_
 _symmetry_equiv_pos_site_id
 _symmetry_equiv_pos_as_xyz
  1  'x, y, z'
loop_
 _atom_site_type_symbol
 _atom_site_label
 _atom_site_symmetry_multiplicity
 _atom_site_fract_x
 _atom_site_fract_y
 _atom_site_fract_z
 _atom_site_occupancy
  Nd  Nd0  1  0.759612  0.759421  0.749773  1
  Nd  Nd1  1  0.240579  0.000191  0.749773  1
  Nd  Nd2  1  0.999809  0.240388  0.749773  1
  Nd  Nd3  1  0.240579  0.240388  0.250227  1
  Nd  Nd4  1  0.759612  0.000191  0.250227  1
  Nd  Nd5  1  0.999809  0.759421  0.250227  1
  Dy  Dy6  1  0.666667  0.333333  0.000000  1
  Dy  Dy7  1  0.333333  0.666667  0.000000  1
  Dy  Dy8  1  0.333333  0.666667  0.500000  1
  Lu  Lu9  1  0.666667  0.333333  0.500000  1
  Pb  Pb10  1  0.398418  0.397400  0.749187  1
  Pb  Pb11  1  0.602600  0.001019  0.749187  1
  Pb  Pb12  1  0.998981  0.601582  0.749187  1
  Pb  Pb13  1  0.602600  0.601582  0.250813  1
  Pb  Pb14  1  0.398418  0.001019  0.250813  1
  Pb  Pb15  1  0.998981  0.397400  0.250813  1
