# generated using pymatgen
data_PrDy2Pa(ReB6)2
_symmetry_space_group_name_H-M   'P 1'
_cell_length_a   3.73398900
_cell_length_b   9.23724494
_cell_length_c   11.63472305
_cell_angle_alpha   90.37777245
_cell_angle_beta   90.00000000
_cell_angle_gamma   90.00000000
_symmetry_Int_Tables_number   1
_chemical_formula_structural   PrDy2Pa(ReB6)2
_chemical_formula_sum   'Pr2 Dy4 Pa2 Re4 B24'
_cell_volume   401.29348027
_cell_formula_units_Z   2
loop_
 _symmetry_equiv_pos_site_id
 _symmetry_equiv_pos_as_xyz
  1  'x, y, z'
loop_
 _atom_site_type_symbol
 _atom_site_label
 _atom_site_symmetry_multiplicity
 _atom_site_fract_x
 _atom_site_fract_y
 _atom_site_fract_z
 _atom_site_occupancy
  Pr  Pr0  1  0.000000  0.823676  0.086444  1
  Pr  Pr1  1  0.000000  0.176324  0.913556  1
  Dy  Dy2  1  0.000000  0.944934  0.373852  1
  Dy  Dy3  1  0.000000  0.055066  0.626148  1
  Dy  Dy4  1  0.000000  0.444104  0.127964  1
  Dy  Dy5  1  0.000000  0.555896  0.872036  1
  Pa  Pa6  1  0.000000  0.322299  0.413395  1
  Pa  Pa7  1  0.000000  0.677701  0.586605  1
  Re  Re8  1  0.000000  0.633957  0.326639  1
  Re  Re9  1  0.000000  0.366043  0.673361  1
  Re  Re10  1  0.000000  0.143054  0.185011  1
  Re  Re11  1  0.000000  0.856946  0.814989  1
  B  B12  1  0.500000  0.553036  0.433409  1
  B  B13  1  0.500000  0.446964  0.566591  1
  B  B14  1  0.500000  0.055852  0.070856  1
  B  B15  1  0.500000  0.944148  0.929144  1
  B  B16  1  0.500000  0.746753  0.420714  1
  B  B17  1  0.500000  0.253247  0.579286  1
  B  B18  1  0.500000  0.249216  0.083728  1
  B  B19  1  0.500000  0.750784  0.916272  1
  B  B20  1  0.500000  0.789490  0.269042  1
  B  B21  1  0.500000  0.210510  0.730958  1
  B  B22  1  0.500000  0.292884  0.235523  1
  B  B23  1  0.500000  0.707116  0.764477  1
  B  B24  1  0.500000  0.629694  0.188303  1
  B  B25  1  0.500000  0.370306  0.811697  1
  B  B26  1  0.500000  0.134004  0.315450  1
  B  B27  1  0.500000  0.865996  0.684550  1
  B  B28  1  0.500000  0.985545  0.215183  1
  B  B29  1  0.500000  0.014455  0.784817  1
  B  B30  1  0.500000  0.482754  0.288223  1
  B  B31  1  0.500000  0.517246  0.711777  1
  B  B32  1  0.500000  0.600427  0.028307  1
  B  B33  1  0.500000  0.399573  0.971693  1
  B  B34  1  0.500000  0.114627  0.468715  1
  B  B35  1  0.500000  0.885373  0.531285  1
