# generated using pymatgen
data_SrY3PtRh3O14
_symmetry_space_group_name_H-M   'P 1'
_cell_length_a   7.29729625
_cell_length_b   7.30205597
_cell_length_c   7.29729500
_cell_angle_alpha   60.02156125
_cell_angle_beta   60.00000112
_cell_angle_gamma   60.02156088
_symmetry_Int_Tables_number   1
_chemical_formula_structural   SrY3PtRh3O14
_chemical_formula_sum   'Sr1 Y3 Pt1 Rh3 O14'
_cell_volume   275.03977369
_cell_formula_units_Z   1
loop_
 _symmetry_equiv_pos_site_id
 _symmetry_equiv_pos_as_xyz
  1  'x, y, z'
loop_
 _atom_site_type_symbol
 _atom_site_label
 _atom_site_symmetry_multiplicity
 _atom_site_fract_x
 _atom_site_fract_y
 _atom_site_fract_z
 _atom_site_occupancy
  Sr  Sr0  1  0.125000  0.625000  0.125000  1
  Y  Y1  1  0.125000  0.125000  0.625000  1
  Y  Y2  1  0.625000  0.125000  0.125000  1
  Y  Y3  1  0.125000  0.125000  0.125000  1
  Pt  Pt4  1  0.625000  0.125000  0.625000  1
  Rh  Rh5  1  0.625000  0.625000  0.625000  1
  Rh  Rh6  1  0.125000  0.625000  0.625000  1
  Rh  Rh7  1  0.625000  0.625000  0.125000  1
  O  O8  1  0.295930  0.715534  0.692606  1
  O  O9  1  0.539191  0.961739  0.959880  1
  O  O10  1  0.692606  0.715534  0.295930  1
  O  O11  1  0.290120  0.288261  0.710809  1
  O  O12  1  0.992774  0.021676  0.992774  1
  O  O13  1  0.295930  0.715534  0.295930  1
  O  O14  1  0.710809  0.288261  0.710809  1
  O  O15  1  0.954070  0.534466  0.954070  1
  O  O16  1  0.557394  0.534466  0.954070  1
  O  O17  1  0.959880  0.961739  0.539191  1
  O  O18  1  0.257226  0.228324  0.257226  1
  O  O19  1  0.539191  0.961739  0.539191  1
  O  O20  1  0.710809  0.288261  0.290120  1
  O  O21  1  0.954070  0.534466  0.557394  1
