# generated using pymatgen
data_ErTh3(PdPt)6
_symmetry_space_group_name_H-M   'P 1'
_cell_length_a   5.92403400
_cell_length_b   5.92403319
_cell_length_c   9.75129300
_cell_angle_alpha   90.00000000
_cell_angle_beta   90.00000000
_cell_angle_gamma   120.00000453
_symmetry_Int_Tables_number   1
_chemical_formula_structural   ErTh3(PdPt)6
_chemical_formula_sum   'Er1 Th3 Pd6 Pt6'
_cell_volume   296.36563466
_cell_formula_units_Z   1
loop_
 _symmetry_equiv_pos_site_id
 _symmetry_equiv_pos_as_xyz
  1  'x, y, z'
loop_
 _atom_site_type_symbol
 _atom_site_label
 _atom_site_symmetry_multiplicity
 _atom_site_fract_x
 _atom_site_fract_y
 _atom_site_fract_z
 _atom_site_occupancy
  Er  Er0  1  0.333333  0.666667  0.250000  1
  Th  Th1  1  0.000000  0.000000  0.495165  1
  Th  Th2  1  0.000000  0.000000  0.004835  1
  Th  Th3  1  0.666667  0.333333  0.750000  1
  Pd  Pd4  1  0.825134  0.650268  0.250000  1
  Pd  Pd5  1  0.349732  0.174866  0.250000  1
  Pd  Pd6  1  0.825134  0.174866  0.250000  1
  Pd  Pd7  1  0.174022  0.348044  0.750000  1
  Pd  Pd8  1  0.651956  0.825978  0.750000  1
  Pd  Pd9  1  0.174022  0.825978  0.750000  1
  Pt  Pt10  1  0.499216  0.500784  0.498018  1
  Pt  Pt11  1  0.499216  0.998430  0.498018  1
  Pt  Pt12  1  0.001570  0.500784  0.498018  1
  Pt  Pt13  1  0.499216  0.500784  0.001982  1
  Pt  Pt14  1  0.499216  0.998430  0.001982  1
  Pt  Pt15  1  0.001570  0.500784  0.001982  1
