# generated using pymatgen
data_Ho16MgIn3(IrPd)2
_symmetry_space_group_name_H-M   'P 1'
_cell_length_a   9.62163861
_cell_length_b   9.64568700
_cell_length_c   9.64568763
_cell_angle_alpha   60.52685981
_cell_angle_beta   60.37899792
_cell_angle_gamma   60.37899968
_symmetry_Int_Tables_number   1
_chemical_formula_structural   Ho16MgIn3(IrPd)2
_chemical_formula_sum   'Ho16 Mg1 In3 Ir2 Pd2'
_cell_volume   639.12213171
_cell_formula_units_Z   1
loop_
 _symmetry_equiv_pos_site_id
 _symmetry_equiv_pos_as_xyz
  1  'x, y, z'
loop_
 _atom_site_type_symbol
 _atom_site_label
 _atom_site_symmetry_multiplicity
 _atom_site_fract_x
 _atom_site_fract_y
 _atom_site_fract_z
 _atom_site_occupancy
  Ho  Ho0  1  0.439631  0.432801  0.062186  1
  Ho  Ho1  1  0.648913  0.642981  0.057931  1
  Ho  Ho2  1  0.184159  0.809421  0.193048  1
  Ho  Ho3  1  0.062474  0.435096  0.059773  1
  Ho  Ho4  1  0.192255  0.807947  0.807947  1
  Ho  Ho5  1  0.065769  0.433884  0.433884  1
  Ho  Ho6  1  0.810644  0.188177  0.188177  1
  Ho  Ho7  1  0.656750  0.649924  0.649924  1
  Ho  Ho8  1  0.810594  0.195608  0.807110  1
  Ho  Ho9  1  0.184159  0.193048  0.809421  1
  Ho  Ho10  1  0.048160  0.647739  0.647739  1
  Ho  Ho11  1  0.437897  0.062517  0.062517  1
  Ho  Ho12  1  0.062474  0.059773  0.435096  1
  Ho  Ho13  1  0.648913  0.057931  0.642981  1
  Ho  Ho14  1  0.810594  0.807110  0.195608  1
  Ho  Ho15  1  0.439631  0.062186  0.432801  1
  Mg  Mg16  1  0.420220  0.422516  0.422516  1
  In  In17  1  0.416067  0.418524  0.747859  1
  In  In18  1  0.416067  0.747859  0.418524  1
  In  In19  1  0.749170  0.417327  0.417327  1
  Ir  Ir20  1  0.856641  0.427076  0.862543  1
  Ir  Ir21  1  0.856641  0.862543  0.427076  1
  Pd  Pd22  1  0.428548  0.859608  0.859608  1
  Pd  Pd23  1  0.853630  0.858407  0.858407  1
