# generated using pymatgen
data_La20CoBi8Rh3
_symmetry_space_group_name_H-M   'P 1'
_cell_length_a   8.50983883
_cell_length_b   9.33595300
_cell_length_c   13.07353530
_cell_angle_alpha   90.00000000
_cell_angle_beta   89.76560814
_cell_angle_gamma   90.00000000
_symmetry_Int_Tables_number   1
_chemical_formula_structural   La20CoBi8Rh3
_chemical_formula_sum   'La20 Co1 Bi8 Rh3'
_cell_volume   1038.65042132
_cell_formula_units_Z   1
loop_
 _symmetry_equiv_pos_site_id
 _symmetry_equiv_pos_as_xyz
  1  'x, y, z'
loop_
 _atom_site_type_symbol
 _atom_site_label
 _atom_site_symmetry_multiplicity
 _atom_site_fract_x
 _atom_site_fract_y
 _atom_site_fract_z
 _atom_site_occupancy
  La  La0  1  0.356772  0.750000  0.696260  1
  La  La1  1  0.644594  0.250000  0.298308  1
  La  La2  1  0.853719  0.250000  0.795959  1
  La  La3  1  0.145696  0.750000  0.202888  1
  La  La4  1  0.876448  0.750000  0.805004  1
  La  La5  1  0.123725  0.250000  0.196096  1
  La  La6  1  0.377619  0.250000  0.693622  1
  La  La7  1  0.618326  0.750000  0.309247  1
  La  La8  1  0.684289  0.544115  0.561647  1
  La  La9  1  0.315475  0.465101  0.439104  1
  La  La10  1  0.184258  0.458696  0.934789  1
  La  La11  1  0.315475  0.034899  0.439104  1
  La  La12  1  0.814563  0.540483  0.065264  1
  La  La13  1  0.684289  0.955885  0.561647  1
  La  La14  1  0.814563  0.959517  0.065264  1
  La  La15  1  0.184258  0.041304  0.934789  1
  La  La16  1  0.055240  0.750000  0.496183  1
  La  La17  1  0.948135  0.250000  0.504223  1
  La  La18  1  0.552153  0.250000  0.003139  1
  La  La19  1  0.447719  0.750000  0.995045  1
  Co  Co20  1  0.428955  0.750000  0.492573  1
  Bi  Bi21  1  0.576171  0.505454  0.826004  1
  Bi  Bi22  1  0.424097  0.495048  0.173401  1
  Bi  Bi23  1  0.076585  0.495172  0.672694  1
  Bi  Bi24  1  0.424097  0.004952  0.173401  1
  Bi  Bi25  1  0.923361  0.505563  0.327477  1
  Bi  Bi26  1  0.576171  0.994546  0.826004  1
  Bi  Bi27  1  0.923361  0.994437  0.327477  1
  Bi  Bi28  1  0.076585  0.004828  0.672694  1
  Rh  Rh29  1  0.072369  0.750000  0.990633  1
  Rh  Rh30  1  0.926594  0.250000  0.009752  1
  Rh  Rh31  1  0.574339  0.250000  0.510308  1
