# generated using pymatgen
data_Pr5Dy(Sn6Ru)2
_symmetry_space_group_name_H-M   'P 1'
_cell_length_a   8.66672704
_cell_length_b   8.66672725
_cell_length_c   13.49412700
_cell_angle_alpha   90.00000000
_cell_angle_beta   90.00000000
_cell_angle_gamma   148.31538343
_symmetry_Int_Tables_number   1
_chemical_formula_structural   Pr5Dy(Sn6Ru)2
_chemical_formula_sum   'Pr5 Dy1 Sn12 Ru2'
_cell_volume   532.37233232
_cell_formula_units_Z   1
loop_
 _symmetry_equiv_pos_site_id
 _symmetry_equiv_pos_as_xyz
  1  'x, y, z'
loop_
 _atom_site_type_symbol
 _atom_site_label
 _atom_site_symmetry_multiplicity
 _atom_site_fract_x
 _atom_site_fract_y
 _atom_site_fract_z
 _atom_site_occupancy
  Pr  Pr0  1  0.397437  0.602563  0.750000  1
  Pr  Pr1  1  0.400914  0.599086  0.404414  1
  Pr  Pr2  1  0.599505  0.400495  0.593832  1
  Pr  Pr3  1  0.400914  0.599086  0.095586  1
  Pr  Pr4  1  0.599505  0.400495  0.906168  1
  Dy  Dy5  1  0.603751  0.396249  0.250000  1
  Sn  Sn6  1  0.928048  0.071952  0.923982  1
  Sn  Sn7  1  0.074669  0.925331  0.080042  1
  Sn  Sn8  1  0.928048  0.071952  0.576018  1
  Sn  Sn9  1  0.074669  0.925331  0.419958  1
  Sn  Sn10  1  0.958775  0.041225  0.250000  1
  Sn  Sn11  1  0.041449  0.958551  0.750000  1
  Sn  Sn12  1  0.745989  0.254012  0.433089  1
  Sn  Sn13  1  0.252951  0.747049  0.566244  1
  Sn  Sn14  1  0.745989  0.254012  0.066911  1
  Sn  Sn15  1  0.252951  0.747049  0.933756  1
  Sn  Sn16  1  0.230786  0.769214  0.250000  1
  Sn  Sn17  1  0.765865  0.234135  0.750000  1
  Ru  Ru18  1  0.797994  0.202006  0.250000  1
  Ru  Ru19  1  0.199796  0.800204  0.750000  1
