# generated using pymatgen
data_Y5CrOsO12
_symmetry_space_group_name_H-M   'P 1'
_cell_length_a   6.88959143
_cell_length_b   6.88959055
_cell_length_c   7.31944900
_cell_angle_alpha   74.49276771
_cell_angle_beta   74.49277839
_cell_angle_gamma   50.79559004
_symmetry_Int_Tables_number   1
_chemical_formula_structural   Y5CrOsO12
_chemical_formula_sum   'Y5 Cr1 Os1 O12'
_cell_volume   257.15942918
_cell_formula_units_Z   1
loop_
 _symmetry_equiv_pos_site_id
 _symmetry_equiv_pos_as_xyz
  1  'x, y, z'
loop_
 _atom_site_type_symbol
 _atom_site_label
 _atom_site_symmetry_multiplicity
 _atom_site_fract_x
 _atom_site_fract_y
 _atom_site_fract_z
 _atom_site_occupancy
  Y  Y0  1  0.288564  0.314065  0.360114  1
  Y  Y1  1  0.685935  0.711436  0.639886  1
  Y  Y2  1  0.307274  0.307123  0.831718  1
  Y  Y3  1  0.692877  0.692726  0.168282  1
  Y  Y4  1  0.993601  0.006399  0.500000  1
  Cr  Cr5  1  0.254847  0.745153  0.000000  1
  Os  Os6  1  0.762716  0.237284  0.000000  1
  O  O7  1  0.901137  0.419293  0.916648  1
  O  O8  1  0.434788  0.901042  0.916611  1
  O  O9  1  0.098958  0.565212  0.083389  1
  O  O10  1  0.580707  0.098863  0.083352  1
  O  O11  1  0.090053  0.601222  0.577290  1
  O  O12  1  0.595361  0.103417  0.570285  1
  O  O13  1  0.896583  0.404639  0.429715  1
  O  O14  1  0.398778  0.909947  0.422710  1
  O  O15  1  0.996487  0.002648  0.819086  1
  O  O16  1  0.997352  0.003513  0.180914  1
  O  O17  1  0.511374  0.487395  0.816428  1
  O  O18  1  0.512605  0.488626  0.183572  1
