# generated using pymatgen
data_NdGd5ReI10
_symmetry_space_group_name_H-M   'P 1'
_cell_length_a   7.90408822
_cell_length_b   9.73718986
_cell_length_c   9.91668300
_cell_angle_alpha   107.63044850
_cell_angle_beta   97.16986949
_cell_angle_gamma   104.63235921
_symmetry_Int_Tables_number   1
_chemical_formula_structural   NdGd5ReI10
_chemical_formula_sum   'Nd1 Gd5 Re1 I10'
_cell_volume   686.80558600
_cell_formula_units_Z   1
loop_
 _symmetry_equiv_pos_site_id
 _symmetry_equiv_pos_as_xyz
  1  'x, y, z'
loop_
 _atom_site_type_symbol
 _atom_site_label
 _atom_site_symmetry_multiplicity
 _atom_site_fract_x
 _atom_site_fract_y
 _atom_site_fract_z
 _atom_site_occupancy
  Nd  Nd0  1  0.531934  0.218231  0.417433  1
  Gd  Gd1  1  0.467258  0.776218  0.581439  1
  Gd  Gd2  1  0.140635  0.368974  0.326414  1
  Gd  Gd3  1  0.862299  0.632522  0.674072  1
  Gd  Gd4  1  0.617242  0.543117  0.258833  1
  Gd  Gd5  1  0.384617  0.457438  0.743859  1
  Re  Re6  1  0.503598  0.500813  0.499328  1
  I  I7  1  0.142340  0.043114  0.223916  1
  I  I8  1  0.846934  0.953769  0.771331  1
  I  I9  1  0.241502  0.414280  0.041796  1
  I  I10  1  0.758919  0.589241  0.959149  1
  I  I11  1  0.711143  0.239941  0.145788  1
  I  I12  1  0.292032  0.762536  0.849654  1
  I  I13  1  0.047144  0.684879  0.412036  1
  I  I14  1  0.957807  0.318303  0.590499  1
  I  I15  1  0.409235  0.129413  0.683268  1
  I  I16  1  0.585360  0.867210  0.321191  1
