# generated using pymatgen
data_LuPaCrB6
_symmetry_space_group_name_H-M   'P 1'
_cell_length_a   3.59374300
_cell_length_b   9.06925400
_cell_length_c   11.42996200
_cell_angle_alpha   90.00000000
_cell_angle_beta   90.00000000
_cell_angle_gamma   90.00000000
_symmetry_Int_Tables_number   1
_chemical_formula_structural   LuPaCrB6
_chemical_formula_sum   'Lu4 Pa4 Cr4 B24'
_cell_volume   372.53181461
_cell_formula_units_Z   4
loop_
 _symmetry_equiv_pos_site_id
 _symmetry_equiv_pos_as_xyz
  1  'x, y, z'
loop_
 _atom_site_type_symbol
 _atom_site_label
 _atom_site_symmetry_multiplicity
 _atom_site_fract_x
 _atom_site_fract_y
 _atom_site_fract_z
 _atom_site_occupancy
  Lu  Lu0  1  0.000000  0.444538  0.128146  1
  Lu  Lu1  1  0.000000  0.555462  0.871854  1
  Lu  Lu2  1  0.000000  0.944538  0.371854  1
  Lu  Lu3  1  0.000000  0.055462  0.628146  1
  Pa  Pa4  1  0.000000  0.822447  0.085621  1
  Pa  Pa5  1  0.000000  0.177553  0.914379  1
  Pa  Pa6  1  0.000000  0.322447  0.414379  1
  Pa  Pa7  1  0.000000  0.677553  0.585621  1
  Cr  Cr8  1  0.000000  0.139439  0.179417  1
  Cr  Cr9  1  0.000000  0.860561  0.820583  1
  Cr  Cr10  1  0.000000  0.639439  0.320583  1
  Cr  Cr11  1  0.000000  0.360561  0.679417  1
  B  B12  1  0.500000  0.054436  0.068142  1
  B  B13  1  0.500000  0.945564  0.931858  1
  B  B14  1  0.500000  0.554436  0.431858  1
  B  B15  1  0.500000  0.445564  0.568142  1
  B  B16  1  0.500000  0.249615  0.081633  1
  B  B17  1  0.500000  0.750385  0.918367  1
  B  B18  1  0.500000  0.749615  0.418367  1
  B  B19  1  0.500000  0.250385  0.581633  1
  B  B20  1  0.500000  0.292418  0.235152  1
  B  B21  1  0.500000  0.707582  0.764848  1
  B  B22  1  0.500000  0.792418  0.264848  1
  B  B23  1  0.500000  0.207582  0.735152  1
  B  B24  1  0.500000  0.131959  0.315196  1
  B  B25  1  0.500000  0.868041  0.684804  1
  B  B26  1  0.500000  0.631959  0.184804  1
  B  B27  1  0.500000  0.368041  0.815196  1
  B  B28  1  0.500000  0.483750  0.287009  1
  B  B29  1  0.500000  0.516250  0.712991  1
  B  B30  1  0.500000  0.983750  0.212991  1
  B  B31  1  0.500000  0.016250  0.787009  1
  B  B32  1  0.500000  0.105469  0.471139  1
  B  B33  1  0.500000  0.894531  0.528861  1
  B  B34  1  0.500000  0.605469  0.028861  1
  B  B35  1  0.500000  0.394531  0.971139  1
