# generated using pymatgen
data_In11Ir3RuAu
_symmetry_space_group_name_H-M   'P 1'
_cell_length_a   7.12360403
_cell_length_b   7.11283698
_cell_length_c   7.24623400
_cell_angle_alpha   90.00000000
_cell_angle_beta   90.00000000
_cell_angle_gamma   89.43369583
_symmetry_Int_Tables_number   1
_chemical_formula_structural   In11Ir3RuAu
_chemical_formula_sum   'In11 Ir3 Ru1 Au1'
_cell_volume   367.14174427
_cell_formula_units_Z   1
loop_
 _symmetry_equiv_pos_site_id
 _symmetry_equiv_pos_as_xyz
  1  'x, y, z'
loop_
 _atom_site_type_symbol
 _atom_site_label
 _atom_site_symmetry_multiplicity
 _atom_site_fract_x
 _atom_site_fract_y
 _atom_site_fract_z
 _atom_site_occupancy
  In  In0  1  0.502183  0.998501  0.000000  1
  In  In1  1  0.498946  0.001429  0.500000  1
  In  In2  1  0.998162  0.501943  0.000000  1
  In  In3  1  0.340346  0.651747  0.242360  1
  In  In4  1  0.662897  0.352497  0.243651  1
  In  In5  1  0.147223  0.172108  0.730256  1
  In  In6  1  0.850112  0.826373  0.732515  1
  In  In7  1  0.662897  0.352497  0.756349  1
  In  In8  1  0.340346  0.651747  0.757640  1
  In  In9  1  0.850112  0.826373  0.267485  1
  In  In10  1  0.147223  0.172108  0.269744  1
  Ir  Ir11  1  0.160587  0.858157  0.500000  1
  Ir  Ir12  1  0.837409  0.141196  0.500000  1
  Ir  Ir13  1  0.342702  0.342455  0.000000  1
  Ru  Ru14  1  0.652606  0.652915  0.000000  1
  Au  Au15  1  0.006251  0.497952  0.500000  1
