# generated using pymatgen
data_PrY(AgSn)2
_symmetry_space_group_name_H-M   'P 1'
_cell_length_a   4.78585800
_cell_length_b   4.78585884
_cell_length_c   7.58470500
_cell_angle_alpha   90.00000000
_cell_angle_beta   90.00000000
_cell_angle_gamma   120.00000801
_symmetry_Int_Tables_number   1
_chemical_formula_structural   PrY(AgSn)2
_chemical_formula_sum   'Pr1 Y1 Ag2 Sn2'
_cell_volume   150.44888869
_cell_formula_units_Z   1
loop_
 _symmetry_equiv_pos_site_id
 _symmetry_equiv_pos_as_xyz
  1  'x, y, z'
loop_
 _atom_site_type_symbol
 _atom_site_label
 _atom_site_symmetry_multiplicity
 _atom_site_fract_x
 _atom_site_fract_y
 _atom_site_fract_z
 _atom_site_occupancy
  Pr  Pr0  1  0.000000  0.000000  0.002420  1
  Y  Y1  1  0.000000  0.000000  0.500448  1
  Ag  Ag2  1  0.666667  0.333333  0.317199  1
  Ag  Ag3  1  0.333333  0.666667  0.790246  1
  Sn  Sn4  1  0.666667  0.333333  0.716736  1
  Sn  Sn5  1  0.333333  0.666667  0.230952  1
