# generated using pymatgen
data_Ce7ErCu3Si12Pd
_symmetry_space_group_name_H-M   'P 1'
_cell_length_a   8.10879500
_cell_length_b   8.10879521
_cell_length_c   8.34114900
_cell_angle_alpha   90.00000000
_cell_angle_beta   90.00000000
_cell_angle_gamma   119.99999505
_symmetry_Int_Tables_number   1
_chemical_formula_structural   Ce7ErCu3Si12Pd
_chemical_formula_sum   'Ce7 Er1 Cu3 Si12 Pd1'
_cell_volume   474.97328813
_cell_formula_units_Z   1
loop_
 _symmetry_equiv_pos_site_id
 _symmetry_equiv_pos_as_xyz
  1  'x, y, z'
loop_
 _atom_site_type_symbol
 _atom_site_label
 _atom_site_symmetry_multiplicity
 _atom_site_fract_x
 _atom_site_fract_y
 _atom_site_fract_z
 _atom_site_occupancy
  Ce  Ce0  1  0.501034  0.002070  0.249477  1
  Ce  Ce1  1  0.499609  0.999218  0.750396  1
  Ce  Ce2  1  0.997930  0.498966  0.249477  1
  Ce  Ce3  1  0.000782  0.500391  0.750396  1
  Ce  Ce4  1  0.501034  0.498966  0.249477  1
  Ce  Ce5  1  0.499609  0.500391  0.750396  1
  Ce  Ce6  1  0.000000  0.000000  0.249526  1
  Er  Er7  1  0.000000  0.000000  0.750296  1
  Cu  Cu8  1  0.333333  0.666667  0.002557  1
  Cu  Cu9  1  0.666667  0.333333  0.998002  1
  Cu  Cu10  1  0.666667  0.333333  0.502400  1
  Si  Si11  1  0.168420  0.336841  0.998245  1
  Si  Si12  1  0.831721  0.663441  0.996913  1
  Si  Si13  1  0.663159  0.831580  0.998245  1
  Si  Si14  1  0.831519  0.663038  0.503205  1
  Si  Si15  1  0.336559  0.168279  0.996913  1
  Si  Si16  1  0.164129  0.328258  0.501623  1
  Si  Si17  1  0.168420  0.831580  0.998245  1
  Si  Si18  1  0.336962  0.168481  0.503205  1
  Si  Si19  1  0.831721  0.168279  0.996913  1
  Si  Si20  1  0.671742  0.835871  0.501623  1
  Si  Si21  1  0.831519  0.168481  0.503205  1
  Si  Si22  1  0.164129  0.835871  0.501623  1
  Pd  Pd23  1  0.333333  0.666667  0.497643  1
