# generated using pymatgen
data_PrNdU(AlIr)3
_symmetry_space_group_name_H-M   'P 1'
_cell_length_a   7.19032675
_cell_length_b   7.27853467
_cell_length_c   4.03404200
_cell_angle_alpha   90.00000000
_cell_angle_beta   90.00000000
_cell_angle_gamma   120.40455288
_symmetry_Int_Tables_number   1
_chemical_formula_structural   PrNdU(AlIr)3
_chemical_formula_sum   'Pr1 Nd1 U1 Al3 Ir3'
_cell_volume   182.08691361
_cell_formula_units_Z   1
loop_
 _symmetry_equiv_pos_site_id
 _symmetry_equiv_pos_as_xyz
  1  'x, y, z'
loop_
 _atom_site_type_symbol
 _atom_site_label
 _atom_site_symmetry_multiplicity
 _atom_site_fract_x
 _atom_site_fract_y
 _atom_site_fract_z
 _atom_site_occupancy
  Pr  Pr0  1  0.416491  0.419603  0.500000  1
  Nd  Nd1  1  0.584187  0.003294  0.500000  1
  U  U2  1  0.000179  0.581322  0.500000  1
  Al  Al3  1  0.765949  0.762825  0.000000  1
  Al  Al4  1  0.234505  0.996329  0.000000  1
  Al  Al5  1  0.999036  0.226795  0.000000  1
  Ir  Ir6  1  0.713567  0.371319  0.000000  1
  Ir  Ir7  1  0.287059  0.659376  0.000000  1
  Ir  Ir8  1  0.999028  0.979138  0.500000  1
