# generated using pymatgen
data_Dy6Er10CdIn(HgPt2)2
_symmetry_space_group_name_H-M   'P 1'
_cell_length_a   9.60833334
_cell_length_b   9.60985854
_cell_length_c   9.60986000
_cell_angle_alpha   59.99999498
_cell_angle_beta   59.99474383
_cell_angle_gamma   59.99473513
_symmetry_Int_Tables_number   1
_chemical_formula_structural   Dy6Er10CdIn(HgPt2)2
_chemical_formula_sum   'Dy6 Er10 Cd1 In1 Hg2 Pt4'
_cell_volume   627.38273921
_cell_formula_units_Z   1
loop_
 _symmetry_equiv_pos_site_id
 _symmetry_equiv_pos_as_xyz
  1  'x, y, z'
loop_
 _atom_site_type_symbol
 _atom_site_label
 _atom_site_symmetry_multiplicity
 _atom_site_fract_x
 _atom_site_fract_y
 _atom_site_fract_z
 _atom_site_occupancy
  Dy  Dy0  1  0.936880  0.564404  0.564404  1
  Dy  Dy1  1  0.563365  0.937318  0.937318  1
  Dy  Dy2  1  0.563693  0.938497  0.564125  1
  Dy  Dy3  1  0.936260  0.564466  0.937291  1
  Dy  Dy4  1  0.563693  0.564125  0.938497  1
  Dy  Dy5  1  0.936260  0.937291  0.564466  1
  Er  Er6  1  0.355376  0.354201  0.354201  1
  Er  Er7  1  0.354595  0.353456  0.938239  1
  Er  Er8  1  0.354595  0.938239  0.353456  1
  Er  Er9  1  0.935556  0.354668  0.354668  1
  Er  Er10  1  0.811212  0.188342  0.188342  1
  Er  Er11  1  0.188420  0.811879  0.811879  1
  Er  Er12  1  0.186545  0.812490  0.187923  1
  Er  Er13  1  0.810801  0.189492  0.811687  1
  Er  Er14  1  0.186545  0.187923  0.812490  1
  Er  Er15  1  0.810801  0.811687  0.189492  1
  Cd  Cd16  1  0.253684  0.581257  0.581257  1
  In  In17  1  0.582046  0.582473  0.582473  1
  Hg  Hg18  1  0.585383  0.587151  0.239891  1
  Hg  Hg19  1  0.585383  0.239891  0.587151  1
  Pt  Pt20  1  0.143717  0.144314  0.144314  1
  Pt  Pt21  1  0.143551  0.144445  0.567806  1
  Pt  Pt22  1  0.143551  0.567806  0.144445  1
  Pt  Pt23  1  0.568095  0.144189  0.144189  1
