# generated using pymatgen
data_Tm8TaSi16Mo11
_symmetry_space_group_name_H-M   'P 1'
_cell_length_a   6.73241822
_cell_length_b   6.93443153
_cell_length_c   12.87859500
_cell_angle_alpha   90.00000000
_cell_angle_beta   90.00000000
_cell_angle_gamma   89.81014912
_symmetry_Int_Tables_number   1
_chemical_formula_structural   Tm8TaSi16Mo11
_chemical_formula_sum   'Tm8 Ta1 Si16 Mo11'
_cell_volume   601.24025900
_cell_formula_units_Z   1
loop_
 _symmetry_equiv_pos_site_id
 _symmetry_equiv_pos_as_xyz
  1  'x, y, z'
loop_
 _atom_site_type_symbol
 _atom_site_label
 _atom_site_symmetry_multiplicity
 _atom_site_fract_x
 _atom_site_fract_y
 _atom_site_fract_z
 _atom_site_occupancy
  Tm  Tm0  1  0.997426  0.168072  0.094416  1
  Tm  Tm1  1  0.000354  0.831096  0.905839  1
  Tm  Tm2  1  0.502996  0.670298  0.906154  1
  Tm  Tm3  1  0.000354  0.831096  0.594161  1
  Tm  Tm4  1  0.497173  0.332193  0.094022  1
  Tm  Tm5  1  0.997426  0.168072  0.405584  1
  Tm  Tm6  1  0.497173  0.332193  0.405978  1
  Tm  Tm7  1  0.502996  0.670298  0.593846  1
  Ta  Ta8  1  0.661371  0.005022  0.750000  1
  Si  Si9  1  0.038670  0.130810  0.750000  1
  Si  Si10  1  0.966721  0.868267  0.250000  1
  Si  Si11  1  0.464760  0.632127  0.250000  1
  Si  Si12  1  0.532690  0.375371  0.750000  1
  Si  Si13  1  0.295889  0.865684  0.750000  1
  Si  Si14  1  0.697629  0.131473  0.250000  1
  Si  Si15  1  0.198516  0.369672  0.250000  1
  Si  Si16  1  0.801051  0.627502  0.750000  1
  Si  Si17  1  0.162107  0.459289  0.546603  1
  Si  Si18  1  0.839650  0.539980  0.452813  1
  Si  Si19  1  0.338662  0.958458  0.453380  1
  Si  Si20  1  0.839650  0.539980  0.047187  1
  Si  Si21  1  0.662255  0.041382  0.542823  1
  Si  Si22  1  0.162107  0.459289  0.953397  1
  Si  Si23  1  0.662255  0.041382  0.957177  1
  Si  Si24  1  0.338662  0.958458  0.046620  1
  Mo  Mo25  1  0.166575  0.501777  0.750000  1
  Mo  Mo26  1  0.833140  0.495730  0.250000  1
  Mo  Mo27  1  0.335070  0.002620  0.250000  1
  Mo  Mo28  1  0.331640  0.163436  0.624494  1
  Mo  Mo29  1  0.670651  0.835423  0.374130  1
  Mo  Mo30  1  0.168970  0.665661  0.375091  1
  Mo  Mo31  1  0.670651  0.835423  0.125870  1
  Mo  Mo32  1  0.832074  0.331682  0.624220  1
  Mo  Mo33  1  0.331640  0.163436  0.875506  1
  Mo  Mo34  1  0.832074  0.331682  0.875780  1
  Mo  Mo35  1  0.168970  0.665661  0.124909  1
