# generated using pymatgen
data_Li12Sm12SiTe7O48
_symmetry_space_group_name_H-M   'P 1'
_cell_length_a   10.81677768
_cell_length_b   10.87950557
_cell_length_c   10.87950659
_cell_angle_alpha   109.58772187
_cell_angle_beta   109.35446142
_cell_angle_gamma   109.35446439
_symmetry_Int_Tables_number   1
_chemical_formula_structural   Li12Sm12SiTe7O48
_chemical_formula_sum   'Li12 Sm12 Si1 Te7 O48'
_cell_volume   987.00228635
_cell_formula_units_Z   1
loop_
 _symmetry_equiv_pos_site_id
 _symmetry_equiv_pos_as_xyz
  1  'x, y, z'
loop_
 _atom_site_type_symbol
 _atom_site_label
 _atom_site_symmetry_multiplicity
 _atom_site_fract_x
 _atom_site_fract_y
 _atom_site_fract_z
 _atom_site_occupancy
  Li  Li0  1  0.747996  0.370823  0.124257  1
  Li  Li1  1  0.874910  0.750326  0.124540  1
  Li  Li2  1  0.124583  0.374213  0.249674  1
  Li  Li3  1  0.623738  0.875742  0.246565  1
  Li  Li4  1  0.622827  0.246565  0.370823  1
  Li  Li5  1  0.249630  0.124540  0.374213  1
  Li  Li6  1  0.750370  0.875460  0.625787  1
  Li  Li7  1  0.377173  0.753435  0.629178  1
  Li  Li8  1  0.376262  0.124257  0.753435  1
  Li  Li9  1  0.875417  0.625787  0.750326  1
  Li  Li10  1  0.252004  0.629177  0.875742  1
  Li  Li11  1  0.125090  0.249675  0.875460  1
  Sm  Sm12  1  0.256706  0.876943  0.125200  1
  Sm  Sm13  1  0.379763  0.248258  0.123057  1
  Sm  Sm14  1  0.375373  0.624394  0.250407  1
  Sm  Sm15  1  0.868495  0.125200  0.248259  1
  Sm  Sm16  1  0.750979  0.626013  0.375606  1
  Sm  Sm17  1  0.124966  0.749593  0.373988  1
  Sm  Sm18  1  0.875033  0.250407  0.626012  1
  Sm  Sm19  1  0.249021  0.373988  0.624394  1
  Sm  Sm20  1  0.131505  0.874800  0.751742  1
  Sm  Sm21  1  0.624628  0.375606  0.749593  1
  Sm  Sm22  1  0.743295  0.123057  0.874800  1
  Sm  Sm23  1  0.620237  0.751742  0.876943  1
  Si  Si24  1  0.500000  0.000000  0.000000  1
  Te  Te25  1  0.000000  0.000000  0.000000  1
  Te  Te26  1  0.000000  0.500000  0.000000  1
  Te  Te27  1  0.500000  0.500000  0.000000  1
  Te  Te28  1  0.000000  0.000000  0.500000  1
  Te  Te29  1  0.500000  0.500000  0.500000  1
  Te  Te30  1  0.500000  0.000000  0.500000  1
  Te  Te31  1  0.000000  0.500000  0.500000  1
  O  O32  1  0.197213  0.619424  0.024339  1
  O  O33  1  0.328844  0.405859  0.025188  1
  O  O34  1  0.680355  0.158562  0.071407  1
  O  O35  1  0.879661  0.906518  0.077267  1
  O  O36  1  0.608948  0.928593  0.087156  1
  O  O37  1  0.973143  0.170750  0.093483  1
  O  O38  1  0.024208  0.695335  0.117784  1
  O  O39  1  0.594511  0.422626  0.118164  1
  O  O40  1  0.197607  0.077267  0.170750  1
  O  O41  1  0.478208  0.087156  0.158563  1
  O  O42  1  0.118510  0.524547  0.195780  1
  O  O43  1  0.577870  0.672230  0.194934  1
  O  O44  1  0.476347  0.881837  0.304461  1
  O  O45  1  0.328872  0.422450  0.304665  1
  O  O46  1  0.905639  0.522705  0.327770  1
  O  O47  1  0.922730  0.804219  0.328766  1
  O  O48  1  0.303657  0.974812  0.380671  1
  O  O49  1  0.577790  0.404915  0.380576  1
  O  O50  1  0.827125  0.024339  0.404914  1
  O  O51  1  0.077014  0.380671  0.405859  1
  O  O52  1  0.828114  0.304461  0.422624  1
  O  O53  1  0.093578  0.117785  0.422450  1
  O  O54  1  0.382934  0.805066  0.477295  1
  O  O55  1  0.593963  0.671233  0.475454  1
  O  O56  1  0.617065  0.194934  0.522704  1
  O  O57  1  0.406037  0.328766  0.524547  1
  O  O58  1  0.171885  0.695539  0.577374  1
  O  O59  1  0.906422  0.882215  0.577551  1
  O  O60  1  0.172875  0.975661  0.595085  1
  O  O61  1  0.922985  0.619328  0.594142  1
  O  O62  1  0.422211  0.595085  0.619424  1
  O  O63  1  0.696343  0.025188  0.619328  1
  O  O64  1  0.077270  0.195780  0.671233  1
  O  O65  1  0.094361  0.477295  0.672230  1
  O  O66  1  0.671127  0.577551  0.695335  1
  O  O67  1  0.523653  0.118164  0.695539  1
  O  O68  1  0.881490  0.475454  0.804219  1
  O  O69  1  0.422131  0.327770  0.805066  1
  O  O70  1  0.802393  0.922732  0.829249  1
  O  O71  1  0.521793  0.912844  0.841437  1
  O  O72  1  0.975792  0.304665  0.882215  1
  O  O73  1  0.405490  0.577375  0.881837  1
  O  O74  1  0.391051  0.071407  0.912844  1
  O  O75  1  0.026857  0.829251  0.906518  1
  O  O76  1  0.120338  0.093483  0.922732  1
  O  O77  1  0.319645  0.841437  0.928593  1
  O  O78  1  0.802786  0.380576  0.975661  1
  O  O79  1  0.671156  0.594142  0.974812  1
