# generated using pymatgen
data_Nd4SmGa2Ru3
_symmetry_space_group_name_H-M   'P 1'
_cell_length_a   8.52673891
_cell_length_b   8.52674831
_cell_length_c   8.53094525
_cell_angle_alpha   109.47266610
_cell_angle_beta   109.46257852
_cell_angle_gamma   109.45879695
_symmetry_Int_Tables_number   1
_chemical_formula_structural   Nd4SmGa2Ru3
_chemical_formula_sum   'Nd8 Sm2 Ga4 Ru6'
_cell_volume   477.58071786
_cell_formula_units_Z   2
loop_
 _symmetry_equiv_pos_site_id
 _symmetry_equiv_pos_as_xyz
  1  'x, y, z'
loop_
 _atom_site_type_symbol
 _atom_site_label
 _atom_site_symmetry_multiplicity
 _atom_site_fract_x
 _atom_site_fract_y
 _atom_site_fract_z
 _atom_site_occupancy
  Nd  Nd0  1  0.249732  0.684476  0.434582  1
  Nd  Nd1  1  0.749895  0.815150  0.065419  1
  Nd  Nd2  1  0.434527  0.250334  0.685157  1
  Nd  Nd3  1  0.684960  0.434962  0.250000  1
  Nd  Nd4  1  0.065178  0.749371  0.814842  1
  Nd  Nd5  1  0.815604  0.065602  0.749996  1
  Nd  Nd6  1  0.216541  0.216912  0.216655  1
  Nd  Nd7  1  0.500259  0.999886  0.283347  1
  Sm  Sm8  1  0.284081  0.499840  0.999581  1
  Sm  Sm9  1  0.000259  0.284501  0.500422  1
  Ga  Ga10  1  0.588478  0.588501  0.588528  1
  Ga  Ga11  1  0.499972  0.999949  0.911473  1
  Ga  Ga12  1  0.912057  0.499956  0.999977  1
  Ga  Ga13  1  0.999978  0.912080  0.500022  1
  Ru  Ru14  1  0.249829  0.122712  0.871936  1
  Ru  Ru15  1  0.750775  0.377893  0.628063  1
  Ru  Ru16  1  0.872024  0.249701  0.122516  1
  Ru  Ru17  1  0.121730  0.871728  0.250000  1
  Ru  Ru18  1  0.627184  0.749508  0.377484  1
  Ru  Ru19  1  0.376936  0.626936  0.750000  1
