# generated using pymatgen
data_La4Zr3ReF28
_symmetry_space_group_name_H-M   'P 1'
_cell_length_a   5.90931018
_cell_length_b   9.44690598
_cell_length_c   12.69866073
_cell_angle_alpha   62.16446291
_cell_angle_beta   90.01249741
_cell_angle_gamma   89.94266675
_symmetry_Int_Tables_number   1
_chemical_formula_structural   La4Zr3ReF28
_chemical_formula_sum   'La4 Zr3 Re1 F28'
_cell_volume   626.87279050
_cell_formula_units_Z   1
loop_
 _symmetry_equiv_pos_site_id
 _symmetry_equiv_pos_as_xyz
  1  'x, y, z'
loop_
 _atom_site_type_symbol
 _atom_site_label
 _atom_site_symmetry_multiplicity
 _atom_site_fract_x
 _atom_site_fract_y
 _atom_site_fract_z
 _atom_site_occupancy
  La  La0  1  0.758205  0.812325  0.262561  1
  La  La1  1  0.257647  0.189344  0.234379  1
  La  La2  1  0.242746  0.185967  0.735727  1
  La  La3  1  0.742698  0.811623  0.767033  1
  Zr  Zr4  1  0.245153  0.725431  0.543104  1
  Zr  Zr5  1  0.745454  0.274781  0.956849  1
  Zr  Zr6  1  0.754892  0.274505  0.456885  1
  Re  Re7  1  0.256515  0.725523  0.043694  1
  F  F8  1  0.959572  0.716762  0.453888  1
  F  F9  1  0.459215  0.284297  0.044748  1
  F  F10  1  0.040936  0.283760  0.545382  1
  F  F11  1  0.531586  0.716457  0.956514  1
  F  F12  1  0.056797  0.710126  0.923971  1
  F  F13  1  0.549030  0.289154  0.580113  1
  F  F14  1  0.950667  0.289093  0.080130  1
  F  F15  1  0.451151  0.711257  0.419561  1
  F  F16  1  0.733472  0.518181  0.860150  1
  F  F17  1  0.232777  0.481955  0.640527  1
  F  F18  1  0.264321  0.488863  0.138567  1
  F  F19  1  0.767210  0.517950  0.358984  1
  F  F20  1  0.738728  0.031790  0.053841  1
  F  F21  1  0.238932  0.968587  0.445440  1
  F  F22  1  0.258964  0.962298  0.949440  1
  F  F23  1  0.761226  0.031576  0.554956  1
  F  F24  1  0.045116  0.744144  0.668725  1
  F  F25  1  0.545366  0.255363  0.831871  1
  F  F26  1  0.953949  0.256169  0.331318  1
  F  F27  1  0.451796  0.742630  0.165285  1
  F  F28  1  0.019879  0.267327  0.861807  1
  F  F29  1  0.518804  0.732131  0.639141  1
  F  F30  1  0.988037  0.731900  0.135399  1
  F  F31  1  0.480716  0.268611  0.360997  1
  F  F32  1  0.084072  0.969140  0.232915  1
  F  F33  1  0.584635  0.030638  0.266822  1
  F  F34  1  0.913705  0.032027  0.767353  1
  F  F35  1  0.416032  0.968314  0.731924  1
