# generated using pymatgen
data_Hf3Zr(AgN)2
_symmetry_space_group_name_H-M   'P 1'
_cell_length_a   8.94093578
_cell_length_b   8.94093451
_cell_length_c   4.57370300
_cell_angle_alpha   90.00000000
_cell_angle_beta   90.00000000
_cell_angle_gamma   159.38450328
_symmetry_Int_Tables_number   1
_chemical_formula_structural   Hf3Zr(AgN)2
_chemical_formula_sum   'Hf3 Zr1 Ag2 N2'
_cell_volume   128.73406200
_cell_formula_units_Z   1
loop_
 _symmetry_equiv_pos_site_id
 _symmetry_equiv_pos_as_xyz
  1  'x, y, z'
loop_
 _atom_site_type_symbol
 _atom_site_label
 _atom_site_symmetry_multiplicity
 _atom_site_fract_x
 _atom_site_fract_y
 _atom_site_fract_z
 _atom_site_occupancy
  Hf  Hf0  1  0.387018  0.612984  0.250000  1
  Hf  Hf1  1  0.211692  0.788310  0.250000  1
  Hf  Hf2  1  0.788865  0.211137  0.750000  1
  Zr  Zr3  1  0.612407  0.387595  0.750000  1
  Ag  Ag4  1  0.042265  0.957737  0.250000  1
  Ag  Ag5  1  0.954952  0.045050  0.750000  1
  N  N6  1  0.800655  0.199347  0.250000  1
  N  N7  1  0.202154  0.797848  0.750000  1
