# generated using pymatgen
data_Tb4HoErMn6O18
_symmetry_space_group_name_H-M   'P 1'
_cell_length_a   6.22779600
_cell_length_b   6.22779553
_cell_length_c   11.54805500
_cell_angle_alpha   90.00000000
_cell_angle_beta   90.00000000
_cell_angle_gamma   120.00000251
_symmetry_Int_Tables_number   1
_chemical_formula_structural   Tb4HoErMn6O18
_chemical_formula_sum   'Tb4 Ho1 Er1 Mn6 O18'
_cell_volume   387.88964668
_cell_formula_units_Z   1
loop_
 _symmetry_equiv_pos_site_id
 _symmetry_equiv_pos_as_xyz
  1  'x, y, z'
loop_
 _atom_site_type_symbol
 _atom_site_label
 _atom_site_symmetry_multiplicity
 _atom_site_fract_x
 _atom_site_fract_y
 _atom_site_fract_z
 _atom_site_occupancy
  Tb  Tb0  1  0.666667  0.333333  0.229129  1
  Tb  Tb1  1  0.333333  0.666667  0.729224  1
  Tb  Tb2  1  0.666667  0.333333  0.729224  1
  Tb  Tb3  1  0.333333  0.666667  0.229129  1
  Ho  Ho4  1  0.000000  0.000000  0.772531  1
  Er  Er5  1  0.000000  0.000000  0.272696  1
  Mn  Mn6  1  0.668250  0.000000  0.497715  1
  Mn  Mn7  1  0.668717  0.668717  0.998149  1
  Mn  Mn8  1  0.000000  0.331283  0.998149  1
  Mn  Mn9  1  0.000000  0.668250  0.497715  1
  Mn  Mn10  1  0.331750  0.331750  0.497715  1
  Mn  Mn11  1  0.331283  0.000000  0.998149  1
  O  O12  1  0.666667  0.333333  0.018447  1
  O  O13  1  0.333333  0.666667  0.517698  1
  O  O14  1  0.666667  0.333333  0.517698  1
  O  O15  1  0.333333  0.666667  0.018447  1
  O  O16  1  0.000000  0.000000  0.973077  1
  O  O17  1  0.000000  0.000000  0.472735  1
  O  O18  1  0.356066  0.000000  0.833873  1
  O  O19  1  0.354883  0.354883  0.333443  1
  O  O20  1  0.000000  0.645117  0.333443  1
  O  O21  1  0.000000  0.356066  0.833873  1
  O  O22  1  0.643934  0.643934  0.833873  1
  O  O23  1  0.645117  0.000000  0.333443  1
  O  O24  1  0.303428  0.000000  0.162594  1
  O  O25  1  0.304692  0.304692  0.662215  1
  O  O26  1  0.000000  0.695308  0.662215  1
  O  O27  1  0.000000  0.303428  0.162594  1
  O  O28  1  0.696572  0.696572  0.162594  1
  O  O29  1  0.695308  0.000000  0.662215  1
