# generated using pymatgen
data_Ta3VOs2C
_symmetry_space_group_name_H-M   'P 1'
_cell_length_a   8.32864649
_cell_length_b   8.32864733
_cell_length_c   8.32864600
_cell_angle_alpha   59.99999734
_cell_angle_beta   59.99999399
_cell_angle_gamma   59.99999934
_symmetry_Int_Tables_number   1
_chemical_formula_structural   Ta3VOs2C
_chemical_formula_sum   'Ta12 V4 Os8 C4'
_cell_volume   408.51525235
_cell_formula_units_Z   4
loop_
 _symmetry_equiv_pos_site_id
 _symmetry_equiv_pos_as_xyz
  1  'x, y, z'
loop_
 _atom_site_type_symbol
 _atom_site_label
 _atom_site_symmetry_multiplicity
 _atom_site_fract_x
 _atom_site_fract_y
 _atom_site_fract_z
 _atom_site_occupancy
  Ta  Ta0  1  0.557731  0.942269  0.557731  1
  Ta  Ta1  1  0.307731  0.692269  0.692269  1
  Ta  Ta2  1  0.692269  0.307731  0.307731  1
  Ta  Ta3  1  0.307731  0.692269  0.307731  1
  Ta  Ta4  1  0.692269  0.692269  0.307731  1
  Ta  Ta5  1  0.307731  0.307731  0.692269  1
  Ta  Ta6  1  0.557731  0.557731  0.942269  1
  Ta  Ta7  1  0.942269  0.557731  0.557731  1
  Ta  Ta8  1  0.557731  0.942269  0.942269  1
  Ta  Ta9  1  0.942269  0.942269  0.557731  1
  Ta  Ta10  1  0.692269  0.307731  0.692269  1
  Ta  Ta11  1  0.942269  0.557731  0.942269  1
  V  V12  1  0.125000  0.125000  0.125000  1
  V  V13  1  0.625000  0.125000  0.125000  1
  V  V14  1  0.125000  0.625000  0.125000  1
  V  V15  1  0.125000  0.125000  0.625000  1
  Os  Os16  1  0.916691  0.916691  0.916691  1
  Os  Os17  1  0.000071  0.333309  0.333309  1
  Os  Os18  1  0.333309  0.000071  0.333309  1
  Os  Os19  1  0.333309  0.333309  0.000071  1
  Os  Os20  1  0.916691  0.249929  0.916691  1
  Os  Os21  1  0.916691  0.916691  0.249929  1
  Os  Os22  1  0.249929  0.916691  0.916691  1
  Os  Os23  1  0.333309  0.333309  0.333309  1
  C  C24  1  0.625000  0.625000  0.625000  1
  C  C25  1  0.125000  0.625000  0.625000  1
  C  C26  1  0.625000  0.125000  0.625000  1
  C  C27  1  0.625000  0.625000  0.125000  1
