# generated using pymatgen
data_PrHo4(In2Ir)2
_symmetry_space_group_name_H-M   'P 1'
_cell_length_a   3.67943300
_cell_length_b   8.02159700
_cell_length_c   18.40865700
_cell_angle_alpha   90.00000000
_cell_angle_beta   90.00000000
_cell_angle_gamma   90.00000000
_symmetry_Int_Tables_number   1
_chemical_formula_structural   PrHo4(In2Ir)2
_chemical_formula_sum   'Pr2 Ho8 In8 Ir4'
_cell_volume   543.33019908
_cell_formula_units_Z   2
loop_
 _symmetry_equiv_pos_site_id
 _symmetry_equiv_pos_as_xyz
  1  'x, y, z'
loop_
 _atom_site_type_symbol
 _atom_site_label
 _atom_site_symmetry_multiplicity
 _atom_site_fract_x
 _atom_site_fract_y
 _atom_site_fract_z
 _atom_site_occupancy
  Pr  Pr0  1  0.000000  0.000000  0.000000  1
  Pr  Pr1  1  0.000000  0.500000  0.500000  1
  Ho  Ho2  1  0.000000  0.117610  0.410117  1
  Ho  Ho3  1  0.000000  0.882390  0.589883  1
  Ho  Ho4  1  0.000000  0.382390  0.910117  1
  Ho  Ho5  1  0.000000  0.617610  0.089883  1
  Ho  Ho6  1  0.000000  0.244037  0.220950  1
  Ho  Ho7  1  0.000000  0.755963  0.779050  1
  Ho  Ho8  1  0.000000  0.255963  0.720950  1
  Ho  Ho9  1  0.000000  0.744037  0.279050  1
  In  In10  1  0.500000  0.424479  0.347419  1
  In  In11  1  0.500000  0.575521  0.652581  1
  In  In12  1  0.500000  0.075521  0.847419  1
  In  In13  1  0.500000  0.924479  0.152581  1
  In  In14  1  0.500000  0.299689  0.069290  1
  In  In15  1  0.500000  0.700311  0.930710  1
  In  In16  1  0.500000  0.200311  0.569290  1
  In  In17  1  0.500000  0.799689  0.430710  1
  Ir  Ir18  1  0.500000  0.021698  0.304593  1
  Ir  Ir19  1  0.500000  0.978302  0.695407  1
  Ir  Ir20  1  0.500000  0.478302  0.804593  1
  Ir  Ir21  1  0.500000  0.521698  0.195407  1
