# generated using pymatgen
data_TmTaNb5Cl18
_symmetry_space_group_name_H-M   'P 1'
_cell_length_a   10.13917567
_cell_length_b   10.14041288
_cell_length_c   10.14097100
_cell_angle_alpha   56.07922590
_cell_angle_beta   56.07521190
_cell_angle_gamma   56.08741363
_symmetry_Int_Tables_number   1
_chemical_formula_structural   TmTaNb5Cl18
_chemical_formula_sum   'Tm1 Ta1 Nb5 Cl18'
_cell_volume   670.34412735
_cell_formula_units_Z   1
loop_
 _symmetry_equiv_pos_site_id
 _symmetry_equiv_pos_as_xyz
  1  'x, y, z'
loop_
 _atom_site_type_symbol
 _atom_site_label
 _atom_site_symmetry_multiplicity
 _atom_site_fract_x
 _atom_site_fract_y
 _atom_site_fract_z
 _atom_site_occupancy
  Tm  Tm0  1  0.999316  0.999744  0.000357  1
  Ta  Ta1  1  0.407324  0.299948  0.650358  1
  Nb  Nb2  1  0.349623  0.592921  0.700106  1
  Nb  Nb3  1  0.700560  0.349730  0.592474  1
  Nb  Nb4  1  0.299744  0.650768  0.407137  1
  Nb  Nb5  1  0.650685  0.407600  0.299473  1
  Nb  Nb6  1  0.593141  0.701031  0.348904  1
  Cl  Cl7  1  0.565816  0.160391  0.445089  1
  Cl  Cl8  1  0.223285  0.369372  0.907380  1
  Cl  Cl9  1  0.908956  0.222159  0.371491  1
  Cl  Cl10  1  0.371528  0.909117  0.222283  1
  Cl  Cl11  1  0.777898  0.628839  0.090831  1
  Cl  Cl12  1  0.090893  0.777477  0.628784  1
  Cl  Cl13  1  0.706838  0.958767  0.158126  1
  Cl  Cl14  1  0.957910  0.157668  0.707387  1
  Cl  Cl15  1  0.158653  0.706932  0.957987  1
  Cl  Cl16  1  0.294637  0.045472  0.839040  1
  Cl  Cl17  1  0.042180  0.841149  0.292881  1
  Cl  Cl18  1  0.841531  0.292261  0.042574  1
  Cl  Cl19  1  0.557894  0.431900  0.839605  1
  Cl  Cl20  1  0.162162  0.439099  0.569929  1
  Cl  Cl21  1  0.442010  0.567823  0.160560  1
  Cl  Cl22  1  0.432130  0.839725  0.557798  1
  Cl  Cl23  1  0.839728  0.558237  0.431815  1
  Cl  Cl24  1  0.625560  0.091870  0.777633  1
