# generated using pymatgen
data_Sm21Mn8Bi7C12
_symmetry_space_group_name_H-M   'P 1'
_cell_length_a   11.37191854
_cell_length_b   11.37189942
_cell_length_c   11.37264200
_cell_angle_alpha   60.00289553
_cell_angle_beta   60.00274754
_cell_angle_gamma   60.00071392
_symmetry_Int_Tables_number   1
_chemical_formula_structural   Sm21Mn8Bi7C12
_chemical_formula_sum   'Sm21 Mn8 Bi7 C12'
_cell_volume   1040.00154372
_cell_formula_units_Z   1
loop_
 _symmetry_equiv_pos_site_id
 _symmetry_equiv_pos_as_xyz
  1  'x, y, z'
loop_
 _atom_site_type_symbol
 _atom_site_label
 _atom_site_symmetry_multiplicity
 _atom_site_fract_x
 _atom_site_fract_y
 _atom_site_fract_z
 _atom_site_occupancy
  Sm  Sm0  1  0.999974  0.999959  0.657603  1
  Sm  Sm1  1  0.999894  0.657680  0.342529  1
  Sm  Sm2  1  0.636844  0.636726  0.636721  1
  Sm  Sm3  1  0.999914  0.342517  0.657654  1
  Sm  Sm4  1  0.657575  0.000033  0.000035  1
  Sm  Sm5  1  0.363130  0.363073  0.910656  1
  Sm  Sm6  1  0.636790  0.089793  0.636649  1
  Sm  Sm7  1  0.657624  0.999955  0.342453  1
  Sm  Sm8  1  0.999962  0.999953  0.342454  1
  Sm  Sm9  1  0.910587  0.363112  0.363115  1
  Sm  Sm10  1  0.999973  0.657623  0.999960  1
  Sm  Sm11  1  0.363134  0.910636  0.363082  1
  Sm  Sm12  1  0.657615  0.342425  0.999976  1
  Sm  Sm13  1  0.999980  0.342432  0.999971  1
  Sm  Sm14  1  0.636789  0.636658  0.089797  1
  Sm  Sm15  1  0.363177  0.363119  0.363123  1
  Sm  Sm16  1  0.342438  0.657614  0.999969  1
  Sm  Sm17  1  0.342354  0.000037  0.000041  1
  Sm  Sm18  1  0.089683  0.636744  0.636735  1
  Sm  Sm19  1  0.342453  0.999966  0.657599  1
  Sm  Sm20  1  0.499945  0.500039  0.500063  1
  Mn  Mn21  1  0.196170  0.411491  0.196157  1
  Mn  Mn22  1  0.803780  0.588691  0.803765  1
  Mn  Mn23  1  0.196162  0.196157  0.196146  1
  Mn  Mn24  1  0.803782  0.803771  0.588677  1
  Mn  Mn25  1  0.196178  0.196171  0.411463  1
  Mn  Mn26  1  0.588770  0.803746  0.803740  1
  Mn  Mn27  1  0.803771  0.803762  0.803741  1
  Mn  Mn28  1  0.411514  0.196160  0.196152  1
  Bi  Bi29  1  0.290438  0.290438  0.709578  1
  Bi  Bi30  1  0.290440  0.709565  0.290444  1
  Bi  Bi31  1  0.290442  0.709548  0.709567  1
  Bi  Bi32  1  0.709561  0.290435  0.290438  1
  Bi  Bi33  1  0.999998  0.999996  0.000008  1
  Bi  Bi34  1  0.709543  0.290437  0.709578  1
  Bi  Bi35  1  0.709549  0.709566  0.290444  1
  C  C36  1  0.395612  0.395581  0.104415  1
  C  C37  1  0.395619  0.104408  0.395564  1
  C  C38  1  0.604390  0.895631  0.895615  1
  C  C39  1  0.395584  0.104401  0.104424  1
  C  C40  1  0.895622  0.895595  0.604373  1
  C  C41  1  0.895580  0.604406  0.604434  1
  C  C42  1  0.604424  0.604366  0.895586  1
  C  C43  1  0.895629  0.604383  0.895578  1
  C  C44  1  0.104398  0.395612  0.395581  1
  C  C45  1  0.604410  0.895593  0.604375  1
  C  C46  1  0.104404  0.104412  0.395557  1
  C  C47  1  0.104393  0.395581  0.104414  1
