# generated using pymatgen
data_EuGe2MoO7
_symmetry_space_group_name_H-M   'P 1'
_cell_length_a   5.65582977
_cell_length_b   5.65582990
_cell_length_c   4.85311400
_cell_angle_alpha   96.47312300
_cell_angle_beta   96.47312315
_cell_angle_gamma   102.19775946
_symmetry_Int_Tables_number   1
_chemical_formula_structural   EuGe2MoO7
_chemical_formula_sum   'Eu1 Ge2 Mo1 O7'
_cell_volume   149.27344937
_cell_formula_units_Z   1
loop_
 _symmetry_equiv_pos_site_id
 _symmetry_equiv_pos_as_xyz
  1  'x, y, z'
loop_
 _atom_site_type_symbol
 _atom_site_label
 _atom_site_symmetry_multiplicity
 _atom_site_fract_x
 _atom_site_fract_y
 _atom_site_fract_z
 _atom_site_occupancy
  Eu  Eu0  1  0.280298  0.720232  0.499559  1
  Ge  Ge1  1  0.784589  0.774487  0.076718  1
  Ge  Ge2  1  0.225280  0.215469  0.923181  1
  Mo  Mo3  1  0.677711  0.322155  0.500012  1
  O  O4  1  0.083284  0.916696  0.000126  1
  O  O5  1  0.376957  0.387987  0.241413  1
  O  O6  1  0.637448  0.964144  0.270713  1
  O  O7  1  0.883300  0.557318  0.272868  1
  O  O8  1  0.442966  0.116855  0.727716  1
  O  O9  1  0.035685  0.362467  0.729113  1
  O  O10  1  0.611862  0.622817  0.758580  1
