# generated using pymatgen
data_YTmMn12P7
_symmetry_space_group_name_H-M   'P 1'
_cell_length_a   9.29265400
_cell_length_b   9.29265413
_cell_length_c   3.58981900
_cell_angle_alpha   90.00000000
_cell_angle_beta   90.00000000
_cell_angle_gamma   120.00000667
_symmetry_Int_Tables_number   1
_chemical_formula_structural   YTmMn12P7
_chemical_formula_sum   'Y1 Tm1 Mn12 P7'
_cell_volume   268.46192150
_cell_formula_units_Z   1
loop_
 _symmetry_equiv_pos_site_id
 _symmetry_equiv_pos_as_xyz
  1  'x, y, z'
loop_
 _atom_site_type_symbol
 _atom_site_label
 _atom_site_symmetry_multiplicity
 _atom_site_fract_x
 _atom_site_fract_y
 _atom_site_fract_z
 _atom_site_occupancy
  Y  Y0  1  0.000000  0.000000  0.500000  1
  Tm  Tm1  1  0.333333  0.666667  0.000000  1
  Mn  Mn2  1  0.043056  0.285203  0.000000  1
  Mn  Mn3  1  0.714797  0.757852  0.000000  1
  Mn  Mn4  1  0.242148  0.956944  0.000000  1
  Mn  Mn5  1  0.546837  0.056678  0.000000  1
  Mn  Mn6  1  0.943322  0.490160  0.000000  1
  Mn  Mn7  1  0.509840  0.453163  0.000000  1
  Mn  Mn8  1  0.621065  0.895561  0.500000  1
  Mn  Mn9  1  0.104439  0.725504  0.500000  1
  Mn  Mn10  1  0.274496  0.378935  0.500000  1
  Mn  Mn11  1  0.791683  0.229927  0.500000  1
  Mn  Mn12  1  0.770073  0.561757  0.500000  1
  Mn  Mn13  1  0.438243  0.208317  0.500000  1
  P  P14  1  0.786211  0.042282  0.000000  1
  P  P15  1  0.957718  0.743929  0.000000  1
  P  P16  1  0.256071  0.213789  0.000000  1
  P  P17  1  0.385692  0.923610  0.500000  1
  P  P18  1  0.076390  0.462083  0.500000  1
  P  P19  1  0.537917  0.614308  0.500000  1
  P  P20  1  0.666667  0.333333  0.000000  1
