# generated using pymatgen
data_Er3Tm9Tc3Pt
_symmetry_space_group_name_H-M   'P 1'
_cell_length_a   6.21655282
_cell_length_b   7.33889936
_cell_length_c   9.01690200
_cell_angle_alpha   90.00000000
_cell_angle_beta   90.00000000
_cell_angle_gamma   89.95252689
_symmetry_Int_Tables_number   1
_chemical_formula_structural   Er3Tm9Tc3Pt
_chemical_formula_sum   'Er3 Tm9 Tc3 Pt1'
_cell_volume   411.37487284
_cell_formula_units_Z   1
loop_
 _symmetry_equiv_pos_site_id
 _symmetry_equiv_pos_as_xyz
  1  'x, y, z'
loop_
 _atom_site_type_symbol
 _atom_site_label
 _atom_site_symmetry_multiplicity
 _atom_site_fract_x
 _atom_site_fract_y
 _atom_site_fract_z
 _atom_site_occupancy
  Er  Er0  1  0.874704  0.541935  0.250000  1
  Er  Er1  1  0.127378  0.456179  0.750000  1
  Er  Er2  1  0.373578  0.964957  0.750000  1
  Tm  Tm3  1  0.331302  0.675935  0.066383  1
  Tm  Tm4  1  0.163151  0.177209  0.436506  1
  Tm  Tm5  1  0.665287  0.318372  0.558298  1
  Tm  Tm6  1  0.838895  0.828183  0.940936  1
  Tm  Tm7  1  0.665287  0.318372  0.941702  1
  Tm  Tm8  1  0.838895  0.828183  0.559064  1
  Tm  Tm9  1  0.331302  0.675935  0.433617  1
  Tm  Tm10  1  0.163151  0.177209  0.063494  1
  Tm  Tm11  1  0.621155  0.037254  0.250000  1
  Tc  Tc12  1  0.037924  0.884943  0.250000  1
  Tc  Tc13  1  0.463930  0.385790  0.250000  1
  Tc  Tc14  1  0.958020  0.115404  0.750000  1
  Pt  Pt15  1  0.546039  0.614137  0.750000  1
