# generated using pymatgen
data_LaYb5(DyRu)4
_symmetry_space_group_name_H-M   'P 1'
_cell_length_a   8.57563414
_cell_length_b   8.56658151
_cell_length_c   7.39556211
_cell_angle_alpha   83.16434438
_cell_angle_beta   83.47951621
_cell_angle_gamma   43.88367932
_symmetry_Int_Tables_number   1
_chemical_formula_structural   LaYb5(DyRu)4
_chemical_formula_sum   'La1 Yb5 Dy4 Ru4'
_cell_volume   373.63654696
_cell_formula_units_Z   1
loop_
 _symmetry_equiv_pos_site_id
 _symmetry_equiv_pos_as_xyz
  1  'x, y, z'
loop_
 _atom_site_type_symbol
 _atom_site_label
 _atom_site_symmetry_multiplicity
 _atom_site_fract_x
 _atom_site_fract_y
 _atom_site_fract_z
 _atom_site_occupancy
  La  La0  1  0.195240  0.987971  0.590188  1
  Yb  Yb1  1  0.020012  0.796732  0.918104  1
  Yb  Yb2  1  0.204754  0.369197  0.312893  1
  Yb  Yb3  1  0.636043  0.795753  0.182427  1
  Yb  Yb4  1  0.804419  0.627634  0.680864  1
  Yb  Yb5  1  0.372080  0.199058  0.823905  1
  Dy  Dy6  1  0.969578  0.195990  0.081965  1
  Dy  Dy7  1  0.797201  0.024993  0.419454  1
  Dy  Dy8  1  0.561472  0.434461  0.751794  1
  Dy  Dy9  1  0.422081  0.578724  0.248954  1
  Ru  Ru10  1  0.178786  0.610200  0.569399  1
  Ru  Ru11  1  0.383591  0.834615  0.913206  1
  Ru  Ru12  1  0.833369  0.362093  0.425642  1
  Ru  Ru13  1  0.621371  0.182582  0.081205  1
