# generated using pymatgen
data_Tm7Pa(Si4Ru3)4
_symmetry_space_group_name_H-M   'P 1'
_cell_length_a   10.19118961
_cell_length_b   10.19153262
_cell_length_c   13.71566600
_cell_angle_alpha   53.07213663
_cell_angle_beta   53.07327539
_cell_angle_gamma   30.80271690
_symmetry_Int_Tables_number   1
_chemical_formula_structural   Tm7Pa(Si4Ru3)4
_chemical_formula_sum   'Tm7 Pa1 Si16 Ru12'
_cell_volume   570.52205025
_cell_formula_units_Z   1
loop_
 _symmetry_equiv_pos_site_id
 _symmetry_equiv_pos_as_xyz
  1  'x, y, z'
loop_
 _atom_site_type_symbol
 _atom_site_label
 _atom_site_symmetry_multiplicity
 _atom_site_fract_x
 _atom_site_fract_y
 _atom_site_fract_z
 _atom_site_occupancy
  Tm  Tm0  1  0.038913  0.289896  0.639732  1
  Tm  Tm1  1  0.711889  0.959645  0.859519  1
  Tm  Tm2  1  0.959648  0.710729  0.360698  1
  Tm  Tm3  1  0.288287  0.039704  0.140157  1
  Tm  Tm4  1  0.297925  0.557708  0.644832  1
  Tm  Tm5  1  0.441036  0.707425  0.851158  1
  Tm  Tm6  1  0.702153  0.441859  0.356583  1
  Pa  Pa7  1  0.559464  0.301029  0.140257  1
  Si  Si8  1  0.980108  0.251180  0.892077  1
  Si  Si9  1  0.751090  0.020636  0.607220  1
  Si  Si10  1  0.017204  0.751936  0.105678  1
  Si  Si11  1  0.249942  0.978471  0.393789  1
  Si  Si12  1  0.142508  0.382064  0.898209  1
  Si  Si13  1  0.618133  0.859288  0.600545  1
  Si  Si14  1  0.859396  0.615236  0.102401  1
  Si  Si15  1  0.380192  0.140890  0.400216  1
  Si  Si16  1  0.081796  0.574508  0.567979  1
  Si  Si17  1  0.426179  0.918366  0.931806  1
  Si  Si18  1  0.917746  0.425024  0.433395  1
  Si  Si19  1  0.574012  0.078444  0.066541  1
  Si  Si20  1  0.620316  0.379552  0.749743  1
  Si  Si21  1  0.377551  0.622896  0.252330  1
  Si  Si22  1  0.130096  0.869639  0.750156  1
  Si  Si23  1  0.873803  0.127072  0.252107  1
  Ru  Ru24  1  0.899475  0.138147  0.587772  1
  Ru  Ru25  1  0.853008  0.107970  0.915363  1
  Ru  Ru26  1  0.101021  0.861670  0.413367  1
  Ru  Ru27  1  0.140406  0.893527  0.087757  1
  Ru  Ru28  1  0.835553  0.642709  0.782778  1
  Ru  Ru29  1  0.358355  0.164823  0.716923  1
  Ru  Ru30  1  0.168282  0.358190  0.217346  1
  Ru  Ru31  1  0.644083  0.834474  0.282159  1
  Ru  Ru32  1  0.251637  0.504438  0.931083  1
  Ru  Ru33  1  0.496479  0.747901  0.569720  1
  Ru  Ru34  1  0.747537  0.492928  0.070275  1
  Ru  Ru35  1  0.504780  0.250021  0.428328  1
