# generated using pymatgen
data_Ca3Al2SnPd6
_symmetry_space_group_name_H-M   'P 1'
_cell_length_a   8.96498631
_cell_length_b   8.96498490
_cell_length_c   8.96498579
_cell_angle_alpha   37.00111395
_cell_angle_beta   37.00112852
_cell_angle_gamma   37.00111867
_symmetry_Int_Tables_number   1
_chemical_formula_structural   Ca3Al2SnPd6
_chemical_formula_sum   'Ca3 Al2 Sn1 Pd6'
_cell_volume   233.83727056
_cell_formula_units_Z   1
loop_
 _symmetry_equiv_pos_site_id
 _symmetry_equiv_pos_as_xyz
  1  'x, y, z'
loop_
 _atom_site_type_symbol
 _atom_site_label
 _atom_site_symmetry_multiplicity
 _atom_site_fract_x
 _atom_site_fract_y
 _atom_site_fract_z
 _atom_site_occupancy
  Ca  Ca0  1  0.361068  0.361068  0.361068  1
  Ca  Ca1  1  0.500000  0.500000  0.500000  1
  Ca  Ca2  1  0.638932  0.638932  0.638932  1
  Al  Al3  1  0.166572  0.166572  0.166572  1
  Al  Al4  1  0.833428  0.833428  0.833428  1
  Sn  Sn5  1  0.000000  0.000000  0.000000  1
  Pd  Pd6  1  0.574291  0.078922  0.078922  1
  Pd  Pd7  1  0.078922  0.574291  0.078922  1
  Pd  Pd8  1  0.921078  0.921078  0.425709  1
  Pd  Pd9  1  0.078922  0.078922  0.574291  1
  Pd  Pd10  1  0.921078  0.425709  0.921078  1
  Pd  Pd11  1  0.425709  0.921078  0.921078  1
