# generated using pymatgen
data_Nd10Sn3Bi3P2
_symmetry_space_group_name_H-M   'P 1'
_cell_length_a   9.47407100
_cell_length_b   9.47407024
_cell_length_c   6.97353200
_cell_angle_alpha   90.00000000
_cell_angle_beta   90.00000000
_cell_angle_gamma   120.00000614
_symmetry_Int_Tables_number   1
_chemical_formula_structural   Nd10Sn3Bi3P2
_chemical_formula_sum   'Nd10 Sn3 Bi3 P2'
_cell_volume   542.07157989
_cell_formula_units_Z   1
loop_
 _symmetry_equiv_pos_site_id
 _symmetry_equiv_pos_as_xyz
  1  'x, y, z'
loop_
 _atom_site_type_symbol
 _atom_site_label
 _atom_site_symmetry_multiplicity
 _atom_site_fract_x
 _atom_site_fract_y
 _atom_site_fract_z
 _atom_site_occupancy
  Nd  Nd0  1  0.761488  0.761488  0.250000  1
  Nd  Nd1  1  0.238512  0.000000  0.250000  1
  Nd  Nd2  1  0.000000  0.238512  0.250000  1
  Nd  Nd3  1  0.238799  0.238799  0.750000  1
  Nd  Nd4  1  0.761201  0.000000  0.750000  1
  Nd  Nd5  1  0.000000  0.761201  0.750000  1
  Nd  Nd6  1  0.666667  0.333333  0.505043  1
  Nd  Nd7  1  0.333333  0.666667  0.505043  1
  Nd  Nd8  1  0.333333  0.666667  0.994957  1
  Nd  Nd9  1  0.666667  0.333333  0.994957  1
  Sn  Sn10  1  0.600835  0.600835  0.750000  1
  Sn  Sn11  1  0.399165  0.000000  0.750000  1
  Sn  Sn12  1  0.000000  0.399165  0.750000  1
  Bi  Bi13  1  0.399249  0.399249  0.250000  1
  Bi  Bi14  1  0.600751  0.000000  0.250000  1
  Bi  Bi15  1  0.000000  0.600751  0.250000  1
  P  P16  1  0.000000  0.000000  0.499316  1
  P  P17  1  0.000000  0.000000  0.000684  1
