# generated using pymatgen
data_GdDy19(CoSb2)4
_symmetry_space_group_name_H-M   'P 1'
_cell_length_a   7.89629527
_cell_length_b   8.77068800
_cell_length_c   12.17469100
_cell_angle_alpha   90.00000000
_cell_angle_beta   90.01509255
_cell_angle_gamma   90.00000000
_symmetry_Int_Tables_number   1
_chemical_formula_structural   GdDy19(CoSb2)4
_chemical_formula_sum   'Gd1 Dy19 Co4 Sb8'
_cell_volume   843.16966699
_cell_formula_units_Z   1
loop_
 _symmetry_equiv_pos_site_id
 _symmetry_equiv_pos_as_xyz
  1  'x, y, z'
loop_
 _atom_site_type_symbol
 _atom_site_label
 _atom_site_symmetry_multiplicity
 _atom_site_fract_x
 _atom_site_fract_y
 _atom_site_fract_z
 _atom_site_occupancy
  Gd  Gd0  1  0.877450  0.750000  0.807087  1
  Dy  Dy1  1  0.154722  0.750000  0.203436  1
  Dy  Dy2  1  0.654480  0.250000  0.296773  1
  Dy  Dy3  1  0.845316  0.250000  0.796673  1
  Dy  Dy4  1  0.345754  0.750000  0.702875  1
  Dy  Dy5  1  0.455036  0.750000  0.997934  1
  Dy  Dy6  1  0.955644  0.250000  0.501442  1
  Dy  Dy7  1  0.544558  0.250000  0.002253  1
  Dy  Dy8  1  0.045487  0.750000  0.497774  1
  Dy  Dy9  1  0.622530  0.750000  0.306326  1
  Dy  Dy10  1  0.122651  0.250000  0.193870  1
  Dy  Dy11  1  0.377064  0.250000  0.692927  1
  Dy  Dy12  1  0.821039  0.965969  0.066066  1
  Dy  Dy13  1  0.321383  0.034605  0.434625  1
  Dy  Dy14  1  0.179117  0.463695  0.935347  1
  Dy  Dy15  1  0.678918  0.534553  0.564773  1
  Dy  Dy16  1  0.179117  0.036305  0.935347  1
  Dy  Dy17  1  0.678918  0.965447  0.564773  1
  Dy  Dy18  1  0.821039  0.534031  0.066066  1
  Dy  Dy19  1  0.321383  0.465395  0.434625  1
  Co  Co20  1  0.436257  0.750000  0.490546  1
  Co  Co21  1  0.935302  0.250000  0.009643  1
  Co  Co22  1  0.563993  0.250000  0.508695  1
  Co  Co23  1  0.064963  0.750000  0.991618  1
  Sb  Sb24  1  0.928285  0.991859  0.326778  1
  Sb  Sb25  1  0.428131  0.007962  0.173195  1
  Sb  Sb26  1  0.072697  0.491245  0.672560  1
  Sb  Sb27  1  0.569826  0.506958  0.826718  1
  Sb  Sb28  1  0.072697  0.008755  0.672560  1
  Sb  Sb29  1  0.569826  0.993042  0.826718  1
  Sb  Sb30  1  0.928285  0.508141  0.326778  1
  Sb  Sb31  1  0.428131  0.492038  0.173195  1
