# generated using pymatgen
data_Tb4V3ReB16
_symmetry_space_group_name_H-M   'P 1'
_cell_length_a   3.51485300
_cell_length_b   5.99898701
_cell_length_c   11.61081306
_cell_angle_alpha   89.99776040
_cell_angle_beta   90.00000000
_cell_angle_gamma   90.00000000
_symmetry_Int_Tables_number   1
_chemical_formula_structural   Tb4V3ReB16
_chemical_formula_sum   'Tb4 V3 Re1 B16'
_cell_volume   244.82046622
_cell_formula_units_Z   1
loop_
 _symmetry_equiv_pos_site_id
 _symmetry_equiv_pos_as_xyz
  1  'x, y, z'
loop_
 _atom_site_type_symbol
 _atom_site_label
 _atom_site_symmetry_multiplicity
 _atom_site_fract_x
 _atom_site_fract_y
 _atom_site_fract_z
 _atom_site_occupancy
  Tb  Tb0  1  0.500000  0.123778  0.649936  1
  Tb  Tb1  1  0.500000  0.875610  0.348959  1
  Tb  Tb2  1  0.500000  0.626526  0.848212  1
  Tb  Tb3  1  0.500000  0.375045  0.151299  1
  V  V4  1  0.500000  0.871937  0.082178  1
  V  V5  1  0.500000  0.626942  0.583598  1
  V  V6  1  0.500000  0.373233  0.417602  1
  Re  Re7  1  0.500000  0.127782  0.917092  1
  B  B8  1  0.000000  0.476844  0.691991  1
  B  B9  1  0.000000  0.523194  0.307866  1
  B  B10  1  0.000000  0.976676  0.807854  1
  B  B11  1  0.000000  0.022375  0.192152  1
  B  B12  1  0.000000  0.284887  0.814949  1
  B  B13  1  0.000000  0.715261  0.185203  1
  B  B14  1  0.000000  0.785380  0.685314  1
  B  B15  1  0.000000  0.214230  0.314575  1
  B  B16  1  0.000000  0.364604  0.968172  1
  B  B17  1  0.000000  0.635763  0.032683  1
  B  B18  1  0.000000  0.863796  0.532557  1
  B  B19  1  0.000000  0.136070  0.467269  1
  B  B20  1  0.000000  0.386052  0.547194  1
  B  B21  1  0.000000  0.614304  0.452703  1
  B  B22  1  0.000000  0.886308  0.953196  1
  B  B23  1  0.000000  0.113401  0.047445  1
