# generated using pymatgen
data_Y12Ho4MgHg3Pt4
_symmetry_space_group_name_H-M   'P 1'
_cell_length_a   9.69707682
_cell_length_b   9.69626486
_cell_length_c   9.69626500
_cell_angle_alpha   60.00000292
_cell_angle_beta   60.00277273
_cell_angle_gamma   60.00275842
_symmetry_Int_Tables_number   1
_chemical_formula_structural   Y12Ho4MgHg3Pt4
_chemical_formula_sum   'Y12 Ho4 Mg1 Hg3 Pt4'
_cell_volume   644.69298826
_cell_formula_units_Z   1
loop_
 _symmetry_equiv_pos_site_id
 _symmetry_equiv_pos_as_xyz
  1  'x, y, z'
loop_
 _atom_site_type_symbol
 _atom_site_label
 _atom_site_symmetry_multiplicity
 _atom_site_fract_x
 _atom_site_fract_y
 _atom_site_fract_z
 _atom_site_occupancy
  Y  Y0  1  0.058547  0.440894  0.440894  1
  Y  Y1  1  0.436831  0.061867  0.061867  1
  Y  Y2  1  0.436831  0.061867  0.439435  1
  Y  Y3  1  0.058547  0.440894  0.059666  1
  Y  Y4  1  0.436831  0.439435  0.061867  1
  Y  Y5  1  0.058547  0.059666  0.440894  1
  Y  Y6  1  0.183489  0.815218  0.815218  1
  Y  Y7  1  0.813295  0.186056  0.186056  1
  Y  Y8  1  0.813295  0.186056  0.814593  1
  Y  Y9  1  0.183489  0.815218  0.186075  1
  Y  Y10  1  0.813295  0.814593  0.186056  1
  Y  Y11  1  0.183489  0.186075  0.815218  1
  Ho  Ho12  1  0.603633  0.601113  0.601113  1
  Ho  Ho13  1  0.603633  0.601113  0.194141  1
  Ho  Ho14  1  0.603633  0.194141  0.601113  1
  Ho  Ho15  1  0.184622  0.605127  0.605127  1
  Mg  Mg16  1  0.531995  0.822668  0.822668  1
  Hg  Hg17  1  0.833506  0.838362  0.838362  1
  Hg  Hg18  1  0.833506  0.838362  0.489771  1
  Hg  Hg19  1  0.833506  0.489771  0.838362  1
  Pt  Pt20  1  0.392448  0.395362  0.395362  1
  Pt  Pt21  1  0.392448  0.395362  0.816831  1
  Pt  Pt22  1  0.392448  0.816831  0.395362  1
  Pt  Pt23  1  0.818143  0.393953  0.393953  1
