# generated using pymatgen
data_Zr4Pa2MnCl15
_symmetry_space_group_name_H-M   'P 1'
_cell_length_a   9.20741352
_cell_length_b   9.19082655
_cell_length_c   9.19082600
_cell_angle_alpha   111.26654806
_cell_angle_beta   108.54638447
_cell_angle_gamma   108.54639103
_symmetry_Int_Tables_number   1
_chemical_formula_structural   Zr4Pa2MnCl15
_chemical_formula_sum   'Zr4 Pa2 Mn1 Cl15'
_cell_volume   598.78249145
_cell_formula_units_Z   1
loop_
 _symmetry_equiv_pos_site_id
 _symmetry_equiv_pos_as_xyz
  1  'x, y, z'
loop_
 _atom_site_type_symbol
 _atom_site_label
 _atom_site_symmetry_multiplicity
 _atom_site_fract_x
 _atom_site_fract_y
 _atom_site_fract_z
 _atom_site_occupancy
  Zr  Zr0  1  0.776262  0.998004  0.778257  1
  Zr  Zr1  1  0.993050  0.237380  0.237380  1
  Zr  Zr2  1  0.993050  0.755670  0.755670  1
  Zr  Zr3  1  0.776262  0.778257  0.998004  1
  Pa  Pa4  1  0.246710  0.998607  0.248103  1
  Pa  Pa5  1  0.246710  0.248103  0.998607  1
  Mn  Mn6  1  0.016565  0.008282  0.008282  1
  Cl  Cl7  1  0.986050  0.749432  0.236618  1
  Cl  Cl8  1  0.238154  0.741241  0.980367  1
  Cl  Cl9  1  0.521695  0.760847  0.760847  1
  Cl  Cl10  1  0.986050  0.236618  0.749432  1
  Cl  Cl11  1  0.756733  0.003462  0.245057  1
  Cl  Cl12  1  0.238154  0.496912  0.257786  1
  Cl  Cl13  1  0.756733  0.245057  0.003462  1
  Cl  Cl14  1  0.491605  0.493742  0.997863  1
  Cl  Cl15  1  0.238154  0.257786  0.496912  1
  Cl  Cl16  1  0.756733  0.511675  0.753271  1
  Cl  Cl17  1  0.756733  0.753271  0.511675  1
  Cl  Cl18  1  0.502192  0.251096  0.251096  1
  Cl  Cl19  1  0.238154  0.980367  0.741241  1
  Cl  Cl20  1  0.992647  0.496323  0.496323  1
  Cl  Cl21  1  0.491605  0.997863  0.493742  1
