# generated using pymatgen
data_Ca7La9(CdRu)4
_symmetry_space_group_name_H-M   'P 1'
_cell_length_a   10.05807974
_cell_length_b   10.05807997
_cell_length_c   9.99593100
_cell_angle_alpha   60.20418706
_cell_angle_beta   60.20418631
_cell_angle_gamma   61.04831818
_symmetry_Int_Tables_number   1
_chemical_formula_structural   Ca7La9(CdRu)4
_chemical_formula_sum   'Ca7 La9 Cd4 Ru4'
_cell_volume   722.79713019
_cell_formula_units_Z   1
loop_
 _symmetry_equiv_pos_site_id
 _symmetry_equiv_pos_as_xyz
  1  'x, y, z'
loop_
 _atom_site_type_symbol
 _atom_site_label
 _atom_site_symmetry_multiplicity
 _atom_site_fract_x
 _atom_site_fract_y
 _atom_site_fract_z
 _atom_site_occupancy
  Ca  Ca0  1  0.803614  0.803614  0.196386  1
  Ca  Ca1  1  0.939067  0.558719  0.561533  1
  Ca  Ca2  1  0.558719  0.939067  0.940680  1
  Ca  Ca3  1  0.558719  0.939067  0.561533  1
  Ca  Ca4  1  0.939067  0.558719  0.940680  1
  Ca  Ca5  1  0.558705  0.558705  0.941295  1
  Ca  Ca6  1  0.941572  0.941572  0.558428  1
  La  La7  1  0.345921  0.345921  0.344575  1
  La  La8  1  0.345921  0.345921  0.963582  1
  La  La9  1  0.341621  0.968390  0.344995  1
  La  La10  1  0.968390  0.341621  0.344995  1
  La  La11  1  0.805476  0.190675  0.190077  1
  La  La12  1  0.190675  0.805476  0.813772  1
  La  La13  1  0.190675  0.805476  0.190077  1
  La  La14  1  0.805476  0.190675  0.813772  1
  La  La15  1  0.191646  0.191646  0.808354  1
  Cd  Cd16  1  0.578647  0.578647  0.577587  1
  Cd  Cd17  1  0.578647  0.578647  0.265119  1
  Cd  Cd18  1  0.580245  0.262909  0.578422  1
  Cd  Cd19  1  0.262909  0.580245  0.578422  1
  Ru  Ru20  1  0.132546  0.132546  0.135549  1
  Ru  Ru21  1  0.132546  0.132546  0.599360  1
  Ru  Ru22  1  0.155459  0.593737  0.125402  1
  Ru  Ru23  1  0.593737  0.155459  0.125402  1
