# generated using pymatgen
data_TbYb11Zn24
_symmetry_space_group_name_H-M   'P 1'
_cell_length_a   4.57527400
_cell_length_b   7.46277901
_cell_length_c   21.72973600
_cell_angle_alpha   89.99754319
_cell_angle_beta   90.00000000
_cell_angle_gamma   90.00000000
_symmetry_Int_Tables_number   1
_chemical_formula_structural   TbYb11Zn24
_chemical_formula_sum   'Tb1 Yb11 Zn24'
_cell_volume   741.94572804
_cell_formula_units_Z   1
loop_
 _symmetry_equiv_pos_site_id
 _symmetry_equiv_pos_as_xyz
  1  'x, y, z'
loop_
 _atom_site_type_symbol
 _atom_site_label
 _atom_site_symmetry_multiplicity
 _atom_site_fract_x
 _atom_site_fract_y
 _atom_site_fract_z
 _atom_site_occupancy
  Tb  Tb0  1  0.250000  0.795351  0.833182  1
  Yb  Yb1  1  0.250000  0.700949  0.000744  1
  Yb  Yb2  1  0.750000  0.298657  0.000745  1
  Yb  Yb3  1  0.750000  0.201067  0.499572  1
  Yb  Yb4  1  0.250000  0.799577  0.499955  1
  Yb  Yb5  1  0.250000  0.799031  0.166516  1
  Yb  Yb6  1  0.750000  0.202740  0.833476  1
  Yb  Yb7  1  0.750000  0.298548  0.333389  1
  Yb  Yb8  1  0.250000  0.701463  0.666007  1
  Yb  Yb9  1  0.250000  0.700992  0.333294  1
  Yb  Yb10  1  0.750000  0.299175  0.665992  1
  Yb  Yb11  1  0.750000  0.200721  0.167047  1
  Zn  Zn12  1  0.250000  0.416200  0.103942  1
  Zn  Zn13  1  0.750000  0.584202  0.896157  1
  Zn  Zn14  1  0.750000  0.914726  0.396010  1
  Zn  Zn15  1  0.250000  0.086064  0.603106  1
  Zn  Zn16  1  0.250000  0.413936  0.230516  1
  Zn  Zn17  1  0.750000  0.586138  0.770591  1
  Zn  Zn18  1  0.750000  0.913773  0.270065  1
  Zn  Zn19  1  0.250000  0.083600  0.730884  1
  Zn  Zn20  1  0.250000  0.415209  0.436206  1
  Zn  Zn21  1  0.750000  0.586058  0.563553  1
  Zn  Zn22  1  0.750000  0.916194  0.063141  1
  Zn  Zn23  1  0.250000  0.082573  0.936365  1
  Zn  Zn24  1  0.250000  0.086226  0.063911  1
  Zn  Zn25  1  0.750000  0.913046  0.934924  1
  Zn  Zn26  1  0.750000  0.585017  0.436127  1
  Zn  Zn27  1  0.250000  0.415334  0.562944  1
  Zn  Zn28  1  0.250000  0.084228  0.270437  1
  Zn  Zn29  1  0.750000  0.914249  0.731635  1
  Zn  Zn30  1  0.750000  0.583890  0.229871  1
  Zn  Zn31  1  0.250000  0.417132  0.769186  1
  Zn  Zn32  1  0.250000  0.085958  0.396371  1
  Zn  Zn33  1  0.750000  0.915470  0.603274  1
  Zn  Zn34  1  0.750000  0.586377  0.102754  1
  Zn  Zn35  1  0.250000  0.416125  0.898110  1
