# generated using pymatgen
data_Rb2(NbS2)3
_symmetry_space_group_name_H-M   'P 1'
_cell_length_a   16.86131884
_cell_length_b   16.86131883
_cell_length_c   16.86131827
_cell_angle_alpha   20.31930254
_cell_angle_beta   20.31930242
_cell_angle_gamma   20.31930238
_symmetry_Int_Tables_number   1
_chemical_formula_structural   Rb2(NbS2)3
_chemical_formula_sum   'Rb4 Nb6 S12'
_cell_volume   505.84847707
_cell_formula_units_Z   2
loop_
 _symmetry_equiv_pos_site_id
 _symmetry_equiv_pos_as_xyz
  1  'x, y, z'
loop_
 _atom_site_type_symbol
 _atom_site_label
 _atom_site_symmetry_multiplicity
 _atom_site_fract_x
 _atom_site_fract_y
 _atom_site_fract_z
 _atom_site_occupancy
  Rb  Rb0  1  0.916204  0.916204  0.916204  1
  Rb  Rb1  1  0.582841  0.582841  0.582841  1
  Rb  Rb2  1  0.417159  0.417159  0.417159  1
  Rb  Rb3  1  0.083796  0.083796  0.083796  1
  Nb  Nb4  1  0.000000  0.000000  0.000000  1
  Nb  Nb5  1  0.333544  0.333544  0.333544  1
  Nb  Nb6  1  0.666456  0.666456  0.666456  1
  Nb  Nb7  1  0.832304  0.167696  0.500000  1
  Nb  Nb8  1  0.500000  0.832304  0.167696  1
  Nb  Nb9  1  0.167696  0.500000  0.832304  1
  S  S10  1  0.867818  0.528250  0.197396  1
  S  S11  1  0.197396  0.867818  0.528250  1
  S  S12  1  0.528250  0.197396  0.867818  1
  S  S13  1  0.802604  0.471750  0.132182  1
  S  S14  1  0.132182  0.802604  0.471750  1
  S  S15  1  0.471750  0.132182  0.802604  1
  S  S16  1  0.971843  0.632839  0.301701  1
  S  S17  1  0.301701  0.971843  0.632839  1
  S  S18  1  0.632839  0.301701  0.971843  1
  S  S19  1  0.698299  0.367161  0.028157  1
  S  S20  1  0.028157  0.698299  0.367161  1
  S  S21  1  0.367161  0.028157  0.698299  1
