# generated using pymatgen
data_La12N11
_symmetry_space_group_name_H-M   'P 1'
_cell_length_a   9.92873797
_cell_length_b   9.92873880
_cell_length_c   6.48792221
_cell_angle_alpha   89.89154719
_cell_angle_beta   89.89154563
_cell_angle_gamma   44.44497812
_symmetry_Int_Tables_number   1
_chemical_formula_structural   La12N11
_chemical_formula_sum   'La12 N11'
_cell_volume   447.84718812
_cell_formula_units_Z   1
loop_
 _symmetry_equiv_pos_site_id
 _symmetry_equiv_pos_as_xyz
  1  'x, y, z'
loop_
 _atom_site_type_symbol
 _atom_site_label
 _atom_site_symmetry_multiplicity
 _atom_site_fract_x
 _atom_site_fract_y
 _atom_site_fract_z
 _atom_site_occupancy
  La  La0  1  0.500000  0.000000  0.500000  1
  La  La1  1  0.174971  0.651445  0.828147  1
  La  La2  1  0.825029  0.348555  0.171853  1
  La  La3  1  0.348555  0.825029  0.171853  1
  La  La4  1  0.000000  0.500000  0.500000  1
  La  La5  1  0.651445  0.174971  0.828147  1
  La  La6  1  0.913273  0.913273  0.350695  1
  La  La7  1  0.583045  0.583045  0.672230  1
  La  La8  1  0.247733  0.247733  0.001004  1
  La  La9  1  0.416955  0.416955  0.327770  1
  La  La10  1  0.086727  0.086727  0.649305  1
  La  La11  1  0.752267  0.752267  0.998996  1
  N  N12  1  0.754184  0.245816  0.500000  1
  N  N13  1  0.414595  0.917234  0.834342  1
  N  N14  1  0.082766  0.585405  0.165658  1
  N  N15  1  0.585405  0.082766  0.165658  1
  N  N16  1  0.245816  0.754184  0.500000  1
  N  N17  1  0.917234  0.414595  0.834342  1
  N  N18  1  0.835731  0.835731  0.659377  1
  N  N19  1  0.500000  0.500000  0.000000  1
  N  N20  1  0.164269  0.164269  0.340623  1
  N  N21  1  0.663080  0.663080  0.324005  1
  N  N22  1  0.336920  0.336920  0.675995  1
