# generated using pymatgen
data_Sr2CdSb3Pt4
_symmetry_space_group_name_H-M   'P 1'
_cell_length_a   4.68874700
_cell_length_b   4.68874700
_cell_length_c   10.81645100
_cell_angle_alpha   90.00000000
_cell_angle_beta   90.00000000
_cell_angle_gamma   90.00000000
_symmetry_Int_Tables_number   1
_chemical_formula_structural   Sr2CdSb3Pt4
_chemical_formula_sum   'Sr2 Cd1 Sb3 Pt4'
_cell_volume   237.79262756
_cell_formula_units_Z   1
loop_
 _symmetry_equiv_pos_site_id
 _symmetry_equiv_pos_as_xyz
  1  'x, y, z'
loop_
 _atom_site_type_symbol
 _atom_site_label
 _atom_site_symmetry_multiplicity
 _atom_site_fract_x
 _atom_site_fract_y
 _atom_site_fract_z
 _atom_site_occupancy
  Sr  Sr0  1  0.000000  0.500000  0.755082  1
  Sr  Sr1  1  0.500000  0.000000  0.244918  1
  Cd  Cd2  1  0.500000  0.500000  0.500000  1
  Sb  Sb3  1  0.000000  0.500000  0.125989  1
  Sb  Sb4  1  0.000000  0.000000  0.500000  1
  Sb  Sb5  1  0.500000  0.000000  0.874011  1
  Pt  Pt6  1  0.500000  0.000000  0.630771  1
  Pt  Pt7  1  0.500000  0.500000  0.000000  1
  Pt  Pt8  1  0.000000  0.000000  0.000000  1
  Pt  Pt9  1  0.000000  0.500000  0.369229  1
