# generated using pymatgen
data_Y7Al7Co6
_symmetry_space_group_name_H-M   'P 1'
_cell_length_a   13.50468500
_cell_length_b   13.50468500
_cell_length_c   4.07077500
_cell_angle_alpha   90.00000000
_cell_angle_beta   90.00000000
_cell_angle_gamma   90.00000000
_symmetry_Int_Tables_number   1
_chemical_formula_structural   Y7Al7Co6
_chemical_formula_sum   'Y14 Al14 Co12'
_cell_volume   742.41376578
_cell_formula_units_Z   2
loop_
 _symmetry_equiv_pos_site_id
 _symmetry_equiv_pos_as_xyz
  1  'x, y, z'
loop_
 _atom_site_type_symbol
 _atom_site_label
 _atom_site_symmetry_multiplicity
 _atom_site_fract_x
 _atom_site_fract_y
 _atom_site_fract_z
 _atom_site_occupancy
  Y  Y0  1  0.000000  0.000000  0.000000  1
  Y  Y1  1  0.500000  0.500000  0.000000  1
  Y  Y2  1  0.868266  0.368266  0.500000  1
  Y  Y3  1  0.368266  0.131734  0.500000  1
  Y  Y4  1  0.631734  0.868266  0.500000  1
  Y  Y5  1  0.131734  0.631734  0.500000  1
  Y  Y6  1  0.045994  0.261981  0.000000  1
  Y  Y7  1  0.261981  0.954006  0.000000  1
  Y  Y8  1  0.738019  0.045994  0.000000  1
  Y  Y9  1  0.954006  0.738019  0.000000  1
  Y  Y10  1  0.454006  0.761981  0.000000  1
  Y  Y11  1  0.545994  0.238019  0.000000  1
  Y  Y12  1  0.761981  0.545994  0.000000  1
  Y  Y13  1  0.238019  0.454006  0.000000  1
  Al  Al14  1  0.500000  0.000000  0.000000  1
  Al  Al15  1  0.000000  0.500000  0.000000  1
  Al  Al16  1  0.712873  0.212873  0.500000  1
  Al  Al17  1  0.212873  0.287127  0.500000  1
  Al  Al18  1  0.787127  0.712873  0.500000  1
  Al  Al19  1  0.287127  0.787127  0.500000  1
  Al  Al20  1  0.136976  0.095251  0.500000  1
  Al  Al21  1  0.095251  0.863024  0.500000  1
  Al  Al22  1  0.904749  0.136976  0.500000  1
  Al  Al23  1  0.863024  0.904749  0.500000  1
  Al  Al24  1  0.363024  0.595251  0.500000  1
  Al  Al25  1  0.636976  0.404749  0.500000  1
  Al  Al26  1  0.595251  0.636976  0.500000  1
  Al  Al27  1  0.404749  0.363024  0.500000  1
  Co  Co28  1  0.575773  0.075773  0.500000  1
  Co  Co29  1  0.075773  0.424227  0.500000  1
  Co  Co30  1  0.924227  0.575773  0.500000  1
  Co  Co31  1  0.424227  0.924227  0.500000  1
  Co  Co32  1  0.339187  0.285259  0.000000  1
  Co  Co33  1  0.285259  0.660813  0.000000  1
  Co  Co34  1  0.714741  0.339187  0.000000  1
  Co  Co35  1  0.660813  0.714741  0.000000  1
  Co  Co36  1  0.160813  0.785259  0.000000  1
  Co  Co37  1  0.839187  0.214741  0.000000  1
  Co  Co38  1  0.785259  0.839187  0.000000  1
  Co  Co39  1  0.214741  0.160813  0.000000  1
