# generated using pymatgen
data_Tb7Nd(Si3Rh)4
_symmetry_space_group_name_H-M   'P 1'
_cell_length_a   8.19203000
_cell_length_b   8.19203079
_cell_length_c   7.99360500
_cell_angle_alpha   90.00000000
_cell_angle_beta   90.00000000
_cell_angle_gamma   119.99999681
_symmetry_Int_Tables_number   1
_chemical_formula_structural   Tb7Nd(Si3Rh)4
_chemical_formula_sum   'Tb7 Nd1 Si12 Rh4'
_cell_volume   464.57564618
_cell_formula_units_Z   1
loop_
 _symmetry_equiv_pos_site_id
 _symmetry_equiv_pos_as_xyz
  1  'x, y, z'
loop_
 _atom_site_type_symbol
 _atom_site_label
 _atom_site_symmetry_multiplicity
 _atom_site_fract_x
 _atom_site_fract_y
 _atom_site_fract_z
 _atom_site_occupancy
  Tb  Tb0  1  0.000000  0.000000  0.250000  1
  Tb  Tb1  1  0.492483  0.507517  0.750000  1
  Tb  Tb2  1  0.492483  0.984967  0.750000  1
  Tb  Tb3  1  0.015033  0.507517  0.750000  1
  Tb  Tb4  1  0.507541  0.492459  0.250000  1
  Tb  Tb5  1  0.984918  0.492459  0.250000  1
  Tb  Tb6  1  0.507541  0.015082  0.250000  1
  Nd  Nd7  1  0.000000  0.000000  0.750000  1
  Si  Si8  1  0.832604  0.167396  0.003802  1
  Si  Si9  1  0.832604  0.665209  0.003802  1
  Si  Si10  1  0.334791  0.167396  0.003802  1
  Si  Si11  1  0.832604  0.167396  0.496198  1
  Si  Si12  1  0.832604  0.665209  0.496198  1
  Si  Si13  1  0.334791  0.167396  0.496198  1
  Si  Si14  1  0.167472  0.832528  0.500118  1
  Si  Si15  1  0.665055  0.832528  0.500118  1
  Si  Si16  1  0.167472  0.334945  0.500118  1
  Si  Si17  1  0.167472  0.832528  0.999882  1
  Si  Si18  1  0.665055  0.832528  0.999882  1
  Si  Si19  1  0.167472  0.334945  0.999882  1
  Rh  Rh20  1  0.666667  0.333333  0.968484  1
  Rh  Rh21  1  0.666667  0.333333  0.531516  1
  Rh  Rh22  1  0.333333  0.666667  0.467161  1
  Rh  Rh23  1  0.333333  0.666667  0.032839  1
