# generated using pymatgen
data_NpTa8CuS16
_symmetry_space_group_name_H-M   'P 1'
_cell_length_a   6.72412500
_cell_length_b   6.72412080
_cell_length_c   13.08751300
_cell_angle_alpha   89.99994887
_cell_angle_beta   90.00004260
_cell_angle_gamma   120.00014366
_symmetry_Int_Tables_number   1
_chemical_formula_structural   NpTa8CuS16
_chemical_formula_sum   'Np1 Ta8 Cu1 S16'
_cell_volume   512.45816164
_cell_formula_units_Z   1
loop_
 _symmetry_equiv_pos_site_id
 _symmetry_equiv_pos_as_xyz
  1  'x, y, z'
loop_
 _atom_site_type_symbol
 _atom_site_label
 _atom_site_symmetry_multiplicity
 _atom_site_fract_x
 _atom_site_fract_y
 _atom_site_fract_z
 _atom_site_occupancy
  Np  Np0  1  0.000000  0.000000  0.500000  1
  Ta  Ta1  1  0.505543  0.494457  0.765050  1
  Ta  Ta2  1  0.011085  0.505543  0.234950  1
  Ta  Ta3  1  0.494457  0.988915  0.234950  1
  Ta  Ta4  1  0.505543  0.011085  0.765050  1
  Ta  Ta5  1  0.988915  0.494457  0.765050  1
  Ta  Ta6  1  0.494457  0.505543  0.234950  1
  Ta  Ta7  1  0.000000  0.000000  0.765981  1
  Ta  Ta8  1  0.000000  0.000000  0.234019  1
  Cu  Cu9  1  0.000000  0.000000  0.000000  1
  S  S10  1  0.832244  0.167757  0.353167  1
  S  S11  1  0.832242  0.664487  0.353166  1
  S  S12  1  0.335513  0.167758  0.353166  1
  S  S13  1  0.660983  0.830490  0.882676  1
  S  S14  1  0.167758  0.335513  0.646834  1
  S  S15  1  0.169509  0.830491  0.882676  1
  S  S16  1  0.169510  0.339017  0.882676  1
  S  S17  1  0.830491  0.169509  0.117324  1
  S  S18  1  0.339017  0.169510  0.117324  1
  S  S19  1  0.664487  0.832242  0.646834  1
  S  S20  1  0.333333  0.666666  0.114607  1
  S  S21  1  0.666667  0.333334  0.641226  1
  S  S22  1  0.666667  0.333334  0.885393  1
  S  S23  1  0.333333  0.666666  0.358774  1
  S  S24  1  0.830490  0.660983  0.117324  1
  S  S25  1  0.167756  0.832243  0.646833  1
