# generated using pymatgen
data_Ba2ErB2ClO6
_symmetry_space_group_name_H-M   'P 1'
_cell_length_a   6.44181742
_cell_length_b   5.33262200
_cell_length_c   11.43792396
_cell_angle_alpha   90.00000000
_cell_angle_beta   96.02879498
_cell_angle_gamma   90.00000000
_symmetry_Int_Tables_number   1
_chemical_formula_structural   Ba2ErB2ClO6
_chemical_formula_sum   'Ba4 Er2 B4 Cl2 O12'
_cell_volume   390.73990763
_cell_formula_units_Z   2
loop_
 _symmetry_equiv_pos_site_id
 _symmetry_equiv_pos_as_xyz
  1  'x, y, z'
loop_
 _atom_site_type_symbol
 _atom_site_label
 _atom_site_symmetry_multiplicity
 _atom_site_fract_x
 _atom_site_fract_y
 _atom_site_fract_z
 _atom_site_occupancy
  Ba  Ba0  1  0.341209  0.250001  0.076000  1
  Ba  Ba1  1  0.907016  0.750000  0.294477  1
  Ba  Ba2  1  0.092985  0.250001  0.705523  1
  Ba  Ba3  1  0.658790  0.750000  0.924000  1
  Er  Er4  1  0.347301  0.250001  0.413587  1
  Er  Er5  1  0.652699  0.750000  0.586413  1
  B  B6  1  0.377408  0.750000  0.227230  1
  B  B7  1  0.790494  0.250001  0.428309  1
  B  B8  1  0.209505  0.750000  0.571691  1
  B  B9  1  0.622592  0.250001  0.772770  1
  Cl  Cl10  1  0.850818  0.250001  0.085227  1
  Cl  Cl11  1  0.149181  0.750000  0.914774  1
  O  O12  1  0.523807  0.750000  0.146851  1
  O  O13  1  0.293478  0.526809  0.264938  1
  O  O14  1  0.293478  0.973191  0.264938  1
  O  O15  1  0.993824  0.250001  0.405468  1
  O  O16  1  0.675057  0.030293  0.436504  1
  O  O17  1  0.675057  0.469708  0.436504  1
  O  O18  1  0.324943  0.530292  0.563496  1
  O  O19  1  0.324943  0.969707  0.563496  1
  O  O20  1  0.006175  0.750000  0.594532  1
  O  O21  1  0.706521  0.026810  0.735062  1
  O  O22  1  0.706521  0.473190  0.735062  1
  O  O23  1  0.476193  0.250001  0.853149  1
