# generated using pymatgen
data_Tl2CdFeF7
_symmetry_space_group_name_H-M   'P 1'
_cell_length_a   8.05490249
_cell_length_b   8.05490186
_cell_length_c   8.05490200
_cell_angle_alpha   121.05158758
_cell_angle_beta   117.10895113
_cell_angle_gamma   91.63351516
_symmetry_Int_Tables_number   1
_chemical_formula_structural   Tl2CdFeF7
_chemical_formula_sum   'Tl4 Cd2 Fe2 F14'
_cell_volume   373.98089104
_cell_formula_units_Z   2
loop_
 _symmetry_equiv_pos_site_id
 _symmetry_equiv_pos_as_xyz
  1  'x, y, z'
loop_
 _atom_site_type_symbol
 _atom_site_label
 _atom_site_symmetry_multiplicity
 _atom_site_fract_x
 _atom_site_fract_y
 _atom_site_fract_z
 _atom_site_occupancy
  Tl  Tl0  1  0.500000  0.500000  0.000000  1
  Tl  Tl1  1  0.000000  0.000000  0.000000  1
  Tl  Tl2  1  0.000000  0.500000  0.000000  1
  Tl  Tl3  1  0.000000  0.000000  0.500000  1
  Cd  Cd4  1  0.500000  0.500000  0.500000  1
  Cd  Cd5  1  0.500000  0.000000  0.000000  1
  Fe  Fe6  1  0.000000  0.500000  0.500000  1
  Fe  Fe7  1  0.500000  0.000000  0.500000  1
  F  F8  1  0.876724  0.581145  0.295579  1
  F  F9  1  0.214434  0.918855  0.295579  1
  F  F10  1  0.177544  0.789126  0.746206  1
  F  F11  1  0.457080  0.710874  0.388418  1
  F  F12  1  0.457080  0.068662  0.746206  1
  F  F13  1  0.177544  0.431338  0.388418  1
  F  F14  1  0.822456  0.568662  0.611582  1
  F  F15  1  0.542920  0.931338  0.253794  1
  F  F16  1  0.542920  0.289126  0.611582  1
  F  F17  1  0.822456  0.210874  0.253794  1
  F  F18  1  0.379468  0.250000  0.129468  1
  F  F19  1  0.123276  0.418855  0.704421  1
  F  F20  1  0.785566  0.081145  0.704421  1
  F  F21  1  0.620532  0.750000  0.870532  1
