# generated using pymatgen
data_Tb4Pr3Dy(CdIr)2
_symmetry_space_group_name_H-M   'P 1'
_cell_length_a   9.79072393
_cell_length_b   9.79072383
_cell_length_c   9.78852200
_cell_angle_alpha   60.00743900
_cell_angle_beta   60.00743934
_cell_angle_gamma   59.98511439
_symmetry_Int_Tables_number   1
_chemical_formula_structural   Tb4Pr3Dy(CdIr)2
_chemical_formula_sum   'Tb8 Pr6 Dy2 Cd4 Ir4'
_cell_volume   663.48584327
_cell_formula_units_Z   2
loop_
 _symmetry_equiv_pos_site_id
 _symmetry_equiv_pos_as_xyz
  1  'x, y, z'
loop_
 _atom_site_type_symbol
 _atom_site_label
 _atom_site_symmetry_multiplicity
 _atom_site_fract_x
 _atom_site_fract_y
 _atom_site_fract_z
 _atom_site_occupancy
  Tb  Tb0  1  0.347342  0.347342  0.347788  1
  Tb  Tb1  1  0.347342  0.347342  0.957527  1
  Tb  Tb2  1  0.347788  0.957527  0.347342  1
  Tb  Tb3  1  0.957527  0.347788  0.347342  1
  Tb  Tb4  1  0.812544  0.187456  0.187456  1
  Tb  Tb5  1  0.187456  0.812544  0.812544  1
  Tb  Tb6  1  0.187456  0.812544  0.187456  1
  Tb  Tb7  1  0.812544  0.187456  0.812544  1
  Pr  Pr8  1  0.940780  0.559220  0.559220  1
  Pr  Pr9  1  0.559220  0.940780  0.940780  1
  Pr  Pr10  1  0.559220  0.940780  0.559220  1
  Pr  Pr11  1  0.940780  0.559220  0.940780  1
  Pr  Pr12  1  0.558780  0.558780  0.941220  1
  Pr  Pr13  1  0.941220  0.941220  0.558780  1
  Dy  Dy14  1  0.187762  0.187762  0.812238  1
  Dy  Dy15  1  0.812238  0.812238  0.187762  1
  Cd  Cd16  1  0.579358  0.579358  0.579125  1
  Cd  Cd17  1  0.579358  0.579358  0.262157  1
  Cd  Cd18  1  0.579125  0.262157  0.579358  1
  Cd  Cd19  1  0.262157  0.579125  0.579358  1
  Ir  Ir20  1  0.141447  0.141447  0.140819  1
  Ir  Ir21  1  0.141447  0.141447  0.576287  1
  Ir  Ir22  1  0.140819  0.576287  0.141447  1
  Ir  Ir23  1  0.576287  0.140819  0.141447  1
