# generated using pymatgen
data_LaDySn5Ir3
_symmetry_space_group_name_H-M   'P 1'
_cell_length_a   13.61221430
_cell_length_b   13.61221398
_cell_length_c   7.31628800
_cell_angle_alpha   90.00000000
_cell_angle_beta   90.00000000
_cell_angle_gamma   161.05542869
_symmetry_Int_Tables_number   1
_chemical_formula_structural   LaDySn5Ir3
_chemical_formula_sum   'La2 Dy2 Sn10 Ir6'
_cell_volume   440.11700936
_cell_formula_units_Z   2
loop_
 _symmetry_equiv_pos_site_id
 _symmetry_equiv_pos_as_xyz
  1  'x, y, z'
loop_
 _atom_site_type_symbol
 _atom_site_label
 _atom_site_symmetry_multiplicity
 _atom_site_fract_x
 _atom_site_fract_y
 _atom_site_fract_z
 _atom_site_occupancy
  La  La0  1  0.172005  0.827995  0.757118  1
  La  La1  1  0.827995  0.172005  0.257118  1
  Dy  Dy2  1  0.476309  0.523691  0.736057  1
  Dy  Dy3  1  0.523691  0.476309  0.236057  1
  Sn  Sn4  1  0.880772  0.119228  0.731543  1
  Sn  Sn5  1  0.119228  0.880772  0.231543  1
  Sn  Sn6  1  0.704840  0.295160  0.052809  1
  Sn  Sn7  1  0.295160  0.704840  0.552809  1
  Sn  Sn8  1  0.594970  0.405030  0.611470  1
  Sn  Sn9  1  0.405030  0.594970  0.111470  1
  Sn  Sn10  1  0.953015  0.046985  0.396210  1
  Sn  Sn11  1  0.046985  0.953015  0.896210  1
  Sn  Sn12  1  0.290545  0.709455  0.976398  1
  Sn  Sn13  1  0.709455  0.290545  0.476398  1
  Ir  Ir14  1  0.049216  0.950784  0.516718  1
  Ir  Ir15  1  0.950784  0.049216  0.016718  1
  Ir  Ir16  1  0.777455  0.222545  0.764855  1
  Ir  Ir17  1  0.222545  0.777455  0.264855  1
  Ir  Ir18  1  0.395596  0.604404  0.484821  1
  Ir  Ir19  1  0.604404  0.395596  0.984821  1
