# generated using pymatgen
data_Ca2Er(B3Rh4)2
_symmetry_space_group_name_H-M   'P 1'
_cell_length_a   9.91040866
_cell_length_b   9.06907908
_cell_length_c   5.58837113
_cell_angle_alpha   81.34020713
_cell_angle_beta   64.77943878
_cell_angle_gamma   33.88036525
_symmetry_Int_Tables_number   1
_chemical_formula_structural   Ca2Er(B3Rh4)2
_chemical_formula_sum   'Ca2 Er1 B6 Rh8'
_cell_volume   231.83835246
_cell_formula_units_Z   1
loop_
 _symmetry_equiv_pos_site_id
 _symmetry_equiv_pos_as_xyz
  1  'x, y, z'
loop_
 _atom_site_type_symbol
 _atom_site_label
 _atom_site_symmetry_multiplicity
 _atom_site_fract_x
 _atom_site_fract_y
 _atom_site_fract_z
 _atom_site_occupancy
  Ca  Ca0  1  0.316432  0.316432  0.683568  1
  Ca  Ca1  1  0.683568  0.683568  0.316432  1
  Er  Er2  1  0.500000  0.500000  0.500000  1
  B  B3  1  0.669531  0.986616  0.013384  1
  B  B4  1  0.986616  0.669531  0.330469  1
  B  B5  1  0.330469  0.013384  0.986616  1
  B  B6  1  0.013384  0.330469  0.669531  1
  B  B7  1  0.167055  0.832945  0.167055  1
  B  B8  1  0.832945  0.167055  0.832945  1
  Rh  Rh9  1  0.584866  0.584866  0.915134  1
  Rh  Rh10  1  0.914101  0.914101  0.085899  1
  Rh  Rh11  1  0.415134  0.415134  0.084866  1
  Rh  Rh12  1  0.084866  0.084866  0.415134  1
  Rh  Rh13  1  0.915134  0.915134  0.584866  1
  Rh  Rh14  1  0.250000  0.250000  0.250000  1
  Rh  Rh15  1  0.085899  0.085899  0.914101  1
  Rh  Rh16  1  0.750000  0.750000  0.750000  1
