# generated using pymatgen
data_TbY3(Ti3Si4)2
_symmetry_space_group_name_H-M   'P 1'
_cell_length_a   7.06209102
_cell_length_b   7.06240002
_cell_length_c   12.98240700
_cell_angle_alpha   90.00000000
_cell_angle_beta   90.00000000
_cell_angle_gamma   89.99135157
_symmetry_Int_Tables_number   1
_chemical_formula_structural   TbY3(Ti3Si4)2
_chemical_formula_sum   'Tb2 Y6 Ti12 Si16'
_cell_volume   647.50158918
_cell_formula_units_Z   2
loop_
 _symmetry_equiv_pos_site_id
 _symmetry_equiv_pos_as_xyz
  1  'x, y, z'
loop_
 _atom_site_type_symbol
 _atom_site_label
 _atom_site_symmetry_multiplicity
 _atom_site_fract_x
 _atom_site_fract_y
 _atom_site_fract_z
 _atom_site_occupancy
  Tb  Tb0  1  0.002487  0.339866  0.533442  1
  Tb  Tb1  1  0.997513  0.660134  0.033442  1
  Y  Y2  1  0.339931  0.002457  0.466568  1
  Y  Y3  1  0.497564  0.839942  0.716562  1
  Y  Y4  1  0.502436  0.160058  0.216562  1
  Y  Y5  1  0.839901  0.497559  0.283433  1
  Y  Y6  1  0.160099  0.502441  0.783433  1
  Y  Y7  1  0.660069  0.997543  0.966568  1
  Ti  Ti8  1  0.327319  0.327318  0.000003  1
  Ti  Ti9  1  0.172693  0.827315  0.249984  1
  Ti  Ti10  1  0.827307  0.172685  0.749984  1
  Ti  Ti11  1  0.672681  0.672682  0.500003  1
  Ti  Ti12  1  0.152883  0.008759  0.876541  1
  Ti  Ti13  1  0.491235  0.652847  0.126535  1
  Ti  Ti14  1  0.508765  0.347153  0.626535  1
  Ti  Ti15  1  0.652825  0.491229  0.873488  1
  Ti  Ti16  1  0.347175  0.508771  0.373488  1
  Ti  Ti17  1  0.847117  0.991241  0.376541  1
  Ti  Ti18  1  0.008792  0.152901  0.123468  1
  Ti  Ti19  1  0.991208  0.847099  0.623468  1
  Si  Si20  1  0.202552  0.129330  0.685054  1
  Si  Si21  1  0.370703  0.702510  0.935018  1
  Si  Si22  1  0.629297  0.297490  0.435018  1
  Si  Si23  1  0.702447  0.370659  0.064990  1
  Si  Si24  1  0.297553  0.629341  0.564990  1
  Si  Si25  1  0.797448  0.870670  0.185054  1
  Si  Si26  1  0.129307  0.202469  0.314973  1
  Si  Si27  1  0.870693  0.797531  0.814973  1
  Si  Si28  1  0.290570  0.953431  0.064868  1
  Si  Si29  1  0.546604  0.790570  0.314876  1
  Si  Si30  1  0.453396  0.209430  0.814876  1
  Si  Si31  1  0.790524  0.546602  0.685108  1
  Si  Si32  1  0.209476  0.453398  0.185108  1
  Si  Si33  1  0.709430  0.046569  0.564868  1
  Si  Si34  1  0.953436  0.290463  0.935089  1
  Si  Si35  1  0.046564  0.709537  0.435089  1
