# generated using pymatgen
data_LiZr5Mn2(Co4P3)4
_symmetry_space_group_name_H-M   'P 1'
_cell_length_a   11.87380297
_cell_length_b   11.87380429
_cell_length_c   3.61258100
_cell_angle_alpha   90.00000000
_cell_angle_beta   90.00000000
_cell_angle_gamma   120.10704399
_symmetry_Int_Tables_number   1
_chemical_formula_structural   LiZr5Mn2(Co4P3)4
_chemical_formula_sum   'Li1 Zr5 Mn2 Co16 P12'
_cell_volume   440.61419905
_cell_formula_units_Z   1
loop_
 _symmetry_equiv_pos_site_id
 _symmetry_equiv_pos_as_xyz
  1  'x, y, z'
loop_
 _atom_site_type_symbol
 _atom_site_label
 _atom_site_symmetry_multiplicity
 _atom_site_fract_x
 _atom_site_fract_y
 _atom_site_fract_z
 _atom_site_occupancy
  Li  Li0  1  0.442194  0.442194  0.000000  1
  Zr  Zr1  1  0.666075  0.332339  0.000000  1
  Zr  Zr2  1  0.332339  0.666075  0.000000  1
  Zr  Zr3  1  0.814265  0.814265  0.500000  1
  Zr  Zr4  1  0.183960  0.999882  0.500000  1
  Zr  Zr5  1  0.999882  0.183960  0.500000  1
  Mn  Mn6  1  0.553379  0.998751  0.000000  1
  Mn  Mn7  1  0.998751  0.553379  0.000000  1
  Co  Co8  1  0.197800  0.377445  0.000000  1
  Co  Co9  1  0.178664  0.802705  0.000000  1
  Co  Co10  1  0.822476  0.624966  0.000000  1
  Co  Co11  1  0.802705  0.178664  0.000000  1
  Co  Co12  1  0.377445  0.197800  0.000000  1
  Co  Co13  1  0.126293  0.482154  0.500000  1
  Co  Co14  1  0.355687  0.872233  0.500000  1
  Co  Co15  1  0.518156  0.646665  0.500000  1
  Co  Co16  1  0.646665  0.518156  0.500000  1
  Co  Co17  1  0.872233  0.355687  0.500000  1
  Co  Co18  1  0.482154  0.126293  0.500000  1
  Co  Co19  1  0.001046  0.001046  0.000000  1
  Co  Co20  1  0.716997  0.000683  0.500000  1
  Co  Co21  1  0.000683  0.716997  0.500000  1
  Co  Co22  1  0.624966  0.822476  0.000000  1
  Co  Co23  1  0.284593  0.284593  0.500000  1
  P  P24  1  0.637356  0.637356  0.000000  1
  P  P25  1  0.358584  0.000379  0.000000  1
  P  P26  1  0.000379  0.358584  0.000000  1
  P  P27  1  0.484389  0.316028  0.500000  1
  P  P28  1  0.684352  0.167173  0.500000  1
  P  P29  1  0.832794  0.517694  0.500000  1
  P  P30  1  0.517694  0.832794  0.500000  1
  P  P31  1  0.167173  0.684352  0.500000  1
  P  P32  1  0.823243  0.999668  0.000000  1
  P  P33  1  0.999668  0.823243  0.000000  1
  P  P34  1  0.316028  0.484389  0.500000  1
  P  P35  1  0.178930  0.178930  0.000000  1
