# generated using pymatgen
data_Er3Mo(P3Rh4)2
_symmetry_space_group_name_H-M   'P 1'
_cell_length_a   3.92633600
_cell_length_b   11.12859300
_cell_length_c   12.77775900
_cell_angle_alpha   90.00000000
_cell_angle_beta   90.00000000
_cell_angle_gamma   90.00000000
_symmetry_Int_Tables_number   1
_chemical_formula_structural   Er3Mo(P3Rh4)2
_chemical_formula_sum   'Er6 Mo2 P12 Rh16'
_cell_volume   558.31900867
_cell_formula_units_Z   2
loop_
 _symmetry_equiv_pos_site_id
 _symmetry_equiv_pos_as_xyz
  1  'x, y, z'
loop_
 _atom_site_type_symbol
 _atom_site_label
 _atom_site_symmetry_multiplicity
 _atom_site_fract_x
 _atom_site_fract_y
 _atom_site_fract_z
 _atom_site_occupancy
  Er  Er0  1  0.750000  0.250000  0.477728  1
  Er  Er1  1  0.250000  0.750000  0.522272  1
  Er  Er2  1  0.250000  0.933422  0.796824  1
  Er  Er3  1  0.250000  0.566578  0.796824  1
  Er  Er4  1  0.750000  0.066578  0.203176  1
  Er  Er5  1  0.750000  0.433422  0.203176  1
  Mo  Mo6  1  0.250000  0.250000  0.842536  1
  Mo  Mo7  1  0.750000  0.750000  0.157464  1
  P  P8  1  0.250000  0.250000  0.125446  1
  P  P9  1  0.750000  0.750000  0.874554  1
  P  P10  1  0.250000  0.250000  0.653402  1
  P  P11  1  0.750000  0.750000  0.346598  1
  P  P12  1  0.250000  0.434784  0.381916  1
  P  P13  1  0.250000  0.065216  0.381916  1
  P  P14  1  0.750000  0.565216  0.618084  1
  P  P15  1  0.750000  0.934784  0.618084  1
  P  P16  1  0.250000  0.902768  0.112361  1
  P  P17  1  0.250000  0.597232  0.112361  1
  P  P18  1  0.750000  0.097232  0.887639  1
  P  P19  1  0.750000  0.402768  0.887639  1
  Rh  Rh20  1  0.250000  0.250000  0.302017  1
  Rh  Rh21  1  0.750000  0.750000  0.697983  1
  Rh  Rh22  1  0.750000  0.250000  0.012372  1
  Rh  Rh23  1  0.250000  0.750000  0.987628  1
  Rh  Rh24  1  0.250000  0.418342  0.015884  1
  Rh  Rh25  1  0.250000  0.081658  0.015884  1
  Rh  Rh26  1  0.750000  0.581658  0.984116  1
  Rh  Rh27  1  0.750000  0.918342  0.984116  1
  Rh  Rh28  1  0.250000  0.454289  0.567840  1
  Rh  Rh29  1  0.250000  0.045711  0.567840  1
  Rh  Rh30  1  0.750000  0.545711  0.432160  1
  Rh  Rh31  1  0.750000  0.954289  0.432160  1
  Rh  Rh32  1  0.250000  0.875504  0.291621  1
  Rh  Rh33  1  0.250000  0.624496  0.291621  1
  Rh  Rh34  1  0.750000  0.124496  0.708379  1
  Rh  Rh35  1  0.750000  0.375504  0.708379  1
