# generated using pymatgen
data_NdErP7Ru12
_symmetry_space_group_name_H-M   'P 1'
_cell_length_a   9.44560400
_cell_length_b   9.44560348
_cell_length_c   3.96707400
_cell_angle_alpha   90.00000000
_cell_angle_beta   90.00000000
_cell_angle_gamma   119.99999480
_symmetry_Int_Tables_number   1
_chemical_formula_structural   NdErP7Ru12
_chemical_formula_sum   'Nd1 Er1 P7 Ru12'
_cell_volume   306.52111785
_cell_formula_units_Z   1
loop_
 _symmetry_equiv_pos_site_id
 _symmetry_equiv_pos_as_xyz
  1  'x, y, z'
loop_
 _atom_site_type_symbol
 _atom_site_label
 _atom_site_symmetry_multiplicity
 _atom_site_fract_x
 _atom_site_fract_y
 _atom_site_fract_z
 _atom_site_occupancy
  Nd  Nd0  1  0.333333  0.666667  0.000000  1
  Er  Er1  1  0.666667  0.333333  0.500000  1
  P  P2  1  0.604105  0.718582  0.500000  1
  P  P3  1  0.000000  0.000000  0.000000  1
  P  P4  1  0.281418  0.885523  0.500000  1
  P  P5  1  0.114477  0.395895  0.500000  1
  P  P6  1  0.885942  0.572207  0.000000  1
  P  P7  1  0.427793  0.313735  0.000000  1
  P  P8  1  0.686265  0.114058  0.000000  1
  Ru  Ru9  1  0.559325  0.954590  0.500000  1
  Ru  Ru10  1  0.395267  0.440675  0.500000  1
  Ru  Ru11  1  0.914552  0.120029  0.500000  1
  Ru  Ru12  1  0.205477  0.085448  0.500000  1
  Ru  Ru13  1  0.879971  0.794523  0.500000  1
  Ru  Ru14  1  0.728742  0.892740  0.000000  1
  Ru  Ru15  1  0.107260  0.836001  0.000000  1
  Ru  Ru16  1  0.163999  0.271258  0.000000  1
  Ru  Ru17  1  0.422789  0.068787  0.000000  1
  Ru  Ru18  1  0.931213  0.354004  0.000000  1
  Ru  Ru19  1  0.645996  0.577211  0.000000  1
  Ru  Ru20  1  0.045410  0.604733  0.500000  1
