# generated using pymatgen
data_NdEr3Mg2(Ni7B2)2
_symmetry_space_group_name_H-M   'P 1'
_cell_length_a   4.99338900
_cell_length_b   4.99338949
_cell_length_c   14.26148900
_cell_angle_alpha   90.00000000
_cell_angle_beta   90.00000000
_cell_angle_gamma   120.00000339
_symmetry_Int_Tables_number   1
_chemical_formula_structural   NdEr3Mg2(Ni7B2)2
_chemical_formula_sum   'Nd1 Er3 Mg2 Ni14 B4'
_cell_volume   307.95434146
_cell_formula_units_Z   1
loop_
 _symmetry_equiv_pos_site_id
 _symmetry_equiv_pos_as_xyz
  1  'x, y, z'
loop_
 _atom_site_type_symbol
 _atom_site_label
 _atom_site_symmetry_multiplicity
 _atom_site_fract_x
 _atom_site_fract_y
 _atom_site_fract_z
 _atom_site_occupancy
  Nd  Nd0  1  0.666667  0.333333  0.531172  1
  Er  Er1  1  0.333333  0.666667  0.029111  1
  Er  Er2  1  0.666667  0.333333  0.758568  1
  Er  Er3  1  0.333333  0.666667  0.252814  1
  Mg  Mg4  1  0.333333  0.666667  0.462653  1
  Mg  Mg5  1  0.666667  0.333333  0.968871  1
  Ni  Ni6  1  0.835252  0.164748  0.349727  1
  Ni  Ni7  1  0.835252  0.670504  0.349727  1
  Ni  Ni8  1  0.000000  0.000000  0.999173  1
  Ni  Ni9  1  0.000000  0.000000  0.498075  1
  Ni  Ni10  1  0.833745  0.667490  0.146013  1
  Ni  Ni11  1  0.166020  0.833980  0.650970  1
  Ni  Ni12  1  0.667961  0.833980  0.650970  1
  Ni  Ni13  1  0.332510  0.166255  0.146013  1
  Ni  Ni14  1  0.833745  0.166255  0.146013  1
  Ni  Ni15  1  0.165598  0.331197  0.854450  1
  Ni  Ni16  1  0.165598  0.834402  0.854450  1
  Ni  Ni17  1  0.166020  0.332039  0.650970  1
  Ni  Ni18  1  0.668803  0.834402  0.854450  1
  Ni  Ni19  1  0.329496  0.164748  0.349727  1
  B  B20  1  0.666667  0.333333  0.248473  1
  B  B21  1  0.333333  0.666667  0.751886  1
  B  B22  1  0.000000  0.000000  0.750329  1
  B  B23  1  0.000000  0.000000  0.245393  1
