# generated using pymatgen
data_Ho19Sc(Cd3Fe)2
_symmetry_space_group_name_H-M   'P 1'
_cell_length_a   9.54711500
_cell_length_b   9.54711464
_cell_length_c   9.82107100
_cell_angle_alpha   90.00000000
_cell_angle_beta   90.00000000
_cell_angle_gamma   119.99999777
_symmetry_Int_Tables_number   1
_chemical_formula_structural   Ho19Sc(Cd3Fe)2
_chemical_formula_sum   'Ho19 Sc1 Cd6 Fe2'
_cell_volume   775.23573531
_cell_formula_units_Z   1
loop_
 _symmetry_equiv_pos_site_id
 _symmetry_equiv_pos_as_xyz
  1  'x, y, z'
loop_
 _atom_site_type_symbol
 _atom_site_label
 _atom_site_symmetry_multiplicity
 _atom_site_fract_x
 _atom_site_fract_y
 _atom_site_fract_z
 _atom_site_occupancy
  Ho  Ho0  1  0.000000  0.000000  0.000000  1
  Ho  Ho1  1  0.541285  0.458715  0.250433  1
  Ho  Ho2  1  0.541285  0.082570  0.250433  1
  Ho  Ho3  1  0.917430  0.458715  0.250433  1
  Ho  Ho4  1  0.458715  0.541285  0.749567  1
  Ho  Ho5  1  0.458715  0.917430  0.749567  1
  Ho  Ho6  1  0.082570  0.541285  0.749567  1
  Ho  Ho7  1  0.210584  0.789416  0.435745  1
  Ho  Ho8  1  0.210584  0.421171  0.435745  1
  Ho  Ho9  1  0.578829  0.789416  0.435745  1
  Ho  Ho10  1  0.789416  0.210584  0.564255  1
  Ho  Ho11  1  0.789416  0.578829  0.564255  1
  Ho  Ho12  1  0.421171  0.210584  0.564255  1
  Ho  Ho13  1  0.787964  0.212036  0.936820  1
  Ho  Ho14  1  0.787964  0.575926  0.936820  1
  Ho  Ho15  1  0.424074  0.212036  0.936820  1
  Ho  Ho16  1  0.212036  0.787964  0.063180  1
  Ho  Ho17  1  0.212036  0.424074  0.063180  1
  Ho  Ho18  1  0.575926  0.787964  0.063180  1
  Sc  Sc19  1  0.000000  0.000000  0.500000  1
  Cd  Cd20  1  0.887651  0.112349  0.255685  1
  Cd  Cd21  1  0.887651  0.775300  0.255685  1
  Cd  Cd22  1  0.224700  0.112349  0.255685  1
  Cd  Cd23  1  0.112349  0.887651  0.744315  1
  Cd  Cd24  1  0.112349  0.224700  0.744315  1
  Cd  Cd25  1  0.775300  0.887651  0.744315  1
  Fe  Fe26  1  0.333333  0.666667  0.249341  1
  Fe  Fe27  1  0.666667  0.333333  0.750659  1
