# generated using pymatgen
data_Er2Tm10GaCo4Sn
_symmetry_space_group_name_H-M   'P 1'
_cell_length_a   8.21594048
_cell_length_b   8.21155840
_cell_length_c   8.21229722
_cell_angle_alpha   112.07624456
_cell_angle_beta   109.44104445
_cell_angle_gamma   106.91244718
_symmetry_Int_Tables_number   1
_chemical_formula_structural   Er2Tm10GaCo4Sn
_chemical_formula_sum   'Er2 Tm10 Ga1 Co4 Sn1'
_cell_volume   425.77203249
_cell_formula_units_Z   1
loop_
 _symmetry_equiv_pos_site_id
 _symmetry_equiv_pos_as_xyz
  1  'x, y, z'
loop_
 _atom_site_type_symbol
 _atom_site_label
 _atom_site_symmetry_multiplicity
 _atom_site_fract_x
 _atom_site_fract_y
 _atom_site_fract_z
 _atom_site_occupancy
  Er  Er0  1  0.565172  0.266875  0.297975  1
  Er  Er1  1  0.180815  0.219046  0.400297  1
  Tm  Tm2  1  0.180655  0.780585  0.961492  1
  Tm  Tm3  1  0.675400  0.488001  0.813198  1
  Tm  Tm4  1  0.674883  0.861935  0.187118  1
  Tm  Tm5  1  0.968615  0.266589  0.702333  1
  Tm  Tm6  1  0.031287  0.733060  0.297877  1
  Tm  Tm7  1  0.324651  0.137407  0.812521  1
  Tm  Tm8  1  0.324655  0.512350  0.186964  1
  Tm  Tm9  1  0.819034  0.219032  0.037799  1
  Tm  Tm10  1  0.819249  0.781283  0.600252  1
  Tm  Tm11  1  0.435640  0.733610  0.702337  1
  Ga  Ga12  1  0.000560  0.500733  0.500494  1
  Co  Co13  1  0.884416  0.884282  0.999586  1
  Co  Co14  1  0.342240  0.500176  0.842560  1
  Co  Co15  1  0.657972  0.500182  0.157802  1
  Co  Co16  1  0.114722  0.114998  0.999165  1
  Sn  Sn17  1  0.500037  0.999856  0.500229  1
