# generated using pymatgen
data_Fe3P3PbO12
_symmetry_space_group_name_H-M   'P 1'
_cell_length_a   9.25126032
_cell_length_b   9.25126071
_cell_length_c   9.25126112
_cell_angle_alpha   137.86880457
_cell_angle_beta   110.11539065
_cell_angle_gamma   85.09392053
_symmetry_Int_Tables_number   1
_chemical_formula_structural   Fe3P3PbO12
_chemical_formula_sum   'Fe6 P6 Pb2 O24'
_cell_volume   480.34748900
_cell_formula_units_Z   2
loop_
 _symmetry_equiv_pos_site_id
 _symmetry_equiv_pos_as_xyz
  1  'x, y, z'
loop_
 _atom_site_type_symbol
 _atom_site_label
 _atom_site_symmetry_multiplicity
 _atom_site_fract_x
 _atom_site_fract_y
 _atom_site_fract_z
 _atom_site_occupancy
  Fe  Fe0  1  0.617836  0.617836  0.500000  1
  Fe  Fe1  1  0.382164  0.382164  0.500000  1
  Fe  Fe2  1  0.117836  0.617836  0.000000  1
  Fe  Fe3  1  0.882164  0.382164  0.000000  1
  Fe  Fe4  1  0.000000  0.000000  0.000000  1
  Fe  Fe5  1  0.500000  0.500000  0.000000  1
  P  P6  1  0.323303  0.823303  0.000000  1
  P  P7  1  0.750000  0.654154  0.904154  1
  P  P8  1  0.176697  0.176697  0.500000  1
  P  P9  1  0.676697  0.176697  0.000000  1
  P  P10  1  0.250000  0.345846  0.095846  1
  P  P11  1  0.823303  0.823303  0.500000  1
  Pb  Pb12  1  0.750000  0.146994  0.396994  1
  Pb  Pb13  1  0.250000  0.853006  0.603006  1
  O  O14  1  0.575404  0.931550  0.778574  1
  O  O15  1  0.075404  0.296830  0.643854  1
  O  O16  1  0.843014  0.880988  0.037975  1
  O  O17  1  0.347024  0.703170  0.778574  1
  O  O18  1  0.139203  0.203719  0.341734  1
  O  O19  1  0.343014  0.305039  0.962025  1
  O  O20  1  0.638015  0.702532  0.341734  1
  O  O21  1  0.860797  0.796281  0.658266  1
  O  O22  1  0.367120  0.488113  0.355233  1
  O  O23  1  0.152976  0.931550  0.356146  1
  O  O24  1  0.639203  0.297468  0.935483  1
  O  O25  1  0.632880  0.511887  0.644767  1
  O  O26  1  0.861985  0.203719  0.064517  1
  O  O27  1  0.847024  0.068450  0.643854  1
  O  O28  1  0.360797  0.702532  0.064517  1
  O  O29  1  0.361985  0.297468  0.658266  1
  O  O30  1  0.656986  0.694961  0.037975  1
  O  O31  1  0.924596  0.703170  0.356146  1
  O  O32  1  0.156986  0.119011  0.962025  1
  O  O33  1  0.867120  0.511887  0.879007  1
  O  O34  1  0.132880  0.488113  0.120993  1
  O  O35  1  0.138015  0.796281  0.935483  1
  O  O36  1  0.652976  0.296830  0.221426  1
  O  O37  1  0.424596  0.068450  0.221426  1
