# generated using pymatgen
data_Nb8Fe4Co3Si14Pt
_symmetry_space_group_name_H-M   'P 1'
_cell_length_a   9.27205165
_cell_length_b   9.28446527
_cell_length_c   9.26911703
_cell_angle_alpha   94.33248915
_cell_angle_beta   94.26130733
_cell_angle_gamma   148.24411560
_symmetry_Int_Tables_number   1
_chemical_formula_structural   Nb8Fe4Co3Si14Pt
_chemical_formula_sum   'Nb8 Fe4 Co3 Si14 Pt1'
_cell_volume   403.90255591
_cell_formula_units_Z   1
loop_
 _symmetry_equiv_pos_site_id
 _symmetry_equiv_pos_as_xyz
  1  'x, y, z'
loop_
 _atom_site_type_symbol
 _atom_site_label
 _atom_site_symmetry_multiplicity
 _atom_site_fract_x
 _atom_site_fract_y
 _atom_site_fract_z
 _atom_site_occupancy
  Nb  Nb0  1  0.134542  0.134542  0.269082  1
  Nb  Nb1  1  0.865388  0.865388  0.730776  1
  Nb  Nb2  1  0.865444  0.133338  0.002242  1
  Nb  Nb3  1  0.136798  0.868904  0.002242  1
  Nb  Nb4  1  0.499799  0.689276  0.192088  1
  Nb  Nb5  1  0.497756  0.309144  0.809170  1
  Nb  Nb6  1  0.311414  0.500026  0.809170  1
  Nb  Nb7  1  0.692288  0.502811  0.192088  1
  Fe  Fe8  1  0.595321  0.401750  0.496787  1
  Fe  Fe9  1  0.901467  0.095039  0.496787  1
  Fe  Fe10  1  0.902030  0.402030  0.804060  1
  Fe  Fe11  1  0.597039  0.097039  0.194077  1
  Co  Co12  1  0.106811  0.606811  0.213620  1
  Co  Co13  1  0.105181  0.896778  0.501306  1
  Co  Co14  1  0.396125  0.604528  0.501306  1
  Si  Si15  1  0.290733  0.290733  0.581466  1
  Si  Si16  1  0.708560  0.708560  0.417120  1
  Si  Si17  1  0.727367  0.313178  0.007012  1
  Si  Si18  1  0.279644  0.693833  0.007012  1
  Si  Si19  1  0.990198  0.286402  0.296470  1
  Si  Si20  1  0.973023  0.685198  0.702648  1
  Si  Si21  1  0.729626  0.017450  0.702648  1
  Si  Si22  1  0.306271  0.010067  0.296470  1
  Si  Si23  1  0.521082  0.925524  0.405449  1
  Si  Si24  1  0.535904  0.133769  0.586584  1
  Si  Si25  1  0.050680  0.452816  0.586584  1
  Si  Si26  1  0.884366  0.479926  0.405449  1
  Si  Si27  1  0.751136  0.751119  0.000405  1
  Si  Si28  1  0.249268  0.249286  0.000405  1
  Pt  Pt29  1  0.394737  0.894737  0.789476  1
