# generated using pymatgen
data_Pr3Th(SiTc2)8
_symmetry_space_group_name_H-M   'P 1'
_cell_length_a   4.17621900
_cell_length_b   7.23219881
_cell_length_c   15.57538484
_cell_angle_alpha   90.14898284
_cell_angle_beta   90.00000000
_cell_angle_gamma   90.00000000
_symmetry_Int_Tables_number   1
_chemical_formula_structural   Pr3Th(SiTc2)8
_chemical_formula_sum   'Pr3 Th1 Si8 Tc16'
_cell_volume   470.42559056
_cell_formula_units_Z   1
loop_
 _symmetry_equiv_pos_site_id
 _symmetry_equiv_pos_as_xyz
  1  'x, y, z'
loop_
 _atom_site_type_symbol
 _atom_site_label
 _atom_site_symmetry_multiplicity
 _atom_site_fract_x
 _atom_site_fract_y
 _atom_site_fract_z
 _atom_site_occupancy
  Pr  Pr0  1  0.000000  0.585081  0.117332  1
  Pr  Pr1  1  0.000000  0.413765  0.883608  1
  Pr  Pr2  1  0.500000  0.085407  0.382011  1
  Th  Th3  1  0.500000  0.911785  0.617058  1
  Si  Si4  1  0.000000  0.825815  0.473444  1
  Si  Si5  1  0.000000  0.175747  0.525451  1
  Si  Si6  1  0.500000  0.323124  0.026346  1
  Si  Si7  1  0.500000  0.676552  0.974165  1
  Si  Si8  1  0.000000  0.303670  0.273654  1
  Si  Si9  1  0.000000  0.692696  0.728093  1
  Si  Si10  1  0.500000  0.803180  0.226429  1
  Si  Si11  1  0.500000  0.197764  0.773612  1
  Tc  Tc12  1  0.000000  0.137866  0.052096  1
  Tc  Tc13  1  0.000000  0.861814  0.947500  1
  Tc  Tc14  1  0.500000  0.640109  0.448895  1
  Tc  Tc15  1  0.500000  0.361611  0.551918  1
  Tc  Tc16  1  0.000000  0.734301  0.319821  1
  Tc  Tc17  1  0.000000  0.263779  0.679413  1
  Tc  Tc18  1  0.500000  0.234749  0.180361  1
  Tc  Tc19  1  0.500000  0.766410  0.819878  1
  Tc  Tc20  1  0.000000  0.437282  0.419957  1
  Tc  Tc21  1  0.000000  0.568001  0.580115  1
  Tc  Tc22  1  0.500000  0.936685  0.080222  1
  Tc  Tc23  1  0.500000  0.063209  0.919370  1
  Tc  Tc24  1  0.000000  0.998315  0.205793  1
  Tc  Tc25  1  0.000000  0.001134  0.793595  1
  Tc  Tc26  1  0.500000  0.498863  0.294171  1
  Tc  Tc27  1  0.500000  0.501283  0.705690  1
