# generated using pymatgen
data_TbLu2Mg3Pb2Au
_symmetry_space_group_name_H-M   'P 1'
_cell_length_a   7.50361421
_cell_length_b   7.50361447
_cell_length_c   4.51992000
_cell_angle_alpha   90.00000000
_cell_angle_beta   90.00000000
_cell_angle_gamma   120.36085933
_symmetry_Int_Tables_number   1
_chemical_formula_structural   TbLu2Mg3Pb2Au
_chemical_formula_sum   'Tb1 Lu2 Mg3 Pb2 Au1'
_cell_volume   219.58955038
_cell_formula_units_Z   1
loop_
 _symmetry_equiv_pos_site_id
 _symmetry_equiv_pos_as_xyz
  1  'x, y, z'
loop_
 _atom_site_type_symbol
 _atom_site_label
 _atom_site_symmetry_multiplicity
 _atom_site_fract_x
 _atom_site_fract_y
 _atom_site_fract_z
 _atom_site_occupancy
  Tb  Tb0  1  0.408527  0.408527  0.000000  1
  Lu  Lu1  1  0.596938  0.000967  0.000000  1
  Lu  Lu2  1  0.000967  0.596938  0.000000  1
  Mg  Mg3  1  0.231708  0.999923  0.500000  1
  Mg  Mg4  1  0.999923  0.231708  0.500000  1
  Mg  Mg5  1  0.766523  0.766523  0.500000  1
  Pb  Pb6  1  0.331556  0.669507  0.500000  1
  Pb  Pb7  1  0.669507  0.331556  0.500000  1
  Au  Au8  1  0.994351  0.994351  0.000000  1
