# generated using pymatgen
data_Y6ThMnI12
_symmetry_space_group_name_H-M   'P 1'
_cell_length_a   9.87259295
_cell_length_b   9.65435180
_cell_length_c   9.86080010
_cell_angle_alpha   107.03455859
_cell_angle_beta   107.65550726
_cell_angle_gamma   107.70407934
_symmetry_Int_Tables_number   1
_chemical_formula_structural   Y6ThMnI12
_chemical_formula_sum   'Y6 Th1 Mn1 I12'
_cell_volume   772.56789489
_cell_formula_units_Z   1
loop_
 _symmetry_equiv_pos_site_id
 _symmetry_equiv_pos_as_xyz
  1  'x, y, z'
loop_
 _atom_site_type_symbol
 _atom_site_label
 _atom_site_symmetry_multiplicity
 _atom_site_fract_x
 _atom_site_fract_y
 _atom_site_fract_z
 _atom_site_occupancy
  Y  Y0  1  0.970399  0.900618  0.699813  1
  Y  Y1  1  0.698339  0.970675  0.899086  1
  Y  Y2  1  0.093877  0.276140  0.028923  1
  Y  Y3  1  0.030776  0.101957  0.303249  1
  Y  Y4  1  0.303483  0.029275  0.102324  1
  Y  Y5  1  0.498953  0.501081  0.498228  1
  Th  Th6  1  0.906749  0.721464  0.971684  1
  Mn  Mn7  1  0.992078  0.975109  0.999105  1
  I  I8  1  0.785794  0.326750  0.928888  1
  I  I9  1  0.924767  0.775260  0.321087  1
  I  I10  1  0.319246  0.928577  0.777541  1
  I  I11  1  0.230842  0.683850  0.076391  1
  I  I12  1  0.076930  0.230668  0.690140  1
  I  I13  1  0.683194  0.077023  0.223483  1
  I  I14  1  0.524619  0.609559  0.836322  1
  I  I15  1  0.838978  0.529692  0.603497  1
  I  I16  1  0.614227  0.848406  0.534176  1
  I  I17  1  0.461376  0.389515  0.155977  1
  I  I18  1  0.158106  0.468405  0.382346  1
  I  I19  1  0.387269  0.155977  0.467742  1
