# generated using pymatgen
data_RbTeIO6
_symmetry_space_group_name_H-M   'P 1'
_cell_length_a   7.43483600
_cell_length_b   7.63440424
_cell_length_c   10.83846784
_cell_angle_alpha   68.78413955
_cell_angle_beta   90.00000000
_cell_angle_gamma   90.00000000
_symmetry_Int_Tables_number   1
_chemical_formula_structural   RbTeIO6
_chemical_formula_sum   'Rb4 Te4 I4 O24'
_cell_volume   573.50150360
_cell_formula_units_Z   4
loop_
 _symmetry_equiv_pos_site_id
 _symmetry_equiv_pos_as_xyz
  1  'x, y, z'
loop_
 _atom_site_type_symbol
 _atom_site_label
 _atom_site_symmetry_multiplicity
 _atom_site_fract_x
 _atom_site_fract_y
 _atom_site_fract_z
 _atom_site_occupancy
  Rb  Rb0  1  0.249975  0.082150  0.089791  1
  Rb  Rb1  1  0.749975  0.917850  0.410209  1
  Rb  Rb2  1  0.750025  0.917850  0.910209  1
  Rb  Rb3  1  0.250025  0.082150  0.589791  1
  Te  Te4  1  0.999874  0.499918  0.750020  1
  Te  Te5  1  0.499874  0.500082  0.749980  1
  Te  Te6  1  0.000126  0.500082  0.249980  1
  Te  Te7  1  0.500126  0.499918  0.250020  1
  I  I8  1  0.250013  0.671902  0.464106  1
  I  I9  1  0.249987  0.671902  0.964106  1
  I  I10  1  0.749987  0.328098  0.535894  1
  I  I11  1  0.750013  0.328098  0.035894  1
  O  O12  1  0.931606  0.285187  0.909352  1
  O  O13  1  0.068394  0.714813  0.090648  1
  O  O14  1  0.994300  0.337720  0.150222  1
  O  O15  1  0.249862  0.419594  0.805239  1
  O  O16  1  0.006115  0.662325  0.349771  1
  O  O17  1  0.005700  0.662280  0.849778  1
  O  O18  1  0.749986  0.080654  0.624491  1
  O  O19  1  0.505700  0.337720  0.650222  1
  O  O20  1  0.250014  0.919346  0.375509  1
  O  O21  1  0.494300  0.662280  0.349778  1
  O  O22  1  0.431606  0.714813  0.590648  1
  O  O23  1  0.750014  0.080654  0.124491  1
  O  O24  1  0.493885  0.662325  0.849771  1
  O  O25  1  0.750138  0.580406  0.194761  1
  O  O26  1  0.250138  0.419594  0.305239  1
  O  O27  1  0.749862  0.580406  0.694761  1
  O  O28  1  0.249986  0.919346  0.875509  1
  O  O29  1  0.506115  0.337675  0.150229  1
  O  O30  1  0.431485  0.714428  0.090822  1
  O  O31  1  0.931485  0.285572  0.409178  1
  O  O32  1  0.568515  0.285572  0.909178  1
  O  O33  1  0.068515  0.714428  0.590822  1
  O  O34  1  0.993885  0.337675  0.650229  1
  O  O35  1  0.568394  0.285187  0.409352  1
