# generated using pymatgen
data_ErHf2(ZnRh2)3
_symmetry_space_group_name_H-M   'P 1'
_cell_length_a   4.49476200
_cell_length_b   6.30825300
_cell_length_c   13.44191600
_cell_angle_alpha   90.00000000
_cell_angle_beta   90.00028514
_cell_angle_gamma   90.00000000
_symmetry_Int_Tables_number   1
_chemical_formula_structural   ErHf2(ZnRh2)3
_chemical_formula_sum   'Er2 Hf4 Zn6 Rh12'
_cell_volume   381.13337495
_cell_formula_units_Z   2
loop_
 _symmetry_equiv_pos_site_id
 _symmetry_equiv_pos_as_xyz
  1  'x, y, z'
loop_
 _atom_site_type_symbol
 _atom_site_label
 _atom_site_symmetry_multiplicity
 _atom_site_fract_x
 _atom_site_fract_y
 _atom_site_fract_z
 _atom_site_occupancy
  Er  Er0  1  0.999979  0.500001  0.999415  1
  Er  Er1  1  0.499824  0.000000  0.167206  1
  Hf  Hf2  1  0.999863  0.500001  0.334848  1
  Hf  Hf3  1  0.499993  0.000000  0.500662  1
  Hf  Hf4  1  0.000155  0.500001  0.666000  1
  Hf  Hf5  1  0.500161  0.000000  0.831847  1
  Zn  Zn6  1  0.000006  0.000000  0.999737  1
  Zn  Zn7  1  0.499870  0.500001  0.167001  1
  Zn  Zn8  1  0.999863  0.000000  0.334865  1
  Zn  Zn9  1  0.500006  0.500001  0.501904  1
  Zn  Zn10  1  0.000146  0.000000  0.664720  1
  Zn  Zn11  1  0.500128  0.500001  0.831759  1
  Rh  Rh12  1  0.500012  0.244135  0.993904  1
  Rh  Rh13  1  0.500012  0.755866  0.993904  1
  Rh  Rh14  1  0.999845  0.255910  0.172790  1
  Rh  Rh15  1  0.999845  0.744090  0.172790  1
  Rh  Rh16  1  0.499866  0.254800  0.339681  1
  Rh  Rh17  1  0.499866  0.745201  0.339681  1
  Rh  Rh18  1  0.999983  0.249287  0.501053  1
  Rh  Rh19  1  0.999983  0.750714  0.501053  1
  Rh  Rh20  1  0.500143  0.250789  0.665610  1
  Rh  Rh21  1  0.500143  0.749212  0.665610  1
  Rh  Rh22  1  0.000153  0.245218  0.826979  1
  Rh  Rh23  1  0.000153  0.754782  0.826979  1
