# generated using pymatgen
data_Tb9Ho(RuRh)2
_symmetry_space_group_name_H-M   'P 1'
_cell_length_a   6.41124345
_cell_length_b   7.24334619
_cell_length_c   8.59925854
_cell_angle_alpha   96.61907852
_cell_angle_beta   111.88710280
_cell_angle_gamma   89.99999941
_symmetry_Int_Tables_number   1
_chemical_formula_structural   Tb9Ho(RuRh)2
_chemical_formula_sum   'Tb9 Ho1 Ru2 Rh2'
_cell_volume   367.68524954
_cell_formula_units_Z   1
loop_
 _symmetry_equiv_pos_site_id
 _symmetry_equiv_pos_as_xyz
  1  'x, y, z'
loop_
 _atom_site_type_symbol
 _atom_site_label
 _atom_site_symmetry_multiplicity
 _atom_site_fract_x
 _atom_site_fract_y
 _atom_site_fract_z
 _atom_site_occupancy
  Tb  Tb0  1  0.981324  0.918348  0.188179  1
  Tb  Tb1  1  0.793145  0.581652  0.811821  1
  Tb  Tb2  1  0.023543  0.085951  0.814678  1
  Tb  Tb3  1  0.208865  0.414049  0.185322  1
  Tb  Tb4  1  0.641674  0.815683  0.433693  1
  Tb  Tb5  1  0.207981  0.684317  0.566307  1
  Tb  Tb6  1  0.355931  0.188119  0.563809  1
  Tb  Tb7  1  0.792123  0.311881  0.436191  1
  Tb  Tb8  1  0.420998  0.750000  0.000000  1
  Ho  Ho9  1  0.575667  0.250000  0.000000  1
  Ru  Ru10  1  0.178386  0.425143  0.779680  1
  Ru  Ru11  1  0.398706  0.074857  0.220320  1
  Rh  Rh12  1  0.821368  0.575506  0.221080  1
  Rh  Rh13  1  0.600288  0.924494  0.778920  1
