# generated using pymatgen
data_Rb3Tm(HO2)4
_symmetry_space_group_name_H-M   'P 1'
_cell_length_a   6.20790754
_cell_length_b   6.39287365
_cell_length_c   6.75829631
_cell_angle_alpha   89.82532609
_cell_angle_beta   90.99896767
_cell_angle_gamma   89.00870152
_symmetry_Int_Tables_number   1
_chemical_formula_structural   Rb3Tm(HO2)4
_chemical_formula_sum   'Rb3 Tm1 H4 O8'
_cell_volume   268.12983032
_cell_formula_units_Z   1
loop_
 _symmetry_equiv_pos_site_id
 _symmetry_equiv_pos_as_xyz
  1  'x, y, z'
loop_
 _atom_site_type_symbol
 _atom_site_label
 _atom_site_symmetry_multiplicity
 _atom_site_fract_x
 _atom_site_fract_y
 _atom_site_fract_z
 _atom_site_occupancy
  Rb  Rb0  1  0.502604  0.274918  0.216716  1
  Rb  Rb1  1  0.036498  0.270942  0.734379  1
  Rb  Rb2  1  0.011628  0.749360  0.314956  1
  Tm  Tm3  1  0.497934  0.735284  0.824172  1
  H  H4  1  0.847505  0.001012  0.004361  1
  H  H5  1  0.490994  0.784480  0.239619  1
  H  H6  1  0.558553  0.291641  0.721057  1
  H  H7  1  0.036667  0.764599  0.796794  1
  O  O8  1  0.035428  0.189546  0.155984  1
  O  O9  1  0.461340  0.026457  0.600890  1
  O  O10  1  0.971165  0.297909  0.315429  1
  O  O11  1  0.409920  0.717500  0.133015  1
  O  O12  1  0.599899  0.418772  0.789786  1
  O  O13  1  0.164004  0.705079  0.729883  1
  O  O14  1  0.584006  0.881036  0.504915  1
  O  O15  1  0.791854  0.891465  0.918045  1
