# generated using pymatgen
data_Tb2Nd2Ir3RhO14
_symmetry_space_group_name_H-M   'P 1'
_cell_length_a   7.35427805
_cell_length_b   7.32590218
_cell_length_c   7.32746268
_cell_angle_alpha   59.77890965
_cell_angle_beta   59.87887124
_cell_angle_gamma   59.87179693
_symmetry_Int_Tables_number   1
_chemical_formula_structural   Tb2Nd2Ir3RhO14
_chemical_formula_sum   'Tb2 Nd2 Ir3 Rh1 O14'
_cell_volume   278.15743197
_cell_formula_units_Z   1
loop_
 _symmetry_equiv_pos_site_id
 _symmetry_equiv_pos_as_xyz
  1  'x, y, z'
loop_
 _atom_site_type_symbol
 _atom_site_label
 _atom_site_symmetry_multiplicity
 _atom_site_fract_x
 _atom_site_fract_y
 _atom_site_fract_z
 _atom_site_occupancy
  Tb  Tb0  1  0.125000  0.625000  0.125000  1
  Tb  Tb1  1  0.125000  0.125000  0.625000  1
  Nd  Nd2  1  0.625000  0.125000  0.125000  1
  Nd  Nd3  1  0.125000  0.125000  0.125000  1
  Ir  Ir4  1  0.125000  0.625000  0.625000  1
  Ir  Ir5  1  0.625000  0.125000  0.625000  1
  Ir  Ir6  1  0.625000  0.625000  0.625000  1
  Rh  Rh7  1  0.625000  0.625000  0.125000  1
  O  O8  1  0.716306  0.705765  0.291934  1
  O  O9  1  0.291921  0.292550  0.699345  1
  O  O10  1  0.716184  0.292550  0.699345  1
  O  O11  1  0.285995  0.705765  0.291934  1
  O  O12  1  0.291639  0.712063  0.704659  1
  O  O13  1  0.710201  0.287087  0.292512  1
  O  O14  1  0.533694  0.544235  0.958066  1
  O  O15  1  0.958079  0.957450  0.550655  1
  O  O16  1  0.533816  0.957450  0.550655  1
  O  O17  1  0.964005  0.544235  0.958066  1
  O  O18  1  0.958361  0.537937  0.545341  1
  O  O19  1  0.539799  0.962913  0.957488  1
  O  O20  1  0.243489  0.255799  0.257225  1
  O  O21  1  0.006511  0.994201  0.992775  1
