# generated using pymatgen
data_Li7Pr8CdPb8
_symmetry_space_group_name_H-M   'P 1'
_cell_length_a   9.78969248
_cell_length_b   9.78969792
_cell_length_c   7.76279902
_cell_angle_alpha   89.94918367
_cell_angle_beta   90.05074728
_cell_angle_gamma   119.93515623
_symmetry_Int_Tables_number   1
_chemical_formula_structural   Li7Pr8CdPb8
_chemical_formula_sum   'Li7 Pr8 Cd1 Pb8'
_cell_volume   644.71902873
_cell_formula_units_Z   1
loop_
 _symmetry_equiv_pos_site_id
 _symmetry_equiv_pos_as_xyz
  1  'x, y, z'
loop_
 _atom_site_type_symbol
 _atom_site_label
 _atom_site_symmetry_multiplicity
 _atom_site_fract_x
 _atom_site_fract_y
 _atom_site_fract_z
 _atom_site_occupancy
  Li  Li0  1  0.835039  0.667133  0.712555  1
  Li  Li1  1  0.332867  0.164961  0.712555  1
  Li  Li2  1  0.167058  0.832942  0.210335  1
  Li  Li3  1  0.167810  0.334359  0.212463  1
  Li  Li4  1  0.665640  0.832189  0.212463  1
  Li  Li5  1  0.666368  0.333631  0.326078  1
  Li  Li6  1  0.331652  0.668348  0.828334  1
  Pr  Pr7  1  0.487989  0.512014  0.501714  1
  Pr  Pr8  1  0.484607  0.974339  0.503664  1
  Pr  Pr9  1  0.025660  0.515393  0.503664  1
  Pr  Pr10  1  0.511247  0.488750  0.010620  1
  Pr  Pr11  1  0.511554  0.023135  0.005899  1
  Pr  Pr12  1  0.976866  0.488446  0.005898  1
  Pr  Pr13  1  0.003085  0.996917  0.497518  1
  Pr  Pr14  1  0.999389  0.000611  0.000229  1
  Cd  Cd15  1  0.833326  0.166673  0.705926  1
  Pb  Pb16  1  0.176989  0.338470  0.775512  1
  Pb  Pb17  1  0.661531  0.823011  0.775512  1
  Pb  Pb18  1  0.660793  0.339207  0.738776  1
  Pb  Pb19  1  0.333051  0.666949  0.235113  1
  Pb  Pb20  1  0.833667  0.166333  0.270336  1
  Pb  Pb21  1  0.833859  0.666433  0.270778  1
  Pb  Pb22  1  0.333566  0.166140  0.270777  1
  Pb  Pb23  1  0.166386  0.833615  0.771289  1
