# generated using pymatgen
data_Hf12Th8Si15Sb
_symmetry_space_group_name_H-M   'P 1'
_cell_length_a   7.44280574
_cell_length_b   7.42847109
_cell_length_c   13.67559475
_cell_angle_alpha   90.01538421
_cell_angle_beta   89.68187807
_cell_angle_gamma   90.00862849
_symmetry_Int_Tables_number   1
_chemical_formula_structural   Hf12Th8Si15Sb
_chemical_formula_sum   'Hf12 Th8 Si15 Sb1'
_cell_volume   756.09371749
_cell_formula_units_Z   1
loop_
 _symmetry_equiv_pos_site_id
 _symmetry_equiv_pos_as_xyz
  1  'x, y, z'
loop_
 _atom_site_type_symbol
 _atom_site_label
 _atom_site_symmetry_multiplicity
 _atom_site_fract_x
 _atom_site_fract_y
 _atom_site_fract_z
 _atom_site_occupancy
  Hf  Hf0  1  0.673575  0.326587  0.749136  1
  Hf  Hf1  1  0.328229  0.672449  0.250832  1
  Hf  Hf2  1  0.826890  0.826712  0.500500  1
  Hf  Hf3  1  0.180375  0.173357  0.998554  1
  Hf  Hf4  1  0.490329  0.349636  0.125401  1
  Hf  Hf5  1  0.502535  0.654292  0.625321  1
  Hf  Hf6  1  0.844004  0.002369  0.869478  1
  Hf  Hf7  1  0.156506  0.996555  0.376019  1
  Hf  Hf8  1  0.655931  0.503830  0.375450  1
  Hf  Hf9  1  0.342074  0.499208  0.872562  1
  Hf  Hf10  1  0.014227  0.832021  0.128824  1
  Hf  Hf11  1  0.996012  0.155248  0.624778  1
  Th  Th12  1  0.497116  0.158519  0.533988  1
  Th  Th13  1  0.496583  0.837083  0.031680  1
  Th  Th14  1  0.656729  0.000041  0.287351  1
  Th  Th15  1  0.339889  0.995719  0.781689  1
  Th  Th16  1  0.841075  0.509253  0.964187  1
  Th  Th17  1  0.158722  0.497198  0.467605  1
  Th  Th18  1  0.001842  0.658197  0.715378  1
  Th  Th19  1  0.006798  0.349592  0.222631  1
  Si  Si20  1  0.202230  0.869341  0.566301  1
  Si  Si21  1  0.630099  0.702572  0.814760  1
  Si  Si22  1  0.371790  0.298379  0.317731  1
  Si  Si23  1  0.869172  0.202300  0.434198  1
  Si  Si24  1  0.129458  0.800289  0.932920  1
  Si  Si25  1  0.702041  0.631136  0.183576  1
  Si  Si26  1  0.296644  0.368486  0.683041  1
  Si  Si27  1  0.534756  0.211553  0.928811  1
  Si  Si28  1  0.454097  0.790031  0.436619  1
  Si  Si29  1  0.707522  0.955206  0.683555  1
  Si  Si30  1  0.292811  0.044923  0.185736  1
  Si  Si31  1  0.790819  0.455232  0.564828  1
  Si  Si32  1  0.207599  0.541787  0.063714  1
  Si  Si33  1  0.956137  0.710424  0.317809  1
  Si  Si34  1  0.044040  0.292103  0.814501  1
  Sb  Sb35  1  0.801344  0.128368  0.070535  1
