# generated using pymatgen
data_Cs2B2Se7
_symmetry_space_group_name_H-M   'P 1'
_cell_length_a   9.29684377
_cell_length_b   9.29684425
_cell_length_c   13.60755729
_cell_angle_alpha   58.63527155
_cell_angle_beta   58.63527026
_cell_angle_gamma   50.08554218
_symmetry_Int_Tables_number   1
_chemical_formula_structural   Cs2B2Se7
_chemical_formula_sum   'Cs4 B4 Se14'
_cell_volume   738.36825393
_cell_formula_units_Z   2
loop_
 _symmetry_equiv_pos_site_id
 _symmetry_equiv_pos_as_xyz
  1  'x, y, z'
loop_
 _atom_site_type_symbol
 _atom_site_label
 _atom_site_symmetry_multiplicity
 _atom_site_fract_x
 _atom_site_fract_y
 _atom_site_fract_z
 _atom_site_occupancy
  Cs  Cs0  1  0.121088  0.671596  0.521904  1
  Cs  Cs1  1  0.328404  0.878912  0.978096  1
  Cs  Cs2  1  0.878912  0.328404  0.478096  1
  Cs  Cs3  1  0.671596  0.121088  0.021904  1
  B  B4  1  0.617914  0.151704  0.349230  1
  B  B5  1  0.848296  0.382086  0.150770  1
  B  B6  1  0.382086  0.848296  0.650770  1
  B  B7  1  0.151704  0.617914  0.849230  1
  Se  Se8  1  0.160788  0.573135  0.011052  1
  Se  Se9  1  0.426865  0.839213  0.488948  1
  Se  Se10  1  0.839213  0.426865  0.988948  1
  Se  Se11  1  0.573135  0.160787  0.511052  1
  Se  Se12  1  0.143009  0.409265  0.840783  1
  Se  Se13  1  0.590735  0.856991  0.659217  1
  Se  Se14  1  0.856991  0.590735  0.159217  1
  Se  Se15  1  0.409265  0.143009  0.340783  1
  Se  Se16  1  0.948319  0.891475  0.772798  1
  Se  Se17  1  0.108525  0.051681  0.727202  1
  Se  Se18  1  0.051681  0.108525  0.227202  1
  Se  Se19  1  0.891475  0.948319  0.272798  1
  Se  Se20  1  0.435622  0.564378  0.750000  1
  Se  Se21  1  0.564378  0.435622  0.250000  1
