# generated using pymatgen
data_Dy7Er3(GaBi2)2
_symmetry_space_group_name_H-M   'P 1'
_cell_length_a   8.07077608
_cell_length_b   9.28402112
_cell_length_c   12.08143914
_cell_angle_alpha   89.98616055
_cell_angle_beta   89.98903168
_cell_angle_gamma   89.98779853
_symmetry_Int_Tables_number   1
_chemical_formula_structural   Dy7Er3(GaBi2)2
_chemical_formula_sum   'Dy14 Er6 Ga4 Bi8'
_cell_volume   905.25317819
_cell_formula_units_Z   2
loop_
 _symmetry_equiv_pos_site_id
 _symmetry_equiv_pos_as_xyz
  1  'x, y, z'
loop_
 _atom_site_type_symbol
 _atom_site_label
 _atom_site_symmetry_multiplicity
 _atom_site_fract_x
 _atom_site_fract_y
 _atom_site_fract_z
 _atom_site_occupancy
  Dy  Dy0  1  0.667935  0.750078  0.715737  1
  Dy  Dy1  1  0.332065  0.249922  0.284263  1
  Dy  Dy2  1  0.168012  0.249898  0.784182  1
  Dy  Dy3  1  0.831988  0.750102  0.215818  1
  Dy  Dy4  1  0.143014  0.750069  0.794887  1
  Dy  Dy5  1  0.856986  0.249931  0.205113  1
  Dy  Dy6  1  0.643107  0.249910  0.704873  1
  Dy  Dy7  1  0.356893  0.750090  0.295127  1
  Dy  Dy8  1  0.818973  0.447032  0.935867  1
  Dy  Dy9  1  0.181027  0.552968  0.064133  1
  Dy  Dy10  1  0.318991  0.553199  0.564049  1
  Dy  Dy11  1  0.180974  0.946976  0.064077  1
  Dy  Dy12  1  0.681009  0.446801  0.435951  1
  Dy  Dy13  1  0.819026  0.053024  0.935923  1
  Er  Er14  1  0.540381  0.749980  0.002475  1
  Er  Er15  1  0.459619  0.250020  0.997525  1
  Er  Er16  1  0.040546  0.249873  0.497536  1
  Er  Er17  1  0.959454  0.750127  0.502464  1
  Er  Er18  1  0.680727  0.053178  0.435886  1
  Er  Er19  1  0.319273  0.946822  0.564114  1
  Ga  Ga20  1  0.908594  0.749947  0.975947  1
  Ga  Ga21  1  0.091406  0.250053  0.024053  1
  Ga  Ga22  1  0.408626  0.249288  0.524066  1
  Ga  Ga23  1  0.591374  0.750712  0.475934  1
  Bi  Bi24  1  0.935469  0.008714  0.673631  1
  Bi  Bi25  1  0.064531  0.991286  0.326369  1
  Bi  Bi26  1  0.435155  0.991286  0.826113  1
  Bi  Bi27  1  0.064744  0.508675  0.326252  1
  Bi  Bi28  1  0.564845  0.008714  0.173887  1
  Bi  Bi29  1  0.935256  0.491325  0.673748  1
  Bi  Bi30  1  0.564705  0.491317  0.173779  1
  Bi  Bi31  1  0.435295  0.508683  0.826221  1
