# generated using pymatgen
data_Ca12Ti9In8(GeO16)3
_symmetry_space_group_name_H-M   'P 1'
_cell_length_a   11.15096803
_cell_length_b   11.15092846
_cell_length_c   11.15087500
_cell_angle_alpha   109.47226173
_cell_angle_beta   109.47260504
_cell_angle_gamma   109.46903758
_symmetry_Int_Tables_number   1
_chemical_formula_structural   Ca12Ti9In8(GeO16)3
_chemical_formula_sum   'Ca12 Ti9 In8 Ge3 O48'
_cell_volume   1067.35615086
_cell_formula_units_Z   1
loop_
 _symmetry_equiv_pos_site_id
 _symmetry_equiv_pos_as_xyz
  1  'x, y, z'
loop_
 _atom_site_type_symbol
 _atom_site_label
 _atom_site_symmetry_multiplicity
 _atom_site_fract_x
 _atom_site_fract_y
 _atom_site_fract_z
 _atom_site_occupancy
  Ca  Ca0  1  0.249535  0.374017  0.124561  1
  Ca  Ca1  1  0.750219  0.625904  0.875870  1
  Ca  Ca2  1  0.749454  0.124971  0.375438  1
  Ca  Ca3  1  0.125648  0.249780  0.375686  1
  Ca  Ca4  1  0.374094  0.749961  0.124314  1
  Ca  Ca5  1  0.250036  0.874350  0.624131  1
  Ca  Ca6  1  0.875030  0.750468  0.624482  1
  Ca  Ca7  1  0.625985  0.250547  0.875518  1
  Ca  Ca8  1  0.374445  0.124445  0.249999  1
  Ca  Ca9  1  0.625306  0.875305  0.749997  1
  Ca  Ca10  1  0.124695  0.374697  0.749999  1
  Ca  Ca11  1  0.875553  0.625552  0.249999  1
  Ti  Ti12  1  0.250153  0.625264  0.374564  1
  Ti  Ti13  1  0.750076  0.375422  0.625408  1
  Ti  Ti14  1  0.750700  0.875588  0.125432  1
  Ti  Ti15  1  0.374733  0.249301  0.624894  1
  Ti  Ti16  1  0.624580  0.749983  0.374650  1
  Ti  Ti17  1  0.250012  0.124670  0.874595  1
  Ti  Ti18  1  0.124405  0.749839  0.875105  1
  Ti  Ti19  1  0.875335  0.249931  0.125349  1
  Ti  Ti20  1  0.625004  0.375006  0.250000  1
  In  In21  1  0.999976  0.999978  0.999932  1
  In  In22  1  0.500047  0.000044  0.500068  1
  In  In23  1  0.002147  0.501497  0.501539  1
  In  In24  1  0.499392  0.997853  0.999350  1
  In  In25  1  0.499957  0.500609  0.998464  1
  In  In26  1  0.498505  0.500042  0.500651  1
  In  In27  1  0.999956  0.000024  0.500002  1
  In  In28  1  0.000022  0.499955  0.999997  1
  Ge  Ge29  1  0.374991  0.624989  0.750001  1
  Ge  Ge30  1  0.875002  0.124998  0.750000  1
  Ge  Ge31  1  0.124994  0.874999  0.250000  1
  O  O32  1  0.477535  0.377039  0.288558  1
  O  O33  1  0.519006  0.622965  0.712922  1
  O  O34  1  0.588479  0.188975  0.211441  1
  O  O35  1  0.910125  0.122522  0.603833  1
  O  O36  1  0.287143  0.477069  0.375864  1
  O  O37  1  0.306318  0.910140  0.287656  1
  O  O38  1  0.410045  0.806087  0.787079  1
  O  O39  1  0.089860  0.877517  0.396174  1
  O  O40  1  0.710684  0.522569  0.624016  1
  O  O41  1  0.693705  0.089874  0.712396  1
  O  O42  1  0.018690  0.306295  0.896169  1
  O  O43  1  0.211483  0.586357  0.187749  1
  O  O44  1  0.122484  0.018660  0.212346  1
  O  O45  1  0.981343  0.693685  0.103826  1
  O  O46  1  0.788720  0.413767  0.812064  1
  O  O47  1  0.877477  0.981312  0.787602  1
  O  O48  1  0.601202  0.911280  0.124135  1
  O  O49  1  0.193930  0.481006  0.603969  1
  O  O50  1  0.398557  0.086665  0.875984  1
  O  O51  1  0.811018  0.522460  0.399500  1
  O  O52  1  0.898608  0.023734  0.312252  1
  O  O53  1  0.377036  0.589961  0.896029  1
  O  O54  1  0.101703  0.976656  0.687935  1
  O  O55  1  0.622959  0.411516  0.100501  1
  O  O56  1  0.376308  0.287394  0.477271  1
  O  O57  1  0.586232  0.898298  0.374954  1
  O  O58  1  0.622954  0.711553  0.522431  1
  O  O59  1  0.413644  0.101389  0.625126  1
  O  O60  1  0.123184  0.600048  0.910966  1
  O  O61  1  0.023344  0.211279  0.125047  1
  O  O62  1  0.876883  0.399485  0.089055  1
  O  O63  1  0.976265  0.788519  0.874876  1
  O  O64  1  0.310129  0.899041  0.022733  1
  O  O65  1  0.913332  0.289316  0.311884  1
  O  O66  1  0.689121  0.100522  0.977568  1
  O  O67  1  0.088722  0.712860  0.689930  1
  O  O68  1  0.189079  0.212217  0.589032  1
  O  O69  1  0.477430  0.601447  0.188115  1
  O  O70  1  0.810432  0.787829  0.410947  1
  O  O71  1  0.522929  0.398793  0.810071  1
  O  O72  1  0.288444  0.310872  0.911397  1
  O  O73  1  0.712608  0.689879  0.088914  1
  O  O74  1  0.212173  0.123119  0.022603  1
  O  O75  1  0.787782  0.876815  0.976862  1
  O  O76  1  0.899476  0.377046  0.588601  1
  O  O77  1  0.100963  0.623693  0.411086  1
  O  O78  1  0.600513  0.189566  0.477394  1
  O  O79  1  0.399954  0.810920  0.523138  1
