# generated using pymatgen
data_NpTa5(ZnRu2)6
_symmetry_space_group_name_H-M   'P 1'
_cell_length_a   4.38898000
_cell_length_b   6.27602301
_cell_length_c   13.11872202
_cell_angle_alpha   90.00637002
_cell_angle_beta   90.00094163
_cell_angle_gamma   90.00050363
_symmetry_Int_Tables_number   1
_chemical_formula_structural   NpTa5(ZnRu2)6
_chemical_formula_sum   'Np1 Ta5 Zn6 Ru12'
_cell_volume   361.35964918
_cell_formula_units_Z   1
loop_
 _symmetry_equiv_pos_site_id
 _symmetry_equiv_pos_as_xyz
  1  'x, y, z'
loop_
 _atom_site_type_symbol
 _atom_site_label
 _atom_site_symmetry_multiplicity
 _atom_site_fract_x
 _atom_site_fract_y
 _atom_site_fract_z
 _atom_site_occupancy
  Np  Np0  1  0.000000  0.500001  0.999999  1
  Ta  Ta1  1  0.499842  0.000000  0.172054  1
  Ta  Ta2  1  0.999865  0.500001  0.337018  1
  Ta  Ta3  1  0.499999  0.000001  0.500000  1
  Ta  Ta4  1  0.000134  0.500001  0.662983  1
  Ta  Ta5  1  0.500157  0.000002  0.827946  1
  Zn  Zn6  1  0.000000  0.000001  0.000000  1
  Zn  Zn7  1  0.499845  0.500003  0.171976  1
  Zn  Zn8  1  0.999845  0.000003  0.333239  1
  Zn  Zn9  1  0.499999  0.500000  0.500001  1
  Zn  Zn10  1  0.000154  0.000001  0.666761  1
  Zn  Zn11  1  0.500154  0.500001  0.828023  1
  Ru  Ru12  1  0.500003  0.248687  0.999997  1
  Ru  Ru13  1  0.499998  0.751292  0.999994  1
  Ru  Ru14  1  0.999838  0.252931  0.163099  1
  Ru  Ru15  1  0.999839  0.747075  0.163101  1
  Ru  Ru16  1  0.499883  0.249841  0.332700  1
  Ru  Ru17  1  0.499886  0.750163  0.332700  1
  Ru  Ru18  1  0.999999  0.250420  0.500000  1
  Ru  Ru19  1  0.999999  0.749586  0.500002  1
  Ru  Ru20  1  0.500116  0.249839  0.667301  1
  Ru  Ru21  1  0.500116  0.750165  0.667303  1
  Ru  Ru22  1  0.000162  0.252927  0.836894  1
  Ru  Ru23  1  0.000160  0.747059  0.836909  1
