# generated using pymatgen
data_Pa2Mn6P7Ir6
_symmetry_space_group_name_H-M   'P 1'
_cell_length_a   9.40025600
_cell_length_b   9.40025693
_cell_length_c   3.85054100
_cell_angle_alpha   90.00000000
_cell_angle_beta   90.00000000
_cell_angle_gamma   119.99999765
_symmetry_Int_Tables_number   1
_chemical_formula_structural   Pa2Mn6P7Ir6
_chemical_formula_sum   'Pa2 Mn6 P7 Ir6'
_cell_volume   294.66720198
_cell_formula_units_Z   1
loop_
 _symmetry_equiv_pos_site_id
 _symmetry_equiv_pos_as_xyz
  1  'x, y, z'
loop_
 _atom_site_type_symbol
 _atom_site_label
 _atom_site_symmetry_multiplicity
 _atom_site_fract_x
 _atom_site_fract_y
 _atom_site_fract_z
 _atom_site_occupancy
  Pa  Pa0  1  0.333333  0.666667  0.000000  1
  Pa  Pa1  1  0.000000  0.000000  0.500000  1
  Mn  Mn2  1  0.550548  0.062660  0.000000  1
  Mn  Mn3  1  0.937340  0.487888  0.000000  1
  Mn  Mn4  1  0.512112  0.449452  0.000000  1
  Mn  Mn5  1  0.792144  0.231229  0.500000  1
  Mn  Mn6  1  0.768771  0.560915  0.500000  1
  Mn  Mn7  1  0.439085  0.207856  0.500000  1
  P  P8  1  0.771903  0.040325  0.000000  1
  P  P9  1  0.959675  0.731578  0.000000  1
  P  P10  1  0.268422  0.228097  0.000000  1
  P  P11  1  0.392253  0.947292  0.500000  1
  P  P12  1  0.052708  0.444962  0.500000  1
  P  P13  1  0.555038  0.607747  0.500000  1
  P  P14  1  0.666667  0.333333  0.000000  1
  Ir  Ir15  1  0.032021  0.262514  0.000000  1
  Ir  Ir16  1  0.737486  0.769506  0.000000  1
  Ir  Ir17  1  0.230494  0.967979  0.000000  1
  Ir  Ir18  1  0.606526  0.886550  0.500000  1
  Ir  Ir19  1  0.113450  0.719975  0.500000  1
  Ir  Ir20  1  0.280025  0.393474  0.500000  1
