# generated using pymatgen
data_DyHfU7S17
_symmetry_space_group_name_H-M   'P 1'
_cell_length_a   7.87359559
_cell_length_b   7.87464927
_cell_length_c   10.48532494
_cell_angle_alpha   80.82693282
_cell_angle_beta   80.54161513
_cell_angle_gamma   65.27283228
_symmetry_Int_Tables_number   1
_chemical_formula_structural   DyHfU7S17
_chemical_formula_sum   'Dy1 Hf1 U7 S17'
_cell_volume   579.48201117
_cell_formula_units_Z   1
loop_
 _symmetry_equiv_pos_site_id
 _symmetry_equiv_pos_as_xyz
  1  'x, y, z'
loop_
 _atom_site_type_symbol
 _atom_site_label
 _atom_site_symmetry_multiplicity
 _atom_site_fract_x
 _atom_site_fract_y
 _atom_site_fract_z
 _atom_site_occupancy
  Dy  Dy0  1  0.809750  0.308546  0.299493  1
  Hf  Hf1  1  0.000206  0.000387  0.000897  1
  U  U2  1  0.301028  0.817527  0.301184  1
  U  U3  1  0.183934  0.697877  0.697341  1
  U  U4  1  0.697866  0.183508  0.699490  1
  U  U5  1  0.205201  0.205176  0.537822  1
  U  U6  1  0.795996  0.791080  0.461151  1
  U  U7  1  0.679291  0.680983  0.982838  1
  U  U8  1  0.318909  0.320459  0.017010  1
  S  S9  1  0.825089  0.428809  0.536654  1
  S  S10  1  0.431939  0.822347  0.534035  1
  S  S11  1  0.178529  0.567353  0.464603  1
  S  S12  1  0.571981  0.172198  0.469686  1
  S  S13  1  0.941656  0.330215  0.030953  1
  S  S14  1  0.328320  0.943263  0.032575  1
  S  S15  1  0.058101  0.671848  0.965402  1
  S  S16  1  0.671474  0.060643  0.967076  1
  S  S17  1  0.213553  0.207336  0.277902  1
  S  S18  1  0.788906  0.789273  0.723234  1
  S  S19  1  0.063406  0.061975  0.765262  1
  S  S20  1  0.939163  0.937679  0.236216  1
  S  S21  1  0.304900  0.303302  0.752284  1
  S  S22  1  0.692645  0.700986  0.246569  1
  S  S23  1  0.520118  0.521112  0.829524  1
  S  S24  1  0.474404  0.484343  0.165213  1
  S  S25  1  0.003633  0.991779  0.505586  1
