# generated using pymatgen
data_ZrSc7(Nb3Si4)4
_symmetry_space_group_name_H-M   'P 1'
_cell_length_a   6.71854464
_cell_length_b   6.90594282
_cell_length_c   13.16172481
_cell_angle_alpha   89.98676514
_cell_angle_beta   90.05865001
_cell_angle_gamma   90.05431175
_symmetry_Int_Tables_number   1
_chemical_formula_structural   ZrSc7(Nb3Si4)4
_chemical_formula_sum   'Zr1 Sc7 Nb12 Si16'
_cell_volume   610.67558491
_cell_formula_units_Z   1
loop_
 _symmetry_equiv_pos_site_id
 _symmetry_equiv_pos_as_xyz
  1  'x, y, z'
loop_
 _atom_site_type_symbol
 _atom_site_label
 _atom_site_symmetry_multiplicity
 _atom_site_fract_x
 _atom_site_fract_y
 _atom_site_fract_z
 _atom_site_occupancy
  Zr  Zr0  1  0.500841  0.674422  0.596453  1
  Sc  Sc1  1  0.999635  0.824795  0.904905  1
  Sc  Sc2  1  0.499928  0.325373  0.095554  1
  Sc  Sc3  1  0.000256  0.174560  0.404544  1
  Sc  Sc4  1  0.500341  0.325914  0.404547  1
  Sc  Sc5  1  0.999790  0.174754  0.095505  1
  Sc  Sc6  1  0.499959  0.673986  0.904580  1
  Sc  Sc7  1  0.998492  0.824846  0.595061  1
  Nb  Nb8  1  0.660923  0.174361  0.624450  1
  Nb  Nb9  1  0.162722  0.324793  0.874898  1
  Nb  Nb10  1  0.338261  0.825704  0.125022  1
  Nb  Nb11  1  0.838480  0.675418  0.375131  1
  Nb  Nb12  1  0.338534  0.824889  0.375210  1
  Nb  Nb13  1  0.838581  0.675060  0.125053  1
  Nb  Nb14  1  0.661565  0.174502  0.874657  1
  Nb  Nb15  1  0.163049  0.325944  0.624665  1
  Nb  Nb16  1  0.835278  0.495192  0.749783  1
  Nb  Nb17  1  0.335869  0.004954  0.749047  1
  Nb  Nb18  1  0.164379  0.504761  0.250124  1
  Nb  Nb19  1  0.663660  0.994161  0.250247  1
  Si  Si20  1  0.669627  0.967299  0.460747  1
  Si  Si21  1  0.169090  0.532788  0.039140  1
  Si  Si22  1  0.330265  0.033158  0.961152  1
  Si  Si23  1  0.830800  0.465611  0.538415  1
  Si  Si24  1  0.329745  0.034214  0.538564  1
  Si  Si25  1  0.830784  0.467023  0.961012  1
  Si  Si26  1  0.669354  0.967043  0.039212  1
  Si  Si27  1  0.170349  0.532832  0.460910  1
  Si  Si28  1  0.458313  0.386810  0.750273  1
  Si  Si29  1  0.957760  0.114494  0.749787  1
  Si  Si30  1  0.542168  0.612888  0.249739  1
  Si  Si31  1  0.042388  0.886363  0.249906  1
  Si  Si32  1  0.703616  0.863305  0.750876  1
  Si  Si33  1  0.201792  0.638034  0.750853  1
  Si  Si34  1  0.297011  0.137787  0.249946  1
  Si  Si35  1  0.796396  0.361960  0.250033  1
