# generated using pymatgen
data_NaCaCo8(P3Ru)2
_symmetry_space_group_name_H-M   'P 1'
_cell_length_a   3.70524800
_cell_length_b   10.43897000
_cell_length_c   11.81111400
_cell_angle_alpha   90.00000000
_cell_angle_beta   90.00000000
_cell_angle_gamma   90.00000000
_symmetry_Int_Tables_number   1
_chemical_formula_structural   NaCaCo8(P3Ru)2
_chemical_formula_sum   'Na2 Ca2 Co16 P12 Ru4'
_cell_volume   456.84175613
_cell_formula_units_Z   2
loop_
 _symmetry_equiv_pos_site_id
 _symmetry_equiv_pos_as_xyz
  1  'x, y, z'
loop_
 _atom_site_type_symbol
 _atom_site_label
 _atom_site_symmetry_multiplicity
 _atom_site_fract_x
 _atom_site_fract_y
 _atom_site_fract_z
 _atom_site_occupancy
  Na  Na0  1  0.750000  0.414439  0.295787  1
  Na  Na1  1  0.750000  0.085561  0.795787  1
  Ca  Ca2  1  0.250000  0.586455  0.704165  1
  Ca  Ca3  1  0.250000  0.913545  0.204165  1
  Co  Co4  1  0.250000  0.408533  0.489378  1
  Co  Co5  1  0.250000  0.091467  0.989378  1
  Co  Co6  1  0.750000  0.591422  0.508594  1
  Co  Co7  1  0.750000  0.908578  0.008594  1
  Co  Co8  1  0.250000  0.220162  0.176315  1
  Co  Co9  1  0.250000  0.279838  0.676315  1
  Co  Co10  1  0.750000  0.779482  0.824186  1
  Co  Co11  1  0.750000  0.720518  0.324186  1
  Co  Co12  1  0.250000  0.887326  0.702228  1
  Co  Co13  1  0.250000  0.612674  0.202228  1
  Co  Co14  1  0.750000  0.113385  0.298440  1
  Co  Co15  1  0.750000  0.386615  0.798440  1
  Co  Co16  1  0.250000  0.463116  0.934257  1
  Co  Co17  1  0.250000  0.036884  0.434257  1
  Co  Co18  1  0.750000  0.533528  0.067394  1
  Co  Co19  1  0.750000  0.966472  0.567394  1
  P  P20  1  0.250000  0.419384  0.116351  1
  P  P21  1  0.250000  0.080616  0.616351  1
  P  P22  1  0.750000  0.579423  0.887275  1
  P  P23  1  0.750000  0.920577  0.387275  1
  P  P24  1  0.250000  0.268959  0.865342  1
  P  P25  1  0.250000  0.231041  0.365342  1
  P  P26  1  0.750000  0.726595  0.134278  1
  P  P27  1  0.750000  0.773405  0.634278  1
  P  P28  1  0.250000  0.594895  0.389726  1
  P  P29  1  0.250000  0.905105  0.889726  1
  P  P30  1  0.750000  0.402739  0.608587  1
  P  P31  1  0.750000  0.097261  0.108587  1
  Ru  Ru32  1  0.250000  0.714049  0.989171  1
  Ru  Ru33  1  0.250000  0.785951  0.489171  1
  Ru  Ru34  1  0.750000  0.286165  0.008531  1
  Ru  Ru35  1  0.750000  0.213835  0.508531  1
