# generated using pymatgen
data_DyHo5MnBi2
_symmetry_space_group_name_H-M   'P 1'
_cell_length_a   4.27802200
_cell_length_b   8.28401561
_cell_length_c   8.28412100
_cell_angle_alpha   119.99956371
_cell_angle_beta   90.00000000
_cell_angle_gamma   90.00000000
_symmetry_Int_Tables_number   1
_chemical_formula_structural   DyHo5MnBi2
_chemical_formula_sum   'Dy1 Ho5 Mn1 Bi2'
_cell_volume   254.25113285
_cell_formula_units_Z   1
loop_
 _symmetry_equiv_pos_site_id
 _symmetry_equiv_pos_as_xyz
  1  'x, y, z'
loop_
 _atom_site_type_symbol
 _atom_site_label
 _atom_site_symmetry_multiplicity
 _atom_site_fract_x
 _atom_site_fract_y
 _atom_site_fract_z
 _atom_site_occupancy
  Dy  Dy0  1  0.000000  0.607932  0.000000  1
  Ho  Ho1  1  0.500000  0.767549  0.767267  1
  Ho  Ho2  1  0.500000  0.000282  0.232733  1
  Ho  Ho3  1  0.500000  0.233103  0.000000  1
  Ho  Ho4  1  0.000000  0.391353  0.391311  1
  Ho  Ho5  1  0.000000  0.000042  0.608689  1
  Mn  Mn6  1  0.000000  0.999905  0.000000  1
  Bi  Bi7  1  0.500000  0.666856  0.333878  1
  Bi  Bi8  1  0.500000  0.332977  0.666122  1
