# generated using pymatgen
data_Tm3Th11Ru6
_symmetry_space_group_name_H-M   'P 1'
_cell_length_a   9.80993574
_cell_length_b   9.82242597
_cell_length_c   6.41572464
_cell_angle_alpha   90.19494370
_cell_angle_beta   89.96818911
_cell_angle_gamma   120.01825907
_symmetry_Int_Tables_number   1
_chemical_formula_structural   Tm3Th11Ru6
_chemical_formula_sum   'Tm3 Th11 Ru6'
_cell_volume   535.27682922
_cell_formula_units_Z   1
loop_
 _symmetry_equiv_pos_site_id
 _symmetry_equiv_pos_as_xyz
  1  'x, y, z'
loop_
 _atom_site_type_symbol
 _atom_site_label
 _atom_site_symmetry_multiplicity
 _atom_site_fract_x
 _atom_site_fract_y
 _atom_site_fract_z
 _atom_site_occupancy
  Tm  Tm0  1  0.458776  0.536762  0.298743  1
  Tm  Tm1  1  0.075207  0.535630  0.303065  1
  Tm  Tm2  1  0.927090  0.464701  0.804002  1
  Th  Th3  1  0.252306  0.128766  0.511433  1
  Th  Th4  1  0.541538  0.079506  0.795305  1
  Th  Th5  1  0.746414  0.873612  0.011947  1
  Th  Th6  1  0.667590  0.333396  0.269538  1
  Th  Th7  1  0.125058  0.871386  0.013038  1
  Th  Th8  1  0.457491  0.915950  0.294615  1
  Th  Th9  1  0.541773  0.464375  0.801454  1
  Th  Th10  1  0.874974  0.128321  0.511292  1
  Th  Th11  1  0.125027  0.253774  0.013730  1
  Th  Th12  1  0.873383  0.746037  0.510148  1
  Th  Th13  1  0.332762  0.664839  0.763599  1
  Ru  Ru14  1  0.813025  0.630579  0.049127  1
  Ru  Ru15  1  0.815432  0.183943  0.046014  1
  Ru  Ru16  1  0.631150  0.816472  0.545265  1
  Ru  Ru17  1  0.371647  0.188267  0.044444  1
  Ru  Ru18  1  0.182970  0.366384  0.550168  1
  Ru  Ru19  1  0.186388  0.817301  0.547070  1
