# generated using pymatgen
data_Sr2OsRu2O9
_symmetry_space_group_name_H-M   'P 1'
_cell_length_a   8.00609963
_cell_length_b   8.01639140
_cell_length_c   8.02059993
_cell_angle_alpha   109.44650622
_cell_angle_beta   109.43211123
_cell_angle_gamma   109.37928037
_symmetry_Int_Tables_number   1
_chemical_formula_structural   Sr2OsRu2O9
_chemical_formula_sum   'Sr4 Os2 Ru4 O18'
_cell_volume   397.02403962
_cell_formula_units_Z   2
loop_
 _symmetry_equiv_pos_site_id
 _symmetry_equiv_pos_as_xyz
  1  'x, y, z'
loop_
 _atom_site_type_symbol
 _atom_site_label
 _atom_site_symmetry_multiplicity
 _atom_site_fract_x
 _atom_site_fract_y
 _atom_site_fract_z
 _atom_site_occupancy
  Sr  Sr0  1  0.001520  0.996318  0.401812  1
  Sr  Sr1  1  0.998082  0.402321  0.002839  1
  Sr  Sr2  1  0.598272  0.601186  0.596452  1
  Sr  Sr3  1  0.402607  0.001086  0.998992  1
  Os  Os4  1  0.369215  0.503149  0.867214  1
  Os  Os5  1  0.864320  0.366372  0.498211  1
  Ru  Ru6  1  0.499685  0.131529  0.636705  1
  Ru  Ru7  1  0.134017  0.635763  0.498361  1
  Ru  Ru8  1  0.500912  0.864196  0.368246  1
  Ru  Ru9  1  0.638074  0.502011  0.134669  1
  O  O10  1  0.334492  0.999284  0.335729  1
  O  O11  1  0.328128  0.333343  0.993655  1
  O  O12  1  0.993432  0.662703  0.668245  1
  O  O13  1  0.665587  0.670887  0.995555  1
  O  O14  1  0.992469  0.325850  0.329430  1
  O  O15  1  0.666918  0.997709  0.668444  1
  O  O16  1  0.365163  0.304065  0.643020  1
  O  O17  1  0.065524  0.342513  0.699924  1
  O  O18  1  0.727157  0.361769  0.659740  1
  O  O19  1  0.361818  0.661186  0.727911  1
  O  O20  1  0.269769  0.936863  0.638423  1
  O  O21  1  0.638586  0.363405  0.301940  1
  O  O22  1  0.299542  0.632190  0.361804  1
  O  O23  1  0.704688  0.068384  0.342228  1
  O  O24  1  0.938629  0.637243  0.269298  1
  O  O25  1  0.664225  0.727006  0.362453  1
  O  O26  1  0.636004  0.272451  0.936567  1
  O  O27  1  0.341163  0.699221  0.062132  1
