# generated using pymatgen
data_CaY6BI12
_symmetry_space_group_name_H-M   'P 1'
_cell_length_a   9.67860518
_cell_length_b   9.67860483
_cell_length_c   9.67860529
_cell_angle_alpha   106.91128848
_cell_angle_beta   106.91128863
_cell_angle_gamma   106.91127752
_symmetry_Int_Tables_number   1
_chemical_formula_structural   CaY6BI12
_chemical_formula_sum   'Ca1 Y6 B1 I12'
_cell_volume   756.88430025
_cell_formula_units_Z   1
loop_
 _symmetry_equiv_pos_site_id
 _symmetry_equiv_pos_as_xyz
  1  'x, y, z'
loop_
 _atom_site_type_symbol
 _atom_site_label
 _atom_site_symmetry_multiplicity
 _atom_site_fract_x
 _atom_site_fract_y
 _atom_site_fract_z
 _atom_site_occupancy
  Ca  Ca0  1  0.500000  0.500000  0.500000  1
  Y  Y1  1  0.711980  0.975097  0.906527  1
  Y  Y2  1  0.975097  0.906527  0.711980  1
  Y  Y3  1  0.093473  0.288020  0.024903  1
  Y  Y4  1  0.288020  0.024903  0.093473  1
  Y  Y5  1  0.906527  0.711980  0.975097  1
  Y  Y6  1  0.024903  0.093473  0.288020  1
  B  B7  1  0.000000  0.000000  0.000000  1
  I  I8  1  0.075265  0.225647  0.683222  1
  I  I9  1  0.376750  0.145924  0.454673  1
  I  I10  1  0.623250  0.854076  0.545327  1
  I  I11  1  0.225647  0.683222  0.075265  1
  I  I12  1  0.774353  0.316778  0.924735  1
  I  I13  1  0.683222  0.075265  0.225647  1
  I  I14  1  0.545327  0.623250  0.854076  1
  I  I15  1  0.854076  0.545327  0.623250  1
  I  I16  1  0.924735  0.774353  0.316778  1
  I  I17  1  0.316778  0.924735  0.774353  1
  I  I18  1  0.454673  0.376750  0.145924  1
  I  I19  1  0.145924  0.454673  0.376750  1
