# generated using pymatgen
data_Pr3Mg2CdSi2Ag
_symmetry_space_group_name_H-M   'P 1'
_cell_length_a   7.45958352
_cell_length_b   7.45958449
_cell_length_c   4.48222300
_cell_angle_alpha   90.00000000
_cell_angle_beta   90.00000000
_cell_angle_gamma   119.67764460
_symmetry_Int_Tables_number   1
_chemical_formula_structural   Pr3Mg2CdSi2Ag
_chemical_formula_sum   'Pr3 Mg2 Cd1 Si2 Ag1'
_cell_volume   216.69798291
_cell_formula_units_Z   1
loop_
 _symmetry_equiv_pos_site_id
 _symmetry_equiv_pos_as_xyz
  1  'x, y, z'
loop_
 _atom_site_type_symbol
 _atom_site_label
 _atom_site_symmetry_multiplicity
 _atom_site_fract_x
 _atom_site_fract_y
 _atom_site_fract_z
 _atom_site_occupancy
  Pr  Pr0  1  0.423130  0.423130  0.500000  1
  Pr  Pr1  1  0.579736  0.998494  0.500000  1
  Pr  Pr2  1  0.998494  0.579736  0.500000  1
  Mg  Mg3  1  0.244186  0.998615  0.000000  1
  Mg  Mg4  1  0.998615  0.244186  0.000000  1
  Cd  Cd5  1  0.751000  0.751000  0.000000  1
  Si  Si6  1  0.666873  0.331151  0.000000  1
  Si  Si7  1  0.331151  0.666873  0.000000  1
  Ag  Ag8  1  0.006816  0.006816  0.500000  1
