# generated using pymatgen
data_Dy5Sc2Si12Ir17
_symmetry_space_group_name_H-M   'P 1'
_cell_length_a   12.96879700
_cell_length_b   12.96107683
_cell_length_c   4.00610500
_cell_angle_alpha   90.00000000
_cell_angle_beta   90.00000000
_cell_angle_gamma   120.01970821
_symmetry_Int_Tables_number   1
_chemical_formula_structural   Dy5Sc2Si12Ir17
_chemical_formula_sum   'Dy5 Sc2 Si12 Ir17'
_cell_volume   583.05222215
_cell_formula_units_Z   1
loop_
 _symmetry_equiv_pos_site_id
 _symmetry_equiv_pos_as_xyz
  1  'x, y, z'
loop_
 _atom_site_type_symbol
 _atom_site_label
 _atom_site_symmetry_multiplicity
 _atom_site_fract_x
 _atom_site_fract_y
 _atom_site_fract_z
 _atom_site_occupancy
  Dy  Dy0  1  0.331662  0.667709  0.500000  1
  Dy  Dy1  1  0.663953  0.332291  0.500000  1
  Dy  Dy2  1  0.004791  0.817195  0.000000  1
  Dy  Dy3  1  0.187596  0.182805  0.000000  1
  Dy  Dy4  1  0.814665  0.000000  0.000000  1
  Sc  Sc5  1  0.998825  0.436766  0.500000  1
  Sc  Sc6  1  0.562058  0.563234  0.500000  1
  Si  Si7  1  0.003820  0.641795  0.500000  1
  Si  Si8  1  0.362026  0.358205  0.500000  1
  Si  Si9  1  0.625934  0.000000  0.500000  1
  Si  Si10  1  0.516797  0.692753  0.000000  1
  Si  Si11  1  0.311446  0.832549  0.000000  1
  Si  Si12  1  0.177224  0.480354  0.000000  1
  Si  Si13  1  0.478897  0.167451  0.000000  1
  Si  Si14  1  0.696869  0.519646  0.000000  1
  Si  Si15  1  0.824043  0.307247  0.000000  1
  Si  Si16  1  0.997636  0.181555  0.500000  1
  Si  Si17  1  0.816081  0.818445  0.500000  1
  Si  Si18  1  0.179237  0.000000  0.500000  1
  Ir  Ir19  1  0.511477  0.876328  0.000000  1
  Ir  Ir20  1  0.132063  0.639055  0.000000  1
  Ir  Ir21  1  0.365620  0.485975  0.000000  1
  Ir  Ir22  1  0.493009  0.360945  0.000000  1
  Ir  Ir23  1  0.879646  0.514025  0.000000  1
  Ir  Ir24  1  0.635151  0.123672  0.000000  1
  Ir  Ir25  1  0.443738  0.000000  0.500000  1
  Ir  Ir26  1  0.997366  0.277072  0.000000  1
  Ir  Ir27  1  0.720294  0.722928  0.000000  1
  Ir  Ir28  1  0.281460  0.000000  0.000000  1
  Ir  Ir29  1  0.621673  0.808440  0.500000  1
  Ir  Ir30  1  0.194293  0.821703  0.500000  1
  Ir  Ir31  1  0.180132  0.371274  0.500000  1
  Ir  Ir32  1  0.372590  0.178297  0.500000  1
  Ir  Ir33  1  0.808858  0.628726  0.500000  1
  Ir  Ir34  1  0.813232  0.191560  0.500000  1
  Ir  Ir35  1  0.995835  0.000000  0.500000  1
