# generated using pymatgen
data_VGaBiO5
_symmetry_space_group_name_H-M   'P 1'
_cell_length_a   5.93088000
_cell_length_b   7.64909300
_cell_length_c   8.61993700
_cell_angle_alpha   90.00000000
_cell_angle_beta   90.00000000
_cell_angle_gamma   90.00000000
_symmetry_Int_Tables_number   1
_chemical_formula_structural   VGaBiO5
_chemical_formula_sum   'V4 Ga4 Bi4 O20'
_cell_volume   391.05079215
_cell_formula_units_Z   4
loop_
 _symmetry_equiv_pos_site_id
 _symmetry_equiv_pos_as_xyz
  1  'x, y, z'
loop_
 _atom_site_type_symbol
 _atom_site_label
 _atom_site_symmetry_multiplicity
 _atom_site_fract_x
 _atom_site_fract_y
 _atom_site_fract_z
 _atom_site_occupancy
  V  V0  1  0.244323  0.000000  0.500000  1
  V  V1  1  0.755677  0.000000  0.500000  1
  V  V2  1  0.755677  0.500000  0.000000  1
  V  V3  1  0.244323  0.500000  0.000000  1
  Ga  Ga4  1  0.000000  0.115388  0.142880  1
  Ga  Ga5  1  0.000000  0.884612  0.857120  1
  Ga  Ga6  1  0.000000  0.384612  0.642880  1
  Ga  Ga7  1  0.000000  0.615388  0.357120  1
  Bi  Bi8  1  0.500000  0.348622  0.340073  1
  Bi  Bi9  1  0.500000  0.651378  0.659927  1
  Bi  Bi10  1  0.500000  0.151378  0.840073  1
  Bi  Bi11  1  0.500000  0.848622  0.159927  1
  O  O12  1  0.000000  0.350528  0.078358  1
  O  O13  1  0.000000  0.649472  0.921642  1
  O  O14  1  0.000000  0.149472  0.578358  1
  O  O15  1  0.000000  0.850528  0.421642  1
  O  O16  1  0.216453  0.000000  0.000000  1
  O  O17  1  0.783547  0.000000  0.000000  1
  O  O18  1  0.783547  0.500000  0.500000  1
  O  O19  1  0.216453  0.500000  0.500000  1
  O  O20  1  0.244088  0.110215  0.300221  1
  O  O21  1  0.755912  0.889785  0.699779  1
  O  O22  1  0.244088  0.889785  0.699779  1
  O  O23  1  0.755912  0.389785  0.800221  1
  O  O24  1  0.755912  0.110215  0.300221  1
  O  O25  1  0.244088  0.610215  0.199779  1
  O  O26  1  0.755912  0.610215  0.199779  1
  O  O27  1  0.244088  0.389785  0.800221  1
  O  O28  1  0.500000  0.339281  0.053403  1
  O  O29  1  0.500000  0.660719  0.946597  1
  O  O30  1  0.500000  0.160719  0.553403  1
  O  O31  1  0.500000  0.839281  0.446597  1
