# generated using pymatgen
data_Er6GaNiRh
_symmetry_space_group_name_H-M   'P 1'
_cell_length_a   8.27436883
_cell_length_b   8.27436981
_cell_length_c   8.27436983
_cell_angle_alpha   112.69132892
_cell_angle_beta   109.59840719
_cell_angle_gamma   106.18908352
_symmetry_Int_Tables_number   1
_chemical_formula_structural   Er6GaNiRh
_chemical_formula_sum   'Er12 Ga2 Ni2 Rh2'
_cell_volume   434.69414497
_cell_formula_units_Z   2
loop_
 _symmetry_equiv_pos_site_id
 _symmetry_equiv_pos_as_xyz
  1  'x, y, z'
loop_
 _atom_site_type_symbol
 _atom_site_label
 _atom_site_symmetry_multiplicity
 _atom_site_fract_x
 _atom_site_fract_y
 _atom_site_fract_z
 _atom_site_occupancy
  Er  Er0  1  0.048201  0.741508  0.306693  1
  Er  Er1  1  0.951799  0.258492  0.693307  1
  Er  Er2  1  0.565185  0.258492  0.306693  1
  Er  Er3  1  0.434815  0.741508  0.693307  1
  Er  Er4  1  0.673996  0.865823  0.191826  1
  Er  Er5  1  0.326004  0.517829  0.191826  1
  Er  Er6  1  0.326004  0.134177  0.808174  1
  Er  Er7  1  0.673996  0.482171  0.808174  1
  Er  Er8  1  0.178549  0.218431  0.396982  1
  Er  Er9  1  0.821451  0.218431  0.039882  1
  Er  Er10  1  0.178549  0.781569  0.960118  1
  Er  Er11  1  0.821451  0.781569  0.603018  1
  Ga  Ga12  1  0.000000  0.500000  0.500000  1
  Ga  Ga13  1  0.500000  0.000000  0.500000  1
  Ni  Ni14  1  0.879644  0.879644  0.000000  1
  Ni  Ni15  1  0.120356  0.120356  0.000000  1
  Rh  Rh16  1  0.662163  0.500000  0.162163  1
  Rh  Rh17  1  0.337837  0.500000  0.837837  1
