# generated using pymatgen
data_Hf7Zr3ZnGa(SnBi2)2
_symmetry_space_group_name_H-M   'P 1'
_cell_length_a   8.75968700
_cell_length_b   8.75968793
_cell_length_c   5.87401400
_cell_angle_alpha   90.00000000
_cell_angle_beta   90.00000000
_cell_angle_gamma   119.88119150
_symmetry_Int_Tables_number   1
_chemical_formula_structural   Hf7Zr3ZnGa(SnBi2)2
_chemical_formula_sum   'Hf7 Zr3 Zn1 Ga1 Sn2 Bi4'
_cell_volume   390.80626924
_cell_formula_units_Z   1
loop_
 _symmetry_equiv_pos_site_id
 _symmetry_equiv_pos_as_xyz
  1  'x, y, z'
loop_
 _atom_site_type_symbol
 _atom_site_label
 _atom_site_symmetry_multiplicity
 _atom_site_fract_x
 _atom_site_fract_y
 _atom_site_fract_z
 _atom_site_occupancy
  Hf  Hf0  1  0.667117  0.330154  0.004392  1
  Hf  Hf1  1  0.330154  0.667117  0.004392  1
  Hf  Hf2  1  0.330201  0.667101  0.495808  1
  Hf  Hf3  1  0.667101  0.330201  0.495808  1
  Hf  Hf4  1  0.268066  0.268066  0.250642  1
  Hf  Hf5  1  0.731684  0.007785  0.250506  1
  Hf  Hf6  1  0.007785  0.731684  0.250506  1
  Zr  Zr7  1  0.738195  0.738195  0.750079  1
  Zr  Zr8  1  0.261630  0.998852  0.749598  1
  Zr  Zr9  1  0.998852  0.261630  0.749598  1
  Zn  Zn10  1  0.999550  0.999550  0.486409  1
  Ga  Ga11  1  0.999535  0.999535  0.011752  1
  Sn  Sn12  1  0.385515  0.001335  0.250393  1
  Sn  Sn13  1  0.001335  0.385515  0.250393  1
  Bi  Bi14  1  0.389819  0.389819  0.749925  1
  Bi  Bi15  1  0.607918  0.998150  0.749578  1
  Bi  Bi16  1  0.998150  0.607918  0.749578  1
  Bi  Bi17  1  0.617394  0.617394  0.250643  1
