# generated using pymatgen
data_Mn6Nb4SiAs
_symmetry_space_group_name_H-M   'P 1'
_cell_length_a   4.90080200
_cell_length_b   4.90080111
_cell_length_c   7.92959400
_cell_angle_alpha   90.00000000
_cell_angle_beta   90.00000000
_cell_angle_gamma   120.00000603
_symmetry_Int_Tables_number   1
_chemical_formula_structural   Mn6Nb4SiAs
_chemical_formula_sum   'Mn6 Nb4 Si1 As1'
_cell_volume   164.93612663
_cell_formula_units_Z   1
loop_
 _symmetry_equiv_pos_site_id
 _symmetry_equiv_pos_as_xyz
  1  'x, y, z'
loop_
 _atom_site_type_symbol
 _atom_site_label
 _atom_site_symmetry_multiplicity
 _atom_site_fract_x
 _atom_site_fract_y
 _atom_site_fract_z
 _atom_site_occupancy
  Mn  Mn0  1  0.827592  0.172408  0.247280  1
  Mn  Mn1  1  0.827592  0.655185  0.247280  1
  Mn  Mn2  1  0.344815  0.172408  0.247280  1
  Mn  Mn3  1  0.172408  0.827592  0.752720  1
  Mn  Mn4  1  0.172408  0.344815  0.752720  1
  Mn  Mn5  1  0.655185  0.827592  0.752720  1
  Nb  Nb6  1  0.333333  0.666667  0.434100  1
  Nb  Nb7  1  0.666667  0.333333  0.565900  1
  Nb  Nb8  1  0.666667  0.333333  0.938494  1
  Nb  Nb9  1  0.333333  0.666667  0.061506  1
  Si  Si10  1  0.000000  0.000000  0.000000  1
  As  As11  1  0.000000  0.000000  0.500000  1
