# generated using pymatgen
data_FeCoP2
_symmetry_space_group_name_H-M   'P 1'
_cell_length_a   3.22918200
_cell_length_b   5.03849800
_cell_length_c   5.61153600
_cell_angle_alpha   90.00000000
_cell_angle_beta   90.00000000
_cell_angle_gamma   90.00000000
_symmetry_Int_Tables_number   1
_chemical_formula_structural   FeCoP2
_chemical_formula_sum   'Fe2 Co2 P4'
_cell_volume   91.30096481
_cell_formula_units_Z   2
loop_
 _symmetry_equiv_pos_site_id
 _symmetry_equiv_pos_as_xyz
  1  'x, y, z'
loop_
 _atom_site_type_symbol
 _atom_site_label
 _atom_site_symmetry_multiplicity
 _atom_site_fract_x
 _atom_site_fract_y
 _atom_site_fract_z
 _atom_site_occupancy
  Fe  Fe0  1  0.500000  0.498112  0.051046  1
  Fe  Fe1  1  0.500000  0.998112  0.948954  1
  Co  Co2  1  0.000000  0.498553  0.452851  1
  Co  Co3  1  0.000000  0.998553  0.547149  1
  P  P4  1  0.500000  0.311214  0.675945  1
  P  P5  1  0.500000  0.811214  0.324055  1
  P  P6  1  0.000000  0.692121  0.832544  1
  P  P7  1  0.000000  0.192121  0.167456  1
