# generated using pymatgen
data_YNp5F18
_symmetry_space_group_name_H-M   'P 1'
_cell_length_a   7.13660482
_cell_length_b   7.11033138
_cell_length_c   7.27720603
_cell_angle_alpha   89.29958173
_cell_angle_beta   89.94507497
_cell_angle_gamma   119.87188514
_symmetry_Int_Tables_number   1
_chemical_formula_structural   YNp5F18
_chemical_formula_sum   'Y1 Np5 F18'
_cell_volume   320.17632274
_cell_formula_units_Z   1
loop_
 _symmetry_equiv_pos_site_id
 _symmetry_equiv_pos_as_xyz
  1  'x, y, z'
loop_
 _atom_site_type_symbol
 _atom_site_label
 _atom_site_symmetry_multiplicity
 _atom_site_fract_x
 _atom_site_fract_y
 _atom_site_fract_z
 _atom_site_occupancy
  Y  Y0  1  0.350935  0.000802  0.250200  1
  Np  Np1  1  0.653654  0.999201  0.749912  1
  Np  Np2  1  0.343836  0.340223  0.751742  1
  Np  Np3  1  0.002676  0.658569  0.748361  1
  Np  Np4  1  0.657683  0.657103  0.249604  1
  Np  Np5  1  0.001367  0.343807  0.250271  1
  F  F6  1  0.308369  0.941608  0.927426  1
  F  F7  1  0.623189  0.686514  0.920910  1
  F  F8  1  0.065495  0.373301  0.921136  1
  F  F9  1  0.311515  0.381781  0.423570  1
  F  F10  1  0.069717  0.698272  0.413591  1
  F  F11  1  0.625691  0.938975  0.418406  1
  F  F12  1  0.687014  0.060609  0.081431  1
  F  F13  1  0.371033  0.301823  0.087001  1
  F  F14  1  0.929508  0.618103  0.076556  1
  F  F15  1  0.692328  0.627552  0.578824  1
  F  F16  1  0.935544  0.312751  0.578933  1
  F  F17  1  0.367408  0.058611  0.572109  1
  F  F18  1  0.667010  0.332799  0.819295  1
  F  F19  1  0.655962  0.321985  0.317886  1
  F  F20  1  0.334361  0.678349  0.182120  1
  F  F21  1  0.334082  0.667427  0.680969  1
  F  F22  1  0.997537  0.999847  0.749906  1
  F  F23  1  0.014085  0.999989  0.249843  1
