# generated using pymatgen
data_Gd2B10Rh
_symmetry_space_group_name_H-M   'P 1'
_cell_length_a   4.17987800
_cell_length_b   5.69669000
_cell_length_c   11.36834500
_cell_angle_alpha   90.00000000
_cell_angle_beta   90.00000000
_cell_angle_gamma   90.00000000
_symmetry_Int_Tables_number   1
_chemical_formula_structural   Gd2B10Rh
_chemical_formula_sum   'Gd4 B20 Rh2'
_cell_volume   270.69699687
_cell_formula_units_Z   2
loop_
 _symmetry_equiv_pos_site_id
 _symmetry_equiv_pos_as_xyz
  1  'x, y, z'
loop_
 _atom_site_type_symbol
 _atom_site_label
 _atom_site_symmetry_multiplicity
 _atom_site_fract_x
 _atom_site_fract_y
 _atom_site_fract_z
 _atom_site_occupancy
  Gd  Gd0  1  0.500000  0.201572  0.363966  1
  Gd  Gd1  1  0.500000  0.798428  0.636034  1
  Gd  Gd2  1  0.500000  0.298428  0.863966  1
  Gd  Gd3  1  0.500000  0.701572  0.136034  1
  B  B4  1  0.000000  0.381661  0.042766  1
  B  B5  1  0.000000  0.618339  0.957234  1
  B  B6  1  0.000000  0.118339  0.542766  1
  B  B7  1  0.000000  0.881661  0.457234  1
  B  B8  1  0.000000  0.363112  0.197186  1
  B  B9  1  0.000000  0.636888  0.802814  1
  B  B10  1  0.000000  0.136888  0.697186  1
  B  B11  1  0.000000  0.863112  0.302814  1
  B  B12  1  0.000000  0.055765  0.192876  1
  B  B13  1  0.000000  0.944235  0.807124  1
  B  B14  1  0.000000  0.444235  0.692876  1
  B  B15  1  0.000000  0.555765  0.307124  1
  B  B16  1  0.301224  0.218934  0.118777  1
  B  B17  1  0.698776  0.781066  0.881223  1
  B  B18  1  0.301224  0.781066  0.881223  1
  B  B19  1  0.698776  0.281066  0.618777  1
  B  B20  1  0.698776  0.218934  0.118777  1
  B  B21  1  0.301224  0.718934  0.381223  1
  B  B22  1  0.698776  0.718934  0.381223  1
  B  B23  1  0.301224  0.281066  0.618777  1
  Rh  Rh24  1  0.000000  0.000000  0.000000  1
  Rh  Rh25  1  0.000000  0.500000  0.500000  1
