# generated using pymatgen
data_Tb2ErTm(ReB6)2
_symmetry_space_group_name_H-M   'P 1'
_cell_length_a   3.67190000
_cell_length_b   9.15436700
_cell_length_c   11.55279901
_cell_angle_alpha   90.00348073
_cell_angle_beta   90.00000000
_cell_angle_gamma   90.00000000
_symmetry_Int_Tables_number   1
_chemical_formula_structural   Tb2ErTm(ReB6)2
_chemical_formula_sum   'Tb4 Er2 Tm2 Re4 B24'
_cell_volume   388.33486317
_cell_formula_units_Z   2
loop_
 _symmetry_equiv_pos_site_id
 _symmetry_equiv_pos_as_xyz
  1  'x, y, z'
loop_
 _atom_site_type_symbol
 _atom_site_label
 _atom_site_symmetry_multiplicity
 _atom_site_fract_x
 _atom_site_fract_y
 _atom_site_fract_z
 _atom_site_occupancy
  Tb  Tb0  1  0.000000  0.323384  0.413953  1
  Tb  Tb1  1  0.000000  0.676616  0.586047  1
  Tb  Tb2  1  0.000000  0.823266  0.085996  1
  Tb  Tb3  1  0.000000  0.176734  0.914004  1
  Er  Er4  1  0.000000  0.943326  0.370070  1
  Er  Er5  1  0.000000  0.056674  0.629930  1
  Tm  Tm6  1  0.000000  0.443358  0.129887  1
  Tm  Tm7  1  0.000000  0.556642  0.870113  1
  Re  Re8  1  0.000000  0.638942  0.320051  1
  Re  Re9  1  0.000000  0.361058  0.679949  1
  Re  Re10  1  0.000000  0.139407  0.179667  1
  Re  Re11  1  0.000000  0.860593  0.820333  1
  B  B12  1  0.500000  0.553720  0.432390  1
  B  B13  1  0.500000  0.446280  0.567610  1
  B  B14  1  0.500000  0.053766  0.067572  1
  B  B15  1  0.500000  0.946234  0.932428  1
  B  B16  1  0.500000  0.749973  0.418166  1
  B  B17  1  0.500000  0.250027  0.581834  1
  B  B18  1  0.500000  0.250331  0.081827  1
  B  B19  1  0.500000  0.749669  0.918173  1
  B  B20  1  0.500000  0.792416  0.265573  1
  B  B21  1  0.500000  0.207584  0.734427  1
  B  B22  1  0.500000  0.292747  0.234338  1
  B  B23  1  0.500000  0.707253  0.765662  1
  B  B24  1  0.500000  0.630353  0.185305  1
  B  B25  1  0.500000  0.369647  0.814695  1
  B  B26  1  0.500000  0.130662  0.314507  1
  B  B27  1  0.500000  0.869338  0.685493  1
  B  B28  1  0.500000  0.982451  0.212429  1
  B  B29  1  0.500000  0.017549  0.787571  1
  B  B30  1  0.500000  0.482275  0.287378  1
  B  B31  1  0.500000  0.517725  0.712622  1
  B  B32  1  0.500000  0.598398  0.027386  1
  B  B33  1  0.500000  0.401602  0.972614  1
  B  B34  1  0.500000  0.098779  0.472516  1
  B  B35  1  0.500000  0.901221  0.527484  1
