# generated using pymatgen
data_KSnSb11Pd4
_symmetry_space_group_name_H-M   'P 1'
_cell_length_a   8.33147895
_cell_length_b   8.33148075
_cell_length_c   8.33679754
_cell_angle_alpha   109.31581523
_cell_angle_beta   109.31817693
_cell_angle_gamma   109.75441348
_symmetry_Int_Tables_number   1
_chemical_formula_structural   KSnSb11Pd4
_chemical_formula_sum   'K1 Sn1 Sb11 Pd4'
_cell_volume   445.60557730
_cell_formula_units_Z   1
loop_
 _symmetry_equiv_pos_site_id
 _symmetry_equiv_pos_as_xyz
  1  'x, y, z'
loop_
 _atom_site_type_symbol
 _atom_site_label
 _atom_site_symmetry_multiplicity
 _atom_site_fract_x
 _atom_site_fract_y
 _atom_site_fract_z
 _atom_site_occupancy
  K  K0  1  0.999814  0.000246  0.000061  1
  Sn  Sn1  1  0.842859  0.652691  0.495549  1
  Sb  Sb2  1  0.155321  0.348906  0.504227  1
  Sb  Sb3  1  0.156298  0.651334  0.807634  1
  Sb  Sb4  1  0.844270  0.347801  0.192069  1
  Sb  Sb5  1  0.652516  0.495199  0.842373  1
  Sb  Sb6  1  0.349633  0.505833  0.158464  1
  Sb  Sb7  1  0.652632  0.808833  0.158464  1
  Sb  Sb8  1  0.347173  0.189855  0.842373  1
  Sb  Sb9  1  0.495643  0.843038  0.651650  1
  Sb  Sb10  1  0.504397  0.157240  0.348285  1
  Sb  Sb11  1  0.191044  0.843888  0.348285  1
  Sb  Sb12  1  0.808614  0.156007  0.651650  1
  Pd  Pd13  1  0.498477  0.499445  0.499589  1
  Pd  Pd14  1  0.500742  0.999444  0.999868  1
  Pd  Pd15  1  0.000423  0.499126  0.999868  1
  Pd  Pd16  1  0.000144  0.001112  0.499589  1
