# generated using pymatgen
data_LiDyTm2Cd3Ga2
_symmetry_space_group_name_H-M   'P 1'
_cell_length_a   7.34838803
_cell_length_b   7.33267686
_cell_length_c   4.23101800
_cell_angle_alpha   90.00000000
_cell_angle_beta   90.00000000
_cell_angle_gamma   119.92930438
_symmetry_Int_Tables_number   1
_chemical_formula_structural   LiDyTm2Cd3Ga2
_chemical_formula_sum   'Li1 Dy1 Tm2 Cd3 Ga2'
_cell_volume   197.57822196
_cell_formula_units_Z   1
loop_
 _symmetry_equiv_pos_site_id
 _symmetry_equiv_pos_as_xyz
  1  'x, y, z'
loop_
 _atom_site_type_symbol
 _atom_site_label
 _atom_site_symmetry_multiplicity
 _atom_site_fract_x
 _atom_site_fract_y
 _atom_site_fract_z
 _atom_site_occupancy
  Li  Li0  1  0.000000  0.001105  0.500000  1
  Dy  Dy1  1  0.000000  0.576314  0.500000  1
  Tm  Tm2  1  0.424037  0.423681  0.500000  1
  Tm  Tm3  1  0.575963  0.999644  0.500000  1
  Cd  Cd4  1  0.754529  0.755175  0.000000  1
  Cd  Cd5  1  0.245471  0.000646  0.000000  1
  Cd  Cd6  1  0.000000  0.244089  0.000000  1
  Ga  Ga7  1  0.665282  0.332313  0.000000  1
  Ga  Ga8  1  0.334718  0.667032  0.000000  1
