# generated using pymatgen
data_Th3Al3Zn2Rh
_symmetry_space_group_name_H-M   'P 1'
_cell_length_a   7.13759100
_cell_length_b   7.13759151
_cell_length_c   4.41638400
_cell_angle_alpha   90.00000000
_cell_angle_beta   90.00000000
_cell_angle_gamma   119.99999302
_symmetry_Int_Tables_number   1
_chemical_formula_structural   Th3Al3Zn2Rh
_chemical_formula_sum   'Th3 Al3 Zn2 Rh1'
_cell_volume   194.85019168
_cell_formula_units_Z   1
loop_
 _symmetry_equiv_pos_site_id
 _symmetry_equiv_pos_as_xyz
  1  'x, y, z'
loop_
 _atom_site_type_symbol
 _atom_site_label
 _atom_site_symmetry_multiplicity
 _atom_site_fract_x
 _atom_site_fract_y
 _atom_site_fract_z
 _atom_site_occupancy
  Th  Th0  1  0.000000  0.410440  0.500000  1
  Th  Th1  1  0.589560  0.589560  0.500000  1
  Th  Th2  1  0.410440  0.000000  0.500000  1
  Al  Al3  1  0.000000  0.771310  0.000000  1
  Al  Al4  1  0.228690  0.228690  0.000000  1
  Al  Al5  1  0.771310  0.000000  0.000000  1
  Zn  Zn6  1  0.333333  0.666667  0.000000  1
  Zn  Zn7  1  0.666667  0.333333  0.000000  1
  Rh  Rh8  1  0.000000  0.000000  0.500000  1
