# generated using pymatgen
data_Tb2DyZnIn3CuPt
_symmetry_space_group_name_H-M   'P 1'
_cell_length_a   7.65639368
_cell_length_b   7.66976484
_cell_length_c   3.88847600
_cell_angle_alpha   90.00000000
_cell_angle_beta   90.00000000
_cell_angle_gamma   119.91219020
_symmetry_Int_Tables_number   1
_chemical_formula_structural   Tb2DyZnIn3CuPt
_chemical_formula_sum   'Tb2 Dy1 Zn1 In3 Cu1 Pt1'
_cell_volume   197.92468203
_cell_formula_units_Z   1
loop_
 _symmetry_equiv_pos_site_id
 _symmetry_equiv_pos_as_xyz
  1  'x, y, z'
loop_
 _atom_site_type_symbol
 _atom_site_label
 _atom_site_symmetry_multiplicity
 _atom_site_fract_x
 _atom_site_fract_y
 _atom_site_fract_z
 _atom_site_occupancy
  Tb  Tb0  1  0.398472  0.413706  0.500000  1
  Tb  Tb1  1  0.585846  0.984703  0.500000  1
  Dy  Dy2  1  0.016440  0.602351  0.500000  1
  Zn  Zn3  1  0.667561  0.333990  0.000000  1
  In  In4  1  0.752167  0.744508  0.000000  1
  In  In5  1  0.993461  0.248442  0.000000  1
  In  In6  1  0.254650  0.006851  0.000000  1
  Cu  Cu7  1  0.999613  0.999161  0.500000  1
  Pt  Pt8  1  0.331789  0.666290  0.000000  1
