# generated using pymatgen
data_LiY3In3AgRh
_symmetry_space_group_name_H-M   'P 1'
_cell_length_a   7.97278800
_cell_length_b   7.97278718
_cell_length_c   3.70386900
_cell_angle_alpha   90.00000000
_cell_angle_beta   90.00000000
_cell_angle_gamma   120.00000340
_symmetry_Int_Tables_number   1
_chemical_formula_structural   LiY3In3AgRh
_chemical_formula_sum   'Li1 Y3 In3 Ag1 Rh1'
_cell_volume   203.89502182
_cell_formula_units_Z   1
loop_
 _symmetry_equiv_pos_site_id
 _symmetry_equiv_pos_as_xyz
  1  'x, y, z'
loop_
 _atom_site_type_symbol
 _atom_site_label
 _atom_site_symmetry_multiplicity
 _atom_site_fract_x
 _atom_site_fract_y
 _atom_site_fract_z
 _atom_site_occupancy
  Li  Li0  1  0.000000  0.000000  0.500000  1
  Y  Y1  1  0.972532  0.576489  0.500000  1
  Y  Y2  1  0.423511  0.396044  0.500000  1
  Y  Y3  1  0.603956  0.027468  0.500000  1
  In  In4  1  0.004699  0.263009  0.000000  1
  In  In5  1  0.258310  0.995301  0.000000  1
  In  In6  1  0.736991  0.741690  0.000000  1
  Ag  Ag7  1  0.333333  0.666667  0.000000  1
  Rh  Rh8  1  0.666667  0.333333  0.000000  1
