# generated using pymatgen
data_Tb3Dy(Sc4Bi3)4
_symmetry_space_group_name_H-M   'P 1'
_cell_length_a   7.89620000
_cell_length_b   9.05776000
_cell_length_c   11.57349300
_cell_angle_alpha   90.00000000
_cell_angle_beta   90.00201852
_cell_angle_gamma   90.00000000
_symmetry_Int_Tables_number   1
_chemical_formula_structural   Tb3Dy(Sc4Bi3)4
_chemical_formula_sum   'Tb3 Dy1 Sc16 Bi12'
_cell_volume   827.75802949
_cell_formula_units_Z   1
loop_
 _symmetry_equiv_pos_site_id
 _symmetry_equiv_pos_as_xyz
  1  'x, y, z'
loop_
 _atom_site_type_symbol
 _atom_site_label
 _atom_site_symmetry_multiplicity
 _atom_site_fract_x
 _atom_site_fract_y
 _atom_site_fract_z
 _atom_site_occupancy
  Tb  Tb0  1  0.815742  0.250000  0.281008  1
  Tb  Tb1  1  0.684233  0.750000  0.781010  1
  Tb  Tb2  1  0.184228  0.750000  0.718995  1
  Dy  Dy3  1  0.315681  0.250000  0.218860  1
  Sc  Sc4  1  0.348425  0.750000  0.220588  1
  Sc  Sc5  1  0.848431  0.750000  0.279353  1
  Sc  Sc6  1  0.651550  0.250000  0.779399  1
  Sc  Sc7  1  0.151560  0.250000  0.720648  1
  Sc  Sc8  1  0.693379  0.567395  0.062346  1
  Sc  Sc9  1  0.193341  0.932644  0.437621  1
  Sc  Sc10  1  0.306668  0.067333  0.937671  1
  Sc  Sc11  1  0.806707  0.432713  0.562371  1
  Sc  Sc12  1  0.306668  0.432667  0.937671  1
  Sc  Sc13  1  0.806707  0.067287  0.562371  1
  Sc  Sc14  1  0.693379  0.932605  0.062346  1
  Sc  Sc15  1  0.193341  0.567356  0.437621  1
  Sc  Sc16  1  0.481425  0.250000  0.488624  1
  Sc  Sc17  1  0.981560  0.250000  0.011385  1
  Sc  Sc18  1  0.518467  0.750000  0.511352  1
  Sc  Sc19  1  0.018534  0.750000  0.988645  1
  Bi  Bi20  1  0.402561  0.750000  0.967478  1
  Bi  Bi21  1  0.902538  0.750000  0.532531  1
  Bi  Bi22  1  0.597172  0.250000  0.032738  1
  Bi  Bi23  1  0.097555  0.250000  0.467365  1
  Bi  Bi24  1  0.563676  0.989409  0.328643  1
  Bi  Bi25  1  0.064048  0.510522  0.171345  1
  Bi  Bi26  1  0.436185  0.489256  0.671308  1
  Bi  Bi27  1  0.936165  0.010745  0.828705  1
  Bi  Bi28  1  0.436185  0.010744  0.671308  1
  Bi  Bi29  1  0.936165  0.489255  0.828705  1
  Bi  Bi30  1  0.563676  0.510591  0.328643  1
  Bi  Bi31  1  0.064048  0.989478  0.171345  1
