# generated using pymatgen
data_La2Sm2IrI5
_symmetry_space_group_name_H-M   'P 1'
_cell_length_a   9.85440407
_cell_length_b   9.85440268
_cell_length_c   9.30217000
_cell_angle_alpha   76.67515535
_cell_angle_beta   76.67515727
_cell_angle_gamma   25.32822981
_symmetry_Int_Tables_number   1
_chemical_formula_structural   La2Sm2IrI5
_chemical_formula_sum   'La2 Sm2 Ir1 I5'
_cell_volume   375.50975701
_cell_formula_units_Z   1
loop_
 _symmetry_equiv_pos_site_id
 _symmetry_equiv_pos_as_xyz
  1  'x, y, z'
loop_
 _atom_site_type_symbol
 _atom_site_label
 _atom_site_symmetry_multiplicity
 _atom_site_fract_x
 _atom_site_fract_y
 _atom_site_fract_z
 _atom_site_occupancy
  La  La0  1  0.859081  0.859081  0.073147  1
  La  La1  1  0.140919  0.140919  0.926853  1
  Sm  Sm2  1  0.500179  0.500179  0.213816  1
  Sm  Sm3  1  0.499821  0.499821  0.786184  1
  Ir  Ir4  1  0.000000  0.000000  0.000000  1
  I  I5  1  0.672297  0.672297  0.177017  1
  I  I6  1  0.327703  0.327703  0.822983  1
  I  I7  1  0.667302  0.667302  0.653277  1
  I  I8  1  0.332698  0.332698  0.346723  1
  I  I9  1  0.000000  0.000000  0.500000  1
