# generated using pymatgen
data_LuU(Tl2Se3)2
_symmetry_space_group_name_H-M   'P 1'
_cell_length_a   7.47316078
_cell_length_b   7.47316126
_cell_length_c   8.08433300
_cell_angle_alpha   80.95526991
_cell_angle_beta   80.95527710
_cell_angle_gamma   120.00117889
_symmetry_Int_Tables_number   1
_chemical_formula_structural   LuU(Tl2Se3)2
_chemical_formula_sum   'Lu1 U1 Tl4 Se6'
_cell_volume   371.17184961
_cell_formula_units_Z   1
loop_
 _symmetry_equiv_pos_site_id
 _symmetry_equiv_pos_as_xyz
  1  'x, y, z'
loop_
 _atom_site_type_symbol
 _atom_site_label
 _atom_site_symmetry_multiplicity
 _atom_site_fract_x
 _atom_site_fract_y
 _atom_site_fract_z
 _atom_site_occupancy
  Lu  Lu0  1  0.167154  0.832846  0.000000  1
  U  U1  1  0.832674  0.167326  0.000000  1
  Tl  Tl2  1  0.344334  0.655666  0.500000  1
  Tl  Tl3  1  0.655908  0.344092  0.500000  1
  Tl  Tl4  1  0.000175  0.999825  0.500000  1
  Tl  Tl5  1  0.499926  0.500074  0.000000  1
  Se  Se6  1  0.803417  0.810432  0.201262  1
  Se  Se7  1  0.436111  0.056475  0.208113  1
  Se  Se8  1  0.049020  0.421811  0.208751  1
  Se  Se9  1  0.578189  0.950980  0.791249  1
  Se  Se10  1  0.943525  0.563889  0.791887  1
  Se  Se11  1  0.189568  0.196583  0.798738  1
