# generated using pymatgen
data_ErTmAs4O9
_symmetry_space_group_name_H-M   'P 1'
_cell_length_a   6.68215593
_cell_length_b   7.48858153
_cell_length_c   9.77557852
_cell_angle_alpha   94.76219851
_cell_angle_beta   104.12117774
_cell_angle_gamma   104.75236141
_symmetry_Int_Tables_number   1
_chemical_formula_structural   ErTmAs4O9
_chemical_formula_sum   'Er2 Tm2 As8 O18'
_cell_volume   453.22122646
_cell_formula_units_Z   2
loop_
 _symmetry_equiv_pos_site_id
 _symmetry_equiv_pos_as_xyz
  1  'x, y, z'
loop_
 _atom_site_type_symbol
 _atom_site_label
 _atom_site_symmetry_multiplicity
 _atom_site_fract_x
 _atom_site_fract_y
 _atom_site_fract_z
 _atom_site_occupancy
  Er  Er0  1  0.242322  0.939079  0.614730  1
  Er  Er1  1  0.757678  0.060921  0.385270  1
  Tm  Tm2  1  0.721516  0.528902  0.410322  1
  Tm  Tm3  1  0.278484  0.471098  0.589678  1
  As  As4  1  0.683590  0.773327  0.079655  1
  As  As5  1  0.316410  0.226673  0.920345  1
  As  As6  1  0.169428  0.751658  0.912255  1
  As  As7  1  0.830572  0.248342  0.087745  1
  As  As8  1  0.743033  0.914380  0.709562  1
  As  As9  1  0.256967  0.085620  0.290438  1
  As  As10  1  0.809890  0.351695  0.701622  1
  As  As11  1  0.190110  0.648305  0.298378  1
  O  O12  1  0.723492  0.747616  0.261029  1
  O  O13  1  0.276508  0.252384  0.738971  1
  O  O14  1  0.315524  0.978390  0.867942  1
  O  O15  1  0.684476  0.021610  0.132058  1
  O  O16  1  0.608732  0.326923  0.985216  1
  O  O17  1  0.391268  0.673077  0.014784  1
  O  O18  1  0.125337  0.643746  0.736876  1
  O  O19  1  0.874663  0.356254  0.263124  1
  O  O20  1  0.847953  0.876055  0.558926  1
  O  O21  1  0.152047  0.123945  0.441074  1
  O  O22  1  0.479814  0.766345  0.665570  1
  O  O23  1  0.520186  0.233655  0.334430  1
  O  O24  1  0.373377  0.531826  0.381001  1
  O  O25  1  0.626623  0.468174  0.618999  1
  O  O26  1  0.088590  0.669445  0.454563  1
  O  O27  1  0.911410  0.330555  0.545437  1
  O  O28  1  0.379647  0.899573  0.359005  1
  O  O29  1  0.620353  0.100427  0.640995  1
