# generated using pymatgen
data_Ta5Be3NbP
_symmetry_space_group_name_H-M   'P 1'
_cell_length_a   6.52605342
_cell_length_b   6.52314110
_cell_length_c   3.38441900
_cell_angle_alpha   90.00000000
_cell_angle_beta   90.00000000
_cell_angle_gamma   89.92488336
_symmetry_Int_Tables_number   1
_chemical_formula_structural   Ta5Be3NbP
_chemical_formula_sum   'Ta5 Be3 Nb1 P1'
_cell_volume   144.07583609
_cell_formula_units_Z   1
loop_
 _symmetry_equiv_pos_site_id
 _symmetry_equiv_pos_as_xyz
  1  'x, y, z'
loop_
 _atom_site_type_symbol
 _atom_site_label
 _atom_site_symmetry_multiplicity
 _atom_site_fract_x
 _atom_site_fract_y
 _atom_site_fract_z
 _atom_site_occupancy
  Ta  Ta0  1  0.503115  0.498682  0.000000  1
  Ta  Ta1  1  0.998804  0.002827  0.000000  1
  Ta  Ta2  1  0.678269  0.177884  0.500000  1
  Ta  Ta3  1  0.325823  0.825554  0.500000  1
  Ta  Ta4  1  0.819155  0.677859  0.500000  1
  Be  Be5  1  0.880027  0.380389  0.000000  1
  Be  Be6  1  0.615199  0.885504  0.000000  1
  Be  Be7  1  0.385826  0.114860  0.000000  1
  Nb  Nb8  1  0.177664  0.320142  0.500000  1
  P  P9  1  0.116119  0.616300  0.000000  1
