# generated using pymatgen
data_Li2CoH10
_symmetry_space_group_name_H-M   'P 1'
_cell_length_a   3.24236043
_cell_length_b   3.20827008
_cell_length_c   11.17548690
_cell_angle_alpha   79.90397089
_cell_angle_beta   92.05182278
_cell_angle_gamma   89.76033550
_symmetry_Int_Tables_number   1
_chemical_formula_structural   Li2CoH10
_chemical_formula_sum   'Li2 Co1 H10'
_cell_volume   114.37156711
_cell_formula_units_Z   1
loop_
 _symmetry_equiv_pos_site_id
 _symmetry_equiv_pos_as_xyz
  1  'x, y, z'
loop_
 _atom_site_type_symbol
 _atom_site_label
 _atom_site_symmetry_multiplicity
 _atom_site_fract_x
 _atom_site_fract_y
 _atom_site_fract_z
 _atom_site_occupancy
  Li  Li0  1  0.187346  0.507867  0.215410  1
  Li  Li1  1  0.224709  0.361662  0.455826  1
  Co  Co2  1  0.705207  0.934975  0.335582  1
  H  H3  1  0.710094  0.592906  0.802308  1
  H  H4  1  0.719476  0.851108  0.479680  1
  H  H5  1  0.689766  0.019033  0.191444  1
  H  H6  1  0.706229  0.434841  0.335807  1
  H  H7  1  0.323698  0.503329  0.030554  1
  H  H8  1  0.668817  0.408899  0.851423  1
  H  H9  1  0.059435  0.360808  0.637523  1
  H  H10  1  0.120988  0.619078  0.014187  1
  H  H11  1  0.262777  0.250602  0.657611  1
  H  H12  1  0.205258  0.935101  0.335633  1
