# generated using pymatgen
data_Ca3Y3(Si3Ru)8
_symmetry_space_group_name_H-M   'P 1'
_cell_length_a   10.17175447
_cell_length_b   10.17175506
_cell_length_c   8.16399402
_cell_angle_alpha   90.00293399
_cell_angle_beta   90.00292718
_cell_angle_gamma   132.68092411
_symmetry_Int_Tables_number   1
_chemical_formula_structural   Ca3Y3(Si3Ru)8
_chemical_formula_sum   'Ca3 Y3 Si24 Ru8'
_cell_volume   620.96152283
_cell_formula_units_Z   1
loop_
 _symmetry_equiv_pos_site_id
 _symmetry_equiv_pos_as_xyz
  1  'x, y, z'
loop_
 _atom_site_type_symbol
 _atom_site_label
 _atom_site_symmetry_multiplicity
 _atom_site_fract_x
 _atom_site_fract_y
 _atom_site_fract_z
 _atom_site_occupancy
  Ca  Ca0  1  0.000091  0.999909  0.000000  1
  Ca  Ca1  1  0.001256  0.501123  0.249792  1
  Ca  Ca2  1  0.498877  0.998744  0.750208  1
  Y  Y3  1  0.499931  0.500069  0.500000  1
  Y  Y4  1  0.998192  0.498235  0.750176  1
  Y  Y5  1  0.501765  0.001808  0.249824  1
  Si  Si6  1  0.294955  0.705045  0.000000  1
  Si  Si7  1  0.794222  0.205778  0.500000  1
  Si  Si8  1  0.705581  0.294419  0.000000  1
  Si  Si9  1  0.205304  0.794696  0.500000  1
  Si  Si10  1  0.831876  0.837022  0.332133  1
  Si  Si11  1  0.162978  0.168124  0.667867  1
  Si  Si12  1  0.669955  0.665029  0.834201  1
  Si  Si13  1  0.334971  0.330045  0.165799  1
  Si  Si14  1  0.622914  0.389471  0.228019  1
  Si  Si15  1  0.610529  0.377086  0.771981  1
  Si  Si16  1  0.108872  0.875788  0.729228  1
  Si  Si17  1  0.124212  0.891128  0.270772  1
  Si  Si18  1  0.375265  0.608789  0.771872  1
  Si  Si19  1  0.391211  0.624735  0.228128  1
  Si  Si20  1  0.889535  0.122741  0.270742  1
  Si  Si21  1  0.877259  0.110465  0.729258  1
  Si  Si22  1  0.846055  0.612714  0.005263  1
  Si  Si23  1  0.387286  0.153945  0.994737  1
  Si  Si24  1  0.888810  0.655403  0.506657  1
  Si  Si25  1  0.344597  0.111190  0.493343  1
  Si  Si26  1  0.153869  0.386616  0.992497  1
  Si  Si27  1  0.613384  0.846131  0.007503  1
  Si  Si28  1  0.110597  0.344439  0.496164  1
  Si  Si29  1  0.655561  0.889403  0.503836  1
  Ru  Ru30  1  0.170637  0.829363  0.000000  1
  Ru  Ru31  1  0.668845  0.331155  0.500000  1
  Ru  Ru32  1  0.830182  0.169818  0.000000  1
  Ru  Ru33  1  0.330354  0.669646  0.500000  1
  Ru  Ru34  1  0.624649  0.625436  0.126985  1
  Ru  Ru35  1  0.374564  0.375351  0.873015  1
  Ru  Ru36  1  0.872918  0.872058  0.624889  1
  Ru  Ru37  1  0.127942  0.127082  0.375111  1
