# generated using pymatgen
data_Tb9Ho11(FeBi2)4
_symmetry_space_group_name_H-M   'P 1'
_cell_length_a   7.95794034
_cell_length_b   8.92425600
_cell_length_c   12.37979753
_cell_angle_alpha   90.00000000
_cell_angle_beta   89.96649975
_cell_angle_gamma   90.00000000
_symmetry_Int_Tables_number   1
_chemical_formula_structural   Tb9Ho11(FeBi2)4
_chemical_formula_sum   'Tb9 Ho11 Fe4 Bi8'
_cell_volume   879.19693722
_cell_formula_units_Z   1
loop_
 _symmetry_equiv_pos_site_id
 _symmetry_equiv_pos_as_xyz
  1  'x, y, z'
loop_
 _atom_site_type_symbol
 _atom_site_label
 _atom_site_symmetry_multiplicity
 _atom_site_fract_x
 _atom_site_fract_y
 _atom_site_fract_z
 _atom_site_occupancy
  Tb  Tb0  1  0.347928  0.750000  0.700751  1
  Tb  Tb1  1  0.652313  0.250000  0.299291  1
  Tb  Tb2  1  0.847709  0.250000  0.799464  1
  Tb  Tb3  1  0.152262  0.750000  0.200375  1
  Tb  Tb4  1  0.883968  0.750000  0.812330  1
  Tb  Tb5  1  0.116089  0.250000  0.187705  1
  Tb  Tb6  1  0.383895  0.250000  0.687815  1
  Tb  Tb7  1  0.616006  0.750000  0.312319  1
  Tb  Tb8  1  0.055769  0.750000  0.495140  1
  Ho  Ho9  1  0.674050  0.536689  0.562726  1
  Ho  Ho10  1  0.325899  0.463063  0.437163  1
  Ho  Ho11  1  0.174277  0.463334  0.937234  1
  Ho  Ho12  1  0.325899  0.036937  0.437163  1
  Ho  Ho13  1  0.825732  0.536704  0.062780  1
  Ho  Ho14  1  0.674050  0.963311  0.562726  1
  Ho  Ho15  1  0.825732  0.963296  0.062780  1
  Ho  Ho16  1  0.174277  0.036666  0.937234  1
  Ho  Ho17  1  0.944290  0.250000  0.504892  1
  Ho  Ho18  1  0.555809  0.250000  0.004921  1
  Ho  Ho19  1  0.444060  0.750000  0.995111  1
  Fe  Fe20  1  0.071028  0.750000  0.991104  1
  Fe  Fe21  1  0.929076  0.250000  0.008879  1
  Fe  Fe22  1  0.570955  0.250000  0.508904  1
  Fe  Fe23  1  0.429246  0.750000  0.491122  1
  Bi  Bi24  1  0.570687  0.507218  0.827549  1
  Bi  Bi25  1  0.429331  0.492725  0.172451  1
  Bi  Bi26  1  0.070756  0.492337  0.672875  1
  Bi  Bi27  1  0.429331  0.007275  0.172451  1
  Bi  Bi28  1  0.929066  0.506832  0.327161  1
  Bi  Bi29  1  0.570687  0.992782  0.827549  1
  Bi  Bi30  1  0.929066  0.993168  0.327161  1
  Bi  Bi31  1  0.070756  0.007663  0.672875  1
