# generated using pymatgen
data_Tm2TcB8W
_symmetry_space_group_name_H-M   'P 1'
_cell_length_a   3.59033200
_cell_length_b   5.96899123
_cell_length_c   11.53555520
_cell_angle_alpha   89.88331384
_cell_angle_beta   90.00000000
_cell_angle_gamma   90.00000000
_symmetry_Int_Tables_number   1
_chemical_formula_structural   Tm2TcB8W
_chemical_formula_sum   'Tm4 Tc2 B16 W2'
_cell_volume   247.21405137
_cell_formula_units_Z   2
loop_
 _symmetry_equiv_pos_site_id
 _symmetry_equiv_pos_as_xyz
  1  'x, y, z'
loop_
 _atom_site_type_symbol
 _atom_site_label
 _atom_site_symmetry_multiplicity
 _atom_site_fract_x
 _atom_site_fract_y
 _atom_site_fract_z
 _atom_site_occupancy
  Tm  Tm0  1  0.500000  0.371717  0.151736  1
  Tm  Tm1  1  0.500000  0.628283  0.848264  1
  Tm  Tm2  1  0.500000  0.126736  0.647600  1
  Tm  Tm3  1  0.500000  0.873264  0.352400  1
  Tc  Tc4  1  0.500000  0.365405  0.413393  1
  Tc  Tc5  1  0.500000  0.634595  0.586607  1
  B  B6  1  0.000000  0.115512  0.047985  1
  B  B7  1  0.000000  0.884488  0.952015  1
  B  B8  1  0.000000  0.386323  0.547527  1
  B  B9  1  0.000000  0.613677  0.452473  1
  B  B10  1  0.000000  0.135713  0.469268  1
  B  B11  1  0.000000  0.864287  0.530732  1
  B  B12  1  0.000000  0.368269  0.967433  1
  B  B13  1  0.000000  0.631731  0.032567  1
  B  B14  1  0.000000  0.023965  0.195532  1
  B  B15  1  0.000000  0.976035  0.804468  1
  B  B16  1  0.000000  0.478465  0.691515  1
  B  B17  1  0.000000  0.521535  0.308485  1
  B  B18  1  0.000000  0.213987  0.315861  1
  B  B19  1  0.000000  0.786013  0.684139  1
  B  B20  1  0.000000  0.290892  0.811824  1
  B  B21  1  0.000000  0.709108  0.188176  1
  W  W22  1  0.500000  0.131673  0.913757  1
  W  W23  1  0.500000  0.868327  0.086243  1
