# generated using pymatgen
data_Ho11ErOs4
_symmetry_space_group_name_H-M   'P 1'
_cell_length_a   6.29806075
_cell_length_b   7.36988330
_cell_length_c   9.02088716
_cell_angle_alpha   89.97474729
_cell_angle_beta   90.05209970
_cell_angle_gamma   90.02096036
_symmetry_Int_Tables_number   1
_chemical_formula_structural   Ho11ErOs4
_chemical_formula_sum   'Ho11 Er1 Os4'
_cell_volume   418.71301094
_cell_formula_units_Z   1
loop_
 _symmetry_equiv_pos_site_id
 _symmetry_equiv_pos_as_xyz
  1  'x, y, z'
loop_
 _atom_site_type_symbol
 _atom_site_label
 _atom_site_symmetry_multiplicity
 _atom_site_fract_x
 _atom_site_fract_y
 _atom_site_fract_z
 _atom_site_occupancy
  Ho  Ho0  1  0.332238  0.675640  0.062943  1
  Ho  Ho1  1  0.167543  0.175817  0.436746  1
  Ho  Ho2  1  0.667607  0.324219  0.563022  1
  Ho  Ho3  1  0.832575  0.824600  0.937237  1
  Ho  Ho4  1  0.667684  0.324272  0.937274  1
  Ho  Ho5  1  0.832491  0.824280  0.562957  1
  Ho  Ho6  1  0.332383  0.675713  0.437049  1
  Ho  Ho7  1  0.869712  0.538439  0.249933  1
  Ho  Ho8  1  0.630229  0.038691  0.249811  1
  Ho  Ho9  1  0.130455  0.461346  0.750189  1
  Ho  Ho10  1  0.369523  0.961547  0.750157  1
  Er  Er11  1  0.167547  0.175381  0.062828  1
  Os  Os12  1  0.039711  0.882826  0.249872  1
  Os  Os13  1  0.459946  0.382328  0.249784  1
  Os  Os14  1  0.960664  0.117490  0.750417  1
  Os  Os15  1  0.539692  0.617411  0.749781  1
