# generated using pymatgen
data_HoTm7(Ta3Ge4)4
_symmetry_space_group_name_H-M   'P 1'
_cell_length_a   6.96689202
_cell_length_b   7.12446204
_cell_length_c   13.49079505
_cell_angle_alpha   90.00842727
_cell_angle_beta   89.99573344
_cell_angle_gamma   90.00784756
_symmetry_Int_Tables_number   1
_chemical_formula_structural   HoTm7(Ta3Ge4)4
_chemical_formula_sum   'Ho1 Tm7 Ta12 Ge16'
_cell_volume   669.62042256
_cell_formula_units_Z   1
loop_
 _symmetry_equiv_pos_site_id
 _symmetry_equiv_pos_as_xyz
  1  'x, y, z'
loop_
 _atom_site_type_symbol
 _atom_site_label
 _atom_site_symmetry_multiplicity
 _atom_site_fract_x
 _atom_site_fract_y
 _atom_site_fract_z
 _atom_site_occupancy
  Ho  Ho0  1  0.493796  0.673939  0.593604  1
  Tm  Tm1  1  0.993625  0.825875  0.906382  1
  Tm  Tm2  1  0.506365  0.325907  0.093677  1
  Tm  Tm3  1  0.006355  0.174070  0.406294  1
  Tm  Tm4  1  0.506385  0.325809  0.406263  1
  Tm  Tm5  1  0.006381  0.174127  0.093668  1
  Tm  Tm6  1  0.493632  0.674106  0.906310  1
  Tm  Tm7  1  0.993591  0.825973  0.593666  1
  Ta  Ta8  1  0.659184  0.168659  0.626023  1
  Ta  Ta9  1  0.159144  0.331229  0.874025  1
  Ta  Ta10  1  0.340852  0.831303  0.126002  1
  Ta  Ta11  1  0.840850  0.668705  0.373950  1
  Ta  Ta12  1  0.340663  0.831404  0.373876  1
  Ta  Ta13  1  0.840828  0.668704  0.126010  1
  Ta  Ta14  1  0.659196  0.168709  0.874008  1
  Ta  Ta15  1  0.159045  0.331184  0.626050  1
  Ta  Ta16  1  0.835234  0.486264  0.750073  1
  Ta  Ta17  1  0.335076  0.013740  0.750054  1
  Ta  Ta18  1  0.164835  0.513668  0.249963  1
  Ta  Ta19  1  0.664858  0.986372  0.249979  1
  Ge  Ge20  1  0.678325  0.962271  0.458138  1
  Ge  Ge21  1  0.178225  0.537878  0.041770  1
  Ge  Ge22  1  0.321761  0.037878  0.958248  1
  Ge  Ge23  1  0.822161  0.461864  0.541686  1
  Ge  Ge24  1  0.321608  0.038189  0.541706  1
  Ge  Ge25  1  0.821772  0.462132  0.958236  1
  Ge  Ge26  1  0.678230  0.962115  0.041761  1
  Ge  Ge27  1  0.178053  0.537837  0.458148  1
  Ge  Ge28  1  0.459508  0.380358  0.750086  1
  Ge  Ge29  1  0.959538  0.119436  0.750028  1
  Ge  Ge30  1  0.540451  0.619448  0.250000  1
  Ge  Ge31  1  0.040452  0.880561  0.249976  1
  Ge  Ge32  1  0.693950  0.856025  0.750221  1
  Ge  Ge33  1  0.193390  0.644266  0.750147  1
  Ge  Ge34  1  0.306334  0.144342  0.249983  1
  Ge  Ge35  1  0.806349  0.355653  0.249988  1
