# generated using pymatgen
data_Th3Sc5(SiI6)2
_symmetry_space_group_name_H-M   'P 1'
_cell_length_a   4.14105000
_cell_length_b   14.01295725
_cell_length_c   14.76425440
_cell_angle_alpha   88.89103942
_cell_angle_beta   90.00000000
_cell_angle_gamma   90.00000000
_symmetry_Int_Tables_number   1
_chemical_formula_structural   Th3Sc5(SiI6)2
_chemical_formula_sum   'Th3 Sc5 Si2 I12'
_cell_volume   856.58494897
_cell_formula_units_Z   1
loop_
 _symmetry_equiv_pos_site_id
 _symmetry_equiv_pos_as_xyz
  1  'x, y, z'
loop_
 _atom_site_type_symbol
 _atom_site_label
 _atom_site_symmetry_multiplicity
 _atom_site_fract_x
 _atom_site_fract_y
 _atom_site_fract_z
 _atom_site_occupancy
  Th  Th0  1  0.000000  0.112820  0.574986  1
  Th  Th1  1  0.000000  0.888453  0.422424  1
  Th  Th2  1  0.000000  0.608404  0.926907  1
  Sc  Sc3  1  0.500000  0.110960  0.354361  1
  Sc  Sc4  1  0.500000  0.893083  0.641777  1
  Sc  Sc5  1  0.500000  0.603637  0.142519  1
  Sc  Sc6  1  0.500000  0.390547  0.860280  1
  Sc  Sc7  1  0.000000  0.390825  0.074555  1
  Si  Si8  1  0.500000  0.001356  0.497761  1
  Si  Si9  1  0.500000  0.490601  0.005413  1
  I  I10  1  0.500000  0.256029  0.162031  1
  I  I11  1  0.500000  0.757517  0.832391  1
  I  I12  1  0.500000  0.737355  0.331680  1
  I  I13  1  0.500000  0.260025  0.670739  1
  I  I14  1  0.000000  0.253930  0.403488  1
  I  I15  1  0.000000  0.748272  0.595009  1
  I  I16  1  0.000000  0.749906  0.093118  1
  I  I17  1  0.000000  0.253015  0.919346  1
  I  I18  1  0.000000  0.015923  0.240688  1
  I  I19  1  0.000000  0.987506  0.757110  1
  I  I20  1  0.000000  0.500596  0.248017  1
  I  I21  1  0.000000  0.489240  0.745397  1
