# generated using pymatgen
data_Sm3Gd5(Si3Ir)4
_symmetry_space_group_name_H-M   'P 1'
_cell_length_a   8.19806600
_cell_length_b   8.20482193
_cell_length_c   8.22631400
_cell_angle_alpha   90.00000000
_cell_angle_beta   90.00000000
_cell_angle_gamma   119.97275750
_symmetry_Int_Tables_number   1
_chemical_formula_structural   Sm3Gd5(Si3Ir)4
_chemical_formula_sum   'Sm3 Gd5 Si12 Ir4'
_cell_volume   479.33113422
_cell_formula_units_Z   1
loop_
 _symmetry_equiv_pos_site_id
 _symmetry_equiv_pos_as_xyz
  1  'x, y, z'
loop_
 _atom_site_type_symbol
 _atom_site_label
 _atom_site_symmetry_multiplicity
 _atom_site_fract_x
 _atom_site_fract_y
 _atom_site_fract_z
 _atom_site_occupancy
  Sm  Sm0  1  0.500211  0.000424  0.250000  1
  Sm  Sm1  1  0.999978  0.999955  0.750000  1
  Sm  Sm2  1  0.999995  0.999989  0.250000  1
  Gd  Gd3  1  0.499854  0.500231  0.750000  1
  Gd  Gd4  1  0.500119  0.499799  0.250000  1
  Gd  Gd5  1  0.000376  0.500231  0.750000  1
  Gd  Gd6  1  0.999680  0.499799  0.250000  1
  Gd  Gd7  1  0.499777  0.999554  0.750000  1
  Si  Si8  1  0.833385  0.167002  0.997832  1
  Si  Si9  1  0.166612  0.833010  0.998821  1
  Si  Si10  1  0.333617  0.167002  0.997832  1
  Si  Si11  1  0.166612  0.833010  0.501179  1
  Si  Si12  1  0.666397  0.833010  0.998821  1
  Si  Si13  1  0.833385  0.167002  0.502168  1
  Si  Si14  1  0.833326  0.666652  0.999845  1
  Si  Si15  1  0.666397  0.833010  0.501179  1
  Si  Si16  1  0.166663  0.333327  0.000589  1
  Si  Si17  1  0.333617  0.167002  0.502168  1
  Si  Si18  1  0.166663  0.333327  0.499411  1
  Si  Si19  1  0.833326  0.666652  0.500155  1
  Ir  Ir20  1  0.667068  0.334133  0.997494  1
  Ir  Ir21  1  0.332937  0.665874  0.997193  1
  Ir  Ir22  1  0.332937  0.665874  0.502807  1
  Ir  Ir23  1  0.667068  0.334133  0.502506  1
