# generated using pymatgen
data_Pr8Tm9Lu3Si16
_symmetry_space_group_name_H-M   'P 1'
_cell_length_a   7.44676536
_cell_length_b   7.74701197
_cell_length_c   14.70177400
_cell_angle_alpha   90.00000000
_cell_angle_beta   90.00000000
_cell_angle_gamma   89.98919155
_symmetry_Int_Tables_number   1
_chemical_formula_structural   Pr8Tm9Lu3Si16
_chemical_formula_sum   'Pr8 Tm9 Lu3 Si16'
_cell_volume   848.14797905
_cell_formula_units_Z   1
loop_
 _symmetry_equiv_pos_site_id
 _symmetry_equiv_pos_as_xyz
  1  'x, y, z'
loop_
 _atom_site_type_symbol
 _atom_site_label
 _atom_site_symmetry_multiplicity
 _atom_site_fract_x
 _atom_site_fract_y
 _atom_site_fract_z
 _atom_site_occupancy
  Pr  Pr0  1  0.018343  0.176509  0.401809  1
  Pr  Pr1  1  0.518470  0.323438  0.401799  1
  Pr  Pr2  1  0.481227  0.676880  0.902242  1
  Pr  Pr3  1  0.481227  0.676880  0.597758  1
  Pr  Pr4  1  0.981442  0.823143  0.597639  1
  Pr  Pr5  1  0.981442  0.823143  0.902361  1
  Pr  Pr6  1  0.518470  0.323438  0.098201  1
  Pr  Pr7  1  0.018343  0.176509  0.098191  1
  Tm  Tm8  1  0.323337  0.177224  0.623467  1
  Tm  Tm9  1  0.676784  0.822999  0.376216  1
  Tm  Tm10  1  0.655645  0.991400  0.750000  1
  Tm  Tm11  1  0.176806  0.677099  0.376283  1
  Tm  Tm12  1  0.823710  0.322761  0.876464  1
  Tm  Tm13  1  0.823710  0.322761  0.623536  1
  Tm  Tm14  1  0.323337  0.177224  0.876533  1
  Tm  Tm15  1  0.176806  0.677099  0.123717  1
  Tm  Tm16  1  0.676784  0.822999  0.123784  1
  Lu  Lu17  1  0.844448  0.492320  0.250000  1
  Lu  Lu18  1  0.344440  0.007989  0.250000  1
  Lu  Lu19  1  0.155724  0.508207  0.750000  1
  Si  Si20  1  0.276436  0.878327  0.750000  1
  Si  Si21  1  0.471812  0.616392  0.250000  1
  Si  Si22  1  0.029206  0.116541  0.750000  1
  Si  Si23  1  0.528608  0.383516  0.750000  1
  Si  Si24  1  0.147955  0.467344  0.539549  1
  Si  Si25  1  0.971897  0.883746  0.250000  1
  Si  Si26  1  0.722241  0.122195  0.250000  1
  Si  Si27  1  0.851982  0.532570  0.039886  1
  Si  Si28  1  0.352062  0.967540  0.039961  1
  Si  Si29  1  0.147955  0.467344  0.960451  1
  Si  Si30  1  0.647903  0.032796  0.539387  1
  Si  Si31  1  0.352062  0.967540  0.460039  1
  Si  Si32  1  0.851982  0.532570  0.460114  1
  Si  Si33  1  0.777307  0.620752  0.750000  1
  Si  Si34  1  0.222191  0.378009  0.250000  1
  Si  Si35  1  0.647903  0.032796  0.960613  1
