# generated using pymatgen
data_Nb4Hg3PbO14
_symmetry_space_group_name_H-M   'P 1'
_cell_length_a   7.62800459
_cell_length_b   7.51736479
_cell_length_c   7.51736500
_cell_angle_alpha   60.00000350
_cell_angle_beta   60.47865709
_cell_angle_gamma   60.47865953
_symmetry_Int_Tables_number   1
_chemical_formula_structural   Nb4Hg3PbO14
_chemical_formula_sum   'Nb4 Hg3 Pb1 O14'
_cell_volume   306.99528737
_cell_formula_units_Z   1
loop_
 _symmetry_equiv_pos_site_id
 _symmetry_equiv_pos_as_xyz
  1  'x, y, z'
loop_
 _atom_site_type_symbol
 _atom_site_label
 _atom_site_symmetry_multiplicity
 _atom_site_fract_x
 _atom_site_fract_y
 _atom_site_fract_z
 _atom_site_occupancy
  Nb  Nb0  1  0.125000  0.625000  0.125000  1
  Nb  Nb1  1  0.125000  0.125000  0.625000  1
  Nb  Nb2  1  0.625000  0.125000  0.125000  1
  Nb  Nb3  1  0.125000  0.125000  0.125000  1
  Hg  Hg4  1  0.625000  0.625000  0.625000  1
  Hg  Hg5  1  0.625000  0.125000  0.625000  1
  Hg  Hg6  1  0.625000  0.625000  0.125000  1
  Pb  Pb7  1  0.125000  0.625000  0.625000  1
  O  O8  1  0.711443  0.762852  0.762852  1
  O  O9  1  0.185333  0.809345  0.809345  1
  O  O10  1  0.185333  0.809345  0.195977  1
  O  O11  1  0.815657  0.811941  0.186201  1
  O  O12  1  0.815657  0.186201  0.811941  1
  O  O13  1  0.185333  0.195977  0.809345  1
  O  O14  1  0.434343  0.063799  0.063799  1
  O  O15  1  0.815657  0.186201  0.186201  1
  O  O16  1  0.064667  0.440655  0.054023  1
  O  O17  1  0.064667  0.054023  0.440655  1
  O  O18  1  0.434343  0.438059  0.063799  1
  O  O19  1  0.434343  0.063799  0.438059  1
  O  O20  1  0.064667  0.440655  0.440655  1
  O  O21  1  0.538557  0.487148  0.487148  1
