# generated using pymatgen
data_Y4ReTcB12
_symmetry_space_group_name_H-M   'P 1'
_cell_length_a   3.68604400
_cell_length_b   9.18044775
_cell_length_c   11.56351794
_cell_angle_alpha   89.95380219
_cell_angle_beta   90.00000000
_cell_angle_gamma   90.00000000
_symmetry_Int_Tables_number   1
_chemical_formula_structural   Y4ReTcB12
_chemical_formula_sum   'Y8 Re2 Tc2 B24'
_cell_volume   391.30393512
_cell_formula_units_Z   2
loop_
 _symmetry_equiv_pos_site_id
 _symmetry_equiv_pos_as_xyz
  1  'x, y, z'
loop_
 _atom_site_type_symbol
 _atom_site_label
 _atom_site_symmetry_multiplicity
 _atom_site_fract_x
 _atom_site_fract_y
 _atom_site_fract_z
 _atom_site_occupancy
  Y  Y0  1  0.000000  0.823855  0.085793  1
  Y  Y1  1  0.000000  0.176145  0.914207  1
  Y  Y2  1  0.000000  0.323370  0.414100  1
  Y  Y3  1  0.000000  0.676630  0.585900  1
  Y  Y4  1  0.000000  0.441915  0.130022  1
  Y  Y5  1  0.000000  0.558085  0.869978  1
  Y  Y6  1  0.000000  0.943376  0.369570  1
  Y  Y7  1  0.000000  0.056624  0.630430  1
  Re  Re8  1  0.000000  0.638343  0.320799  1
  Re  Re9  1  0.000000  0.361657  0.679201  1
  Tc  Tc10  1  0.000000  0.138389  0.179192  1
  Tc  Tc11  1  0.000000  0.861611  0.820808  1
  B  B12  1  0.500000  0.053287  0.067293  1
  B  B13  1  0.500000  0.946713  0.932708  1
  B  B14  1  0.500000  0.553191  0.432847  1
  B  B15  1  0.500000  0.446809  0.567152  1
  B  B16  1  0.500000  0.248228  0.081714  1
  B  B17  1  0.500000  0.751772  0.918286  1
  B  B18  1  0.500000  0.748707  0.418387  1
  B  B19  1  0.500000  0.251293  0.581613  1
  B  B20  1  0.500000  0.291334  0.234484  1
  B  B21  1  0.500000  0.708666  0.765516  1
  B  B22  1  0.500000  0.791684  0.265422  1
  B  B23  1  0.500000  0.208316  0.734578  1
  B  B24  1  0.500000  0.130792  0.314043  1
  B  B25  1  0.500000  0.869208  0.685957  1
  B  B26  1  0.500000  0.630569  0.185698  1
  B  B27  1  0.500000  0.369431  0.814302  1
  B  B28  1  0.500000  0.482045  0.288245  1
  B  B29  1  0.500000  0.517955  0.711755  1
  B  B30  1  0.500000  0.982378  0.211663  1
  B  B31  1  0.500000  0.017622  0.788337  1
  B  B32  1  0.500000  0.100570  0.471911  1
  B  B33  1  0.500000  0.899430  0.528089  1
  B  B34  1  0.500000  0.600443  0.028239  1
  B  B35  1  0.500000  0.399557  0.971761  1
