# generated using pymatgen
data_Sc6Sn5HgPd6
_symmetry_space_group_name_H-M   'P 1'
_cell_length_a   7.63021500
_cell_length_b   7.63809652
_cell_length_c   7.01923881
_cell_angle_alpha   90.13337905
_cell_angle_beta   90.00000000
_cell_angle_gamma   119.96586758
_symmetry_Int_Tables_number   1
_chemical_formula_structural   Sc6Sn5HgPd6
_chemical_formula_sum   'Sc6 Sn5 Hg1 Pd6'
_cell_volume   354.39718886
_cell_formula_units_Z   1
loop_
 _symmetry_equiv_pos_site_id
 _symmetry_equiv_pos_as_xyz
  1  'x, y, z'
loop_
 _atom_site_type_symbol
 _atom_site_label
 _atom_site_symmetry_multiplicity
 _atom_site_fract_x
 _atom_site_fract_y
 _atom_site_fract_z
 _atom_site_occupancy
  Sc  Sc0  1  0.405645  0.011447  0.245616  1
  Sc  Sc1  1  0.614521  0.608879  0.245533  1
  Sc  Sc2  1  0.981426  0.379517  0.245667  1
  Sc  Sc3  1  0.394198  0.988553  0.754384  1
  Sc  Sc4  1  0.601909  0.620483  0.754333  1
  Sc  Sc5  1  0.005642  0.391121  0.754467  1
  Sn  Sn6  1  0.283679  0.281771  0.499456  1
  Sn  Sn7  1  0.001908  0.718229  0.500544  1
  Sn  Sn8  1  0.999784  0.727740  0.999792  1
  Sn  Sn9  1  0.272044  0.272260  0.000208  1
  Sn  Sn10  1  0.724167  0.000000  0.500000  1
  Hg  Hg11  1  0.713787  0.000000  0.000000  1
  Pd  Pd12  1  0.319895  0.654576  0.022821  1
  Pd  Pd13  1  0.333524  0.665707  0.476828  1
  Pd  Pd14  1  0.665319  0.345424  0.977179  1
  Pd  Pd15  1  0.667817  0.334293  0.523172  1
  Pd  Pd16  1  0.007272  0.999808  0.257005  1
  Pd  Pd17  1  0.007464  0.000192  0.742995  1
