# generated using pymatgen
data_Dy3Lu3Co14(P3Rh)4
_symmetry_space_group_name_H-M   'P 1'
_cell_length_a   3.70509300
_cell_length_b   10.62980420
_cell_length_c   12.33650057
_cell_angle_alpha   90.02843972
_cell_angle_beta   90.00000000
_cell_angle_gamma   90.00000000
_symmetry_Int_Tables_number   1
_chemical_formula_structural   Dy3Lu3Co14(P3Rh)4
_chemical_formula_sum   'Dy3 Lu3 Co14 P12 Rh4'
_cell_volume   485.86577499
_cell_formula_units_Z   1
loop_
 _symmetry_equiv_pos_site_id
 _symmetry_equiv_pos_as_xyz
  1  'x, y, z'
loop_
 _atom_site_type_symbol
 _atom_site_label
 _atom_site_symmetry_multiplicity
 _atom_site_fract_x
 _atom_site_fract_y
 _atom_site_fract_z
 _atom_site_occupancy
  Dy  Dy0  1  0.000000  0.499927  0.521341  1
  Dy  Dy1  1  0.500000  0.000415  0.478323  1
  Dy  Dy2  1  0.000000  0.314393  0.794494  1
  Lu  Lu3  1  0.500000  0.814394  0.206150  1
  Lu  Lu4  1  0.500000  0.184781  0.205636  1
  Lu  Lu5  1  0.000000  0.685432  0.794068  1
  Co  Co6  1  0.000000  0.500338  0.990076  1
  Co  Co7  1  0.500000  0.998704  0.011514  1
  Co  Co8  1  0.500000  0.331405  0.995568  1
  Co  Co9  1  0.500000  0.668678  0.994131  1
  Co  Co10  1  0.000000  0.167065  0.006994  1
  Co  Co11  1  0.000000  0.831121  0.006067  1
  Co  Co12  1  0.500000  0.300089  0.428320  1
  Co  Co13  1  0.500000  0.700419  0.429367  1
  Co  Co14  1  0.000000  0.200176  0.569106  1
  Co  Co15  1  0.000000  0.800384  0.570556  1
  Co  Co16  1  0.500000  0.879027  0.710345  1
  Co  Co17  1  0.500000  0.119578  0.708983  1
  Co  Co18  1  0.000000  0.621233  0.290086  1
  Co  Co19  1  0.000000  0.379321  0.289087  1
  P  P20  1  0.500000  0.500311  0.891256  1
  P  P21  1  0.000000  0.998938  0.110026  1
  P  P22  1  0.500000  0.500146  0.350534  1
  P  P23  1  0.000000  0.000551  0.649170  1
  P  P24  1  0.500000  0.303236  0.612830  1
  P  P25  1  0.500000  0.697509  0.614342  1
  P  P26  1  0.000000  0.196887  0.384620  1
  P  P27  1  0.000000  0.803439  0.385549  1
  P  P28  1  0.500000  0.843008  0.892791  1
  P  P29  1  0.500000  0.154828  0.894424  1
  P  P30  1  0.000000  0.656747  0.107464  1
  P  P31  1  0.000000  0.342690  0.106997  1
  Rh  Rh32  1  0.500000  0.503252  0.160943  1
  Rh  Rh33  1  0.000000  0.999887  0.839363  1
  Rh  Rh34  1  0.500000  0.501964  0.705250  1
  Rh  Rh35  1  0.000000  0.999728  0.294229  1
