# generated using pymatgen
data_Tb2PrTh(Al3Ir)6
_symmetry_space_group_name_H-M   'P 1'
_cell_length_a   7.60646959
_cell_length_b   7.60836029
_cell_length_c   9.53186300
_cell_angle_alpha   90.00000000
_cell_angle_beta   90.00000000
_cell_angle_gamma   119.47849444
_symmetry_Int_Tables_number   1
_chemical_formula_structural   Tb2PrTh(Al3Ir)6
_chemical_formula_sum   'Tb2 Pr1 Th1 Al18 Ir6'
_cell_volume   480.22078907
_cell_formula_units_Z   1
loop_
 _symmetry_equiv_pos_site_id
 _symmetry_equiv_pos_as_xyz
  1  'x, y, z'
loop_
 _atom_site_type_symbol
 _atom_site_label
 _atom_site_symmetry_multiplicity
 _atom_site_fract_x
 _atom_site_fract_y
 _atom_site_fract_z
 _atom_site_occupancy
  Tb  Tb0  1  0.003974  0.328862  0.750000  1
  Tb  Tb1  1  0.328109  0.004214  0.750000  1
  Pr  Pr2  1  0.671077  0.994289  0.250000  1
  Th  Th3  1  0.995078  0.670914  0.250000  1
  Al  Al4  1  0.133837  0.133303  0.250000  1
  Al  Al5  1  0.872163  0.873295  0.750000  1
  Al  Al6  1  0.003680  0.333259  0.070109  1
  Al  Al7  1  0.999065  0.664464  0.919683  1
  Al  Al8  1  0.999065  0.664464  0.580317  1
  Al  Al9  1  0.337564  0.005278  0.430039  1
  Al  Al10  1  0.003680  0.333259  0.429891  1
  Al  Al11  1  0.664743  0.999940  0.577819  1
  Al  Al12  1  0.664743  0.999940  0.922181  1
  Al  Al13  1  0.337564  0.005278  0.069961  1
  Al  Al14  1  0.332550  0.332507  0.554614  1
  Al  Al15  1  0.663315  0.664861  0.457188  1
  Al  Al16  1  0.663315  0.664861  0.042812  1
  Al  Al17  1  0.332550  0.332507  0.945386  1
  Al  Al18  1  0.340538  0.545101  0.250000  1
  Al  Al19  1  0.658432  0.449738  0.750000  1
  Al  Al20  1  0.544363  0.339817  0.250000  1
  Al  Al21  1  0.449642  0.660073  0.750000  1
  Ir  Ir22  1  0.672879  0.330067  0.999664  1
  Ir  Ir23  1  0.326447  0.670875  0.999587  1
  Ir  Ir24  1  0.326447  0.670875  0.500413  1
  Ir  Ir25  1  0.672879  0.330067  0.500336  1
  Ir  Ir26  1  0.001150  0.998946  0.999627  1
  Ir  Ir27  1  0.001150  0.998946  0.500373  1
