# generated using pymatgen
data_Pr10Si16Au
_symmetry_space_group_name_H-M   'P 1'
_cell_length_a   11.59252873
_cell_length_b   11.55017919
_cell_length_c   11.59252928
_cell_angle_alpha   144.82842429
_cell_angle_beta   136.56678941
_cell_angle_gamma   57.13897868
_symmetry_Int_Tables_number   1
_chemical_formula_structural   Pr10Si16Au
_chemical_formula_sum   'Pr10 Si16 Au1'
_cell_volume   609.58617714
_cell_formula_units_Z   1
loop_
 _symmetry_equiv_pos_site_id
 _symmetry_equiv_pos_as_xyz
  1  'x, y, z'
loop_
 _atom_site_type_symbol
 _atom_site_label
 _atom_site_symmetry_multiplicity
 _atom_site_fract_x
 _atom_site_fract_y
 _atom_site_fract_z
 _atom_site_occupancy
  Pr  Pr0  1  0.752233  0.762609  0.514266  1
  Pr  Pr1  1  0.447702  0.967729  0.016694  1
  Pr  Pr2  1  0.853482  0.364733  0.021225  1
  Pr  Pr3  1  0.951035  0.967729  0.520026  1
  Pr  Pr4  1  0.152604  0.165144  0.517115  1
  Pr  Pr5  1  0.343508  0.364733  0.511252  1
  Pr  Pr6  1  0.248343  0.762609  0.010376  1
  Pr  Pr7  1  0.550029  0.563871  0.508765  1
  Pr  Pr8  1  0.055106  0.563871  0.013843  1
  Pr  Pr9  1  0.648028  0.165144  0.012540  1
  Si  Si10  1  0.198777  0.610128  0.411350  1
  Si  Si11  1  0.000014  0.090169  0.090156  1
  Si  Si12  1  0.702437  0.289744  0.587307  1
  Si  Si13  1  0.802368  0.201876  0.399508  1
  Si  Si14  1  0.897633  0.500730  0.603097  1
  Si  Si15  1  0.409222  0.851110  0.441887  1
  Si  Si16  1  0.101537  0.703723  0.602185  1
  Si  Si17  1  0.301281  0.896186  0.594906  1
  Si  Si18  1  0.592249  0.045689  0.453440  1
  Si  Si19  1  0.999374  0.432299  0.432925  1
  Si  Si20  1  0.888528  0.834796  0.946268  1
  Si  Si21  1  0.399845  0.500957  0.101110  1
  Si  Si22  1  0.108580  0.050272  0.941691  1
  Si  Si23  1  0.294138  0.235919  0.941783  1
  Si  Si24  1  0.500073  0.420841  0.920768  1
  Si  Si25  1  0.598897  0.711373  0.112476  1
  Au  Au26  1  0.702977  0.637516  0.934539  1
