# generated using pymatgen
data_LaEu3(CuSi3)2
_symmetry_space_group_name_H-M   'P 1'
_cell_length_a   8.37289038
_cell_length_b   8.20461242
_cell_length_c   6.03874701
_cell_angle_alpha   70.13182025
_cell_angle_beta   67.15749457
_cell_angle_gamma   42.71067827
_symmetry_Int_Tables_number   1
_chemical_formula_structural   LaEu3(CuSi3)2
_chemical_formula_sum   'La1 Eu3 Cu2 Si6'
_cell_volume   258.32534778
_cell_formula_units_Z   1
loop_
 _symmetry_equiv_pos_site_id
 _symmetry_equiv_pos_as_xyz
  1  'x, y, z'
loop_
 _atom_site_type_symbol
 _atom_site_label
 _atom_site_symmetry_multiplicity
 _atom_site_fract_x
 _atom_site_fract_y
 _atom_site_fract_z
 _atom_site_occupancy
  La  La0  1  0.756856  0.243144  0.756855  1
  Eu  Eu1  1  0.243237  0.756763  0.243236  1
  Eu  Eu2  1  0.250024  0.249976  0.250025  1
  Eu  Eu3  1  0.750024  0.749976  0.750024  1
  Cu  Cu4  1  0.666174  0.666183  0.333816  1
  Cu  Cu5  1  0.333817  0.333826  0.666173  1
  Si  Si6  1  0.831232  0.831358  0.168641  1
  Si  Si7  1  0.830213  0.338068  0.169783  1
  Si  Si8  1  0.661932  0.169787  0.338064  1
  Si  Si9  1  0.338065  0.830216  0.661931  1
  Si  Si10  1  0.169784  0.661935  0.830212  1
  Si  Si11  1  0.168642  0.168768  0.831231  1
