# generated using pymatgen
data_LiGa4Ag3Br16
_symmetry_space_group_name_H-M   'P 1'
_cell_length_a   7.48860575
_cell_length_b   7.58644896
_cell_length_c   14.47872485
_cell_angle_alpha   86.87601722
_cell_angle_beta   89.77054543
_cell_angle_gamma   90.22164682
_symmetry_Int_Tables_number   1
_chemical_formula_structural   LiGa4Ag3Br16
_chemical_formula_sum   'Li1 Ga4 Ag3 Br16'
_cell_volume   821.32839516
_cell_formula_units_Z   1
loop_
 _symmetry_equiv_pos_site_id
 _symmetry_equiv_pos_as_xyz
  1  'x, y, z'
loop_
 _atom_site_type_symbol
 _atom_site_label
 _atom_site_symmetry_multiplicity
 _atom_site_fract_x
 _atom_site_fract_y
 _atom_site_fract_z
 _atom_site_occupancy
  Li  Li0  1  0.991644  0.846631  0.383945  1
  Ga  Ga1  1  0.676396  0.706350  0.105836  1
  Ga  Ga2  1  0.828843  0.708012  0.599099  1
  Ga  Ga3  1  0.168895  0.293434  0.395303  1
  Ga  Ga4  1  0.325635  0.293979  0.895599  1
  Ag  Ag5  1  0.512863  0.842553  0.870378  1
  Ag  Ag6  1  0.486078  0.155006  0.132365  1
  Ag  Ag7  1  0.012914  0.157865  0.632005  1
  Br  Br8  1  0.311278  0.310187  0.540186  1
  Br  Br9  1  0.128151  0.805542  0.567842  1
  Br  Br10  1  0.378480  0.806062  0.076784  1
  Br  Br11  1  0.874470  0.181117  0.423939  1
  Br  Br12  1  0.623242  0.194487  0.922820  1
  Br  Br13  1  0.694950  0.933567  0.685244  1
  Br  Br14  1  0.812350  0.929251  0.191508  1
  Br  Br15  1  0.305827  0.066160  0.311966  1
  Br  Br16  1  0.310930  0.563537  0.806107  1
  Br  Br17  1  0.810607  0.440789  0.689624  1
  Br  Br18  1  0.688393  0.434930  0.193894  1
  Br  Br19  1  0.173864  0.567772  0.311332  1
  Br  Br20  1  0.815006  0.690783  0.959445  1
  Br  Br21  1  0.695255  0.694995  0.452400  1
  Br  Br22  1  0.185646  0.309808  0.041207  1
  Br  Br23  1  0.188285  0.067185  0.811171  1
