# generated using pymatgen
data_BaTh(TcO4)6
_symmetry_space_group_name_H-M   'P 1'
_cell_length_a   10.61082600
_cell_length_b   10.61082525
_cell_length_c   6.38038100
_cell_angle_alpha   90.00000000
_cell_angle_beta   90.00000000
_cell_angle_gamma   120.00000235
_symmetry_Int_Tables_number   1
_chemical_formula_structural   BaTh(TcO4)6
_chemical_formula_sum   'Ba1 Th1 Tc6 O24'
_cell_volume   622.12204280
_cell_formula_units_Z   1
loop_
 _symmetry_equiv_pos_site_id
 _symmetry_equiv_pos_as_xyz
  1  'x, y, z'
loop_
 _atom_site_type_symbol
 _atom_site_label
 _atom_site_symmetry_multiplicity
 _atom_site_fract_x
 _atom_site_fract_y
 _atom_site_fract_z
 _atom_site_occupancy
  Ba  Ba0  1  0.666667  0.333333  0.750000  1
  Th  Th1  1  0.333333  0.666667  0.250000  1
  Tc  Tc2  1  0.104118  0.402163  0.750000  1
  Tc  Tc3  1  0.374649  0.309209  0.250000  1
  Tc  Tc4  1  0.597837  0.701952  0.750000  1
  Tc  Tc5  1  0.934559  0.625351  0.250000  1
  Tc  Tc6  1  0.298048  0.895882  0.750000  1
  Tc  Tc7  1  0.690791  0.065441  0.250000  1
  O  O8  1  0.484979  0.647309  0.526027  1
  O  O9  1  0.352691  0.837670  0.526027  1
  O  O10  1  0.885000  0.756041  0.250000  1
  O  O11  1  0.113089  0.820768  0.750000  1
  O  O12  1  0.243959  0.128959  0.250000  1
  O  O13  1  0.179232  0.292321  0.750000  1
  O  O14  1  0.484045  0.347751  0.030193  1
  O  O15  1  0.871041  0.115000  0.250000  1
  O  O16  1  0.126648  0.703935  0.250000  1
  O  O17  1  0.162330  0.515021  0.973973  1
  O  O18  1  0.162330  0.515021  0.526027  1
  O  O19  1  0.917276  0.295767  0.750000  1
  O  O20  1  0.296065  0.422711  0.250000  1
  O  O21  1  0.704233  0.621510  0.750000  1
  O  O22  1  0.863706  0.515955  0.469807  1
  O  O23  1  0.378490  0.082724  0.750000  1
  O  O24  1  0.652249  0.136294  0.030193  1
  O  O25  1  0.484979  0.647309  0.973973  1
  O  O26  1  0.352691  0.837670  0.973973  1
  O  O27  1  0.652249  0.136294  0.469807  1
  O  O28  1  0.484045  0.347751  0.469807  1
  O  O29  1  0.863706  0.515955  0.030193  1
  O  O30  1  0.707679  0.886911  0.750000  1
  O  O31  1  0.577289  0.873352  0.250000  1
