# generated using pymatgen
data_Er6Tm6Mn2In3
_symmetry_space_group_name_H-M   'P 1'
_cell_length_a   8.37407977
_cell_length_b   8.37114341
_cell_length_c   8.37288568
_cell_angle_alpha   110.11160540
_cell_angle_beta   110.17636817
_cell_angle_gamma   108.11116068
_symmetry_Int_Tables_number   1
_chemical_formula_structural   Er6Tm6Mn2In3
_chemical_formula_sum   'Er6 Tm6 Mn2 In3'
_cell_volume   451.76953340
_cell_formula_units_Z   1
loop_
 _symmetry_equiv_pos_site_id
 _symmetry_equiv_pos_as_xyz
  1  'x, y, z'
loop_
 _atom_site_type_symbol
 _atom_site_label
 _atom_site_symmetry_multiplicity
 _atom_site_fract_x
 _atom_site_fract_y
 _atom_site_fract_z
 _atom_site_occupancy
  Er  Er0  1  0.963998  0.210544  0.753287  1
  Er  Er1  1  0.210784  0.964021  0.753475  1
  Er  Er2  1  0.036002  0.789456  0.246713  1
  Er  Er3  1  0.789216  0.035979  0.246525  1
  Er  Er4  1  0.210901  0.457297  0.246874  1
  Er  Er5  1  0.789099  0.542703  0.753126  1
  Tm  Tm6  1  0.303830  0.303771  0.607300  1
  Tm  Tm7  1  0.696170  0.696229  0.392700  1
  Tm  Tm8  1  0.303888  0.696475  0.000058  1
  Tm  Tm9  1  0.696112  0.303525  0.999942  1
  Tm  Tm10  1  0.457315  0.210737  0.246687  1
  Tm  Tm11  1  0.542685  0.789263  0.753313  1
  Mn  Mn12  1  0.393588  0.393536  0.000067  1
  Mn  Mn13  1  0.606412  0.606464  0.999933  1
  In  In14  1  0.000000  0.000000  0.000000  1
  In  In15  1  0.500000  0.000000  0.500000  1
  In  In16  1  0.000000  0.500000  0.500000  1
