# generated using pymatgen
data_Tm5Lu11(In3Tc)2
_symmetry_space_group_name_H-M   'P 1'
_cell_length_a   10.22862460
_cell_length_b   10.22862532
_cell_length_c   6.96041000
_cell_angle_alpha   90.19395837
_cell_angle_beta   89.80604722
_cell_angle_gamma   119.99513132
_symmetry_Int_Tables_number   1
_chemical_formula_structural   Tm5Lu11(In3Tc)2
_chemical_formula_sum   'Tm5 Lu11 In6 Tc2'
_cell_volume   630.69291287
_cell_formula_units_Z   1
loop_
 _symmetry_equiv_pos_site_id
 _symmetry_equiv_pos_as_xyz
  1  'x, y, z'
loop_
 _atom_site_type_symbol
 _atom_site_label
 _atom_site_symmetry_multiplicity
 _atom_site_fract_x
 _atom_site_fract_y
 _atom_site_fract_z
 _atom_site_occupancy
  Tm  Tm0  1  0.530267  0.060056  0.525638  1
  Tm  Tm1  1  0.939944  0.469733  0.525638  1
  Tm  Tm2  1  0.530043  0.469957  0.526410  1
  Tm  Tm3  1  0.469778  0.939230  0.026436  1
  Tm  Tm4  1  0.060770  0.530222  0.026436  1
  Lu  Lu5  1  0.469299  0.530701  0.026692  1
  Lu  Lu6  1  0.178102  0.355370  0.728794  1
  Lu  Lu7  1  0.644630  0.821898  0.728794  1
  Lu  Lu8  1  0.177533  0.822467  0.728534  1
  Lu  Lu9  1  0.821985  0.644755  0.228023  1
  Lu  Lu10  1  0.355245  0.178015  0.228023  1
  Lu  Lu11  1  0.822562  0.177438  0.227843  1
  Lu  Lu12  1  0.666296  0.333704  0.901638  1
  Lu  Lu13  1  0.333503  0.666497  0.400475  1
  Lu  Lu14  1  0.999937  0.000063  0.503348  1
  Lu  Lu15  1  0.999951  0.000049  0.003176  1
  In  In16  1  0.836370  0.672941  0.769689  1
  In  In17  1  0.327059  0.163630  0.769689  1
  In  In18  1  0.836482  0.163518  0.770035  1
  In  In19  1  0.163735  0.327156  0.269825  1
  In  In20  1  0.672844  0.836265  0.269825  1
  In  In21  1  0.163450  0.836550  0.269963  1
  Tc  Tc22  1  0.666727  0.333273  0.300817  1
  Tc  Tc23  1  0.333489  0.666511  0.799941  1
