# generated using pymatgen
data_Y9Mg(SiB4)4
_symmetry_space_group_name_H-M   'P 1'
_cell_length_a   7.20366500
_cell_length_b   7.20366500
_cell_length_c   8.03587700
_cell_angle_alpha   90.00000000
_cell_angle_beta   90.00000000
_cell_angle_gamma   90.00000000
_symmetry_Int_Tables_number   1
_chemical_formula_structural   Y9Mg(SiB4)4
_chemical_formula_sum   'Y9 Mg1 Si4 B16'
_cell_volume   417.00407306
_cell_formula_units_Z   1
loop_
 _symmetry_equiv_pos_site_id
 _symmetry_equiv_pos_as_xyz
  1  'x, y, z'
loop_
 _atom_site_type_symbol
 _atom_site_label
 _atom_site_symmetry_multiplicity
 _atom_site_fract_x
 _atom_site_fract_y
 _atom_site_fract_z
 _atom_site_occupancy
  Y  Y0  1  0.682174  0.179865  0.228360  1
  Y  Y1  1  0.317826  0.820135  0.771640  1
  Y  Y2  1  0.317826  0.820135  0.228360  1
  Y  Y3  1  0.820135  0.682174  0.228360  1
  Y  Y4  1  0.820135  0.682174  0.771640  1
  Y  Y5  1  0.682174  0.179865  0.771640  1
  Y  Y6  1  0.179865  0.317826  0.771640  1
  Y  Y7  1  0.179865  0.317826  0.228360  1
  Y  Y8  1  0.500000  0.500000  0.500000  1
  Mg  Mg9  1  0.000000  0.000000  0.500000  1
  Si  Si10  1  0.114993  0.616139  0.500000  1
  Si  Si11  1  0.885007  0.383861  0.500000  1
  Si  Si12  1  0.383861  0.114993  0.500000  1
  Si  Si13  1  0.616139  0.885007  0.500000  1
  B  B14  1  0.174303  0.038579  0.000000  1
  B  B15  1  0.825697  0.961421  0.000000  1
  B  B16  1  0.961421  0.174303  0.000000  1
  B  B17  1  0.327211  0.539643  0.000000  1
  B  B18  1  0.038579  0.825697  0.000000  1
  B  B19  1  0.672789  0.460357  0.000000  1
  B  B20  1  0.539643  0.672789  0.000000  1
  B  B21  1  0.460357  0.327211  0.000000  1
  B  B22  1  0.089446  0.588551  0.000000  1
  B  B23  1  0.910554  0.411449  0.000000  1
  B  B24  1  0.411449  0.089446  0.000000  1
  B  B25  1  0.588551  0.910554  0.000000  1
  B  B26  1  0.000000  0.000000  0.157964  1
  B  B27  1  0.000000  0.000000  0.842036  1
  B  B28  1  0.500000  0.500000  0.837914  1
  B  B29  1  0.500000  0.500000  0.162086  1
