# generated using pymatgen
data_Pr12Ga2GeAsBr12
_symmetry_space_group_name_H-M   'P 1'
_cell_length_a   10.55559270
_cell_length_b   10.54442051
_cell_length_c   10.55517790
_cell_angle_alpha   109.44817082
_cell_angle_beta   109.49141957
_cell_angle_gamma   109.45426365
_symmetry_Int_Tables_number   1
_chemical_formula_structural   Pr12Ga2GeAsBr12
_chemical_formula_sum   'Pr12 Ga2 Ge1 As1 Br12'
_cell_volume   904.59685469
_cell_formula_units_Z   1
loop_
 _symmetry_equiv_pos_site_id
 _symmetry_equiv_pos_as_xyz
  1  'x, y, z'
loop_
 _atom_site_type_symbol
 _atom_site_label
 _atom_site_symmetry_multiplicity
 _atom_site_fract_x
 _atom_site_fract_y
 _atom_site_fract_z
 _atom_site_occupancy
  Pr  Pr0  1  0.479570  0.490438  0.239049  1
  Pr  Pr1  1  0.750486  0.240784  0.260057  1
  Pr  Pr2  1  0.750592  0.009429  0.490739  1
  Pr  Pr3  1  0.240149  0.481310  0.490737  1
  Pr  Pr4  1  0.259478  0.748613  0.239051  1
  Pr  Pr5  1  0.020284  0.261017  0.009554  1
  Pr  Pr6  1  0.009570  0.019274  0.260057  1
  Pr  Pr7  1  0.489269  0.748540  0.009554  1
  Pr  Pr8  1  0.491198  0.241198  0.482395  1
  Pr  Pr9  1  0.011894  0.489032  0.750806  1
  Pr  Pr10  1  0.258560  0.008560  0.017119  1
  Pr  Pr11  1  0.238913  0.261774  0.750806  1
  Ga  Ga12  1  0.250090  0.249826  0.250072  1
  Ga  Ga13  1  0.499984  0.000246  0.250072  1
  Ge  Ge14  1  0.999544  0.249545  0.499090  1
  As  As15  1  0.250429  0.500425  0.000855  1
  Br  Br16  1  0.249591  0.753302  0.746106  1
  Br  Br17  1  0.507305  0.503461  0.753925  1
  Br  Br18  1  0.990950  0.744747  0.995289  1
  Br  Br19  1  0.746623  0.250467  0.753929  1
  Br  Br20  1  0.996515  0.992807  0.746109  1
  Br  Br21  1  0.249520  0.995665  0.504812  1
  Br  Br22  1  0.755290  0.509146  0.504811  1
  Br  Br23  1  0.504341  0.250541  0.995290  1
  Br  Br24  1  0.754238  0.745905  0.249957  1
  Br  Br25  1  0.746017  0.996015  0.992034  1
  Br  Br26  1  0.995718  0.504051  0.249958  1
  Br  Br27  1  0.503883  0.753883  0.507765  1
