# generated using pymatgen
data_CaY(AgO2)4
_symmetry_space_group_name_H-M   'P 1'
_cell_length_a   6.64463160
_cell_length_b   6.64463200
_cell_length_c   6.64463233
_cell_angle_alpha   126.24804884
_cell_angle_beta   126.24805112
_cell_angle_gamma   79.48083746
_symmetry_Int_Tables_number   1
_chemical_formula_structural   CaY(AgO2)4
_chemical_formula_sum   'Ca1 Y1 Ag4 O8'
_cell_volume   184.40119779
_cell_formula_units_Z   1
loop_
 _symmetry_equiv_pos_site_id
 _symmetry_equiv_pos_as_xyz
  1  'x, y, z'
loop_
 _atom_site_type_symbol
 _atom_site_label
 _atom_site_symmetry_multiplicity
 _atom_site_fract_x
 _atom_site_fract_y
 _atom_site_fract_z
 _atom_site_occupancy
  Ca  Ca0  1  0.000000  0.000000  0.000000  1
  Y  Y1  1  0.750000  0.250000  0.500000  1
  Ag  Ag2  1  0.371629  0.125861  0.746667  1
  Ag  Ag3  1  0.379194  0.624962  0.253333  1
  Ag  Ag4  1  0.874139  0.620806  0.245768  1
  Ag  Ag5  1  0.375038  0.628371  0.754232  1
  O  O6  1  0.034249  0.002699  0.641570  1
  O  O7  1  0.607321  0.965751  0.968450  1
  O  O8  1  0.997301  0.638871  0.031550  1
  O  O9  1  0.407800  0.864838  0.161285  1
  O  O10  1  0.753486  0.592200  0.457038  1
  O  O11  1  0.135162  0.296448  0.542962  1
  O  O12  1  0.361129  0.392679  0.358430  1
  O  O13  1  0.703552  0.246514  0.838715  1
