# generated using pymatgen
data_Ta2GaTe4
_symmetry_space_group_name_H-M   'P 1'
_cell_length_a   8.09064100
_cell_length_b   6.57911222
_cell_length_c   16.04088027
_cell_angle_alpha   73.66257469
_cell_angle_beta   90.00000000
_cell_angle_gamma   90.00000000
_symmetry_Int_Tables_number   1
_chemical_formula_structural   Ta2GaTe4
_chemical_formula_sum   'Ta8 Ga4 Te16'
_cell_volume   819.36707426
_cell_formula_units_Z   4
loop_
 _symmetry_equiv_pos_site_id
 _symmetry_equiv_pos_as_xyz
  1  'x, y, z'
loop_
 _atom_site_type_symbol
 _atom_site_label
 _atom_site_symmetry_multiplicity
 _atom_site_fract_x
 _atom_site_fract_y
 _atom_site_fract_z
 _atom_site_occupancy
  Ta  Ta0  1  0.034653  0.644972  0.249951  1
  Ta  Ta1  1  0.534653  0.355028  0.250049  1
  Ta  Ta2  1  0.965347  0.355028  0.750049  1
  Ta  Ta3  1  0.465347  0.644972  0.749951  1
  Ta  Ta4  1  0.785745  0.855341  0.749921  1
  Ta  Ta5  1  0.285745  0.144659  0.750079  1
  Ta  Ta6  1  0.214255  0.144659  0.250079  1
  Ta  Ta7  1  0.714255  0.855341  0.249921  1
  Ga  Ga8  1  0.625526  0.250045  0.750017  1
  Ga  Ga9  1  0.125526  0.749955  0.749983  1
  Ga  Ga10  1  0.374474  0.749955  0.249983  1
  Ga  Ga11  1  0.874474  0.250045  0.250017  1
  Te  Te12  1  0.988845  0.880396  0.370774  1
  Te  Te13  1  0.488845  0.119604  0.129226  1
  Te  Te14  1  0.011155  0.119604  0.629226  1
  Te  Te15  1  0.511155  0.880396  0.870774  1
  Te  Te16  1  0.759819  0.619562  0.129248  1
  Te  Te17  1  0.259819  0.380438  0.370752  1
  Te  Te18  1  0.240181  0.380438  0.870752  1
  Te  Te19  1  0.740181  0.619562  0.629248  1
  Te  Te20  1  0.489206  0.953644  0.370737  1
  Te  Te21  1  0.989206  0.046356  0.129263  1
  Te  Te22  1  0.510794  0.046356  0.629263  1
  Te  Te23  1  0.010794  0.953644  0.870737  1
  Te  Te24  1  0.259801  0.545968  0.129273  1
  Te  Te25  1  0.759801  0.454032  0.370727  1
  Te  Te26  1  0.740199  0.454032  0.870727  1
  Te  Te27  1  0.240199  0.545968  0.629273  1
