# generated using pymatgen
data_RbCoPtSe4
_symmetry_space_group_name_H-M   'P 1'
_cell_length_a   6.41952100
_cell_length_b   7.38064500
_cell_length_c   16.28332800
_cell_angle_alpha   90.00000000
_cell_angle_beta   90.00000000
_cell_angle_gamma   90.00000000
_symmetry_Int_Tables_number   1
_chemical_formula_structural   RbCoPtSe4
_chemical_formula_sum   'Rb4 Co4 Pt4 Se16'
_cell_volume   771.50742802
_cell_formula_units_Z   4
loop_
 _symmetry_equiv_pos_site_id
 _symmetry_equiv_pos_as_xyz
  1  'x, y, z'
loop_
 _atom_site_type_symbol
 _atom_site_label
 _atom_site_symmetry_multiplicity
 _atom_site_fract_x
 _atom_site_fract_y
 _atom_site_fract_z
 _atom_site_occupancy
  Rb  Rb0  1  0.370725  0.000000  0.000000  1
  Rb  Rb1  1  0.629275  0.500000  0.500000  1
  Rb  Rb2  1  0.037877  0.000000  0.500000  1
  Rb  Rb3  1  0.962123  0.500000  0.000000  1
  Co  Co4  1  0.500000  0.250000  0.250000  1
  Co  Co5  1  0.500000  0.750000  0.750000  1
  Co  Co6  1  0.500000  0.750000  0.250000  1
  Co  Co7  1  0.500000  0.250000  0.750000  1
  Pt  Pt8  1  0.002134  0.000000  0.251390  1
  Pt  Pt9  1  0.002134  0.000000  0.748610  1
  Pt  Pt10  1  0.997866  0.500000  0.248610  1
  Pt  Pt11  1  0.997866  0.500000  0.751390  1
  Se  Se12  1  0.817535  0.251618  0.327334  1
  Se  Se13  1  0.817535  0.748382  0.672666  1
  Se  Se14  1  0.182465  0.751618  0.172666  1
  Se  Se15  1  0.182465  0.248382  0.827334  1
  Se  Se16  1  0.182465  0.248382  0.172666  1
  Se  Se17  1  0.182465  0.751618  0.827334  1
  Se  Se18  1  0.817535  0.748382  0.327334  1
  Se  Se19  1  0.817535  0.251618  0.672666  1
  Se  Se20  1  0.657285  0.000000  0.174501  1
  Se  Se21  1  0.657285  0.000000  0.825499  1
  Se  Se22  1  0.342715  0.500000  0.325499  1
  Se  Se23  1  0.342715  0.500000  0.674501  1
  Se  Se24  1  0.351483  0.000000  0.327242  1
  Se  Se25  1  0.351483  0.000000  0.672758  1
  Se  Se26  1  0.648517  0.500000  0.172758  1
  Se  Se27  1  0.648517  0.500000  0.827242  1
