# generated using pymatgen
data_Nd3Mg3AgHgRu
_symmetry_space_group_name_H-M   'P 1'
_cell_length_a   7.96460000
_cell_length_b   7.96460006
_cell_length_c   4.03202500
_cell_angle_alpha   90.00000000
_cell_angle_beta   90.00000000
_cell_angle_gamma   119.99999975
_symmetry_Int_Tables_number   1
_chemical_formula_structural   Nd3Mg3AgHgRu
_chemical_formula_sum   'Nd3 Mg3 Ag1 Hg1 Ru1'
_cell_volume   221.50411113
_cell_formula_units_Z   1
loop_
 _symmetry_equiv_pos_site_id
 _symmetry_equiv_pos_as_xyz
  1  'x, y, z'
loop_
 _atom_site_type_symbol
 _atom_site_label
 _atom_site_symmetry_multiplicity
 _atom_site_fract_x
 _atom_site_fract_y
 _atom_site_fract_z
 _atom_site_occupancy
  Nd  Nd0  1  0.565826  0.964877  0.000000  1
  Nd  Nd1  1  0.035123  0.600949  0.000000  1
  Nd  Nd2  1  0.399051  0.434174  0.000000  1
  Mg  Mg3  1  0.248461  0.001357  0.500000  1
  Mg  Mg4  1  0.998643  0.247104  0.500000  1
  Mg  Mg5  1  0.752896  0.751539  0.500000  1
  Ag  Ag6  1  0.000000  0.000000  0.000000  1
  Hg  Hg7  1  0.666667  0.333333  0.500000  1
  Ru  Ru8  1  0.333333  0.666667  0.500000  1
