# generated using pymatgen
data_CaAc3(Ge2Pt)4
_symmetry_space_group_name_H-M   'P 1'
_cell_length_a   9.85169388
_cell_length_b   9.85169253
_cell_length_c   9.85169269
_cell_angle_alpha   153.20661135
_cell_angle_beta   125.30153441
_cell_angle_gamma   61.93211668
_symmetry_Int_Tables_number   1
_chemical_formula_structural   CaAc3(Ge2Pt)4
_chemical_formula_sum   'Ca1 Ac3 Ge8 Pt4'
_cell_volume   349.08126447
_cell_formula_units_Z   1
loop_
 _symmetry_equiv_pos_site_id
 _symmetry_equiv_pos_as_xyz
  1  'x, y, z'
loop_
 _atom_site_type_symbol
 _atom_site_label
 _atom_site_symmetry_multiplicity
 _atom_site_fract_x
 _atom_site_fract_y
 _atom_site_fract_z
 _atom_site_occupancy
  Ca  Ca0  1  0.702744  0.202744  0.500000  1
  Ac  Ac1  1  0.262525  0.001126  0.261399  1
  Ac  Ac2  1  0.739728  0.001126  0.738601  1
  Ac  Ac3  1  0.295432  0.795432  0.500000  1
  Ge  Ge4  1  0.923283  0.423283  0.500000  1
  Ge  Ge5  1  0.077073  0.577073  0.500000  1
  Ge  Ge6  1  0.427189  0.427189  0.000000  1
  Ge  Ge7  1  0.579478  0.579478  0.000000  1
  Ge  Ge8  1  0.040042  0.197328  0.842714  1
  Ge  Ge9  1  0.944098  0.799195  0.144903  1
  Ge  Ge10  1  0.354615  0.197328  0.157286  1
  Ge  Ge11  1  0.654292  0.799195  0.855097  1
  Pt  Pt12  1  0.091889  0.349260  0.742630  1
  Pt  Pt13  1  0.902055  0.650490  0.251564  1
  Pt  Pt14  1  0.606631  0.349260  0.257370  1
  Pt  Pt15  1  0.398926  0.650490  0.748436  1
