# generated using pymatgen
data_Li3La4AlAu4
_symmetry_space_group_name_H-M   'P 1'
_cell_length_a   4.55942000
_cell_length_b   7.31379202
_cell_length_c   8.55362237
_cell_angle_alpha   88.80099807
_cell_angle_beta   90.00000000
_cell_angle_gamma   90.00000000
_symmetry_Int_Tables_number   1
_chemical_formula_structural   Li3La4AlAu4
_chemical_formula_sum   'Li3 La4 Al1 Au4'
_cell_volume   285.17219550
_cell_formula_units_Z   1
loop_
 _symmetry_equiv_pos_site_id
 _symmetry_equiv_pos_as_xyz
  1  'x, y, z'
loop_
 _atom_site_type_symbol
 _atom_site_label
 _atom_site_symmetry_multiplicity
 _atom_site_fract_x
 _atom_site_fract_y
 _atom_site_fract_z
 _atom_site_occupancy
  Li  Li0  1  0.250000  0.143941  0.936245  1
  Li  Li1  1  0.250000  0.635185  0.561580  1
  Li  Li2  1  0.750000  0.865280  0.062422  1
  La  La3  1  0.250000  0.030720  0.310373  1
  La  La4  1  0.250000  0.534136  0.192489  1
  La  La5  1  0.750000  0.976824  0.691541  1
  La  La6  1  0.750000  0.462994  0.806153  1
  Al  Al7  1  0.750000  0.355227  0.437260  1
  Au  Au8  1  0.250000  0.267546  0.601841  1
  Au  Au9  1  0.250000  0.760878  0.886507  1
  Au  Au10  1  0.750000  0.726811  0.395968  1
  Au  Au11  1  0.750000  0.240459  0.117621  1
