# generated using pymatgen
data_YbPrY5CoI12
_symmetry_space_group_name_H-M   'P 1'
_cell_length_a   9.75722362
_cell_length_b   9.83231976
_cell_length_c   9.83842157
_cell_angle_alpha   106.82722400
_cell_angle_beta   107.26435951
_cell_angle_gamma   106.73481655
_symmetry_Int_Tables_number   1
_chemical_formula_structural   YbPrY5CoI12
_chemical_formula_sum   'Yb1 Pr1 Y5 Co1 I12'
_cell_volume   787.27846730
_cell_formula_units_Z   1
loop_
 _symmetry_equiv_pos_site_id
 _symmetry_equiv_pos_as_xyz
  1  'x, y, z'
loop_
 _atom_site_type_symbol
 _atom_site_label
 _atom_site_symmetry_multiplicity
 _atom_site_fract_x
 _atom_site_fract_y
 _atom_site_fract_z
 _atom_site_occupancy
  Yb  Yb0  1  0.500297  0.499624  0.499943  1
  Pr  Pr1  1  0.709019  0.976310  0.904771  1
  Y  Y2  1  0.975191  0.902807  0.703594  1
  Y  Y3  1  0.025779  0.097217  0.297081  1
  Y  Y4  1  0.098973  0.297032  0.025771  1
  Y  Y5  1  0.282390  0.024016  0.093022  1
  Y  Y6  1  0.904616  0.703704  0.975255  1
  Co  Co7  1  0.999214  0.000597  0.999972  1
  I  I8  1  0.540773  0.613069  0.845366  1
  I  I9  1  0.458044  0.377140  0.153074  1
  I  I10  1  0.316002  0.927917  0.778307  1
  I  I11  1  0.379482  0.152171  0.456226  1
  I  I12  1  0.928696  0.778128  0.320005  1
  I  I13  1  0.681995  0.074728  0.231618  1
  I  I14  1  0.071998  0.222141  0.680254  1
  I  I15  1  0.781310  0.328873  0.929392  1
  I  I16  1  0.225255  0.681936  0.073023  1
  I  I17  1  0.849509  0.543395  0.622079  1
  I  I18  1  0.151273  0.456857  0.377838  1
  I  I19  1  0.620183  0.842340  0.533406  1
