# generated using pymatgen
data_Hf4V5Fe2Tc
_symmetry_space_group_name_H-M   'P 1'
_cell_length_a   5.13041964
_cell_length_b   5.10699311
_cell_length_c   8.30520600
_cell_angle_alpha   90.00000000
_cell_angle_beta   90.00000000
_cell_angle_gamma   119.67779455
_symmetry_Int_Tables_number   1
_chemical_formula_structural   Hf4V5Fe2Tc
_chemical_formula_sum   'Hf4 V5 Fe2 Tc1'
_cell_volume   189.06020062
_cell_formula_units_Z   1
loop_
 _symmetry_equiv_pos_site_id
 _symmetry_equiv_pos_as_xyz
  1  'x, y, z'
loop_
 _atom_site_type_symbol
 _atom_site_label
 _atom_site_symmetry_multiplicity
 _atom_site_fract_x
 _atom_site_fract_y
 _atom_site_fract_z
 _atom_site_occupancy
  Hf  Hf0  1  0.667578  0.333992  0.944151  1
  Hf  Hf1  1  0.334408  0.665429  0.067720  1
  Hf  Hf2  1  0.334408  0.665429  0.432280  1
  Hf  Hf3  1  0.667578  0.333992  0.555849  1
  V  V4  1  0.168015  0.830009  0.750000  1
  V  V5  1  0.820376  0.178701  0.250000  1
  V  V6  1  0.666229  0.830627  0.750000  1
  V  V7  1  0.003676  0.996217  0.016355  1
  V  V8  1  0.003676  0.996217  0.483645  1
  Fe  Fe9  1  0.336187  0.170874  0.250000  1
  Fe  Fe10  1  0.827457  0.661222  0.250000  1
  Tc  Tc11  1  0.170412  0.337289  0.750000  1
