# generated using pymatgen
data_YbY6BeI12
_symmetry_space_group_name_H-M   'P 1'
_cell_length_a   9.73818993
_cell_length_b   9.73818846
_cell_length_c   9.73818902
_cell_angle_alpha   107.11725713
_cell_angle_beta   107.11725544
_cell_angle_gamma   107.11726181
_symmetry_Int_Tables_number   1
_chemical_formula_structural   YbY6BeI12
_chemical_formula_sum   'Yb1 Y6 Be1 I12'
_cell_volume   766.62220792
_cell_formula_units_Z   1
loop_
 _symmetry_equiv_pos_site_id
 _symmetry_equiv_pos_as_xyz
  1  'x, y, z'
loop_
 _atom_site_type_symbol
 _atom_site_label
 _atom_site_symmetry_multiplicity
 _atom_site_fract_x
 _atom_site_fract_y
 _atom_site_fract_z
 _atom_site_occupancy
  Yb  Yb0  1  0.500000  0.500000  0.500000  1
  Y  Y1  1  0.702432  0.976404  0.904974  1
  Y  Y2  1  0.976404  0.904974  0.702432  1
  Y  Y3  1  0.095026  0.297568  0.023596  1
  Y  Y4  1  0.297568  0.023596  0.095026  1
  Y  Y5  1  0.904974  0.702432  0.976404  1
  Y  Y6  1  0.023596  0.095026  0.297568  1
  Be  Be7  1  0.000000  0.000000  0.000000  1
  I  I8  1  0.072946  0.225846  0.679267  1
  I  I9  1  0.378497  0.149580  0.456893  1
  I  I10  1  0.621503  0.850420  0.543107  1
  I  I11  1  0.225846  0.679267  0.072946  1
  I  I12  1  0.774154  0.320733  0.927054  1
  I  I13  1  0.679267  0.072946  0.225846  1
  I  I14  1  0.543107  0.621503  0.850420  1
  I  I15  1  0.850420  0.543107  0.621503  1
  I  I16  1  0.927054  0.774154  0.320733  1
  I  I17  1  0.320733  0.927054  0.774154  1
  I  I18  1  0.456893  0.378497  0.149580  1
  I  I19  1  0.149580  0.456893  0.378497  1
