# generated using pymatgen
data_Ho3Er5Si12IrRh3
_symmetry_space_group_name_H-M   'P 1'
_cell_length_a   8.14648300
_cell_length_b   8.14648393
_cell_length_c   7.83839100
_cell_angle_alpha   89.99909531
_cell_angle_beta   90.00090332
_cell_angle_gamma   120.01507558
_symmetry_Int_Tables_number   1
_chemical_formula_structural   Ho3Er5Si12IrRh3
_chemical_formula_sum   'Ho3 Er5 Si12 Ir1 Rh3'
_cell_volume   450.43478468
_cell_formula_units_Z   1
loop_
 _symmetry_equiv_pos_site_id
 _symmetry_equiv_pos_as_xyz
  1  'x, y, z'
loop_
 _atom_site_type_symbol
 _atom_site_label
 _atom_site_symmetry_multiplicity
 _atom_site_fract_x
 _atom_site_fract_y
 _atom_site_fract_z
 _atom_site_occupancy
  Ho  Ho0  1  0.000085  0.999915  0.249483  1
  Ho  Ho1  1  0.999960  0.000040  0.750264  1
  Ho  Ho2  1  0.491444  0.508556  0.250078  1
  Er  Er3  1  0.491482  0.983183  0.250111  1
  Er  Er4  1  0.016817  0.508518  0.250111  1
  Er  Er5  1  0.508957  0.491043  0.749950  1
  Er  Er6  1  0.981946  0.490910  0.749908  1
  Er  Er7  1  0.509090  0.018054  0.749908  1
  Si  Si8  1  0.833411  0.166589  0.500783  1
  Si  Si9  1  0.833361  0.666661  0.500998  1
  Si  Si10  1  0.333339  0.166639  0.500998  1
  Si  Si11  1  0.833143  0.166857  0.998764  1
  Si  Si12  1  0.833110  0.666160  0.998535  1
  Si  Si13  1  0.333840  0.166890  0.998535  1
  Si  Si14  1  0.167067  0.832933  0.000964  1
  Si  Si15  1  0.665869  0.833005  0.000582  1
  Si  Si16  1  0.166995  0.334131  0.000582  1
  Si  Si17  1  0.167236  0.832764  0.498946  1
  Si  Si18  1  0.665525  0.832831  0.499336  1
  Si  Si19  1  0.167169  0.334475  0.499336  1
  Ir  Ir20  1  0.666862  0.333138  0.467385  1
  Rh  Rh21  1  0.666859  0.333141  0.034724  1
  Rh  Rh22  1  0.333214  0.666786  0.964572  1
  Rh  Rh23  1  0.333218  0.666782  0.535149  1
