# generated using pymatgen
data_Cs15Rb(ZrSe4)4
_symmetry_space_group_name_H-M   'P 1'
_cell_length_a   9.23840184
_cell_length_b   10.98174858
_cell_length_c   16.26454638
_cell_angle_alpha   89.62896863
_cell_angle_beta   89.80167305
_cell_angle_gamma   90.14083898
_symmetry_Int_Tables_number   1
_chemical_formula_structural   Cs15Rb(ZrSe4)4
_chemical_formula_sum   'Cs15 Rb1 Zr4 Se16'
_cell_volume   1650.05057868
_cell_formula_units_Z   1
loop_
 _symmetry_equiv_pos_site_id
 _symmetry_equiv_pos_as_xyz
  1  'x, y, z'
loop_
 _atom_site_type_symbol
 _atom_site_label
 _atom_site_symmetry_multiplicity
 _atom_site_fract_x
 _atom_site_fract_y
 _atom_site_fract_z
 _atom_site_occupancy
  Cs  Cs0  1  0.000260  0.999501  0.999935  1
  Cs  Cs1  1  0.499286  0.000104  0.499875  1
  Cs  Cs2  1  0.998522  0.500125  0.001454  1
  Cs  Cs3  1  0.500720  0.500825  0.499521  1
  Cs  Cs4  1  0.988251  0.750040  0.424939  1
  Cs  Cs5  1  0.487907  0.250604  0.074000  1
  Cs  Cs6  1  0.012975  0.251612  0.573367  1
  Cs  Cs7  1  0.510978  0.749562  0.926661  1
  Cs  Cs8  1  0.836670  0.056583  0.279583  1
  Cs  Cs9  1  0.335593  0.941818  0.220129  1
  Cs  Cs10  1  0.162821  0.556988  0.720033  1
  Cs  Cs11  1  0.663329  0.442470  0.780288  1
  Cs  Cs12  1  0.163582  0.943483  0.720111  1
  Cs  Cs13  1  0.663401  0.056518  0.779512  1
  Cs  Cs14  1  0.838294  0.443442  0.279895  1
  Rb  Rb15  1  0.344185  0.552874  0.224731  1
  Zr  Zr16  1  0.758238  0.750398  0.665522  1
  Zr  Zr17  1  0.243594  0.252559  0.332688  1
  Zr  Zr18  1  0.739852  0.747612  0.166939  1
  Zr  Zr19  1  0.257700  0.249801  0.834097  1
  Se  Se20  1  0.980672  0.249445  0.825023  1
  Se  Se21  1  0.520314  0.251321  0.323163  1
  Se  Se22  1  0.481305  0.749985  0.675643  1
  Se  Se23  1  0.017316  0.743896  0.176343  1
  Se  Se24  1  0.647542  0.558408  0.094082  1
  Se  Se25  1  0.160547  0.445403  0.404513  1
  Se  Se26  1  0.344777  0.059216  0.908788  1
  Se  Se27  1  0.845303  0.941442  0.590560  1
  Se  Se28  1  0.343418  0.440012  0.907886  1
  Se  Se29  1  0.844638  0.560328  0.591471  1
  Se  Se30  1  0.657052  0.939313  0.092079  1
  Se  Se31  1  0.154790  0.062521  0.408272  1
  Se  Se32  1  0.629161  0.747386  0.312079  1
  Se  Se33  1  0.136791  0.254270  0.187355  1
  Se  Se34  1  0.365515  0.250754  0.688338  1
  Se  Se35  1  0.864702  0.749383  0.811124  1
