# generated using pymatgen
data_Yb2ZnCuIr
_symmetry_space_group_name_H-M   'P 1'
_cell_length_a   5.47348478
_cell_length_b   5.47348340
_cell_length_c   5.47348386
_cell_angle_alpha   133.94887668
_cell_angle_beta   121.21288630
_cell_angle_gamma   77.74658868
_symmetry_Int_Tables_number   1
_chemical_formula_structural   Yb2ZnCuIr
_chemical_formula_sum   'Yb2 Zn1 Cu1 Ir1'
_cell_volume   98.03337849
_cell_formula_units_Z   1
loop_
 _symmetry_equiv_pos_site_id
 _symmetry_equiv_pos_as_xyz
  1  'x, y, z'
loop_
 _atom_site_type_symbol
 _atom_site_label
 _atom_site_symmetry_multiplicity
 _atom_site_fract_x
 _atom_site_fract_y
 _atom_site_fract_z
 _atom_site_occupancy
  Yb  Yb0  1  0.694107  0.198153  0.495954  1
  Yb  Yb1  1  0.297799  0.801847  0.495955  1
  Zn  Zn2  1  0.003823  0.000000  0.003823  1
  Cu  Cu3  1  0.739235  0.500000  0.239236  1
  Ir  Ir4  1  0.265034  0.500001  0.765034  1
