# generated using pymatgen
data_Sc22FeRh7
_symmetry_space_group_name_H-M   'P 1'
_cell_length_a   9.47667226
_cell_length_b   9.47667160
_cell_length_c   9.47667200
_cell_angle_alpha   59.99999861
_cell_angle_beta   60.00000092
_cell_angle_gamma   60.00000234
_symmetry_Int_Tables_number   1
_chemical_formula_structural   Sc22FeRh7
_chemical_formula_sum   'Sc22 Fe1 Rh7'
_cell_volume   601.80050849
_cell_formula_units_Z   1
loop_
 _symmetry_equiv_pos_site_id
 _symmetry_equiv_pos_as_xyz
  1  'x, y, z'
loop_
 _atom_site_type_symbol
 _atom_site_label
 _atom_site_symmetry_multiplicity
 _atom_site_fract_x
 _atom_site_fract_y
 _atom_site_fract_z
 _atom_site_occupancy
  Sc  Sc0  1  0.802289  0.802289  0.197711  1
  Sc  Sc1  1  0.197711  0.802289  0.197711  1
  Sc  Sc2  1  0.802289  0.197711  0.197711  1
  Sc  Sc3  1  0.197711  0.197711  0.802289  1
  Sc  Sc4  1  0.802289  0.197711  0.802289  1
  Sc  Sc5  1  0.197711  0.802289  0.802289  1
  Sc  Sc6  1  0.613953  0.613953  0.158140  1
  Sc  Sc7  1  0.613953  0.158140  0.613953  1
  Sc  Sc8  1  0.158140  0.613953  0.613953  1
  Sc  Sc9  1  0.613953  0.613953  0.613953  1
  Sc  Sc10  1  0.386047  0.386047  0.841860  1
  Sc  Sc11  1  0.386047  0.841860  0.386047  1
  Sc  Sc12  1  0.841860  0.386047  0.386047  1
  Sc  Sc13  1  0.386047  0.386047  0.386047  1
  Sc  Sc14  1  0.841640  0.841640  0.475081  1
  Sc  Sc15  1  0.841640  0.475081  0.841640  1
  Sc  Sc16  1  0.475081  0.841640  0.841640  1
  Sc  Sc17  1  0.841640  0.841640  0.841640  1
  Sc  Sc18  1  0.158360  0.158360  0.524919  1
  Sc  Sc19  1  0.158360  0.524919  0.158360  1
  Sc  Sc20  1  0.524919  0.158360  0.158360  1
  Sc  Sc21  1  0.158360  0.158360  0.158360  1
  Fe  Fe22  1  0.500000  0.500000  0.500000  1
  Rh  Rh23  1  0.000000  0.000000  0.000000  1
  Rh  Rh24  1  0.000000  0.000000  0.500000  1
  Rh  Rh25  1  0.500000  0.000000  0.500000  1
  Rh  Rh26  1  0.000000  0.500000  0.500000  1
  Rh  Rh27  1  0.500000  0.500000  0.000000  1
  Rh  Rh28  1  0.000000  0.500000  0.000000  1
  Rh  Rh29  1  0.500000  0.000000  0.000000  1
