# generated using pymatgen
data_Tb5Co16(MoP4)3
_symmetry_space_group_name_H-M   'P 1'
_cell_length_a   12.09366300
_cell_length_b   12.09366278
_cell_length_c   3.71571400
_cell_angle_alpha   90.00000000
_cell_angle_beta   90.00000000
_cell_angle_gamma   119.99999238
_symmetry_Int_Tables_number   1
_chemical_formula_structural   Tb5Co16(MoP4)3
_chemical_formula_sum   'Tb5 Co16 Mo3 P12'
_cell_volume   470.63981102
_cell_formula_units_Z   1
loop_
 _symmetry_equiv_pos_site_id
 _symmetry_equiv_pos_as_xyz
  1  'x, y, z'
loop_
 _atom_site_type_symbol
 _atom_site_label
 _atom_site_symmetry_multiplicity
 _atom_site_fract_x
 _atom_site_fract_y
 _atom_site_fract_z
 _atom_site_occupancy
  Tb  Tb0  1  0.666667  0.333333  0.000000  1
  Tb  Tb1  1  0.333333  0.666667  0.000000  1
  Tb  Tb2  1  0.185274  0.185274  0.500000  1
  Tb  Tb3  1  0.814726  0.000000  0.500000  1
  Tb  Tb4  1  0.000000  0.814726  0.500000  1
  Co  Co5  1  0.822882  0.198195  0.000000  1
  Co  Co6  1  0.801805  0.624688  0.000000  1
  Co  Co7  1  0.375312  0.177118  0.000000  1
  Co  Co8  1  0.198195  0.822882  0.000000  1
  Co  Co9  1  0.624688  0.801805  0.000000  1
  Co  Co10  1  0.177118  0.375312  0.000000  1
  Co  Co11  1  0.644824  0.126936  0.500000  1
  Co  Co12  1  0.873064  0.517889  0.500000  1
  Co  Co13  1  0.482111  0.355176  0.500000  1
  Co  Co14  1  0.126936  0.644824  0.500000  1
  Co  Co15  1  0.517889  0.873064  0.500000  1
  Co  Co16  1  0.355176  0.482111  0.500000  1
  Co  Co17  1  0.719247  0.719247  0.500000  1
  Co  Co18  1  0.280753  0.000000  0.500000  1
  Co  Co19  1  0.000000  0.280753  0.500000  1
  Co  Co20  1  0.000000  0.000000  0.000000  1
  Mo  Mo21  1  0.553777  0.553777  0.000000  1
  Mo  Mo22  1  0.446223  0.000000  0.000000  1
  Mo  Mo23  1  0.000000  0.446223  0.000000  1
  P  P24  1  0.361179  0.361179  0.000000  1
  P  P25  1  0.638821  0.000000  0.000000  1
  P  P26  1  0.000000  0.638821  0.000000  1
  P  P27  1  0.834656  0.313789  0.500000  1
  P  P28  1  0.686211  0.520867  0.500000  1
  P  P29  1  0.479133  0.165344  0.500000  1
  P  P30  1  0.313789  0.834656  0.500000  1
  P  P31  1  0.520867  0.686211  0.500000  1
  P  P32  1  0.165344  0.479133  0.500000  1
  P  P33  1  0.821286  0.821286  0.000000  1
  P  P34  1  0.178714  0.000000  0.000000  1
  P  P35  1  0.000000  0.178714  0.000000  1
