# generated using pymatgen
data_LaNd3(Ni7P4)2
_symmetry_space_group_name_H-M   'P 1'
_cell_length_a   3.76582600
_cell_length_b   9.25787633
_cell_length_c   10.46417349
_cell_angle_alpha   89.93881486
_cell_angle_beta   90.00000000
_cell_angle_gamma   90.00000000
_symmetry_Int_Tables_number   1
_chemical_formula_structural   LaNd3(Ni7P4)2
_chemical_formula_sum   'La1 Nd3 Ni14 P8'
_cell_volume   364.81804184
_cell_formula_units_Z   1
loop_
 _symmetry_equiv_pos_site_id
 _symmetry_equiv_pos_as_xyz
  1  'x, y, z'
loop_
 _atom_site_type_symbol
 _atom_site_label
 _atom_site_symmetry_multiplicity
 _atom_site_fract_x
 _atom_site_fract_y
 _atom_site_fract_z
 _atom_site_occupancy
  La  La0  1  0.500000  0.437734  0.500612  1
  Nd  Nd1  1  0.500000  0.059924  0.282462  1
  Nd  Nd2  1  0.000000  0.940470  0.783162  1
  Nd  Nd3  1  0.000000  0.564628  0.000052  1
  Ni  Ni4  1  0.500000  0.304574  0.074218  1
  Ni  Ni5  1  0.500000  0.747706  0.402220  1
  Ni  Ni6  1  0.500000  0.416939  0.806082  1
  Ni  Ni7  1  0.500000  0.060031  0.979337  1
  Ni  Ni8  1  0.500000  0.683075  0.762896  1
  Ni  Ni9  1  0.000000  0.272254  0.671988  1
  Ni  Ni10  1  0.000000  0.254008  0.902925  1
  Ni  Ni11  1  0.000000  0.696743  0.577525  1
  Ni  Ni12  1  0.500000  0.094770  0.585763  1
  Ni  Ni13  1  0.000000  0.317289  0.259348  1
  Ni  Ni14  1  0.000000  0.583701  0.300613  1
  Ni  Ni15  1  0.000000  0.903475  0.085131  1
  Ni  Ni16  1  0.000000  0.938392  0.478944  1
  Ni  Ni17  1  0.500000  0.726447  0.171090  1
  P  P18  1  0.000000  0.816983  0.287686  1
  P  P19  1  0.000000  0.183414  0.470909  1
  P  P20  1  0.500000  0.183554  0.788475  1
  P  P21  1  0.000000  0.156539  0.089184  1
  P  P22  1  0.500000  0.477128  0.214761  1
  P  P23  1  0.500000  0.814279  0.970036  1
  P  P24  1  0.500000  0.842426  0.590060  1
  P  P25  1  0.000000  0.523519  0.719921  1
