# generated using pymatgen
data_Ca3Ta(NbN3)2
_symmetry_space_group_name_H-M   'P 1'
_cell_length_a   5.53775780
_cell_length_b   5.53775733
_cell_length_c   5.87159764
_cell_angle_alpha   98.89141547
_cell_angle_beta   98.89141951
_cell_angle_gamma   120.25320161
_symmetry_Int_Tables_number   1
_chemical_formula_structural   Ca3Ta(NbN3)2
_chemical_formula_sum   'Ca3 Ta1 Nb2 N6'
_cell_volume   147.86132171
_cell_formula_units_Z   1
loop_
 _symmetry_equiv_pos_site_id
 _symmetry_equiv_pos_as_xyz
  1  'x, y, z'
loop_
 _atom_site_type_symbol
 _atom_site_label
 _atom_site_symmetry_multiplicity
 _atom_site_fract_x
 _atom_site_fract_y
 _atom_site_fract_z
 _atom_site_occupancy
  Ca  Ca0  1  0.832329  0.167671  0.500000  1
  Ca  Ca1  1  0.167671  0.832329  0.500000  1
  Ca  Ca2  1  0.500000  0.500000  0.500000  1
  Ta  Ta3  1  0.000000  0.000000  0.000000  1
  Nb  Nb4  1  0.334415  0.665585  0.000000  1
  Nb  Nb5  1  0.665585  0.334415  0.000000  1
  N  N6  1  0.399909  0.072811  0.215135  1
  N  N7  1  0.927189  0.600091  0.784865  1
  N  N8  1  0.600091  0.927189  0.784865  1
  N  N9  1  0.072811  0.399909  0.215135  1
  N  N10  1  0.746108  0.746108  0.216412  1
  N  N11  1  0.253892  0.253892  0.783588  1
