# generated using pymatgen
data_Y11Ho5Cd4Pd3Ru
_symmetry_space_group_name_H-M   'P 1'
_cell_length_a   9.69491794
_cell_length_b   9.70722199
_cell_length_c   9.70722214
_cell_angle_alpha   59.60007894
_cell_angle_beta   59.63944315
_cell_angle_gamma   59.63942998
_symmetry_Int_Tables_number   1
_chemical_formula_structural   Y11Ho5Cd4Pd3Ru
_chemical_formula_sum   'Y11 Ho5 Cd4 Pd3 Ru1'
_cell_volume   640.49412662
_cell_formula_units_Z   1
loop_
 _symmetry_equiv_pos_site_id
 _symmetry_equiv_pos_as_xyz
  1  'x, y, z'
loop_
 _atom_site_type_symbol
 _atom_site_label
 _atom_site_symmetry_multiplicity
 _atom_site_fract_x
 _atom_site_fract_y
 _atom_site_fract_z
 _atom_site_occupancy
  Y  Y0  1  0.188892  0.810120  0.810120  1
  Y  Y1  1  0.188333  0.816451  0.188695  1
  Y  Y2  1  0.810271  0.188887  0.810265  1
  Y  Y3  1  0.188333  0.188695  0.816451  1
  Y  Y4  1  0.810271  0.810265  0.188887  1
  Y  Y5  1  0.935178  0.565509  0.565509  1
  Y  Y6  1  0.560833  0.936197  0.936197  1
  Y  Y7  1  0.565800  0.935324  0.565196  1
  Y  Y8  1  0.936263  0.560059  0.936622  1
  Y  Y9  1  0.565800  0.565196  0.935324  1
  Y  Y10  1  0.936263  0.936622  0.560059  1
  Ho  Ho11  1  0.353477  0.353084  0.353084  1
  Ho  Ho12  1  0.350139  0.349861  0.945489  1
  Ho  Ho13  1  0.350139  0.945489  0.349861  1
  Ho  Ho14  1  0.944912  0.350124  0.350124  1
  Ho  Ho15  1  0.816864  0.188471  0.188471  1
  Cd  Cd16  1  0.580476  0.580519  0.580519  1
  Cd  Cd17  1  0.581304  0.581445  0.254104  1
  Cd  Cd18  1  0.581304  0.254104  0.581445  1
  Cd  Cd19  1  0.254096  0.581349  0.581349  1
  Pd  Pd20  1  0.145691  0.145478  0.565538  1
  Pd  Pd21  1  0.145691  0.565538  0.145478  1
  Pd  Pd22  1  0.566722  0.145835  0.145835  1
  Ru  Ru23  1  0.142943  0.145377  0.145377  1
