# generated using pymatgen
data_Hf4FeCu2Si4Pd
_symmetry_space_group_name_H-M   'P 1'
_cell_length_a   3.84700000
_cell_length_b   6.48681665
_cell_length_c   7.38350297
_cell_angle_alpha   90.64090433
_cell_angle_beta   90.00000000
_cell_angle_gamma   90.00000000
_symmetry_Int_Tables_number   1
_chemical_formula_structural   Hf4FeCu2Si4Pd
_chemical_formula_sum   'Hf4 Fe1 Cu2 Si4 Pd1'
_cell_volume   184.24219214
_cell_formula_units_Z   1
loop_
 _symmetry_equiv_pos_site_id
 _symmetry_equiv_pos_as_xyz
  1  'x, y, z'
loop_
 _atom_site_type_symbol
 _atom_site_label
 _atom_site_symmetry_multiplicity
 _atom_site_fract_x
 _atom_site_fract_y
 _atom_site_fract_z
 _atom_site_occupancy
  Hf  Hf0  1  0.250000  0.520993  0.681617  1
  Hf  Hf1  1  0.750000  0.480533  0.327866  1
  Hf  Hf2  1  0.250000  0.017567  0.808852  1
  Hf  Hf3  1  0.750000  0.972780  0.184725  1
  Fe  Fe4  1  0.750000  0.868111  0.554032  1
  Cu  Cu5  1  0.250000  0.146031  0.436153  1
  Cu  Cu6  1  0.750000  0.351652  0.939733  1
  Si  Si7  1  0.250000  0.261815  0.120851  1
  Si  Si8  1  0.750000  0.740935  0.862759  1
  Si  Si9  1  0.250000  0.771264  0.399823  1
  Si  Si10  1  0.750000  0.225033  0.619859  1
  Pd  Pd11  1  0.250000  0.643288  0.063732  1
