# generated using pymatgen
data_NdY3CdCo
_symmetry_space_group_name_H-M   'P 1'
_cell_length_a   9.62746142
_cell_length_b   9.62746219
_cell_length_c   9.62746200
_cell_angle_alpha   60.00000065
_cell_angle_beta   59.99999802
_cell_angle_gamma   59.99999933
_symmetry_Int_Tables_number   1
_chemical_formula_structural   NdY3CdCo
_chemical_formula_sum   'Nd4 Y12 Cd4 Co4'
_cell_volume   630.98700847
_cell_formula_units_Z   4
loop_
 _symmetry_equiv_pos_site_id
 _symmetry_equiv_pos_as_xyz
  1  'x, y, z'
loop_
 _atom_site_type_symbol
 _atom_site_label
 _atom_site_symmetry_multiplicity
 _atom_site_fract_x
 _atom_site_fract_y
 _atom_site_fract_z
 _atom_site_occupancy
  Nd  Nd0  1  0.598153  0.598153  0.598153  1
  Nd  Nd1  1  0.598153  0.598153  0.205541  1
  Nd  Nd2  1  0.598153  0.205541  0.598153  1
  Nd  Nd3  1  0.205541  0.598153  0.598153  1
  Y  Y4  1  0.063134  0.436866  0.436866  1
  Y  Y5  1  0.436866  0.063134  0.063134  1
  Y  Y6  1  0.436866  0.063134  0.436866  1
  Y  Y7  1  0.063134  0.436866  0.063134  1
  Y  Y8  1  0.436866  0.436866  0.063134  1
  Y  Y9  1  0.063134  0.063134  0.436866  1
  Y  Y10  1  0.186726  0.813274  0.813274  1
  Y  Y11  1  0.813274  0.186726  0.186726  1
  Y  Y12  1  0.813274  0.186726  0.813274  1
  Y  Y13  1  0.186726  0.813274  0.186726  1
  Y  Y14  1  0.813274  0.813274  0.186726  1
  Y  Y15  1  0.186726  0.186726  0.813274  1
  Cd  Cd16  1  0.830640  0.830640  0.830640  1
  Cd  Cd17  1  0.830640  0.830640  0.508078  1
  Cd  Cd18  1  0.830640  0.508078  0.830640  1
  Cd  Cd19  1  0.508078  0.830640  0.830640  1
  Co  Co20  1  0.390282  0.390282  0.390282  1
  Co  Co21  1  0.390282  0.390282  0.829155  1
  Co  Co22  1  0.390282  0.829155  0.390282  1
  Co  Co23  1  0.829155  0.390282  0.390282  1
