# generated using pymatgen
data_Hf3Zr3(PN)2
_symmetry_space_group_name_H-M   'P 1'
_cell_length_a   5.81349022
_cell_length_b   5.81349121
_cell_length_c   8.36484304
_cell_angle_alpha   90.01044830
_cell_angle_beta   89.98955269
_cell_angle_gamma   145.78993914
_symmetry_Int_Tables_number   1
_chemical_formula_structural   Hf3Zr3(PN)2
_chemical_formula_sum   'Hf3 Zr3 P2 N2'
_cell_volume   158.94420149
_cell_formula_units_Z   1
loop_
 _symmetry_equiv_pos_site_id
 _symmetry_equiv_pos_as_xyz
  1  'x, y, z'
loop_
 _atom_site_type_symbol
 _atom_site_label
 _atom_site_symmetry_multiplicity
 _atom_site_fract_x
 _atom_site_fract_y
 _atom_site_fract_z
 _atom_site_occupancy
  Hf  Hf0  1  0.936269  0.063731  0.250370  1
  Hf  Hf1  1  0.063006  0.936994  0.750017  1
  Hf  Hf2  1  0.365671  0.634329  0.941748  1
  Zr  Zr3  1  0.635922  0.364078  0.440948  1
  Zr  Zr4  1  0.364757  0.635243  0.559445  1
  Zr  Zr5  1  0.635877  0.364123  0.058302  1
  P  P6  1  0.260012  0.739988  0.247906  1
  P  P7  1  0.741927  0.258073  0.752720  1
  N  N8  1  0.000329  0.999671  0.500358  1
  N  N9  1  0.996228  0.003772  0.998185  1
