# generated using pymatgen
data_Tb7Ho13Si15Pt
_symmetry_space_group_name_H-M   'P 1'
_cell_length_a   7.37169121
_cell_length_b   7.73910835
_cell_length_c   14.54710700
_cell_angle_alpha   89.98322388
_cell_angle_beta   89.98637497
_cell_angle_gamma   90.00393462
_symmetry_Int_Tables_number   1
_chemical_formula_structural   Tb7Ho13Si15Pt
_chemical_formula_sum   'Tb7 Ho13 Si15 Pt1'
_cell_volume   829.91700456
_cell_formula_units_Z   1
loop_
 _symmetry_equiv_pos_site_id
 _symmetry_equiv_pos_as_xyz
  1  'x, y, z'
loop_
 _atom_site_type_symbol
 _atom_site_label
 _atom_site_symmetry_multiplicity
 _atom_site_fract_x
 _atom_site_fract_y
 _atom_site_fract_z
 _atom_site_occupancy
  Tb  Tb0  1  0.024138  0.819011  0.904587  1
  Tb  Tb1  1  0.474953  0.315681  0.097648  1
  Tb  Tb2  1  0.974678  0.181552  0.402973  1
  Tb  Tb3  1  0.475068  0.315773  0.402724  1
  Tb  Tb4  1  0.975073  0.181492  0.097144  1
  Tb  Tb5  1  0.521924  0.679373  0.906081  1
  Tb  Tb6  1  0.024360  0.818914  0.595223  1
  Ho  Ho7  1  0.676775  0.181615  0.623776  1
  Ho  Ho8  1  0.187446  0.324241  0.875443  1
  Ho  Ho9  1  0.318873  0.819707  0.123628  1
  Ho  Ho10  1  0.817683  0.676855  0.376210  1
  Ho  Ho11  1  0.319119  0.819388  0.376579  1
  Ho  Ho12  1  0.817759  0.677008  0.123819  1
  Ho  Ho13  1  0.676604  0.181634  0.876001  1
  Ho  Ho14  1  0.187609  0.324390  0.624113  1
  Ho  Ho15  1  0.522566  0.679452  0.594638  1
  Ho  Ho16  1  0.844352  0.512104  0.749912  1
  Ho  Ho17  1  0.353729  0.983139  0.749908  1
  Ho  Ho18  1  0.150066  0.485764  0.250004  1
  Ho  Ho19  1  0.649927  0.012624  0.250035  1
  Si  Si20  1  0.648302  0.968767  0.460882  1
  Si  Si21  1  0.148498  0.529075  0.039511  1
  Si  Si22  1  0.349842  0.027461  0.960685  1
  Si  Si23  1  0.852628  0.471735  0.539823  1
  Si  Si24  1  0.350357  0.026240  0.539683  1
  Si  Si25  1  0.853585  0.470997  0.960292  1
  Si  Si26  1  0.648308  0.969670  0.039354  1
  Si  Si27  1  0.147999  0.528894  0.460307  1
  Si  Si28  1  0.978734  0.104378  0.749790  1
  Si  Si29  1  0.522081  0.604583  0.250102  1
  Si  Si30  1  0.021533  0.892882  0.250088  1
  Si  Si31  1  0.738506  0.877377  0.749755  1
  Si  Si32  1  0.226577  0.632612  0.749614  1
  Si  Si33  1  0.268587  0.127011  0.250209  1
  Si  Si34  1  0.769784  0.371363  0.250086  1
  Pt  Pt35  1  0.481977  0.407232  0.749374  1
