# generated using pymatgen
data_Er3Al2GaNiPd2
_symmetry_space_group_name_H-M   'P 1'
_cell_length_a   7.21842400
_cell_length_b   7.18012906
_cell_length_c   3.80973500
_cell_angle_alpha   90.00000000
_cell_angle_beta   90.00000000
_cell_angle_gamma   120.17658684
_symmetry_Int_Tables_number   1
_chemical_formula_structural   Er3Al2GaNiPd2
_chemical_formula_sum   'Er3 Al2 Ga1 Ni1 Pd2'
_cell_volume   170.69645386
_cell_formula_units_Z   1
loop_
 _symmetry_equiv_pos_site_id
 _symmetry_equiv_pos_as_xyz
  1  'x, y, z'
loop_
 _atom_site_type_symbol
 _atom_site_label
 _atom_site_symmetry_multiplicity
 _atom_site_fract_x
 _atom_site_fract_y
 _atom_site_fract_z
 _atom_site_occupancy
  Er  Er0  1  0.409521  0.000000  0.500000  1
  Er  Er1  1  0.995876  0.400207  0.500000  1
  Er  Er2  1  0.595670  0.599793  0.500000  1
  Al  Al3  1  0.002122  0.765893  0.000000  1
  Al  Al4  1  0.236229  0.234107  0.000000  1
  Ga  Ga5  1  0.762538  0.000000  0.000000  1
  Ni  Ni6  1  0.006021  0.000000  0.500000  1
  Pd  Pd7  1  0.326616  0.661210  0.000000  1
  Pd  Pd8  1  0.665407  0.338790  0.000000  1
