# generated using pymatgen
data_Li2HfScPt2
_symmetry_space_group_name_H-M   'P 1'
_cell_length_a   5.11465694
_cell_length_b   5.11465644
_cell_length_c   5.12488400
_cell_angle_alpha   90.00000000
_cell_angle_beta   90.00000000
_cell_angle_gamma   130.00553704
_symmetry_Int_Tables_number   1
_chemical_formula_structural   Li2HfScPt2
_chemical_formula_sum   'Li2 Hf1 Sc1 Pt2'
_cell_volume   102.69179894
_cell_formula_units_Z   1
loop_
 _symmetry_equiv_pos_site_id
 _symmetry_equiv_pos_as_xyz
  1  'x, y, z'
loop_
 _atom_site_type_symbol
 _atom_site_label
 _atom_site_symmetry_multiplicity
 _atom_site_fract_x
 _atom_site_fract_y
 _atom_site_fract_z
 _atom_site_occupancy
  Li  Li0  1  0.001986  0.998014  0.498998  1
  Li  Li1  1  0.001986  0.998014  0.001002  1
  Hf  Hf2  1  0.710209  0.289791  0.250000  1
  Sc  Sc3  1  0.288780  0.711220  0.750000  1
  Pt  Pt4  1  0.394701  0.605299  0.250000  1
  Pt  Pt5  1  0.602338  0.397662  0.750000  1
