# generated using pymatgen
data_Pr4B4SbIr9
_symmetry_space_group_name_H-M   'P 1'
_cell_length_a   10.98745944
_cell_length_b   10.98745909
_cell_length_c   10.98745900
_cell_angle_alpha   29.69539222
_cell_angle_beta   29.69539542
_cell_angle_gamma   29.69539458
_symmetry_Int_Tables_number   1
_chemical_formula_structural   Pr4B4SbIr9
_chemical_formula_sum   'Pr4 B4 Sb1 Ir9'
_cell_volume   288.21456122
_cell_formula_units_Z   1
loop_
 _symmetry_equiv_pos_site_id
 _symmetry_equiv_pos_as_xyz
  1  'x, y, z'
loop_
 _atom_site_type_symbol
 _atom_site_label
 _atom_site_symmetry_multiplicity
 _atom_site_fract_x
 _atom_site_fract_y
 _atom_site_fract_z
 _atom_site_occupancy
  Pr  Pr0  1  0.147932  0.147932  0.147932  1
  Pr  Pr1  1  0.950725  0.950725  0.950725  1
  Pr  Pr2  1  0.852068  0.852068  0.852068  1
  Pr  Pr3  1  0.049275  0.049275  0.049275  1
  B  B4  1  0.616841  0.616841  0.616841  1
  B  B5  1  0.716812  0.716812  0.716812  1
  B  B6  1  0.383159  0.383159  0.383159  1
  B  B7  1  0.283188  0.283188  0.283188  1
  Sb  Sb8  1  0.500000  0.500000  0.500000  1
  Ir  Ir9  1  0.404464  0.906376  0.404464  1
  Ir  Ir10  1  0.906376  0.404464  0.404464  1
  Ir  Ir11  1  0.500000  0.500000  0.000000  1
  Ir  Ir12  1  0.500000  0.000000  0.500000  1
  Ir  Ir13  1  0.000000  0.500000  0.500000  1
  Ir  Ir14  1  0.595536  0.093624  0.595536  1
  Ir  Ir15  1  0.595536  0.595536  0.093624  1
  Ir  Ir16  1  0.093624  0.595536  0.595536  1
  Ir  Ir17  1  0.404464  0.404464  0.906376  1
