# generated using pymatgen
data_Tb7Tm7Th2(CdNi)4
_symmetry_space_group_name_H-M   'P 1'
_cell_length_a   9.53816104
_cell_length_b   9.53816087
_cell_length_c   9.54124000
_cell_angle_alpha   59.98931361
_cell_angle_beta   59.98931421
_cell_angle_gamma   60.03323389
_symmetry_Int_Tables_number   1
_chemical_formula_structural   Tb7Tm7Th2(CdNi)4
_chemical_formula_sum   'Tb7 Tm7 Th2 Cd4 Ni4'
_cell_volume   613.84380230
_cell_formula_units_Z   1
loop_
 _symmetry_equiv_pos_site_id
 _symmetry_equiv_pos_as_xyz
  1  'x, y, z'
loop_
 _atom_site_type_symbol
 _atom_site_label
 _atom_site_symmetry_multiplicity
 _atom_site_fract_x
 _atom_site_fract_y
 _atom_site_fract_z
 _atom_site_occupancy
  Tb  Tb0  1  0.812423  0.812423  0.187577  1
  Tb  Tb1  1  0.937352  0.563146  0.565841  1
  Tb  Tb2  1  0.563146  0.937352  0.933659  1
  Tb  Tb3  1  0.563146  0.937352  0.565841  1
  Tb  Tb4  1  0.937352  0.563146  0.933659  1
  Tb  Tb5  1  0.563796  0.563796  0.936204  1
  Tb  Tb6  1  0.935829  0.935829  0.564171  1
  Tm  Tm7  1  0.346755  0.951407  0.350920  1
  Tm  Tm8  1  0.951407  0.346755  0.350920  1
  Tm  Tm9  1  0.813583  0.189179  0.186434  1
  Tm  Tm10  1  0.189179  0.813583  0.810806  1
  Tm  Tm11  1  0.189179  0.813583  0.186434  1
  Tm  Tm12  1  0.813583  0.189179  0.810806  1
  Tm  Tm13  1  0.187154  0.187154  0.812846  1
  Th  Th14  1  0.343905  0.343905  0.351028  1
  Th  Th15  1  0.343905  0.343905  0.961161  1
  Cd  Cd16  1  0.582375  0.582375  0.579459  1
  Cd  Cd17  1  0.582375  0.582375  0.255790  1
  Cd  Cd18  1  0.583885  0.256564  0.579775  1
  Cd  Cd19  1  0.256564  0.583885  0.579775  1
  Ni  Ni20  1  0.142976  0.142976  0.141048  1
  Ni  Ni21  1  0.142976  0.142976  0.573001  1
  Ni  Ni22  1  0.146413  0.570742  0.141423  1
  Ni  Ni23  1  0.570742  0.146413  0.141423  1
