# generated using pymatgen
data_Rb2Li14Zr3O14
_symmetry_space_group_name_H-M   'P 1'
_cell_length_a   8.33335762
_cell_length_b   8.33335752
_cell_length_c   8.33335785
_cell_angle_alpha   127.73776729
_cell_angle_beta   123.48644398
_cell_angle_gamma   80.57316308
_symmetry_Int_Tables_number   1
_chemical_formula_structural   Rb2Li14Zr3O14
_chemical_formula_sum   'Rb2 Li14 Zr3 O14'
_cell_volume   368.18484179
_cell_formula_units_Z   1
loop_
 _symmetry_equiv_pos_site_id
 _symmetry_equiv_pos_as_xyz
  1  'x, y, z'
loop_
 _atom_site_type_symbol
 _atom_site_label
 _atom_site_symmetry_multiplicity
 _atom_site_fract_x
 _atom_site_fract_y
 _atom_site_fract_z
 _atom_site_occupancy
  Rb  Rb0  1  0.500000  0.770491  0.270491  1
  Rb  Rb1  1  0.500000  0.229509  0.729509  1
  Li  Li2  1  0.706326  0.136093  0.114441  1
  Li  Li3  1  0.978348  0.863907  0.570232  1
  Li  Li4  1  0.021652  0.591885  0.885559  1
  Li  Li5  1  0.293674  0.408115  0.429768  1
  Li  Li6  1  0.021652  0.136093  0.429768  1
  Li  Li7  1  0.845297  0.500000  0.345297  1
  Li  Li8  1  0.154703  0.500000  0.654703  1
  Li  Li9  1  0.413134  0.769976  0.643159  1
  Li  Li10  1  0.586866  0.230024  0.356841  1
  Li  Li11  1  0.873183  0.230024  0.643159  1
  Li  Li12  1  0.126817  0.769976  0.356841  1
  Li  Li13  1  0.706326  0.591885  0.570232  1
  Li  Li14  1  0.293674  0.863907  0.885559  1
  Li  Li15  1  0.978348  0.408115  0.114441  1
  Zr  Zr16  1  0.000000  0.000000  0.000000  1
  Zr  Zr17  1  0.271103  0.271103  0.000000  1
  Zr  Zr18  1  0.728897  0.728897  0.000000  1
  O  O19  1  0.052288  0.872497  0.179791  1
  O  O20  1  0.420761  0.631054  0.789707  1
  O  O21  1  0.841348  0.631054  0.210293  1
  O  O22  1  0.579239  0.368946  0.210293  1
  O  O23  1  0.158652  0.368946  0.789707  1
  O  O24  1  0.746832  0.033239  0.286407  1
  O  O25  1  0.253168  0.539576  0.286407  1
  O  O26  1  0.253168  0.966761  0.713593  1
  O  O27  1  0.746832  0.460424  0.713593  1
  O  O28  1  0.000000  0.711581  0.711581  1
  O  O29  1  0.000000  0.288419  0.288419  1
  O  O30  1  0.692707  0.872497  0.820209  1
  O  O31  1  0.307293  0.127503  0.179791  1
  O  O32  1  0.947712  0.127503  0.820209  1
