# generated using pymatgen
data_TbPa3(AlTc)4
_symmetry_space_group_name_H-M   'P 1'
_cell_length_a   3.93478400
_cell_length_b   6.97060021
_cell_length_c   8.42697502
_cell_angle_alpha   90.81832765
_cell_angle_beta   90.00000000
_cell_angle_gamma   90.00000000
_symmetry_Int_Tables_number   1
_chemical_formula_structural   TbPa3(AlTc)4
_chemical_formula_sum   'Tb1 Pa3 Al4 Tc4'
_cell_volume   231.10986321
_cell_formula_units_Z   1
loop_
 _symmetry_equiv_pos_site_id
 _symmetry_equiv_pos_as_xyz
  1  'x, y, z'
loop_
 _atom_site_type_symbol
 _atom_site_label
 _atom_site_symmetry_multiplicity
 _atom_site_fract_x
 _atom_site_fract_y
 _atom_site_fract_z
 _atom_site_occupancy
  Tb  Tb0  1  0.750000  0.464462  0.183785  1
  Pa  Pa1  1  0.250000  0.026869  0.685593  1
  Pa  Pa2  1  0.250000  0.530571  0.814871  1
  Pa  Pa3  1  0.750000  0.968133  0.309741  1
  Al  Al4  1  0.250000  0.145776  0.053738  1
  Al  Al5  1  0.250000  0.627607  0.441497  1
  Al  Al6  1  0.750000  0.870681  0.947316  1
  Al  Al7  1  0.750000  0.363254  0.551625  1
  Tc  Tc8  1  0.250000  0.227687  0.376835  1
  Tc  Tc9  1  0.250000  0.774410  0.139103  1
  Tc  Tc10  1  0.750000  0.746488  0.641212  1
  Tc  Tc11  1  0.750000  0.254064  0.854684  1
