# generated using pymatgen
data_Y13Er3MgNi4Ag3
_symmetry_space_group_name_H-M   'P 1'
_cell_length_a   9.48828882
_cell_length_b   9.49284199
_cell_length_c   9.49271626
_cell_angle_alpha   60.07167410
_cell_angle_beta   60.21434901
_cell_angle_gamma   60.21308429
_symmetry_Int_Tables_number   1
_chemical_formula_structural   Y13Er3MgNi4Ag3
_chemical_formula_sum   'Y13 Er3 Mg1 Ni4 Ag3'
_cell_volume   606.86381055
_cell_formula_units_Z   1
loop_
 _symmetry_equiv_pos_site_id
 _symmetry_equiv_pos_as_xyz
  1  'x, y, z'
loop_
 _atom_site_type_symbol
 _atom_site_label
 _atom_site_symmetry_multiplicity
 _atom_site_fract_x
 _atom_site_fract_y
 _atom_site_fract_z
 _atom_site_occupancy
  Y  Y0  1  0.183101  0.815230  0.815229  1
  Y  Y1  1  0.812480  0.186728  0.186753  1
  Y  Y2  1  0.813055  0.185785  0.814805  1
  Y  Y3  1  0.184826  0.814600  0.188146  1
  Y  Y4  1  0.813058  0.814800  0.185782  1
  Y  Y5  1  0.184825  0.188123  0.814611  1
  Y  Y6  1  0.058451  0.441297  0.441264  1
  Y  Y7  1  0.437493  0.061445  0.061435  1
  Y  Y8  1  0.438612  0.061889  0.437736  1
  Y  Y9  1  0.058529  0.439214  0.059755  1
  Y  Y10  1  0.438600  0.437748  0.061890  1
  Y  Y11  1  0.058520  0.059768  0.439198  1
  Y  Y12  1  0.595576  0.597114  0.597124  1
  Er  Er13  1  0.599336  0.597356  0.207685  1
  Er  Er14  1  0.599358  0.207645  0.597383  1
  Er  Er15  1  0.194927  0.603096  0.603073  1
  Mg  Mg16  1  0.538175  0.820115  0.820102  1
  Ni  Ni17  1  0.392785  0.396144  0.396126  1
  Ni  Ni18  1  0.388900  0.393264  0.820174  1
  Ni  Ni19  1  0.388866  0.820172  0.393254  1
  Ni  Ni20  1  0.820464  0.392014  0.392032  1
  Ag  Ag21  1  0.832546  0.832794  0.832784  1
  Ag  Ag22  1  0.833757  0.833478  0.500183  1
  Ag  Ag23  1  0.833760  0.500184  0.833479  1
