# generated using pymatgen
data_CsY5TmSc4(C2I9)2
_symmetry_space_group_name_H-M   'P 1'
_cell_length_a   11.46675531
_cell_length_b   11.44371136
_cell_length_c   11.39125549
_cell_angle_alpha   112.83348480
_cell_angle_beta   86.27189467
_cell_angle_gamma   120.63051023
_symmetry_Int_Tables_number   1
_chemical_formula_structural   CsY5TmSc4(C2I9)2
_chemical_formula_sum   'Cs1 Y5 Tm1 Sc4 C4 I18'
_cell_volume   1168.71573703
_cell_formula_units_Z   1
loop_
 _symmetry_equiv_pos_site_id
 _symmetry_equiv_pos_as_xyz
  1  'x, y, z'
loop_
 _atom_site_type_symbol
 _atom_site_label
 _atom_site_symmetry_multiplicity
 _atom_site_fract_x
 _atom_site_fract_y
 _atom_site_fract_z
 _atom_site_occupancy
  Cs  Cs0  1  0.499446  0.994163  0.497795  1
  Y  Y1  1  0.104161  0.943756  0.999880  1
  Y  Y2  1  0.036396  0.966969  0.674528  1
  Y  Y3  1  0.320699  0.276260  0.289609  1
  Y  Y4  1  0.719902  0.644064  0.985663  1
  Y  Y5  1  0.894357  0.053797  0.998691  1
  Tm  Tm6  1  0.906811  0.616007  0.709958  1
  Sc  Sc7  1  0.696383  0.735531  0.725800  1
  Sc  Sc8  1  0.267548  0.343280  0.020960  1
  Sc  Sc9  1  0.092789  0.371721  0.279192  1
  Sc  Sc10  1  0.968003  0.042691  0.315529  1
  C  C11  1  0.150711  0.217228  0.118979  1
  C  C12  1  0.849203  0.780053  0.880407  1
  C  C13  1  0.925886  0.858215  0.803882  1
  C  C14  1  0.073879  0.140735  0.195540  1
  I  I15  1  0.455474  0.535851  0.829774  1
  I  I16  1  0.383144  0.040951  0.158518  1
  I  I17  1  0.775617  0.857241  0.507584  1
  I  I18  1  0.849170  0.311994  0.159494  1
  I  I19  1  0.539152  0.468979  0.162968  1
  I  I20  1  0.209410  0.143216  0.494153  1
  I  I21  1  0.318195  0.109782  0.834421  1
  I  I22  1  0.690085  0.904701  0.177964  1
  I  I23  1  0.970838  0.764582  0.178584  1
  I  I24  1  0.937720  0.289020  0.486919  1
  I  I25  1  0.038463  0.253546  0.837389  1
  I  I26  1  0.066390  0.706576  0.502233  1
  I  I27  1  0.254349  0.601471  0.176342  1
  I  I28  1  0.743969  0.379414  0.814681  1
  I  I29  1  0.645301  0.453862  0.513334  1
  I  I30  1  0.158316  0.689828  0.843438  1
  I  I31  1  0.620835  0.949138  0.839070  1
  I  I32  1  0.337401  0.555379  0.486722  1
