# generated using pymatgen
data_Na11Cd2Bi5
_symmetry_space_group_name_H-M   'P 1'
_cell_length_a   9.32766480
_cell_length_b   11.06018248
_cell_length_c   11.99346297
_cell_angle_alpha   103.36679639
_cell_angle_beta   97.13630874
_cell_angle_gamma   107.31775998
_symmetry_Int_Tables_number   1
_chemical_formula_structural   Na11Cd2Bi5
_chemical_formula_sum   'Na22 Cd4 Bi10'
_cell_volume   1124.12831171
_cell_formula_units_Z   2
loop_
 _symmetry_equiv_pos_site_id
 _symmetry_equiv_pos_as_xyz
  1  'x, y, z'
loop_
 _atom_site_type_symbol
 _atom_site_label
 _atom_site_symmetry_multiplicity
 _atom_site_fract_x
 _atom_site_fract_y
 _atom_site_fract_z
 _atom_site_occupancy
  Na  Na0  1  0.849145  0.571356  0.955065  1
  Na  Na1  1  0.150855  0.428644  0.044935  1
  Na  Na2  1  0.296922  0.892510  0.776297  1
  Na  Na3  1  0.703078  0.107490  0.223703  1
  Na  Na4  1  0.632856  0.165128  0.534123  1
  Na  Na5  1  0.367144  0.834872  0.465877  1
  Na  Na6  1  0.632555  0.672912  0.558584  1
  Na  Na7  1  0.367445  0.327088  0.441416  1
  Na  Na8  1  0.214944  0.562665  0.576743  1
  Na  Na9  1  0.785056  0.437335  0.423257  1
  Na  Na10  1  0.055232  0.702132  0.245784  1
  Na  Na11  1  0.944768  0.297868  0.754216  1
  Na  Na12  1  0.214727  0.083795  0.576937  1
  Na  Na13  1  0.785273  0.916205  0.423063  1
  Na  Na14  1  0.866054  0.089494  0.975107  1
  Na  Na15  1  0.133946  0.910506  0.024893  1
  Na  Na16  1  0.574470  0.224378  0.855844  1
  Na  Na17  1  0.425530  0.775622  0.144156  1
  Na  Na18  1  0.410031  0.255559  0.151409  1
  Na  Na19  1  0.589969  0.744441  0.848591  1
  Na  Na20  1  0.335201  0.409674  0.792285  1
  Na  Na21  1  0.664799  0.590326  0.207715  1
  Cd  Cd22  1  0.944632  0.955239  0.713582  1
  Cd  Cd23  1  0.055368  0.044761  0.286418  1
  Cd  Cd24  1  0.943854  0.623939  0.710664  1
  Cd  Cd25  1  0.056146  0.376061  0.289336  1
  Bi  Bi26  1  0.005256  0.758283  0.522188  1
  Bi  Bi27  1  0.994744  0.241717  0.477812  1
  Bi  Bi28  1  0.632002  0.443639  0.689330  1
  Bi  Bi29  1  0.367998  0.556361  0.310670  1
  Bi  Bi30  1  0.634650  0.968280  0.698576  1
  Bi  Bi31  1  0.365350  0.031720  0.301424  1
  Bi  Bi32  1  0.206248  0.157095  0.884267  1
  Bi  Bi33  1  0.793752  0.842905  0.115733  1
  Bi  Bi34  1  0.204018  0.638781  0.883472  1
  Bi  Bi35  1  0.795982  0.361219  0.116528  1
