# generated using pymatgen
data_Ta3Ti10P8W
_symmetry_space_group_name_H-M   'P 1'
_cell_length_a   7.54451956
_cell_length_b   7.54451986
_cell_length_c   13.60362829
_cell_angle_alpha   75.97580361
_cell_angle_beta   75.97580346
_cell_angle_gamma   26.02651562
_symmetry_Int_Tables_number   1
_chemical_formula_structural   Ta3Ti10P8W
_chemical_formula_sum   'Ta3 Ti10 P8 W1'
_cell_volume   329.08287690
_cell_formula_units_Z   1
loop_
 _symmetry_equiv_pos_site_id
 _symmetry_equiv_pos_as_xyz
  1  'x, y, z'
loop_
 _atom_site_type_symbol
 _atom_site_label
 _atom_site_symmetry_multiplicity
 _atom_site_fract_x
 _atom_site_fract_y
 _atom_site_fract_z
 _atom_site_occupancy
  Ta  Ta0  1  0.000000  0.000000  0.000000  1
  Ta  Ta1  1  0.427797  0.427797  0.174838  1
  Ta  Ta2  1  0.572203  0.572203  0.825162  1
  Ti  Ti3  1  0.198204  0.198204  0.688314  1
  Ti  Ti4  1  0.801796  0.801796  0.311686  1
  Ti  Ti5  1  0.207410  0.207410  0.207447  1
  Ti  Ti6  1  0.792590  0.792590  0.792553  1
  Ti  Ti7  1  0.339224  0.339224  0.968871  1
  Ti  Ti8  1  0.660776  0.660776  0.031129  1
  Ti  Ti9  1  0.003375  0.003375  0.339560  1
  Ti  Ti10  1  0.996625  0.996625  0.660440  1
  Ti  Ti11  1  0.175365  0.175365  0.460068  1
  Ti  Ti12  1  0.824635  0.824635  0.539932  1
  P  P13  1  0.180449  0.180449  0.889307  1
  P  P14  1  0.819551  0.819551  0.110693  1
  P  P15  1  0.373216  0.373216  0.395467  1
  P  P16  1  0.626784  0.626784  0.604533  1
  P  P17  1  0.369612  0.369612  0.659041  1
  P  P18  1  0.630388  0.630388  0.340959  1
  P  P19  1  0.064311  0.064311  0.154221  1
  P  P20  1  0.935689  0.935689  0.845779  1
  W  W21  1  0.500000  0.500000  0.500000  1
