# generated using pymatgen
data_LaCu5Ag
_symmetry_space_group_name_H-M   'P 1'
_cell_length_a   5.11346500
_cell_length_b   8.36095600
_cell_length_c   10.46277600
_cell_angle_alpha   90.00000000
_cell_angle_beta   90.00000000
_cell_angle_gamma   90.00000000
_symmetry_Int_Tables_number   1
_chemical_formula_structural   LaCu5Ag
_chemical_formula_sum   'La4 Cu20 Ag4'
_cell_volume   447.31983202
_cell_formula_units_Z   4
loop_
 _symmetry_equiv_pos_site_id
 _symmetry_equiv_pos_as_xyz
  1  'x, y, z'
loop_
 _atom_site_type_symbol
 _atom_site_label
 _atom_site_symmetry_multiplicity
 _atom_site_fract_x
 _atom_site_fract_y
 _atom_site_fract_z
 _atom_site_occupancy
  La  La0  1  0.250000  0.758400  0.062626  1
  La  La1  1  0.750000  0.241600  0.937374  1
  La  La2  1  0.750000  0.741600  0.562626  1
  La  La3  1  0.250000  0.258400  0.437374  1
  Cu  Cu4  1  0.250000  0.816463  0.746358  1
  Cu  Cu5  1  0.750000  0.183537  0.253642  1
  Cu  Cu6  1  0.750000  0.683537  0.246358  1
  Cu  Cu7  1  0.250000  0.316463  0.753642  1
  Cu  Cu8  1  0.500908  0.566419  0.812632  1
  Cu  Cu9  1  0.499092  0.433581  0.187368  1
  Cu  Cu10  1  0.499092  0.933581  0.312632  1
  Cu  Cu11  1  0.000908  0.433581  0.187368  1
  Cu  Cu12  1  0.500908  0.066419  0.687368  1
  Cu  Cu13  1  0.999092  0.566419  0.812632  1
  Cu  Cu14  1  0.999092  0.066419  0.687368  1
  Cu  Cu15  1  0.000908  0.933581  0.312632  1
  Cu  Cu16  1  0.250000  0.913785  0.515655  1
  Cu  Cu17  1  0.750000  0.086215  0.484345  1
  Cu  Cu18  1  0.750000  0.586215  0.015655  1
  Cu  Cu19  1  0.250000  0.413785  0.984345  1
  Cu  Cu20  1  0.250000  0.556841  0.608375  1
  Cu  Cu21  1  0.750000  0.443159  0.391625  1
  Cu  Cu22  1  0.750000  0.943159  0.108375  1
  Cu  Cu23  1  0.250000  0.056841  0.891625  1
  Ag  Ag24  1  0.250000  0.641092  0.361978  1
  Ag  Ag25  1  0.750000  0.358908  0.638022  1
  Ag  Ag26  1  0.750000  0.858908  0.861978  1
  Ag  Ag27  1  0.250000  0.141092  0.138022  1
