# generated using pymatgen
data_Pm2NpRu3
_symmetry_space_group_name_H-M   'P 1'
_cell_length_a   5.27767372
_cell_length_b   5.27767269
_cell_length_c   5.27767302
_cell_angle_alpha   67.74841424
_cell_angle_beta   67.74841651
_cell_angle_gamma   67.74840998
_symmetry_Int_Tables_number   1
_chemical_formula_structural   Pm2NpRu3
_chemical_formula_sum   'Pm2 Np1 Ru3'
_cell_volume   121.08093716
_cell_formula_units_Z   1
loop_
 _symmetry_equiv_pos_site_id
 _symmetry_equiv_pos_as_xyz
  1  'x, y, z'
loop_
 _atom_site_type_symbol
 _atom_site_label
 _atom_site_symmetry_multiplicity
 _atom_site_fract_x
 _atom_site_fract_y
 _atom_site_fract_z
 _atom_site_occupancy
  Pm  Pm0  1  0.749985  0.749985  0.749985  1
  Pm  Pm1  1  0.500015  0.500015  0.500015  1
  Np  Np2  1  0.125000  0.125000  0.125000  1
  Ru  Ru3  1  0.625000  0.125000  0.125000  1
  Ru  Ru4  1  0.125000  0.625000  0.125000  1
  Ru  Ru5  1  0.125000  0.125000  0.625000  1
