# generated using pymatgen
data_Gd3ErU4(ReB6)4
_symmetry_space_group_name_H-M   'P 1'
_cell_length_a   3.64463400
_cell_length_b   9.31926912
_cell_length_c   11.43761215
_cell_angle_alpha   89.98164751
_cell_angle_beta   90.00000000
_cell_angle_gamma   90.00000000
_symmetry_Int_Tables_number   1
_chemical_formula_structural   Gd3ErU4(ReB6)4
_chemical_formula_sum   'Gd3 Er1 U4 Re4 B24'
_cell_volume   388.48219487
_cell_formula_units_Z   1
loop_
 _symmetry_equiv_pos_site_id
 _symmetry_equiv_pos_as_xyz
  1  'x, y, z'
loop_
 _atom_site_type_symbol
 _atom_site_label
 _atom_site_symmetry_multiplicity
 _atom_site_fract_x
 _atom_site_fract_y
 _atom_site_fract_z
 _atom_site_occupancy
  Gd  Gd0  1  0.000000  0.662927  0.592083  1
  Gd  Gd1  1  0.000000  0.836684  0.092303  1
  Gd  Gd2  1  0.000000  0.163417  0.907783  1
  Er  Er3  1  0.000000  0.336595  0.407926  1
  U  U4  1  0.000000  0.957149  0.396499  1
  U  U5  1  0.000000  0.043771  0.603117  1
  U  U6  1  0.000000  0.456525  0.103622  1
  U  U7  1  0.000000  0.543302  0.896601  1
  Re  Re8  1  0.000000  0.644996  0.318337  1
  Re  Re9  1  0.000000  0.353911  0.681324  1
  Re  Re10  1  0.000000  0.146707  0.182393  1
  Re  Re11  1  0.000000  0.853918  0.818108  1
  B  B12  1  0.500000  0.551366  0.430534  1
  B  B13  1  0.500000  0.447294  0.568934  1
  B  B14  1  0.500000  0.052874  0.069915  1
  B  B15  1  0.500000  0.947431  0.930407  1
  B  B16  1  0.500000  0.742914  0.422599  1
  B  B17  1  0.500000  0.257009  0.576720  1
  B  B18  1  0.500000  0.243615  0.077705  1
  B  B19  1  0.500000  0.756586  0.922649  1
  B  B20  1  0.500000  0.801576  0.275353  1
  B  B21  1  0.500000  0.198208  0.724462  1
  B  B22  1  0.500000  0.302318  0.225325  1
  B  B23  1  0.500000  0.698160  0.775125  1
  B  B24  1  0.500000  0.643761  0.188736  1
  B  B25  1  0.500000  0.355688  0.811335  1
  B  B26  1  0.500000  0.145032  0.311843  1
  B  B27  1  0.500000  0.855841  0.688391  1
  B  B28  1  0.500000  0.990262  0.220050  1
  B  B29  1  0.500000  0.010053  0.780055  1
  B  B30  1  0.500000  0.488928  0.280641  1
  B  B31  1  0.500000  0.509873  0.719520  1
  B  B32  1  0.500000  0.638765  0.038486  1
  B  B33  1  0.500000  0.361078  0.961686  1
  B  B34  1  0.500000  0.140410  0.461218  1
  B  B35  1  0.500000  0.861055  0.538213  1
