# generated using pymatgen
data_ThPd5Au2
_symmetry_space_group_name_H-M   'P 1'
_cell_length_a   5.82186481
_cell_length_b   5.82186449
_cell_length_c   4.20538100
_cell_angle_alpha   90.00000000
_cell_angle_beta   90.00000000
_cell_angle_gamma   92.48662137
_symmetry_Int_Tables_number   1
_chemical_formula_structural   ThPd5Au2
_chemical_formula_sum   'Th1 Pd5 Au2'
_cell_volume   142.40342135
_cell_formula_units_Z   1
loop_
 _symmetry_equiv_pos_site_id
 _symmetry_equiv_pos_as_xyz
  1  'x, y, z'
loop_
 _atom_site_type_symbol
 _atom_site_label
 _atom_site_symmetry_multiplicity
 _atom_site_fract_x
 _atom_site_fract_y
 _atom_site_fract_z
 _atom_site_occupancy
  Th  Th0  1  0.736678  0.263322  0.000000  1
  Pd  Pd1  1  0.243798  0.247829  0.000000  1
  Pd  Pd2  1  0.752172  0.756203  0.000000  1
  Pd  Pd3  1  0.500856  0.996329  0.500000  1
  Pd  Pd4  1  0.003671  0.499144  0.500000  1
  Pd  Pd5  1  0.497104  0.502896  0.500000  1
  Au  Au6  1  0.255963  0.744037  0.000000  1
  Au  Au7  1  0.009759  0.990241  0.500000  1
