# generated using pymatgen
data_TbHo4Tl15
_symmetry_space_group_name_H-M   'P 1'
_cell_length_a   4.77161200
_cell_length_b   4.77161200
_cell_length_c   23.99244600
_cell_angle_alpha   90.00000000
_cell_angle_beta   90.00000000
_cell_angle_gamma   90.00000000
_symmetry_Int_Tables_number   1
_chemical_formula_structural   TbHo4Tl15
_chemical_formula_sum   'Tb1 Ho4 Tl15'
_cell_volume   546.26675429
_cell_formula_units_Z   1
loop_
 _symmetry_equiv_pos_site_id
 _symmetry_equiv_pos_as_xyz
  1  'x, y, z'
loop_
 _atom_site_type_symbol
 _atom_site_label
 _atom_site_symmetry_multiplicity
 _atom_site_fract_x
 _atom_site_fract_y
 _atom_site_fract_z
 _atom_site_occupancy
  Tb  Tb0  1  0.000000  0.000000  0.000000  1
  Ho  Ho1  1  0.000000  0.000000  0.199328  1
  Ho  Ho2  1  0.000000  0.000000  0.399104  1
  Ho  Ho3  1  0.000000  0.000000  0.600896  1
  Ho  Ho4  1  0.000000  0.000000  0.800672  1
  Tl  Tl5  1  0.500000  0.500000  0.000000  1
  Tl  Tl6  1  0.500000  0.500000  0.198672  1
  Tl  Tl7  1  0.500000  0.500000  0.399164  1
  Tl  Tl8  1  0.500000  0.500000  0.600836  1
  Tl  Tl9  1  0.500000  0.500000  0.801328  1
  Tl  Tl10  1  0.500000  0.000000  0.099976  1
  Tl  Tl11  1  0.500000  0.000000  0.298690  1
  Tl  Tl12  1  0.500000  0.000000  0.500000  1
  Tl  Tl13  1  0.500000  0.000000  0.701310  1
  Tl  Tl14  1  0.500000  0.000000  0.900024  1
  Tl  Tl15  1  0.000000  0.500000  0.099976  1
  Tl  Tl16  1  0.000000  0.500000  0.298690  1
  Tl  Tl17  1  0.000000  0.500000  0.500000  1
  Tl  Tl18  1  0.000000  0.500000  0.701310  1
  Tl  Tl19  1  0.000000  0.500000  0.900024  1
