# generated using pymatgen
data_Nd12Si3PCl12
_symmetry_space_group_name_H-M   'P 1'
_cell_length_a   10.16498082
_cell_length_b   10.13599467
_cell_length_c   10.13599500
_cell_angle_alpha   109.41321825
_cell_angle_beta   109.52916903
_cell_angle_gamma   109.52915530
_symmetry_Int_Tables_number   1
_chemical_formula_structural   Nd12Si3PCl12
_chemical_formula_sum   'Nd12 Si3 P1 Cl12'
_cell_volume   803.35291481
_cell_formula_units_Z   1
loop_
 _symmetry_equiv_pos_site_id
 _symmetry_equiv_pos_as_xyz
  1  'x, y, z'
loop_
 _atom_site_type_symbol
 _atom_site_label
 _atom_site_symmetry_multiplicity
 _atom_site_fract_x
 _atom_site_fract_y
 _atom_site_fract_z
 _atom_site_occupancy
  Nd  Nd0  1  0.479713  0.491491  0.238924  1
  Nd  Nd1  1  0.750000  0.242664  0.257336  1
  Nd  Nd2  1  0.750000  0.007721  0.492279  1
  Nd  Nd3  1  0.242279  0.484557  0.492279  1
  Nd  Nd4  1  0.259209  0.747433  0.238924  1
  Nd  Nd5  1  0.020287  0.261076  0.008509  1
  Nd  Nd6  1  0.007336  0.014674  0.257336  1
  Nd  Nd7  1  0.488223  0.747433  0.008509  1
  Nd  Nd8  1  0.492664  0.242664  0.485326  1
  Nd  Nd9  1  0.011777  0.491491  0.752567  1
  Nd  Nd10  1  0.257721  0.007721  0.015443  1
  Nd  Nd11  1  0.240791  0.261076  0.752567  1
  Si  Si12  1  0.250000  0.250061  0.249939  1
  Si  Si13  1  0.499939  0.999879  0.249939  1
  Si  Si14  1  0.000061  0.250061  0.500121  1
  P  P15  1  0.250000  0.500000  0.000000  1
  Cl  Cl16  1  0.250000  0.750017  0.749983  1
  Cl  Cl17  1  0.500696  0.500671  0.751848  1
  Cl  Cl18  1  0.999304  0.748152  0.999329  1
  Cl  Cl19  1  0.751151  0.251177  0.751848  1
  Cl  Cl20  1  0.999983  0.999968  0.749983  1
  Cl  Cl21  1  0.250000  0.998903  0.501097  1
  Cl  Cl22  1  0.751097  0.502192  0.501097  1
  Cl  Cl23  1  0.500026  0.251177  0.999329  1
  Cl  Cl24  1  0.748849  0.748152  0.248823  1
  Cl  Cl25  1  0.748903  0.998903  0.997808  1
  Cl  Cl26  1  0.999974  0.500671  0.248823  1
  Cl  Cl27  1  0.500017  0.750017  0.500032  1
