# generated using pymatgen
data_Zr4Be4InPd
_symmetry_space_group_name_H-M   'P 1'
_cell_length_a   6.42299500
_cell_length_b   6.42299500
_cell_length_c   3.95212000
_cell_angle_alpha   90.00000000
_cell_angle_beta   90.00000000
_cell_angle_gamma   90.00000000
_symmetry_Int_Tables_number   1
_chemical_formula_structural   Zr4Be4InPd
_chemical_formula_sum   'Zr4 Be4 In1 Pd1'
_cell_volume   163.04417615
_cell_formula_units_Z   1
loop_
 _symmetry_equiv_pos_site_id
 _symmetry_equiv_pos_as_xyz
  1  'x, y, z'
loop_
 _atom_site_type_symbol
 _atom_site_label
 _atom_site_symmetry_multiplicity
 _atom_site_fract_x
 _atom_site_fract_y
 _atom_site_fract_z
 _atom_site_occupancy
  Zr  Zr0  1  0.165698  0.677125  0.500000  1
  Zr  Zr1  1  0.677125  0.834302  0.500000  1
  Zr  Zr2  1  0.322875  0.165698  0.500000  1
  Zr  Zr3  1  0.834302  0.322875  0.500000  1
  Be  Be4  1  0.113432  0.369541  0.000000  1
  Be  Be5  1  0.369541  0.886568  0.000000  1
  Be  Be6  1  0.630459  0.113432  0.000000  1
  Be  Be7  1  0.886568  0.630459  0.000000  1
  In  In8  1  0.500000  0.500000  0.000000  1
  Pd  Pd9  1  0.000000  0.000000  0.000000  1
