# generated using pymatgen
data_Dy3TmNi13C4
_symmetry_space_group_name_H-M   'P 1'
_cell_length_a   8.38193935
_cell_length_b   8.38193935
_cell_length_c   3.84902900
_cell_angle_alpha   90.00000000
_cell_angle_beta   90.00000000
_cell_angle_gamma   91.14906374
_symmetry_Int_Tables_number   1
_chemical_formula_structural   Dy3TmNi13C4
_chemical_formula_sum   'Dy3 Tm1 Ni13 C4'
_cell_volume   270.36649386
_cell_formula_units_Z   1
loop_
 _symmetry_equiv_pos_site_id
 _symmetry_equiv_pos_as_xyz
  1  'x, y, z'
loop_
 _atom_site_type_symbol
 _atom_site_label
 _atom_site_symmetry_multiplicity
 _atom_site_fract_x
 _atom_site_fract_y
 _atom_site_fract_z
 _atom_site_occupancy
  Dy  Dy0  1  0.813473  0.186527  0.500000  1
  Dy  Dy1  1  0.347692  0.349011  0.500000  1
  Dy  Dy2  1  0.650989  0.652308  0.500000  1
  Tm  Tm3  1  0.187325  0.812675  0.500000  1
  Ni  Ni4  1  0.001537  0.998463  0.000000  1
  Ni  Ni5  1  0.214750  0.571073  0.000000  1
  Ni  Ni6  1  0.784004  0.430855  0.000000  1
  Ni  Ni7  1  0.428927  0.785250  0.000000  1
  Ni  Ni8  1  0.569145  0.215996  0.000000  1
  Ni  Ni9  1  0.999771  0.502971  0.500000  1
  Ni  Ni10  1  0.497029  0.000229  0.500000  1
  Ni  Ni11  1  0.074448  0.290686  0.000000  1
  Ni  Ni12  1  0.927692  0.708575  0.000000  1
  Ni  Ni13  1  0.709314  0.925552  0.000000  1
  Ni  Ni14  1  0.291425  0.072308  0.000000  1
  Ni  Ni15  1  0.124453  0.121730  0.500000  1
  Ni  Ni16  1  0.878270  0.875547  0.500000  1
  C  C17  1  0.999910  0.498790  0.000000  1
  C  C18  1  0.501210  0.000090  0.000000  1
  C  C19  1  0.442341  0.557659  0.000000  1
  C  C20  1  0.556296  0.443704  0.000000  1
