# generated using pymatgen
data_Y2Ga10Os3
_symmetry_space_group_name_H-M   'P 1'
_cell_length_a   8.93137300
_cell_length_b   8.93137300
_cell_length_c   6.43152600
_cell_angle_alpha   90.00000000
_cell_angle_beta   90.00000000
_cell_angle_gamma   90.00000000
_symmetry_Int_Tables_number   1
_chemical_formula_structural   Y2Ga10Os3
_chemical_formula_sum   'Y4 Ga20 Os6'
_cell_volume   513.03912231
_cell_formula_units_Z   2
loop_
 _symmetry_equiv_pos_site_id
 _symmetry_equiv_pos_as_xyz
  1  'x, y, z'
loop_
 _atom_site_type_symbol
 _atom_site_label
 _atom_site_symmetry_multiplicity
 _atom_site_fract_x
 _atom_site_fract_y
 _atom_site_fract_z
 _atom_site_occupancy
  Y  Y0  1  0.183203  0.316797  0.000000  1
  Y  Y1  1  0.683203  0.183203  0.000000  1
  Y  Y2  1  0.816797  0.683203  0.000000  1
  Y  Y3  1  0.316797  0.816797  0.000000  1
  Ga  Ga4  1  0.500000  0.000000  0.286607  1
  Ga  Ga5  1  0.500000  0.000000  0.713393  1
  Ga  Ga6  1  0.293509  0.561143  0.706286  1
  Ga  Ga7  1  0.000000  0.500000  0.286607  1
  Ga  Ga8  1  0.000000  0.500000  0.713393  1
  Ga  Ga9  1  0.061143  0.793509  0.706286  1
  Ga  Ga10  1  0.206491  0.061143  0.293714  1
  Ga  Ga11  1  0.061143  0.793509  0.293714  1
  Ga  Ga12  1  0.706491  0.438857  0.706286  1
  Ga  Ga13  1  0.206491  0.061143  0.706286  1
  Ga  Ga14  1  0.938857  0.206491  0.706286  1
  Ga  Ga15  1  0.706491  0.438857  0.293714  1
  Ga  Ga16  1  0.561143  0.706491  0.293714  1
  Ga  Ga17  1  0.938857  0.206491  0.293714  1
  Ga  Ga18  1  0.561143  0.706491  0.706286  1
  Ga  Ga19  1  0.793509  0.938857  0.293714  1
  Ga  Ga20  1  0.438857  0.293509  0.706286  1
  Ga  Ga21  1  0.793509  0.938857  0.706286  1
  Ga  Ga22  1  0.438857  0.293509  0.293714  1
  Ga  Ga23  1  0.293509  0.561143  0.293714  1
  Os  Os24  1  0.178278  0.321722  0.500000  1
  Os  Os25  1  0.321722  0.821722  0.500000  1
  Os  Os26  1  0.821722  0.678278  0.500000  1
  Os  Os27  1  0.000000  0.000000  0.000000  1
  Os  Os28  1  0.678278  0.178278  0.500000  1
  Os  Os29  1  0.500000  0.500000  0.000000  1
