# generated using pymatgen
data_Li2La3PrSb4
_symmetry_space_group_name_H-M   'P 1'
_cell_length_a   4.58215500
_cell_length_b   4.58215557
_cell_length_c   15.94930000
_cell_angle_alpha   90.00000000
_cell_angle_beta   90.00000000
_cell_angle_gamma   120.00000313
_symmetry_Int_Tables_number   1
_chemical_formula_structural   Li2La3PrSb4
_chemical_formula_sum   'Li2 La3 Pr1 Sb4'
_cell_volume   290.00925030
_cell_formula_units_Z   1
loop_
 _symmetry_equiv_pos_site_id
 _symmetry_equiv_pos_as_xyz
  1  'x, y, z'
loop_
 _atom_site_type_symbol
 _atom_site_label
 _atom_site_symmetry_multiplicity
 _atom_site_fract_x
 _atom_site_fract_y
 _atom_site_fract_z
 _atom_site_occupancy
  Li  Li0  1  0.000000  0.000000  0.248765  1
  Li  Li1  1  0.000000  0.000000  0.750006  1
  La  La2  1  0.333333  0.666667  0.386323  1
  La  La3  1  0.666667  0.333332  0.612790  1
  La  La4  1  0.666667  0.333332  0.888467  1
  Pr  Pr5  1  0.333333  0.666667  0.112745  1
  Sb  Sb6  1  0.000000  0.000000  0.001633  1
  Sb  Sb7  1  0.666667  0.333332  0.249004  1
  Sb  Sb8  1  0.000000  0.000000  0.499823  1
  Sb  Sb9  1  0.333333  0.666667  0.750444  1
