# generated using pymatgen
data_Tb3Dy2ErCoBr10
_symmetry_space_group_name_H-M   'P 1'
_cell_length_a   7.36548173
_cell_length_b   9.09838551
_cell_length_c   9.24631634
_cell_angle_alpha   107.87862890
_cell_angle_beta   96.97835923
_cell_angle_gamma   104.79995989
_symmetry_Int_Tables_number   1
_chemical_formula_structural   Tb3Dy2ErCoBr10
_chemical_formula_sum   'Tb3 Dy2 Er1 Co1 Br10'
_cell_volume   556.52567829
_cell_formula_units_Z   1
loop_
 _symmetry_equiv_pos_site_id
 _symmetry_equiv_pos_as_xyz
  1  'x, y, z'
loop_
 _atom_site_type_symbol
 _atom_site_label
 _atom_site_symmetry_multiplicity
 _atom_site_fract_x
 _atom_site_fract_y
 _atom_site_fract_z
 _atom_site_occupancy
  Tb  Tb0  1  0.966568  0.283612  0.585392  1
  Tb  Tb1  1  0.033483  0.716139  0.412747  1
  Tb  Tb2  1  0.877109  0.952962  0.744230  1
  Dy  Dy3  1  0.645403  0.868331  0.323528  1
  Dy  Dy4  1  0.354540  0.131895  0.676776  1
  Er  Er5  1  0.121696  0.046536  0.259031  1
  Co  Co6  1  0.999943  0.999752  0.500231  1
  Br  Br7  1  0.544094  0.179481  0.414415  1
  Br  Br8  1  0.453444  0.819295  0.583821  1
  Br  Br9  1  0.217310  0.748133  0.154987  1
  Br  Br10  1  0.781734  0.255690  0.843887  1
  Br  Br11  1  0.914318  0.627643  0.671546  1
  Br  Br12  1  0.087438  0.369023  0.325557  1
  Br  Br13  1  0.753238  0.915900  0.044597  1
  Br  Br14  1  0.250184  0.085605  0.959917  1
  Br  Br15  1  0.653810  0.548439  0.227714  1
  Br  Br16  1  0.345691  0.451562  0.771627  1
