# generated using pymatgen
data_Pd2BrF18
_symmetry_space_group_name_H-M   'P 1'
_cell_length_a   5.20345593
_cell_length_b   8.48609300
_cell_length_c   8.54722298
_cell_angle_alpha   61.96798320
_cell_angle_beta   84.71884285
_cell_angle_gamma   84.90239069
_symmetry_Int_Tables_number   1
_chemical_formula_structural   Pd2BrF18
_chemical_formula_sum   'Pd2 Br1 F18'
_cell_volume   331.28201255
_cell_formula_units_Z   1
loop_
 _symmetry_equiv_pos_site_id
 _symmetry_equiv_pos_as_xyz
  1  'x, y, z'
loop_
 _atom_site_type_symbol
 _atom_site_label
 _atom_site_symmetry_multiplicity
 _atom_site_fract_x
 _atom_site_fract_y
 _atom_site_fract_z
 _atom_site_occupancy
  Pd  Pd0  1  0.561381  0.335313  0.335468  1
  Pd  Pd1  1  0.438853  0.663762  0.664825  1
  Br  Br2  1  0.999899  0.000862  0.999701  1
  F  F3  1  0.877243  0.785428  0.070216  1
  F  F4  1  0.698636  0.072315  0.072885  1
  F  F5  1  0.741344  0.415932  0.109926  1
  F  F6  1  0.120455  0.924386  0.214778  1
  F  F7  1  0.381665  0.561827  0.255209  1
  F  F8  1  0.298900  0.252917  0.256280  1
  F  F9  1  0.824951  0.417259  0.414243  1
  F  F10  1  0.742280  0.109097  0.415791  1
  F  F11  1  0.617587  0.745019  0.439100  1
  F  F12  1  0.382579  0.254907  0.561264  1
  F  F13  1  0.257537  0.889697  0.585249  1
  F  F14  1  0.175603  0.582278  0.585462  1
  F  F15  1  0.700710  0.745962  0.744547  1
  F  F16  1  0.618714  0.437545  0.744408  1
  F  F17  1  0.879337  0.077423  0.784618  1
  F  F18  1  0.258663  0.582486  0.890282  1
  F  F19  1  0.301126  0.929272  0.926563  1
  F  F20  1  0.122539  0.216312  0.929193  1
