# generated using pymatgen
data_Nd3Dy5Np4O24
_symmetry_space_group_name_H-M   'P 1'
_cell_length_a   5.62537200
_cell_length_b   7.92635375
_cell_length_c   11.88775211
_cell_angle_alpha   74.51562582
_cell_angle_beta   90.00000000
_cell_angle_gamma   90.00000000
_symmetry_Int_Tables_number   1
_chemical_formula_structural   Nd3Dy5Np4O24
_chemical_formula_sum   'Nd3 Dy5 Np4 O24'
_cell_volume   510.81987196
_cell_formula_units_Z   1
loop_
 _symmetry_equiv_pos_site_id
 _symmetry_equiv_pos_as_xyz
  1  'x, y, z'
loop_
 _atom_site_type_symbol
 _atom_site_label
 _atom_site_symmetry_multiplicity
 _atom_site_fract_x
 _atom_site_fract_y
 _atom_site_fract_z
 _atom_site_occupancy
  Nd  Nd0  1  0.746909  0.000000  0.750000  1
  Nd  Nd1  1  0.254457  0.000000  0.250000  1
  Nd  Nd2  1  0.694538  0.500000  0.750000  1
  Dy  Dy3  1  0.185587  0.792503  0.579903  1
  Dy  Dy4  1  0.815236  0.790942  0.081485  1
  Dy  Dy5  1  0.301042  0.500000  0.250000  1
  Dy  Dy6  1  0.185587  0.207497  0.920097  1
  Dy  Dy7  1  0.815236  0.209058  0.418515  1
  Np  Np8  1  0.255121  0.720654  0.889393  1
  Np  Np9  1  0.744251  0.719085  0.387032  1
  Np  Np10  1  0.255121  0.279346  0.610607  1
  Np  Np11  1  0.744251  0.280915  0.112968  1
  O  O12  1  0.054308  0.941623  0.901363  1
  O  O13  1  0.553345  0.841435  0.935977  1
  O  O14  1  0.945119  0.941948  0.398556  1
  O  O15  1  0.442674  0.795989  0.728267  1
  O  O16  1  0.448903  0.841584  0.435440  1
  O  O17  1  0.971710  0.717119  0.766743  1
  O  O18  1  0.558275  0.797056  0.227811  1
  O  O19  1  0.877408  0.627369  0.552076  1
  O  O20  1  0.377548  0.482504  0.887022  1
  O  O21  1  0.034068  0.709200  0.267530  1
  O  O22  1  0.377548  0.517496  0.612978  1
  O  O23  1  0.877408  0.372631  0.947924  1
  O  O24  1  0.126446  0.627893  0.056297  1
  O  O25  1  0.611528  0.483192  0.382475  1
  O  O26  1  0.971710  0.282881  0.733257  1
  O  O27  1  0.611528  0.516808  0.117525  1
  O  O28  1  0.126446  0.372107  0.443703  1
  O  O29  1  0.442674  0.204011  0.771733  1
  O  O30  1  0.034068  0.290800  0.232470  1
  O  O31  1  0.553345  0.158565  0.564023  1
  O  O32  1  0.558275  0.202944  0.272189  1
  O  O33  1  0.054308  0.058377  0.598637  1
  O  O34  1  0.448903  0.158416  0.064560  1
  O  O35  1  0.945119  0.058052  0.101444  1
