# generated using pymatgen
data_LaCe2Sm(Si5Pt3)2
_symmetry_space_group_name_H-M   'P 1'
_cell_length_a   8.25785189
_cell_length_b   8.26391687
_cell_length_c   8.26391686
_cell_angle_alpha   136.42484213
_cell_angle_beta   105.41704633
_cell_angle_gamma   90.56658443
_symmetry_Int_Tables_number   1
_chemical_formula_structural   LaCe2Sm(Si5Pt3)2
_chemical_formula_sum   'La1 Ce2 Sm1 Si10 Pt6'
_cell_volume   356.92279314
_cell_formula_units_Z   1
loop_
 _symmetry_equiv_pos_site_id
 _symmetry_equiv_pos_as_xyz
  1  'x, y, z'
loop_
 _atom_site_type_symbol
 _atom_site_label
 _atom_site_symmetry_multiplicity
 _atom_site_fract_x
 _atom_site_fract_y
 _atom_site_fract_z
 _atom_site_occupancy
  La  La0  1  0.103452  0.870952  0.232500  1
  Ce  Ce1  1  0.641389  0.370913  0.270477  1
  Ce  Ce2  1  0.358972  0.629382  0.729589  1
  Sm  Sm3  1  0.897557  0.128706  0.768852  1
  Si  Si4  1  0.271780  0.521675  0.251458  1
  Si  Si5  1  0.727368  0.477693  0.748669  1
  Si  Si6  1  0.727368  0.978699  0.249676  1
  Si  Si7  1  0.271780  0.020322  0.750105  1
  Si  Si8  1  0.467213  0.115990  0.351223  1
  Si  Si9  1  0.534894  0.886329  0.648565  1
  Si  Si10  1  0.760303  0.611918  0.148386  1
  Si  Si11  1  0.239223  0.387337  0.851886  1
  Si  Si12  1  0.999772  0.250886  0.250416  1
  Si  Si13  1  0.999772  0.749357  0.748886  1
  Pt  Pt14  1  0.247420  0.137264  0.110156  1
  Pt  Pt15  1  0.751793  0.863418  0.888375  1
  Pt  Pt16  1  0.024228  0.635327  0.388901  1
  Pt  Pt17  1  0.973570  0.362749  0.610821  1
  Pt  Pt18  1  0.501072  0.250487  0.750476  1
  Pt  Pt19  1  0.501072  0.750595  0.250583  1
