# generated using pymatgen
data_Er4Al24NiPd8
_symmetry_space_group_name_H-M   'P 1'
_cell_length_a   7.51228055
_cell_length_b   7.51510894
_cell_length_c   13.12197724
_cell_angle_alpha   84.33497351
_cell_angle_beta   78.95408219
_cell_angle_gamma   60.11946708
_symmetry_Int_Tables_number   1
_chemical_formula_structural   Er4Al24NiPd8
_chemical_formula_sum   'Er4 Al24 Ni1 Pd8'
_cell_volume   630.42603293
_cell_formula_units_Z   1
loop_
 _symmetry_equiv_pos_site_id
 _symmetry_equiv_pos_as_xyz
  1  'x, y, z'
loop_
 _atom_site_type_symbol
 _atom_site_label
 _atom_site_symmetry_multiplicity
 _atom_site_fract_x
 _atom_site_fract_y
 _atom_site_fract_z
 _atom_site_occupancy
  Er  Er0  1  0.395370  0.166283  0.809414  1
  Er  Er1  1  0.604630  0.833717  0.190586  1
  Er  Er2  1  0.731228  0.497758  0.809529  1
  Er  Er3  1  0.268772  0.502242  0.190471  1
  Al  Al4  1  0.689465  0.826864  0.946491  1
  Al  Al5  1  0.310535  0.173136  0.053509  1
  Al  Al6  1  0.145982  0.833112  0.561814  1
  Al  Al7  1  0.854018  0.166888  0.438186  1
  Al  Al8  1  0.479354  0.167371  0.559573  1
  Al  Al9  1  0.520646  0.832629  0.440427  1
  Al  Al10  1  0.216694  0.166104  0.327714  1
  Al  Al11  1  0.783306  0.833896  0.672286  1
  Al  Al12  1  0.435568  0.506920  0.672213  1
  Al  Al13  1  0.564432  0.493080  0.327787  1
  Al  Al14  1  0.108948  0.159696  0.670769  1
  Al  Al15  1  0.891052  0.840304  0.329231  1
  Al  Al16  1  0.346553  0.498441  0.946745  1
  Al  Al17  1  0.653447  0.501559  0.053255  1
  Al  Al18  1  0.014758  0.175387  0.956049  1
  Al  Al19  1  0.985242  0.824613  0.043951  1
  Al  Al20  1  0.186637  0.498875  0.440832  1
  Al  Al21  1  0.813363  0.501125  0.559168  1
  Al  Al22  1  0.735061  0.164368  0.182648  1
  Al  Al23  1  0.264939  0.835632  0.817352  1
  Al  Al24  1  0.059991  0.623991  0.820058  1
  Al  Al25  1  0.940009  0.376009  0.179942  1
  Al  Al26  1  0.856244  0.040369  0.817257  1
  Al  Al27  1  0.143756  0.959631  0.182743  1
  Ni  Ni28  1  0.000000  0.500000  0.000000  1
  Pd  Pd29  1  0.119155  0.492990  0.639895  1
  Pd  Pd30  1  0.880845  0.507010  0.360105  1
  Pd  Pd31  1  0.656714  0.171480  0.999970  1
  Pd  Pd32  1  0.343286  0.828520  0.000030  1
  Pd  Pd33  1  0.537596  0.166728  0.361016  1
  Pd  Pd34  1  0.462404  0.833272  0.638984  1
  Pd  Pd35  1  0.777760  0.175611  0.638454  1
  Pd  Pd36  1  0.222240  0.824389  0.361546  1
