# generated using pymatgen
data_Tm2Ni2B6Ir
_symmetry_space_group_name_H-M   'P 1'
_cell_length_a   3.46410000
_cell_length_b   5.84957402
_cell_length_c   5.84957540
_cell_angle_alpha   94.62735408
_cell_angle_beta   90.00000000
_cell_angle_gamma   90.00000000
_symmetry_Int_Tables_number   1
_chemical_formula_structural   Tm2Ni2B6Ir
_chemical_formula_sum   'Tm2 Ni2 B6 Ir1'
_cell_volume   118.14656513
_cell_formula_units_Z   1
loop_
 _symmetry_equiv_pos_site_id
 _symmetry_equiv_pos_as_xyz
  1  'x, y, z'
loop_
 _atom_site_type_symbol
 _atom_site_label
 _atom_site_symmetry_multiplicity
 _atom_site_fract_x
 _atom_site_fract_y
 _atom_site_fract_z
 _atom_site_occupancy
  Tm  Tm0  1  0.000000  0.273734  0.726266  1
  Tm  Tm1  1  0.000000  0.726266  0.273734  1
  Ni  Ni2  1  0.000000  0.762595  0.762595  1
  Ni  Ni3  1  0.000000  0.237405  0.237405  1
  B  B4  1  0.500000  0.912579  0.612478  1
  B  B5  1  0.500000  0.087421  0.387522  1
  B  B6  1  0.500000  0.612478  0.912579  1
  B  B7  1  0.500000  0.387522  0.087421  1
  B  B8  1  0.500000  0.608953  0.608953  1
  B  B9  1  0.500000  0.391047  0.391047  1
  Ir  Ir10  1  0.500000  0.000000  0.000000  1
