# generated using pymatgen
data_Nd4Dy3Tm(ReB6)4
_symmetry_space_group_name_H-M   'P 1'
_cell_length_a   3.72852000
_cell_length_b   9.24835404
_cell_length_c   11.70674505
_cell_angle_alpha   90.01078822
_cell_angle_beta   90.00000000
_cell_angle_gamma   90.00000000
_symmetry_Int_Tables_number   1
_chemical_formula_structural   Nd4Dy3Tm(ReB6)4
_chemical_formula_sum   'Nd4 Dy3 Tm1 Re4 B24'
_cell_volume   403.67985447
_cell_formula_units_Z   1
loop_
 _symmetry_equiv_pos_site_id
 _symmetry_equiv_pos_as_xyz
  1  'x, y, z'
loop_
 _atom_site_type_symbol
 _atom_site_label
 _atom_site_symmetry_multiplicity
 _atom_site_fract_x
 _atom_site_fract_y
 _atom_site_fract_z
 _atom_site_occupancy
  Nd  Nd0  1  0.000000  0.322744  0.414371  1
  Nd  Nd1  1  0.000000  0.677442  0.585746  1
  Nd  Nd2  1  0.000000  0.822257  0.085422  1
  Nd  Nd3  1  0.000000  0.177484  0.914333  1
  Dy  Dy4  1  0.000000  0.942552  0.369407  1
  Dy  Dy5  1  0.000000  0.057584  0.631112  1
  Dy  Dy6  1  0.000000  0.442645  0.129733  1
  Tm  Tm7  1  0.000000  0.557743  0.868855  1
  Re  Re8  1  0.000000  0.638710  0.319135  1
  Re  Re9  1  0.000000  0.361962  0.681484  1
  Re  Re10  1  0.000000  0.139214  0.180575  1
  Re  Re11  1  0.000000  0.859685  0.819396  1
  B  B12  1  0.500000  0.554736  0.430472  1
  B  B13  1  0.500000  0.445533  0.569950  1
  B  B14  1  0.500000  0.054424  0.069376  1
  B  B15  1  0.500000  0.944474  0.930533  1
  B  B16  1  0.500000  0.749067  0.415457  1
  B  B17  1  0.500000  0.251330  0.584925  1
  B  B18  1  0.500000  0.248932  0.084289  1
  B  B19  1  0.500000  0.749334  0.915676  1
  B  B20  1  0.500000  0.790762  0.265659  1
  B  B21  1  0.500000  0.209817  0.734631  1
  B  B22  1  0.500000  0.290997  0.234075  1
  B  B23  1  0.500000  0.708071  0.765991  1
  B  B24  1  0.500000  0.629362  0.186128  1
  B  B25  1  0.500000  0.371704  0.814398  1
  B  B26  1  0.500000  0.129500  0.313595  1
  B  B27  1  0.500000  0.870244  0.686719  1
  B  B28  1  0.500000  0.983762  0.212884  1
  B  B29  1  0.500000  0.015736  0.787426  1
  B  B30  1  0.500000  0.483593  0.286841  1
  B  B31  1  0.500000  0.517101  0.713639  1
  B  B32  1  0.500000  0.596195  0.025224  1
  B  B33  1  0.500000  0.405084  0.972151  1
  B  B34  1  0.500000  0.096498  0.473558  1
  B  B35  1  0.500000  0.903722  0.526831  1
