# generated using pymatgen
data_LaEr4(CoB3)2
_symmetry_space_group_name_H-M   'P 1'
_cell_length_a   5.44216415
_cell_length_b   5.44216509
_cell_length_c   8.17360306
_cell_angle_alpha   70.55445555
_cell_angle_beta   70.55444791
_cell_angle_gamma   59.99999077
_symmetry_Int_Tables_number   1
_chemical_formula_structural   LaEr4(CoB3)2
_chemical_formula_sum   'La1 Er4 Co2 B6'
_cell_volume   193.53751891
_cell_formula_units_Z   1
loop_
 _symmetry_equiv_pos_site_id
 _symmetry_equiv_pos_as_xyz
  1  'x, y, z'
loop_
 _atom_site_type_symbol
 _atom_site_label
 _atom_site_symmetry_multiplicity
 _atom_site_fract_x
 _atom_site_fract_y
 _atom_site_fract_z
 _atom_site_occupancy
  La  La0  1  0.000000  0.000000  0.000000  1
  Er  Er1  1  0.251910  0.251910  0.244271  1
  Er  Er2  1  0.748090  0.748090  0.755729  1
  Er  Er3  1  0.415706  0.415706  0.752882  1
  Er  Er4  1  0.584294  0.584294  0.247118  1
  Co  Co5  1  0.117271  0.117271  0.648187  1
  Co  Co6  1  0.882729  0.882729  0.351813  1
  B  B7  1  0.168630  0.831370  0.500000  1
  B  B8  1  0.831370  0.500000  0.500000  1
  B  B9  1  0.500000  0.168630  0.500000  1
  B  B10  1  0.168630  0.500000  0.500000  1
  B  B11  1  0.500000  0.831370  0.500000  1
  B  B12  1  0.831370  0.168630  0.500000  1
