# generated using pymatgen
data_NdSi2IrRh2
_symmetry_space_group_name_H-M   'P 1'
_cell_length_a   6.69594197
_cell_length_b   6.69594183
_cell_length_c   6.69594142
_cell_angle_alpha   130.29256247
_cell_angle_beta   114.69080871
_cell_angle_gamma   86.30689653
_symmetry_Int_Tables_number   1
_chemical_formula_structural   NdSi2IrRh2
_chemical_formula_sum   'Nd2 Si4 Ir2 Rh4'
_cell_volume   198.67711664
_cell_formula_units_Z   2
loop_
 _symmetry_equiv_pos_site_id
 _symmetry_equiv_pos_as_xyz
  1  'x, y, z'
loop_
 _atom_site_type_symbol
 _atom_site_label
 _atom_site_symmetry_multiplicity
 _atom_site_fract_x
 _atom_site_fract_y
 _atom_site_fract_z
 _atom_site_occupancy
  Nd  Nd0  1  0.748759  0.033791  0.282550  1
  Nd  Nd1  1  0.248759  0.966209  0.714968  1
  Si  Si2  1  0.579425  0.380161  0.802307  1
  Si  Si3  1  0.422146  0.619839  0.199264  1
  Si  Si4  1  0.079425  0.277118  0.199264  1
  Si  Si5  1  0.922146  0.722882  0.802307  1
  Ir  Ir6  1  0.217982  0.500000  0.717982  1
  Ir  Ir7  1  0.717982  0.000000  0.717982  1
  Rh  Rh8  1  0.783208  0.500000  0.283208  1
  Rh  Rh9  1  0.283208  0.000000  0.283208  1
  Rh  Rh10  1  0.498479  0.500151  0.498630  1
  Rh  Rh11  1  0.998479  0.499849  0.998328  1
