# generated using pymatgen
data_La(CdAg2)2
_symmetry_space_group_name_H-M   'P 1'
_cell_length_a   5.90159182
_cell_length_b   5.90159158
_cell_length_c   5.90159283
_cell_angle_alpha   103.42922358
_cell_angle_beta   103.42922901
_cell_angle_gamma   122.37864012
_symmetry_Int_Tables_number   1
_chemical_formula_structural   La(CdAg2)2
_chemical_formula_sum   'La1 Cd2 Ag4'
_cell_volume   152.10132119
_cell_formula_units_Z   1
loop_
 _symmetry_equiv_pos_site_id
 _symmetry_equiv_pos_as_xyz
  1  'x, y, z'
loop_
 _atom_site_type_symbol
 _atom_site_label
 _atom_site_symmetry_multiplicity
 _atom_site_fract_x
 _atom_site_fract_y
 _atom_site_fract_z
 _atom_site_occupancy
  La  La0  1  0.000000  0.000000  0.000000  1
  Cd  Cd1  1  0.250000  0.750000  0.500000  1
  Cd  Cd2  1  0.750000  0.250000  0.500000  1
  Ag  Ag3  1  0.306767  0.306767  0.613535  1
  Ag  Ag4  1  0.693233  0.693233  0.386465  1
  Ag  Ag5  1  0.693233  0.306767  0.000000  1
  Ag  Ag6  1  0.306767  0.693233  0.000000  1
