# generated using pymatgen
data_La9CeAl2(ZnRu3)2
_symmetry_space_group_name_H-M   'P 1'
_cell_length_a   8.72138516
_cell_length_b   8.54778192
_cell_length_c   8.48889457
_cell_angle_alpha   108.06814998
_cell_angle_beta   110.39369965
_cell_angle_gamma   109.54088465
_symmetry_Int_Tables_number   1
_chemical_formula_structural   La9CeAl2(ZnRu3)2
_chemical_formula_sum   'La9 Ce1 Al2 Zn2 Ru6'
_cell_volume   489.45638267
_cell_formula_units_Z   1
loop_
 _symmetry_equiv_pos_site_id
 _symmetry_equiv_pos_as_xyz
  1  'x, y, z'
loop_
 _atom_site_type_symbol
 _atom_site_label
 _atom_site_symmetry_multiplicity
 _atom_site_fract_x
 _atom_site_fract_y
 _atom_site_fract_z
 _atom_site_occupancy
  La  La0  1  0.746670  0.808737  0.057913  1
  La  La1  1  0.443244  0.253775  0.693532  1
  La  La2  1  0.688883  0.442407  0.252341  1
  La  La3  1  0.058298  0.751081  0.812613  1
  La  La4  1  0.809063  0.059640  0.751931  1
  La  La5  1  0.220407  0.222314  0.222357  1
  La  La6  1  0.505675  0.998962  0.285438  1
  La  La7  1  0.279572  0.499693  0.997664  1
  La  La8  1  0.996159  0.283046  0.494842  1
  Ce  Ce9  1  0.249160  0.693366  0.447856  1
  Al  Al10  1  0.911349  0.495457  0.005396  1
  Al  Al11  1  0.002604  0.911052  0.502278  1
  Zn  Zn12  1  0.591147  0.590907  0.584249  1
  Zn  Zn13  1  0.497015  0.004924  0.913483  1
  Ru  Ru14  1  0.242859  0.126457  0.872210  1
  Ru  Ru15  1  0.754983  0.376908  0.635155  1
  Ru  Ru16  1  0.875095  0.245344  0.122433  1
  Ru  Ru17  1  0.133209  0.847313  0.268503  1
  Ru  Ru18  1  0.636732  0.759519  0.369892  1
  Ru  Ru19  1  0.357878  0.629100  0.709913  1
