# generated using pymatgen
data_La10Si2SnSb3
_symmetry_space_group_name_H-M   'P 1'
_cell_length_a   8.32131715
_cell_length_b   9.54627805
_cell_length_c   12.83028617
_cell_angle_alpha   89.99644517
_cell_angle_beta   89.98137181
_cell_angle_gamma   89.98856942
_symmetry_Int_Tables_number   1
_chemical_formula_structural   La10Si2SnSb3
_chemical_formula_sum   'La20 Si4 Sn2 Sb6'
_cell_volume   1019.20715849
_cell_formula_units_Z   2
loop_
 _symmetry_equiv_pos_site_id
 _symmetry_equiv_pos_as_xyz
  1  'x, y, z'
loop_
 _atom_site_type_symbol
 _atom_site_label
 _atom_site_symmetry_multiplicity
 _atom_site_fract_x
 _atom_site_fract_y
 _atom_site_fract_z
 _atom_site_occupancy
  La  La0  1  0.030661  0.750188  0.502318  1
  La  La1  1  0.969339  0.249812  0.497682  1
  La  La2  1  0.532362  0.252088  0.998008  1
  La  La3  1  0.467638  0.747912  0.001992  1
  La  La4  1  0.864067  0.749249  0.792263  1
  La  La5  1  0.135933  0.250751  0.207737  1
  La  La6  1  0.366341  0.250164  0.707410  1
  La  La7  1  0.633659  0.749836  0.292590  1
  La  La8  1  0.693660  0.542411  0.562792  1
  La  La9  1  0.306340  0.457589  0.437208  1
  La  La10  1  0.193412  0.459299  0.937718  1
  La  La11  1  0.305874  0.041719  0.438554  1
  La  La12  1  0.806588  0.540701  0.062282  1
  La  La13  1  0.694126  0.958281  0.561446  1
  La  La14  1  0.806576  0.958396  0.061335  1
  La  La15  1  0.193424  0.041604  0.938665  1
  La  La16  1  0.343218  0.749651  0.713532  1
  La  La17  1  0.656782  0.250349  0.286468  1
  La  La18  1  0.841977  0.250144  0.786318  1
  La  La19  1  0.158023  0.749856  0.213682  1
  Si  Si20  1  0.071468  0.750749  0.982639  1
  Si  Si21  1  0.928532  0.249251  0.017361  1
  Si  Si22  1  0.572815  0.249821  0.517015  1
  Si  Si23  1  0.427185  0.750179  0.482985  1
  Sn  Sn24  1  0.575682  0.507412  0.826261  1
  Sn  Sn25  1  0.424318  0.492588  0.173739  1
  Sb  Sb26  1  0.075822  0.492081  0.673123  1
  Sb  Sb27  1  0.424002  0.007915  0.173660  1
  Sb  Sb28  1  0.924178  0.507919  0.326877  1
  Sb  Sb29  1  0.575998  0.992085  0.826340  1
  Sb  Sb30  1  0.924119  0.991859  0.326425  1
  Sb  Sb31  1  0.075881  0.008141  0.673575  1
