# generated using pymatgen
data_Tb8Tm4InCo4Cu
_symmetry_space_group_name_H-M   'P 1'
_cell_length_a   8.31975566
_cell_length_b   8.31975483
_cell_length_c   8.31975474
_cell_angle_alpha   111.12623890
_cell_angle_beta   110.46832987
_cell_angle_gamma   106.85116412
_symmetry_Int_Tables_number   1
_chemical_formula_structural   Tb8Tm4InCo4Cu
_chemical_formula_sum   'Tb8 Tm4 In1 Co4 Cu1'
_cell_volume   442.60561372
_cell_formula_units_Z   1
loop_
 _symmetry_equiv_pos_site_id
 _symmetry_equiv_pos_as_xyz
  1  'x, y, z'
loop_
 _atom_site_type_symbol
 _atom_site_label
 _atom_site_symmetry_multiplicity
 _atom_site_fract_x
 _atom_site_fract_y
 _atom_site_fract_z
 _atom_site_occupancy
  Tb  Tb0  1  0.417335  0.218451  0.198885  1
  Tb  Tb1  1  0.582665  0.781549  0.801115  1
  Tb  Tb2  1  0.019567  0.218451  0.801115  1
  Tb  Tb3  1  0.980433  0.781549  0.198885  1
  Tb  Tb4  1  0.185208  0.289986  0.475194  1
  Tb  Tb5  1  0.814792  0.710014  0.524806  1
  Tb  Tb6  1  0.185208  0.710014  0.895222  1
  Tb  Tb7  1  0.814792  0.289986  0.104778  1
  Tm  Tm8  1  0.317113  0.624623  0.307512  1
  Tm  Tm9  1  0.682887  0.375377  0.692488  1
  Tm  Tm10  1  0.317113  0.009601  0.692488  1
  Tm  Tm11  1  0.682887  0.990399  0.307512  1
  In  In12  1  0.500000  0.500000  0.000000  1
  Co  Co13  1  0.377794  0.000000  0.377794  1
  Co  Co14  1  0.622206  0.000000  0.622206  1
  Co  Co15  1  0.113066  0.613066  0.500000  1
  Co  Co16  1  0.886934  0.386934  0.500000  1
  Cu  Cu17  1  0.000000  0.000000  0.000000  1
