# generated using pymatgen
data_Ho2ErHf3(GaPt)6
_symmetry_space_group_name_H-M   'P 1'
_cell_length_a   7.26674500
_cell_length_b   7.26618503
_cell_length_c   7.33544200
_cell_angle_alpha   90.00000000
_cell_angle_beta   90.00000000
_cell_angle_gamma   120.00216557
_symmetry_Int_Tables_number   1
_chemical_formula_structural   Ho2ErHf3(GaPt)6
_chemical_formula_sum   'Ho2 Er1 Hf3 Ga6 Pt6'
_cell_volume   335.42375375
_cell_formula_units_Z   1
loop_
 _symmetry_equiv_pos_site_id
 _symmetry_equiv_pos_as_xyz
  1  'x, y, z'
loop_
 _atom_site_type_symbol
 _atom_site_label
 _atom_site_symmetry_multiplicity
 _atom_site_fract_x
 _atom_site_fract_y
 _atom_site_fract_z
 _atom_site_occupancy
  Ho  Ho0  1  0.407662  0.408166  0.750000  1
  Ho  Ho1  1  0.000526  0.592350  0.750000  1
  Er  Er2  1  0.591875  0.999486  0.750000  1
  Hf  Hf3  1  0.390796  0.390314  0.250000  1
  Hf  Hf4  1  0.999506  0.609195  0.250000  1
  Hf  Hf5  1  0.609687  0.000487  0.250000  1
  Ga  Ga6  1  0.263458  0.999811  0.007305  1
  Ga  Ga7  1  0.263458  0.999811  0.492695  1
  Ga  Ga8  1  0.000162  0.263609  0.492677  1
  Ga  Ga9  1  0.000162  0.263609  0.007323  1
  Ga  Ga10  1  0.736366  0.736580  0.007324  1
  Ga  Ga11  1  0.736366  0.736580  0.492676  1
  Pt  Pt12  1  0.666656  0.333290  0.471974  1
  Pt  Pt13  1  0.999941  0.999999  0.750000  1
  Pt  Pt14  1  0.666656  0.333290  0.028026  1
  Pt  Pt15  1  0.333366  0.666711  0.029048  1
  Pt  Pt16  1  0.333366  0.666711  0.470952  1
  Pt  Pt17  1  0.999993  0.999999  0.250000  1
