# generated using pymatgen
data_Y3In2Ga2CuAg
_symmetry_space_group_name_H-M   'P 1'
_cell_length_a   7.12623500
_cell_length_b   7.18889625
_cell_length_c   4.38850600
_cell_angle_alpha   90.00000000
_cell_angle_beta   90.00000000
_cell_angle_gamma   119.71207588
_symmetry_Int_Tables_number   1
_chemical_formula_structural   Y3In2Ga2CuAg
_chemical_formula_sum   'Y3 In2 Ga2 Cu1 Ag1'
_cell_volume   195.26410334
_cell_formula_units_Z   1
loop_
 _symmetry_equiv_pos_site_id
 _symmetry_equiv_pos_as_xyz
  1  'x, y, z'
loop_
 _atom_site_type_symbol
 _atom_site_label
 _atom_site_symmetry_multiplicity
 _atom_site_fract_x
 _atom_site_fract_y
 _atom_site_fract_z
 _atom_site_occupancy
  Y  Y0  1  0.416594  0.000000  0.500000  1
  Y  Y1  1  0.998058  0.408310  0.500000  1
  Y  Y2  1  0.589748  0.591690  0.500000  1
  In  In3  1  0.995408  0.757649  0.000000  1
  In  In4  1  0.237760  0.242351  0.000000  1
  Ga  Ga5  1  0.340579  0.672924  0.000000  1
  Ga  Ga6  1  0.667656  0.327076  0.000000  1
  Cu  Cu7  1  0.001184  0.000000  0.500000  1
  Ag  Ag8  1  0.753011  0.000000  0.000000  1
