# generated using pymatgen
data_NdY2Ho2(FeB3)2
_symmetry_space_group_name_H-M   'P 1'
_cell_length_a   8.29850551
_cell_length_b   8.29850529
_cell_length_c   8.29850375
_cell_angle_alpha   38.15888561
_cell_angle_beta   38.15888838
_cell_angle_gamma   38.15887771
_symmetry_Int_Tables_number   1
_chemical_formula_structural   NdY2Ho2(FeB3)2
_chemical_formula_sum   'Nd1 Y2 Ho2 Fe2 B6'
_cell_volume   195.87965937
_cell_formula_units_Z   1
loop_
 _symmetry_equiv_pos_site_id
 _symmetry_equiv_pos_as_xyz
  1  'x, y, z'
loop_
 _atom_site_type_symbol
 _atom_site_label
 _atom_site_symmetry_multiplicity
 _atom_site_fract_x
 _atom_site_fract_y
 _atom_site_fract_z
 _atom_site_occupancy
  Nd  Nd0  1  0.000000  0.000000  0.000000  1
  Y  Y1  1  0.582998  0.582998  0.582998  1
  Y  Y2  1  0.417002  0.417002  0.417002  1
  Ho  Ho3  1  0.750299  0.750299  0.750299  1
  Ho  Ho4  1  0.249701  0.249701  0.249701  1
  Fe  Fe5  1  0.883020  0.883020  0.883020  1
  Fe  Fe6  1  0.116980  0.116980  0.116980  1
  B  B7  1  0.500000  0.832510  0.167490  1
  B  B8  1  0.167490  0.500000  0.832510  1
  B  B9  1  0.832510  0.167490  0.500000  1
  B  B10  1  0.500000  0.167490  0.832510  1
  B  B11  1  0.832510  0.500000  0.167490  1
  B  B12  1  0.167490  0.832510  0.500000  1
