# generated using pymatgen
data_TiNbFe(Co10B3)2
_symmetry_space_group_name_H-M   'P 1'
_cell_length_a   7.42804880
_cell_length_b   7.42757414
_cell_length_c   7.42921200
_cell_angle_alpha   59.99269919
_cell_angle_beta   59.99443986
_cell_angle_gamma   59.98900027
_symmetry_Int_Tables_number   1
_chemical_formula_structural   TiNbFe(Co10B3)2
_chemical_formula_sum   'Ti1 Nb1 Fe1 Co20 B6'
_cell_volume   289.78184251
_cell_formula_units_Z   1
loop_
 _symmetry_equiv_pos_site_id
 _symmetry_equiv_pos_as_xyz
  1  'x, y, z'
loop_
 _atom_site_type_symbol
 _atom_site_label
 _atom_site_symmetry_multiplicity
 _atom_site_fract_x
 _atom_site_fract_y
 _atom_site_fract_z
 _atom_site_occupancy
  Ti  Ti0  1  0.749922  0.749845  0.750125  1
  Nb  Nb1  1  0.250057  0.250122  0.249907  1
  Fe  Fe2  1  0.999996  0.000003  0.000009  1
  Co  Co3  1  0.847011  0.384411  0.384283  1
  Co  Co4  1  0.384387  0.846995  0.384302  1
  Co  Co5  1  0.384324  0.384372  0.847050  1
  Co  Co6  1  0.384338  0.384377  0.384251  1
  Co  Co7  1  0.145597  0.618069  0.618180  1
  Co  Co8  1  0.618087  0.145608  0.618162  1
  Co  Co9  1  0.618132  0.618101  0.145581  1
  Co  Co10  1  0.618124  0.618092  0.618199  1
  Co  Co11  1  0.661164  0.999659  0.999680  1
  Co  Co12  1  0.661175  0.999659  0.339482  1
  Co  Co13  1  0.661152  0.339550  0.999645  1
  Co  Co14  1  0.999670  0.661152  0.339495  1
  Co  Co15  1  0.999671  0.661148  0.999679  1
  Co  Co16  1  0.339538  0.661139  0.999660  1
  Co  Co17  1  0.999629  0.339542  0.661187  1
  Co  Co18  1  0.339520  0.999635  0.661192  1
  Co  Co19  1  0.999660  0.999653  0.661200  1
  Co  Co20  1  0.339523  0.999638  0.999657  1
  Co  Co21  1  0.999639  0.339540  0.999640  1
  Co  Co22  1  0.999667  0.999656  0.339477  1
  B  B23  1  0.726580  0.273468  0.273259  1
  B  B24  1  0.726584  0.273465  0.726687  1
  B  B25  1  0.726653  0.726603  0.273365  1
  B  B26  1  0.273429  0.726556  0.726717  1
  B  B27  1  0.273447  0.726552  0.273293  1
  B  B28  1  0.273327  0.273391  0.726641  1
