# generated using pymatgen
data_LaSmDyTaO7
_symmetry_space_group_name_H-M   'P 1'
_cell_length_a   6.58156396
_cell_length_b   6.58156415
_cell_length_c   7.67865500
_cell_angle_alpha   90.00000000
_cell_angle_beta   90.00000000
_cell_angle_gamma   108.99834781
_symmetry_Int_Tables_number   1
_chemical_formula_structural   LaSmDyTaO7
_chemical_formula_sum   'La2 Sm2 Dy2 Ta2 O14'
_cell_volume   314.49790558
_cell_formula_units_Z   2
loop_
 _symmetry_equiv_pos_site_id
 _symmetry_equiv_pos_as_xyz
  1  'x, y, z'
loop_
 _atom_site_type_symbol
 _atom_site_label
 _atom_site_symmetry_multiplicity
 _atom_site_fract_x
 _atom_site_fract_y
 _atom_site_fract_z
 _atom_site_occupancy
  La  La0  1  0.503127  0.503127  0.500000  1
  La  La1  1  0.503127  0.503127  0.000000  1
  Sm  Sm2  1  0.465102  0.000375  0.250000  1
  Sm  Sm3  1  0.000375  0.465102  0.750000  1
  Dy  Dy4  1  0.532664  0.001268  0.750000  1
  Dy  Dy5  1  0.001268  0.532664  0.250000  1
  Ta  Ta6  1  0.000139  0.000139  0.500000  1
  Ta  Ta7  1  0.000139  0.000139  0.000000  1
  O  O8  1  0.682098  0.933169  0.472892  1
  O  O9  1  0.933169  0.682098  0.527108  1
  O  O10  1  0.682098  0.933169  0.027108  1
  O  O11  1  0.933169  0.682098  0.972892  1
  O  O12  1  0.314533  0.064306  0.535861  1
  O  O13  1  0.064306  0.314533  0.464139  1
  O  O14  1  0.314533  0.064306  0.964139  1
  O  O15  1  0.064306  0.314533  0.035861  1
  O  O16  1  0.939419  0.061226  0.750000  1
  O  O17  1  0.061226  0.939419  0.250000  1
  O  O18  1  0.370092  0.640805  0.750000  1
  O  O19  1  0.640805  0.370092  0.250000  1
  O  O20  1  0.638829  0.355474  0.750000  1
  O  O21  1  0.355474  0.638829  0.250000  1
