# generated using pymatgen
data_Yb2TmLu(Ga3Ir)6
_symmetry_space_group_name_H-M   'P 1'
_cell_length_a   7.53453169
_cell_length_b   7.53942667
_cell_length_c   9.56325800
_cell_angle_alpha   90.00000000
_cell_angle_beta   90.00000000
_cell_angle_gamma   119.71681638
_symmetry_Int_Tables_number   1
_chemical_formula_structural   Yb2TmLu(Ga3Ir)6
_chemical_formula_sum   'Yb2 Tm1 Lu1 Ga18 Ir6'
_cell_volume   471.80583677
_cell_formula_units_Z   1
loop_
 _symmetry_equiv_pos_site_id
 _symmetry_equiv_pos_as_xyz
  1  'x, y, z'
loop_
 _atom_site_type_symbol
 _atom_site_label
 _atom_site_symmetry_multiplicity
 _atom_site_fract_x
 _atom_site_fract_y
 _atom_site_fract_z
 _atom_site_occupancy
  Yb  Yb0  1  0.996614  0.669545  0.750000  1
  Yb  Yb1  1  0.003392  0.330452  0.250000  1
  Tm  Tm2  1  0.330669  0.001797  0.250000  1
  Lu  Lu3  1  0.669304  0.998330  0.750000  1
  Ga  Ga4  1  0.126601  0.128875  0.750000  1
  Ga  Ga5  1  0.873046  0.870898  0.250000  1
  Ga  Ga6  1  0.999735  0.335252  0.579035  1
  Ga  Ga7  1  0.999889  0.664341  0.421433  1
  Ga  Ga8  1  0.999889  0.664341  0.078567  1
  Ga  Ga9  1  0.333823  0.998636  0.919768  1
  Ga  Ga10  1  0.999735  0.335252  0.920965  1
  Ga  Ga11  1  0.666539  0.001344  0.079517  1
  Ga  Ga12  1  0.666539  0.001344  0.420483  1
  Ga  Ga13  1  0.333823  0.998636  0.580232  1
  Ga  Ga14  1  0.331852  0.332365  0.064762  1
  Ga  Ga15  1  0.668228  0.668014  0.934619  1
  Ga  Ga16  1  0.668228  0.668014  0.565381  1
  Ga  Ga17  1  0.331852  0.332365  0.435238  1
  Ga  Ga18  1  0.339515  0.547748  0.750000  1
  Ga  Ga19  1  0.660552  0.452595  0.250000  1
  Ga  Ga20  1  0.546693  0.336780  0.750000  1
  Ga  Ga21  1  0.453490  0.663201  0.250000  1
  Ir  Ir22  1  0.670992  0.328131  0.500367  1
  Ir  Ir23  1  0.329057  0.671852  0.499885  1
  Ir  Ir24  1  0.329057  0.671852  0.000115  1
  Ir  Ir25  1  0.670992  0.328131  0.999633  1
  Ir  Ir26  1  0.999947  0.999955  0.500058  1
  Ir  Ir27  1  0.999947  0.999955  0.999942  1
