# generated using pymatgen
data_Y7Ho(InRh)2
_symmetry_space_group_name_H-M   'P 1'
_cell_length_a   9.70028098
_cell_length_b   9.71654869
_cell_length_c   9.70028189
_cell_angle_alpha   59.94451326
_cell_angle_beta   59.90625994
_cell_angle_gamma   59.94451343
_symmetry_Int_Tables_number   1
_chemical_formula_structural   Y7Ho(InRh)2
_chemical_formula_sum   'Y14 Ho2 In4 Rh4'
_cell_volume   645.49496470
_cell_formula_units_Z   2
loop_
 _symmetry_equiv_pos_site_id
 _symmetry_equiv_pos_as_xyz
  1  'x, y, z'
loop_
 _atom_site_type_symbol
 _atom_site_label
 _atom_site_symmetry_multiplicity
 _atom_site_fract_x
 _atom_site_fract_y
 _atom_site_fract_z
 _atom_site_occupancy
  Y  Y0  1  0.188807  0.188046  0.812028  1
  Y  Y1  1  0.601296  0.599472  0.199759  1
  Y  Y2  1  0.440109  0.059891  0.440109  1
  Y  Y3  1  0.439634  0.440366  0.059125  1
  Y  Y4  1  0.811488  0.188512  0.811488  1
  Y  Y5  1  0.188305  0.811695  0.188305  1
  Y  Y6  1  0.439634  0.060876  0.059125  1
  Y  Y7  1  0.188807  0.811119  0.812028  1
  Y  Y8  1  0.060204  0.439796  0.060204  1
  Y  Y9  1  0.812028  0.811119  0.188807  1
  Y  Y10  1  0.199759  0.599472  0.601296  1
  Y  Y11  1  0.059125  0.440366  0.439634  1
  Y  Y12  1  0.059125  0.060876  0.439634  1
  Y  Y13  1  0.812028  0.188046  0.188807  1
  Ho  Ho14  1  0.599385  0.203659  0.599385  1
  Ho  Ho15  1  0.599385  0.597571  0.599385  1
  In  In16  1  0.832944  0.833522  0.832944  1
  In  In17  1  0.832592  0.833210  0.500988  1
  In  In18  1  0.500988  0.833210  0.832592  1
  In  In19  1  0.832944  0.500590  0.832944  1
  Rh  Rh20  1  0.393224  0.822258  0.393224  1
  Rh  Rh21  1  0.393224  0.391294  0.393224  1
  Rh  Rh22  1  0.820536  0.392517  0.394429  1
  Rh  Rh23  1  0.394429  0.392517  0.820536  1
