# generated using pymatgen
data_Rb8Tm6BeBr20
_symmetry_space_group_name_H-M   'P 1'
_cell_length_a   12.26821597
_cell_length_b   12.26823485
_cell_length_c   12.26823514
_cell_angle_alpha   60.01407774
_cell_angle_beta   60.01420139
_cell_angle_gamma   60.01430462
_symmetry_Int_Tables_number   1
_chemical_formula_structural   Rb8Tm6BeBr20
_chemical_formula_sum   'Rb8 Tm6 Be1 Br20'
_cell_volume   1306.08162608
_cell_formula_units_Z   1
loop_
 _symmetry_equiv_pos_site_id
 _symmetry_equiv_pos_as_xyz
  1  'x, y, z'
loop_
 _atom_site_type_symbol
 _atom_site_label
 _atom_site_symmetry_multiplicity
 _atom_site_fract_x
 _atom_site_fract_y
 _atom_site_fract_z
 _atom_site_occupancy
  Rb  Rb0  1  0.358902  0.358900  0.358899  1
  Rb  Rb1  1  0.641098  0.641100  0.641101  1
  Rb  Rb2  1  0.358889  0.358900  0.923312  1
  Rb  Rb3  1  0.358895  0.923308  0.358897  1
  Rb  Rb4  1  0.641111  0.641100  0.076688  1
  Rb  Rb5  1  0.641105  0.076692  0.641103  1
  Rb  Rb6  1  0.923307  0.358894  0.358895  1
  Rb  Rb7  1  0.076693  0.641106  0.641105  1
  Tm  Tm8  1  0.846626  0.153385  0.153385  1
  Tm  Tm9  1  0.153374  0.846615  0.846615  1
  Tm  Tm10  1  0.153386  0.846626  0.153386  1
  Tm  Tm11  1  0.846614  0.153374  0.846614  1
  Tm  Tm12  1  0.153387  0.153386  0.846624  1
  Tm  Tm13  1  0.846613  0.846614  0.153376  1
  Be  Be14  1  0.000000  0.000000  0.000000  1
  Br  Br15  1  0.329153  0.000002  0.000001  1
  Br  Br16  1  0.670847  0.999998  0.999999  1
  Br  Br17  1  0.000000  0.329143  0.670857  1
  Br  Br18  1  0.000000  0.670857  0.329143  1
  Br  Br19  1  0.000002  0.329153  0.000002  1
  Br  Br20  1  0.670858  0.000000  0.329142  1
  Br  Br21  1  0.999998  0.670847  0.999998  1
  Br  Br22  1  0.329142  0.000000  0.670858  1
  Br  Br23  1  0.000002  0.000001  0.329153  1
  Br  Br24  1  0.999998  0.999999  0.670847  1
  Br  Br25  1  0.670858  0.329142  0.000000  1
  Br  Br26  1  0.329142  0.670858  0.000000  1
  Br  Br27  1  0.681899  0.318115  0.318115  1
  Br  Br28  1  0.318101  0.681885  0.681885  1
  Br  Br29  1  0.318116  0.681898  0.318116  1
  Br  Br30  1  0.681884  0.318102  0.681884  1
  Br  Br31  1  0.318116  0.318116  0.681898  1
  Br  Br32  1  0.681884  0.681884  0.318102  1
  Br  Br33  1  0.249999  0.249997  0.250000  1
  Br  Br34  1  0.750001  0.750003  0.750000  1
