# generated using pymatgen
data_K2Ce(TeO4)3
_symmetry_space_group_name_H-M   'P 1'
_cell_length_a   7.70283426
_cell_length_b   7.70283390
_cell_length_c   7.69874599
_cell_angle_alpha   57.04778505
_cell_angle_beta   57.04778559
_cell_angle_gamma   57.01375787
_symmetry_Int_Tables_number   1
_chemical_formula_structural   K2Ce(TeO4)3
_chemical_formula_sum   'K2 Ce1 Te3 O12'
_cell_volume   300.93487110
_cell_formula_units_Z   1
loop_
 _symmetry_equiv_pos_site_id
 _symmetry_equiv_pos_as_xyz
  1  'x, y, z'
loop_
 _atom_site_type_symbol
 _atom_site_label
 _atom_site_symmetry_multiplicity
 _atom_site_fract_x
 _atom_site_fract_y
 _atom_site_fract_z
 _atom_site_occupancy
  K  K0  1  0.837697  0.919313  0.391366  1
  K  K1  1  0.080687  0.162303  0.608634  1
  Ce  Ce2  1  0.495939  0.504061  0.000000  1
  Te  Te3  1  0.999523  0.499619  0.998934  1
  Te  Te4  1  0.500381  0.000477  0.001066  1
  Te  Te5  1  0.499280  0.500720  0.500000  1
  O  O6  1  0.181697  0.180845  0.079785  1
  O  O7  1  0.573606  0.566655  0.651439  1
  O  O8  1  0.152030  0.564676  0.072465  1
  O  O9  1  0.583644  0.182016  0.682269  1
  O  O10  1  0.569679  0.153163  0.070460  1
  O  O11  1  0.181631  0.580437  0.681130  1
  O  O12  1  0.819155  0.818303  0.920215  1
  O  O13  1  0.433345  0.426394  0.348561  1
  O  O14  1  0.846837  0.430321  0.929540  1
  O  O15  1  0.419563  0.818369  0.318870  1
  O  O16  1  0.435324  0.847970  0.927535  1
  O  O17  1  0.817984  0.416356  0.317731  1
