# generated using pymatgen
data_ZnIn9(AgIr2)2
_symmetry_space_group_name_H-M   'P 1'
_cell_length_a   7.05573696
_cell_length_b   7.20693522
_cell_length_c   7.04480500
_cell_angle_alpha   90.00000000
_cell_angle_beta   90.00000000
_cell_angle_gamma   89.48854420
_symmetry_Int_Tables_number   1
_chemical_formula_structural   ZnIn9(AgIr2)2
_chemical_formula_sum   'Zn1 In9 Ag2 Ir4'
_cell_volume   358.21574683
_cell_formula_units_Z   1
loop_
 _symmetry_equiv_pos_site_id
 _symmetry_equiv_pos_as_xyz
  1  'x, y, z'
loop_
 _atom_site_type_symbol
 _atom_site_label
 _atom_site_symmetry_multiplicity
 _atom_site_fract_x
 _atom_site_fract_y
 _atom_site_fract_z
 _atom_site_occupancy
  Zn  Zn0  1  0.500000  0.000000  0.000000  1
  In  In1  1  0.323266  0.349878  0.258919  1
  In  In2  1  0.152853  0.822700  0.766891  1
  In  In3  1  0.152853  0.822700  0.233109  1
  In  In4  1  0.847147  0.177300  0.233109  1
  In  In5  1  0.847147  0.177300  0.766891  1
  In  In6  1  0.676734  0.650122  0.258919  1
  In  In7  1  0.676734  0.650122  0.741081  1
  In  In8  1  0.323266  0.349878  0.741081  1
  In  In9  1  0.500000  0.000000  0.500000  1
  Ag  Ag10  1  0.000000  0.500000  0.000000  1
  Ag  Ag11  1  0.000000  0.500000  0.500000  1
  Ir  Ir12  1  0.163229  0.134096  0.000000  1
  Ir  Ir13  1  0.636253  0.342854  0.500000  1
  Ir  Ir14  1  0.363747  0.657146  0.500000  1
  Ir  Ir15  1  0.836771  0.865904  0.000000  1
