# generated using pymatgen
data_Tb4Dy2TmRh3
_symmetry_space_group_name_H-M   'P 1'
_cell_length_a   9.81095425
_cell_length_b   9.81095244
_cell_length_c   6.18343821
_cell_angle_alpha   90.02597556
_cell_angle_beta   89.97402088
_cell_angle_gamma   120.00101582
_symmetry_Int_Tables_number   1
_chemical_formula_structural   Tb4Dy2TmRh3
_chemical_formula_sum   'Tb8 Dy4 Tm2 Rh6'
_cell_volume   515.44053951
_cell_formula_units_Z   2
loop_
 _symmetry_equiv_pos_site_id
 _symmetry_equiv_pos_as_xyz
  1  'x, y, z'
loop_
 _atom_site_type_symbol
 _atom_site_label
 _atom_site_symmetry_multiplicity
 _atom_site_fract_x
 _atom_site_fract_y
 _atom_site_fract_z
 _atom_site_occupancy
  Tb  Tb0  1  0.875729  0.751563  0.741206  1
  Tb  Tb1  1  0.248437  0.124271  0.741206  1
  Tb  Tb2  1  0.875789  0.124211  0.741209  1
  Tb  Tb3  1  0.124215  0.248405  0.241141  1
  Tb  Tb4  1  0.751595  0.875785  0.241141  1
  Tb  Tb5  1  0.124191  0.875809  0.241144  1
  Tb  Tb6  1  0.459150  0.918171  0.547819  1
  Tb  Tb7  1  0.081829  0.540850  0.547819  1
  Dy  Dy8  1  0.459103  0.540897  0.548051  1
  Dy  Dy9  1  0.541064  0.082185  0.048041  1
  Dy  Dy10  1  0.917815  0.458936  0.048041  1
  Dy  Dy11  1  0.541048  0.458952  0.048022  1
  Tm  Tm12  1  0.666623  0.333377  0.532985  1
  Tm  Tm13  1  0.333374  0.666626  0.033176  1
  Rh  Rh14  1  0.190682  0.381043  0.813492  1
  Rh  Rh15  1  0.618957  0.809318  0.813492  1
  Rh  Rh16  1  0.190439  0.809561  0.813648  1
  Rh  Rh17  1  0.809339  0.618841  0.313282  1
  Rh  Rh18  1  0.381159  0.190661  0.313282  1
  Rh  Rh19  1  0.809461  0.190539  0.313247  1
