# generated using pymatgen
data_Ti2Nb(BOs)3
_symmetry_space_group_name_H-M   'P 1'
_cell_length_a   3.08471600
_cell_length_b   8.98455500
_cell_length_c   15.49949000
_cell_angle_alpha   90.00000000
_cell_angle_beta   90.00000000
_cell_angle_gamma   90.00000000
_symmetry_Int_Tables_number   1
_chemical_formula_structural   Ti2Nb(BOs)3
_chemical_formula_sum   'Ti8 Nb4 B12 Os12'
_cell_volume   429.56527415
_cell_formula_units_Z   4
loop_
 _symmetry_equiv_pos_site_id
 _symmetry_equiv_pos_as_xyz
  1  'x, y, z'
loop_
 _atom_site_type_symbol
 _atom_site_label
 _atom_site_symmetry_multiplicity
 _atom_site_fract_x
 _atom_site_fract_y
 _atom_site_fract_z
 _atom_site_occupancy
  Ti  Ti0  1  0.000000  0.801161  0.494890  1
  Ti  Ti1  1  0.000000  0.198839  0.505110  1
  Ti  Ti2  1  0.000000  0.301161  0.005110  1
  Ti  Ti3  1  0.000000  0.698839  0.994890  1
  Ti  Ti4  1  0.000000  0.514904  0.594173  1
  Ti  Ti5  1  0.000000  0.485096  0.405827  1
  Ti  Ti6  1  0.000000  0.014904  0.905827  1
  Ti  Ti7  1  0.000000  0.985096  0.094173  1
  Nb  Nb8  1  0.000000  0.684999  0.204212  1
  Nb  Nb9  1  0.000000  0.315001  0.795788  1
  Nb  Nb10  1  0.000000  0.184999  0.295788  1
  Nb  Nb11  1  0.000000  0.815001  0.704212  1
  B  B12  1  0.500000  0.603548  0.495275  1
  B  B13  1  0.500000  0.396452  0.504725  1
  B  B14  1  0.500000  0.103548  0.004725  1
  B  B15  1  0.500000  0.896452  0.995275  1
  B  B16  1  0.000000  0.610507  0.834036  1
  B  B17  1  0.000000  0.389493  0.165964  1
  B  B18  1  0.000000  0.110507  0.665964  1
  B  B19  1  0.000000  0.889493  0.334036  1
  B  B20  1  0.500000  0.712611  0.598019  1
  B  B21  1  0.500000  0.287389  0.401981  1
  B  B22  1  0.500000  0.212611  0.901981  1
  B  B23  1  0.500000  0.787389  0.098019  1
  Os  Os24  1  0.500000  0.716430  0.359515  1
  Os  Os25  1  0.500000  0.283570  0.640485  1
  Os  Os26  1  0.500000  0.216430  0.140485  1
  Os  Os27  1  0.500000  0.783570  0.859515  1
  Os  Os28  1  0.500000  0.519417  0.093019  1
  Os  Os29  1  0.500000  0.480583  0.906981  1
  Os  Os30  1  0.500000  0.019417  0.406981  1
  Os  Os31  1  0.500000  0.980583  0.593019  1
  Os  Os32  1  0.500000  0.565224  0.731301  1
  Os  Os33  1  0.500000  0.434776  0.268699  1
  Os  Os34  1  0.500000  0.065224  0.768699  1
  Os  Os35  1  0.500000  0.934776  0.231301  1
