# generated using pymatgen
data_TbYGa9Ru5
_symmetry_space_group_name_H-M   'P 1'
_cell_length_a   8.06996109
_cell_length_b   8.06996033
_cell_length_c   8.06996215
_cell_angle_alpha   134.84720829
_cell_angle_beta   134.85447364
_cell_angle_gamma   65.76204467
_symmetry_Int_Tables_number   1
_chemical_formula_structural   TbYGa9Ru5
_chemical_formula_sum   'Tb1 Y1 Ga9 Ru5'
_cell_volume   260.16800619
_cell_formula_units_Z   1
loop_
 _symmetry_equiv_pos_site_id
 _symmetry_equiv_pos_as_xyz
  1  'x, y, z'
loop_
 _atom_site_type_symbol
 _atom_site_label
 _atom_site_symmetry_multiplicity
 _atom_site_fract_x
 _atom_site_fract_y
 _atom_site_fract_z
 _atom_site_occupancy
  Tb  Tb0  1  0.000000  0.500000  0.500000  1
  Y  Y1  1  0.500000  0.000000  0.500000  1
  Ga  Ga2  1  0.439180  0.858670  0.000002  1
  Ga  Ga3  1  0.141332  0.141330  0.580509  1
  Ga  Ga4  1  0.858668  0.439178  0.999998  1
  Ga  Ga5  1  0.858668  0.858670  0.419491  1
  Ga  Ga6  1  0.560820  0.141330  0.999998  1
  Ga  Ga7  1  0.141332  0.560822  0.000002  1
  Ga  Ga8  1  0.560820  0.560822  0.419491  1
  Ga  Ga9  1  0.000000  0.000000  0.000000  1
  Ga  Ga10  1  0.439180  0.439178  0.580509  1
  Ru  Ru11  1  0.180410  0.180410  0.000000  1
  Ru  Ru12  1  0.819590  0.819590  0.000000  1
  Ru  Ru13  1  0.250025  0.750025  0.500000  1
  Ru  Ru14  1  0.749975  0.249975  0.500000  1
  Ru  Ru15  1  0.500000  0.500000  0.000000  1
