# generated using pymatgen
data_Li2LaNdBiPb
_symmetry_space_group_name_H-M   'P 1'
_cell_length_a   4.90481400
_cell_length_b   4.90481355
_cell_length_c   7.72637400
_cell_angle_alpha   90.00000000
_cell_angle_beta   90.00000000
_cell_angle_gamma   120.00000307
_symmetry_Int_Tables_number   1
_chemical_formula_structural   Li2LaNdBiPb
_chemical_formula_sum   'Li2 La1 Nd1 Bi1 Pb1'
_cell_volume   160.97238924
_cell_formula_units_Z   1
loop_
 _symmetry_equiv_pos_site_id
 _symmetry_equiv_pos_as_xyz
  1  'x, y, z'
loop_
 _atom_site_type_symbol
 _atom_site_label
 _atom_site_symmetry_multiplicity
 _atom_site_fract_x
 _atom_site_fract_y
 _atom_site_fract_z
 _atom_site_occupancy
  Li  Li0  1  0.666667  0.333333  0.765307  1
  Li  Li1  1  0.333333  0.666667  0.228103  1
  La  La2  1  0.000000  0.000000  0.496749  1
  Nd  Nd3  1  0.000000  0.000000  0.006081  1
  Bi  Bi4  1  0.333333  0.666667  0.757100  1
  Pb  Pb5  1  0.666667  0.333333  0.246660  1
