# generated using pymatgen
data_Lu2GeB2Ir4Ru
_symmetry_space_group_name_H-M   'P 1'
_cell_length_a   9.46167606
_cell_length_b   9.49112605
_cell_length_c   3.15758200
_cell_angle_alpha   90.00000000
_cell_angle_beta   90.00000000
_cell_angle_gamma   89.98767781
_symmetry_Int_Tables_number   1
_chemical_formula_structural   Lu2GeB2Ir4Ru
_chemical_formula_sum   'Lu4 Ge2 B4 Ir8 Ru2'
_cell_volume   283.55704630
_cell_formula_units_Z   2
loop_
 _symmetry_equiv_pos_site_id
 _symmetry_equiv_pos_as_xyz
  1  'x, y, z'
loop_
 _atom_site_type_symbol
 _atom_site_label
 _atom_site_symmetry_multiplicity
 _atom_site_fract_x
 _atom_site_fract_y
 _atom_site_fract_z
 _atom_site_occupancy
  Lu  Lu0  1  0.676332  0.173787  0.000000  1
  Lu  Lu1  1  0.323668  0.826213  0.000000  1
  Lu  Lu2  1  0.175870  0.320161  0.000000  1
  Lu  Lu3  1  0.824130  0.679839  0.000000  1
  Ge  Ge4  1  0.000000  0.000000  0.000000  1
  Ge  Ge5  1  0.500000  0.500000  0.000000  1
  B  B6  1  0.122875  0.622816  0.000000  1
  B  B7  1  0.877125  0.377184  0.000000  1
  B  B8  1  0.625646  0.878909  0.000000  1
  B  B9  1  0.374354  0.121091  0.000000  1
  Ir  Ir10  1  0.071348  0.780268  0.500000  1
  Ir  Ir11  1  0.716767  0.432089  0.500000  1
  Ir  Ir12  1  0.928652  0.219732  0.500000  1
  Ir  Ir13  1  0.283233  0.567911  0.500000  1
  Ir  Ir14  1  0.569100  0.718533  0.500000  1
  Ir  Ir15  1  0.430900  0.281467  0.500000  1
  Ir  Ir16  1  0.500000  0.000000  0.500000  1
  Ir  Ir17  1  0.000000  0.500000  0.500000  1
  Ru  Ru18  1  0.214471  0.067651  0.500000  1
  Ru  Ru19  1  0.785529  0.932349  0.500000  1
