# generated using pymatgen
data_Hf4Be4InHg
_symmetry_space_group_name_H-M   'P 1'
_cell_length_a   6.38409400
_cell_length_b   6.38409400
_cell_length_c   7.91212700
_cell_angle_alpha   90.00000000
_cell_angle_beta   90.00000000
_cell_angle_gamma   90.00000000
_symmetry_Int_Tables_number   1
_chemical_formula_structural   Hf4Be4InHg
_chemical_formula_sum   'Hf8 Be8 In2 Hg2'
_cell_volume   322.47183996
_cell_formula_units_Z   2
loop_
 _symmetry_equiv_pos_site_id
 _symmetry_equiv_pos_as_xyz
  1  'x, y, z'
loop_
 _atom_site_type_symbol
 _atom_site_label
 _atom_site_symmetry_multiplicity
 _atom_site_fract_x
 _atom_site_fract_y
 _atom_site_fract_z
 _atom_site_occupancy
  Hf  Hf0  1  0.167726  0.166698  0.000000  1
  Hf  Hf1  1  0.832274  0.833302  0.000000  1
  Hf  Hf2  1  0.666698  0.332274  0.500000  1
  Hf  Hf3  1  0.333302  0.667726  0.500000  1
  Hf  Hf4  1  0.666679  0.332353  0.000000  1
  Hf  Hf5  1  0.333321  0.667647  0.000000  1
  Hf  Hf6  1  0.832353  0.833321  0.500000  1
  Hf  Hf7  1  0.167647  0.166679  0.500000  1
  Be  Be8  1  0.382684  0.375720  0.250061  1
  Be  Be9  1  0.617316  0.624280  0.749939  1
  Be  Be10  1  0.617316  0.624280  0.250061  1
  Be  Be11  1  0.875720  0.117316  0.750061  1
  Be  Be12  1  0.875720  0.117316  0.249939  1
  Be  Be13  1  0.382684  0.375720  0.749939  1
  Be  Be14  1  0.124280  0.882684  0.249939  1
  Be  Be15  1  0.124280  0.882684  0.750061  1
  In  In16  1  0.000000  0.500000  0.250000  1
  In  In17  1  0.000000  0.500000  0.750000  1
  Hg  Hg18  1  0.500000  0.000000  0.250000  1
  Hg  Hg19  1  0.500000  0.000000  0.750000  1
