# generated using pymatgen
data_Dy5Zr5Si20Ir7Pt
_symmetry_space_group_name_H-M   'P 1'
_cell_length_a   12.52440126
_cell_length_b   12.51504226
_cell_length_c   4.19108100
_cell_angle_alpha   90.00000000
_cell_angle_beta   90.00000000
_cell_angle_gamma   90.02332613
_symmetry_Int_Tables_number   1
_chemical_formula_structural   Dy5Zr5Si20Ir7Pt
_chemical_formula_sum   'Dy5 Zr5 Si20 Ir7 Pt1'
_cell_volume   656.92427742
_cell_formula_units_Z   1
loop_
 _symmetry_equiv_pos_site_id
 _symmetry_equiv_pos_as_xyz
  1  'x, y, z'
loop_
 _atom_site_type_symbol
 _atom_site_label
 _atom_site_symmetry_multiplicity
 _atom_site_fract_x
 _atom_site_fract_y
 _atom_site_fract_z
 _atom_site_occupancy
  Dy  Dy0  1  0.000583  0.999818  0.000000  1
  Dy  Dy1  1  0.886034  0.384336  0.500000  1
  Dy  Dy2  1  0.115154  0.614510  0.500000  1
  Dy  Dy3  1  0.385713  0.114948  0.500000  1
  Dy  Dy4  1  0.614232  0.885973  0.500000  1
  Zr  Zr5  1  0.495720  0.499403  0.000000  1
  Zr  Zr6  1  0.674771  0.175675  0.500000  1
  Zr  Zr7  1  0.325765  0.824512  0.500000  1
  Zr  Zr8  1  0.175668  0.325420  0.500000  1
  Zr  Zr9  1  0.824305  0.675139  0.500000  1
  Si  Si10  1  0.566518  0.067963  0.000000  1
  Si  Si11  1  0.433907  0.931995  0.000000  1
  Si  Si12  1  0.067843  0.432989  0.000000  1
  Si  Si13  1  0.934436  0.566638  0.000000  1
  Si  Si14  1  0.665979  0.703689  0.000000  1
  Si  Si15  1  0.334520  0.298993  0.000000  1
  Si  Si16  1  0.164380  0.800955  0.000000  1
  Si  Si17  1  0.837080  0.198152  0.000000  1
  Si  Si18  1  0.299039  0.665693  0.000000  1
  Si  Si19  1  0.701463  0.331467  0.000000  1
  Si  Si20  1  0.199533  0.164094  0.000000  1
  Si  Si21  1  0.802282  0.836346  0.000000  1
  Si  Si22  1  0.648962  0.511071  0.500000  1
  Si  Si23  1  0.345264  0.492138  0.500000  1
  Si  Si24  1  0.157700  0.991681  0.500000  1
  Si  Si25  1  0.843330  0.009007  0.500000  1
  Si  Si26  1  0.491354  0.653323  0.500000  1
  Si  Si27  1  0.507364  0.346397  0.500000  1
  Si  Si28  1  0.007843  0.156804  0.500000  1
  Si  Si29  1  0.990986  0.842633  0.500000  1
  Ir  Ir30  1  0.257708  0.479202  0.000000  1
  Ir  Ir31  1  0.246203  0.979106  0.000000  1
  Ir  Ir32  1  0.754446  0.020691  0.000000  1
  Ir  Ir33  1  0.479877  0.741729  0.000000  1
  Ir  Ir34  1  0.521084  0.258335  0.000000  1
  Ir  Ir35  1  0.021360  0.245435  0.000000  1
  Ir  Ir36  1  0.979498  0.754068  0.000000  1
  Pt  Pt37  1  0.742099  0.519669  0.000000  1
