# generated using pymatgen
data_Li4Nd3NpSi8
_symmetry_space_group_name_H-M   'P 1'
_cell_length_a   3.88486500
_cell_length_b   7.75385675
_cell_length_c   10.54884200
_cell_angle_alpha   89.83604540
_cell_angle_beta   90.00000000
_cell_angle_gamma   90.00000000
_symmetry_Int_Tables_number   1
_chemical_formula_structural   Li4Nd3NpSi8
_chemical_formula_sum   'Li4 Nd3 Np1 Si8'
_cell_volume   317.75816151
_cell_formula_units_Z   1
loop_
 _symmetry_equiv_pos_site_id
 _symmetry_equiv_pos_as_xyz
  1  'x, y, z'
loop_
 _atom_site_type_symbol
 _atom_site_label
 _atom_site_symmetry_multiplicity
 _atom_site_fract_x
 _atom_site_fract_y
 _atom_site_fract_z
 _atom_site_occupancy
  Li  Li0  1  0.250000  0.986761  0.391911  1
  Li  Li1  1  0.750000  0.006453  0.606829  1
  Li  Li2  1  0.250000  0.495084  0.108438  1
  Li  Li3  1  0.750000  0.505747  0.889868  1
  Nd  Nd4  1  0.250000  0.141541  0.865361  1
  Nd  Nd5  1  0.750000  0.866215  0.135951  1
  Nd  Nd6  1  0.250000  0.636508  0.634367  1
  Np  Np7  1  0.750000  0.363083  0.363614  1
  Si  Si8  1  0.750000  0.271525  0.076172  1
  Si  Si9  1  0.250000  0.731707  0.929234  1
  Si  Si10  1  0.750000  0.764085  0.427569  1
  Si  Si11  1  0.250000  0.235745  0.563336  1
  Si  Si12  1  0.750000  0.839175  0.820781  1
  Si  Si13  1  0.250000  0.170295  0.188141  1
  Si  Si14  1  0.750000  0.333998  0.676219  1
  Si  Si15  1  0.250000  0.652075  0.322211  1
