# generated using pymatgen
data_Y16Hf4Ir11Rh
_symmetry_space_group_name_H-M   'P 1'
_cell_length_a   10.89068600
_cell_length_b   10.89068600
_cell_length_c   6.27733300
_cell_angle_alpha   90.00000000
_cell_angle_beta   90.00000000
_cell_angle_gamma   90.00000000
_symmetry_Int_Tables_number   1
_chemical_formula_structural   Y16Hf4Ir11Rh
_chemical_formula_sum   'Y16 Hf4 Ir11 Rh1'
_cell_volume   744.53589596
_cell_formula_units_Z   1
loop_
 _symmetry_equiv_pos_site_id
 _symmetry_equiv_pos_as_xyz
  1  'x, y, z'
loop_
 _atom_site_type_symbol
 _atom_site_label
 _atom_site_symmetry_multiplicity
 _atom_site_fract_x
 _atom_site_fract_y
 _atom_site_fract_z
 _atom_site_occupancy
  Y  Y0  1  0.288635  0.085756  0.376238  1
  Y  Y1  1  0.288424  0.914093  0.874648  1
  Y  Y2  1  0.711576  0.085907  0.874648  1
  Y  Y3  1  0.711365  0.914244  0.376238  1
  Y  Y4  1  0.585907  0.788424  0.874648  1
  Y  Y5  1  0.585756  0.211365  0.376238  1
  Y  Y6  1  0.414244  0.788635  0.376238  1
  Y  Y7  1  0.414093  0.211576  0.874648  1
  Y  Y8  1  0.211118  0.414269  0.624641  1
  Y  Y9  1  0.211097  0.585873  0.124613  1
  Y  Y10  1  0.788903  0.414127  0.124613  1
  Y  Y11  1  0.788882  0.585731  0.624641  1
  Y  Y12  1  0.914127  0.711097  0.124613  1
  Y  Y13  1  0.914269  0.288882  0.624641  1
  Y  Y14  1  0.085731  0.711118  0.624641  1
  Y  Y15  1  0.085873  0.288903  0.124613  1
  Hf  Hf16  1  0.000000  0.000000  0.499966  1
  Hf  Hf17  1  0.000000  0.000000  0.000059  1
  Hf  Hf18  1  0.500000  0.500000  0.000059  1
  Hf  Hf19  1  0.500000  0.500000  0.499966  1
  Ir  Ir20  1  0.857641  0.141862  0.249765  1
  Ir  Ir21  1  0.857752  0.858123  0.749985  1
  Ir  Ir22  1  0.142248  0.141877  0.749985  1
  Ir  Ir23  1  0.142359  0.858138  0.249765  1
  Ir  Ir24  1  0.641877  0.357752  0.749985  1
  Ir  Ir25  1  0.641862  0.642359  0.249765  1
  Ir  Ir26  1  0.358138  0.357641  0.249765  1
  Ir  Ir27  1  0.358123  0.642248  0.749985  1
  Ir  Ir28  1  0.500000  0.000000  0.623631  1
  Ir  Ir29  1  0.000000  0.500000  0.876870  1
  Ir  Ir30  1  0.000000  0.500000  0.376873  1
  Rh  Rh31  1  0.500000  0.000000  0.123016  1
