# generated using pymatgen
data_HoEr3Zn4(PdRh)2
_symmetry_space_group_name_H-M   'P 1'
_cell_length_a   4.00533700
_cell_length_b   7.00115950
_cell_length_c   8.21350311
_cell_angle_alpha   90.03093418
_cell_angle_beta   90.00000000
_cell_angle_gamma   90.00000000
_symmetry_Int_Tables_number   1
_chemical_formula_structural   HoEr3Zn4(PdRh)2
_chemical_formula_sum   'Ho1 Er3 Zn4 Pd2 Rh2'
_cell_volume   230.32304674
_cell_formula_units_Z   1
loop_
 _symmetry_equiv_pos_site_id
 _symmetry_equiv_pos_as_xyz
  1  'x, y, z'
loop_
 _atom_site_type_symbol
 _atom_site_label
 _atom_site_symmetry_multiplicity
 _atom_site_fract_x
 _atom_site_fract_y
 _atom_site_fract_z
 _atom_site_occupancy
  Ho  Ho0  1  0.750000  0.951969  0.691308  1
  Er  Er1  1  0.250000  0.540133  0.180101  1
  Er  Er2  1  0.750000  0.459815  0.820014  1
  Er  Er3  1  0.250000  0.048170  0.308416  1
  Zn  Zn4  1  0.250000  0.135019  0.937622  1
  Zn  Zn5  1  0.750000  0.865061  0.062628  1
  Zn  Zn6  1  0.250000  0.637827  0.566854  1
  Zn  Zn7  1  0.750000  0.362050  0.433059  1
  Pd  Pd8  1  0.750000  0.747604  0.378184  1
  Pd  Pd9  1  0.250000  0.252616  0.621577  1
  Rh  Rh10  1  0.750000  0.250811  0.122393  1
  Rh  Rh11  1  0.250000  0.748926  0.877844  1
