# generated using pymatgen
data_Tb5YAl18
_symmetry_space_group_name_H-M   'P 1'
_cell_length_a   14.44598192
_cell_length_b   14.44598204
_cell_length_c   14.44598248
_cell_angle_alpha   24.95674519
_cell_angle_beta   24.95674595
_cell_angle_gamma   24.95675120
_symmetry_Int_Tables_number   1
_chemical_formula_structural   Tb5YAl18
_chemical_formula_sum   'Tb5 Y1 Al18'
_cell_volume   472.13801660
_cell_formula_units_Z   1
loop_
 _symmetry_equiv_pos_site_id
 _symmetry_equiv_pos_as_xyz
  1  'x, y, z'
loop_
 _atom_site_type_symbol
 _atom_site_label
 _atom_site_symmetry_multiplicity
 _atom_site_fract_x
 _atom_site_fract_y
 _atom_site_fract_z
 _atom_site_occupancy
  Tb  Tb0  1  0.999968  0.999968  0.999968  1
  Tb  Tb1  1  0.500037  0.500037  0.500037  1
  Tb  Tb2  1  0.608619  0.608619  0.608619  1
  Tb  Tb3  1  0.108607  0.108607  0.108607  1
  Tb  Tb4  1  0.891392  0.891392  0.891392  1
  Y  Y5  1  0.391301  0.391301  0.391301  1
  Al  Al6  1  0.927850  0.368555  0.368555  1
  Al  Al7  1  0.428063  0.868419  0.868419  1
  Al  Al8  1  0.368555  0.368555  0.927850  1
  Al  Al9  1  0.868419  0.868419  0.428063  1
  Al  Al10  1  0.368555  0.927850  0.368555  1
  Al  Al11  1  0.868419  0.428063  0.868419  1
  Al  Al12  1  0.572131  0.131465  0.131465  1
  Al  Al13  1  0.072533  0.631182  0.631182  1
  Al  Al14  1  0.131465  0.131465  0.572131  1
  Al  Al15  1  0.631182  0.631182  0.072533  1
  Al  Al16  1  0.131465  0.572131  0.131465  1
  Al  Al17  1  0.631182  0.072533  0.631182  1
  Al  Al18  1  0.500412  0.500412  0.999287  1
  Al  Al19  1  0.999894  0.999894  0.500352  1
  Al  Al20  1  0.500412  0.999287  0.500412  1
  Al  Al21  1  0.999894  0.500352  0.999894  1
  Al  Al22  1  0.999287  0.500412  0.500412  1
  Al  Al23  1  0.500352  0.999894  0.999894  1
