# generated using pymatgen
data_Tb16Cd4FeOsPd2
_symmetry_space_group_name_H-M   'P 1'
_cell_length_a   9.68630963
_cell_length_b   9.68630924
_cell_length_c   9.70410300
_cell_angle_alpha   59.52042380
_cell_angle_beta   59.52042497
_cell_angle_gamma   59.62590324
_symmetry_Int_Tables_number   1
_chemical_formula_structural   Tb16Cd4FeOsPd2
_chemical_formula_sum   'Tb16 Cd4 Fe1 Os1 Pd2'
_cell_volume   637.30267351
_cell_formula_units_Z   1
loop_
 _symmetry_equiv_pos_site_id
 _symmetry_equiv_pos_as_xyz
  1  'x, y, z'
loop_
 _atom_site_type_symbol
 _atom_site_label
 _atom_site_symmetry_multiplicity
 _atom_site_fract_x
 _atom_site_fract_y
 _atom_site_fract_z
 _atom_site_occupancy
  Tb  Tb0  1  0.344739  0.344739  0.360503  1
  Tb  Tb1  1  0.350754  0.350754  0.944484  1
  Tb  Tb2  1  0.342687  0.955242  0.355598  1
  Tb  Tb3  1  0.955242  0.342687  0.355598  1
  Tb  Tb4  1  0.815828  0.188938  0.188877  1
  Tb  Tb5  1  0.185974  0.821702  0.801562  1
  Tb  Tb6  1  0.188938  0.815828  0.188877  1
  Tb  Tb7  1  0.821702  0.185974  0.801562  1
  Tb  Tb8  1  0.187524  0.187524  0.807886  1
  Tb  Tb9  1  0.808871  0.808871  0.189761  1
  Tb  Tb10  1  0.936397  0.560473  0.566669  1
  Tb  Tb11  1  0.556936  0.937485  0.939001  1
  Tb  Tb12  1  0.560473  0.936397  0.566669  1
  Tb  Tb13  1  0.937485  0.556936  0.939001  1
  Tb  Tb14  1  0.564126  0.564126  0.937062  1
  Tb  Tb15  1  0.938773  0.938773  0.558946  1
  Cd  Cd16  1  0.580357  0.580357  0.579832  1
  Cd  Cd17  1  0.580133  0.580133  0.257402  1
  Cd  Cd18  1  0.581260  0.255346  0.580285  1
  Cd  Cd19  1  0.255346  0.581260  0.580285  1
  Fe  Fe20  1  0.144336  0.144336  0.575990  1
  Os  Os21  1  0.143916  0.143916  0.139989  1
  Pd  Pd22  1  0.145442  0.572763  0.142079  1
  Pd  Pd23  1  0.572763  0.145442  0.142079  1
