# generated using pymatgen
data_Be9NbMo2
_symmetry_space_group_name_H-M   'P 1'
_cell_length_a   7.41727278
_cell_length_b   7.41727287
_cell_length_c   7.41727284
_cell_angle_alpha   35.00669006
_cell_angle_beta   35.00668590
_cell_angle_gamma   35.00668584
_symmetry_Int_Tables_number   1
_chemical_formula_structural   Be9NbMo2
_chemical_formula_sum   'Be9 Nb1 Mo2'
_cell_volume   119.91085996
_cell_formula_units_Z   1
loop_
 _symmetry_equiv_pos_site_id
 _symmetry_equiv_pos_as_xyz
  1  'x, y, z'
loop_
 _atom_site_type_symbol
 _atom_site_label
 _atom_site_symmetry_multiplicity
 _atom_site_fract_x
 _atom_site_fract_y
 _atom_site_fract_z
 _atom_site_occupancy
  Be  Be0  1  0.500000  0.500000  0.500000  1
  Be  Be1  1  0.334228  0.334228  0.334229  1
  Be  Be2  1  0.665772  0.665772  0.665771  1
  Be  Be3  1  0.077478  0.584266  0.584266  1
  Be  Be4  1  0.584266  0.584266  0.077478  1
  Be  Be5  1  0.584266  0.077478  0.584266  1
  Be  Be6  1  0.415734  0.922522  0.415734  1
  Be  Be7  1  0.922522  0.415734  0.415734  1
  Be  Be8  1  0.415734  0.415734  0.922522  1
  Nb  Nb9  1  0.000000  0.000000  0.000000  1
  Mo  Mo10  1  0.144094  0.144094  0.144094  1
  Mo  Mo11  1  0.855906  0.855906  0.855906  1
