# generated using pymatgen
data_Y3Sc2P12Ir4Ru15
_symmetry_space_group_name_H-M   'P 1'
_cell_length_a   12.49829416
_cell_length_b   12.51359043
_cell_length_c   3.96314500
_cell_angle_alpha   90.00000000
_cell_angle_beta   90.00000000
_cell_angle_gamma   119.89216406
_symmetry_Int_Tables_number   1
_chemical_formula_structural   Y3Sc2P12Ir4Ru15
_chemical_formula_sum   'Y3 Sc2 P12 Ir4 Ru15'
_cell_volume   537.37092340
_cell_formula_units_Z   1
loop_
 _symmetry_equiv_pos_site_id
 _symmetry_equiv_pos_as_xyz
  1  'x, y, z'
loop_
 _atom_site_type_symbol
 _atom_site_label
 _atom_site_symmetry_multiplicity
 _atom_site_fract_x
 _atom_site_fract_y
 _atom_site_fract_z
 _atom_site_occupancy
  Y  Y0  1  0.332427  0.666715  0.000000  1
  Y  Y1  1  0.666310  0.333361  0.000000  1
  Y  Y2  1  0.814664  0.999325  0.500000  1
  Sc  Sc3  1  0.999859  0.812931  0.500000  1
  Sc  Sc4  1  0.186554  0.186704  0.500000  1
  P  P5  1  0.181011  0.997046  0.000000  1
  P  P6  1  0.005081  0.184317  0.000000  1
  P  P7  1  0.817519  0.818899  0.000000  1
  P  P8  1  0.171424  0.478671  0.500000  1
  P  P9  1  0.521960  0.692197  0.500000  1
  P  P10  1  0.306332  0.829391  0.500000  1
  P  P11  1  0.687007  0.518763  0.500000  1
  P  P12  1  0.832256  0.312674  0.500000  1
  P  P13  1  0.479222  0.167462  0.500000  1
  P  P14  1  0.625821  0.996294  0.000000  1
  P  P15  1  0.004194  0.631116  0.000000  1
  P  P16  1  0.369371  0.373297  0.000000  1
  Ir  Ir17  1  0.816150  0.630745  0.000000  1
  Ir  Ir18  1  0.816029  0.188843  0.000000  1
  Ir  Ir19  1  0.369146  0.184894  0.000000  1
  Ir  Ir20  1  0.002162  0.999959  0.000000  1
  Ru  Ru21  1  0.448033  0.006313  0.000000  1
  Ru  Ru22  1  0.994774  0.443575  0.000000  1
  Ru  Ru23  1  0.557353  0.550247  0.000000  1
  Ru  Ru24  1  0.365389  0.489461  0.500000  1
  Ru  Ru25  1  0.508975  0.875271  0.500000  1
  Ru  Ru26  1  0.124051  0.634807  0.500000  1
  Ru  Ru27  1  0.870695  0.510575  0.500000  1
  Ru  Ru28  1  0.638907  0.129189  0.500000  1
  Ru  Ru29  1  0.488703  0.359637  0.500000  1
  Ru  Ru30  1  0.183075  0.375441  0.000000  1
  Ru  Ru31  1  0.622255  0.804113  0.000000  1
  Ru  Ru32  1  0.192493  0.817639  0.000000  1
  Ru  Ru33  1  0.280346  0.001900  0.500000  1
  Ru  Ru34  1  0.000227  0.281409  0.500000  1
  Ru  Ru35  1  0.720227  0.716820  0.500000  1
