# generated using pymatgen
data_Pr2AlTc16C3
_symmetry_space_group_name_H-M   'P 1'
_cell_length_a   6.98770041
_cell_length_b   6.98769994
_cell_length_c   7.03370359
_cell_angle_alpha   82.76031144
_cell_angle_beta   82.76031842
_cell_angle_gamma   82.91425994
_symmetry_Int_Tables_number   1
_chemical_formula_structural   Pr2AlTc16C3
_chemical_formula_sum   'Pr2 Al1 Tc16 C3'
_cell_volume   335.96559768
_cell_formula_units_Z   1
loop_
 _symmetry_equiv_pos_site_id
 _symmetry_equiv_pos_as_xyz
  1  'x, y, z'
loop_
 _atom_site_type_symbol
 _atom_site_label
 _atom_site_symmetry_multiplicity
 _atom_site_fract_x
 _atom_site_fract_y
 _atom_site_fract_z
 _atom_site_occupancy
  Pr  Pr0  1  0.651775  0.651775  0.652836  1
  Pr  Pr1  1  0.348225  0.348225  0.347164  1
  Al  Al2  1  0.000000  0.000000  0.500000  1
  Tc  Tc3  1  0.500000  0.000000  0.000000  1
  Tc  Tc4  1  0.000000  0.500000  0.000000  1
  Tc  Tc5  1  0.723937  0.276063  0.000000  1
  Tc  Tc6  1  0.997255  0.724779  0.278409  1
  Tc  Tc7  1  0.275221  0.002745  0.721591  1
  Tc  Tc8  1  0.002745  0.275221  0.721591  1
  Tc  Tc9  1  0.724779  0.997255  0.278409  1
  Tc  Tc10  1  0.276063  0.723937  0.000000  1
  Tc  Tc11  1  0.351757  0.351757  0.860869  1
  Tc  Tc12  1  0.858938  0.348888  0.347739  1
  Tc  Tc13  1  0.348888  0.858938  0.347739  1
  Tc  Tc14  1  0.648243  0.648243  0.139131  1
  Tc  Tc15  1  0.141062  0.651112  0.652261  1
  Tc  Tc16  1  0.651112  0.141062  0.652261  1
  Tc  Tc17  1  0.901136  0.901136  0.907430  1
  Tc  Tc18  1  0.098864  0.098864  0.092570  1
  C  C19  1  0.500000  0.500000  0.000000  1
  C  C20  1  0.000000  0.500000  0.500000  1
  C  C21  1  0.500000  0.000000  0.500000  1
