# generated using pymatgen
data_Dy10Tm2Co4SnRh
_symmetry_space_group_name_H-M   'P 1'
_cell_length_a   8.27864796
_cell_length_b   8.28802105
_cell_length_c   8.27864729
_cell_angle_alpha   110.96075749
_cell_angle_beta   110.44871691
_cell_angle_gamma   106.98773194
_symmetry_Int_Tables_number   1
_chemical_formula_structural   Dy10Tm2Co4SnRh
_chemical_formula_sum   'Dy10 Tm2 Co4 Sn1 Rh1'
_cell_volume   436.89455033
_cell_formula_units_Z   1
loop_
 _symmetry_equiv_pos_site_id
 _symmetry_equiv_pos_as_xyz
  1  'x, y, z'
loop_
 _atom_site_type_symbol
 _atom_site_label
 _atom_site_symmetry_multiplicity
 _atom_site_fract_x
 _atom_site_fract_y
 _atom_site_fract_z
 _atom_site_occupancy
  Dy  Dy0  1  0.406421  0.209751  0.194509  1
  Dy  Dy1  1  0.593579  0.790249  0.805491  1
  Dy  Dy2  1  0.015243  0.209751  0.803330  1
  Dy  Dy3  1  0.984757  0.790249  0.196670  1
  Dy  Dy4  1  0.185133  0.291488  0.479478  1
  Dy  Dy5  1  0.814867  0.708512  0.520522  1
  Dy  Dy6  1  0.187990  0.708512  0.893645  1
  Dy  Dy7  1  0.812010  0.291488  0.106355  1
  Dy  Dy8  1  0.313098  0.619307  0.306207  1
  Dy  Dy9  1  0.686902  0.380693  0.693793  1
  Tm  Tm10  1  0.314299  0.007221  0.692922  1
  Tm  Tm11  1  0.685701  0.992779  0.307078  1
  Co  Co12  1  0.379566  0.000000  0.379566  1
  Co  Co13  1  0.620434  0.000000  0.620434  1
  Co  Co14  1  0.112126  0.613419  0.501294  1
  Co  Co15  1  0.887874  0.386581  0.498706  1
  Sn  Sn16  1  0.500000  0.500000  0.000000  1
  Rh  Rh17  1  0.000000  0.000000  0.000000  1
