# generated using pymatgen
data_TbY(Ho2Rh)2
_symmetry_space_group_name_H-M   'P 1'
_cell_length_a   6.27635800
_cell_length_b   7.17603300
_cell_length_c   9.44383800
_cell_angle_alpha   90.00000000
_cell_angle_beta   90.00000000
_cell_angle_gamma   90.00000000
_symmetry_Int_Tables_number   1
_chemical_formula_structural   TbY(Ho2Rh)2
_chemical_formula_sum   'Tb2 Y2 Ho8 Rh4'
_cell_volume   425.34434512
_cell_formula_units_Z   2
loop_
 _symmetry_equiv_pos_site_id
 _symmetry_equiv_pos_as_xyz
  1  'x, y, z'
loop_
 _atom_site_type_symbol
 _atom_site_label
 _atom_site_symmetry_multiplicity
 _atom_site_fract_x
 _atom_site_fract_y
 _atom_site_fract_z
 _atom_site_occupancy
  Tb  Tb0  1  0.133362  0.467354  0.750000  1
  Tb  Tb1  1  0.366638  0.967354  0.750000  1
  Y  Y2  1  0.866199  0.532692  0.250000  1
  Y  Y3  1  0.633801  0.032692  0.250000  1
  Ho  Ho4  1  0.329505  0.676825  0.063171  1
  Ho  Ho5  1  0.170495  0.176825  0.436829  1
  Ho  Ho6  1  0.670299  0.322948  0.563094  1
  Ho  Ho7  1  0.829701  0.822948  0.936906  1
  Ho  Ho8  1  0.670299  0.322948  0.936906  1
  Ho  Ho9  1  0.829701  0.822948  0.563094  1
  Ho  Ho10  1  0.329505  0.676825  0.436829  1
  Ho  Ho11  1  0.170495  0.176825  0.063171  1
  Rh  Rh12  1  0.061457  0.882620  0.250000  1
  Rh  Rh13  1  0.438543  0.382620  0.250000  1
  Rh  Rh14  1  0.939037  0.117790  0.750000  1
  Rh  Rh15  1  0.560963  0.617790  0.750000  1
