# generated using pymatgen
data_GaTc4As5
_symmetry_space_group_name_H-M   'P 1'
_cell_length_a   6.25501080
_cell_length_b   6.83393339
_cell_length_c   8.23367161
_cell_angle_alpha   95.39574696
_cell_angle_beta   100.88353534
_cell_angle_gamma   103.22163643
_symmetry_Int_Tables_number   1
_chemical_formula_structural   GaTc4As5
_chemical_formula_sum   'Ga2 Tc8 As10'
_cell_volume   332.98265691
_cell_formula_units_Z   2
loop_
 _symmetry_equiv_pos_site_id
 _symmetry_equiv_pos_as_xyz
  1  'x, y, z'
loop_
 _atom_site_type_symbol
 _atom_site_label
 _atom_site_symmetry_multiplicity
 _atom_site_fract_x
 _atom_site_fract_y
 _atom_site_fract_z
 _atom_site_occupancy
  Ga  Ga0  1  0.736699  0.573294  0.372170  1
  Ga  Ga1  1  0.263301  0.426706  0.627830  1
  Tc  Tc2  1  0.891847  0.423132  0.126869  1
  Tc  Tc3  1  0.108153  0.576868  0.873131  1
  Tc  Tc4  1  0.382154  0.425150  0.125499  1
  Tc  Tc5  1  0.617846  0.574850  0.874501  1
  Tc  Tc6  1  0.558230  0.880515  0.369686  1
  Tc  Tc7  1  0.441770  0.119485  0.630314  1
  Tc  Tc8  1  0.068761  0.883258  0.372627  1
  Tc  Tc9  1  0.931239  0.116742  0.627373  1
  As  As10  1  0.233531  0.577603  0.365448  1
  As  As11  1  0.766469  0.422397  0.634552  1
  As  As12  1  0.867240  0.153797  0.321059  1
  As  As13  1  0.132760  0.846203  0.678941  1
  As  As14  1  0.372406  0.159631  0.324511  1
  As  As15  1  0.627594  0.840369  0.675489  1
  As  As16  1  0.536109  0.197172  0.950184  1
  As  As17  1  0.463891  0.802828  0.049816  1
  As  As18  1  0.035624  0.195228  0.947121  1
  As  As19  1  0.964376  0.804772  0.052879  1
