# generated using pymatgen
data_NdEuBi2O7
_symmetry_space_group_name_H-M   'P 1'
_cell_length_a   6.71674836
_cell_length_b   6.81967093
_cell_length_c   7.92633000
_cell_angle_alpha   106.53792565
_cell_angle_beta   89.62959537
_cell_angle_gamma   97.69902455
_symmetry_Int_Tables_number   1
_chemical_formula_structural   NdEuBi2O7
_chemical_formula_sum   'Nd2 Eu2 Bi4 O14'
_cell_volume   344.72452881
_cell_formula_units_Z   2
loop_
 _symmetry_equiv_pos_site_id
 _symmetry_equiv_pos_as_xyz
  1  'x, y, z'
loop_
 _atom_site_type_symbol
 _atom_site_label
 _atom_site_symmetry_multiplicity
 _atom_site_fract_x
 _atom_site_fract_y
 _atom_site_fract_z
 _atom_site_occupancy
  Nd  Nd0  1  0.254798  0.538395  0.884797  1
  Nd  Nd1  1  0.745202  0.461605  0.115203  1
  Eu  Eu2  1  0.463159  0.004059  0.251976  1
  Eu  Eu3  1  0.536841  0.995941  0.748024  1
  Bi  Bi4  1  0.000000  0.000000  0.500000  1
  Bi  Bi5  1  0.000000  0.000000  0.000000  1
  Bi  Bi6  1  0.726432  0.459069  0.611516  1
  Bi  Bi7  1  0.273568  0.540931  0.388484  1
  O  O8  1  0.440695  0.651167  0.171855  1
  O  O9  1  0.559305  0.348833  0.828145  1
  O  O10  1  0.297878  0.922461  0.950164  1
  O  O11  1  0.702122  0.077539  0.049836  1
  O  O12  1  0.295543  0.910643  0.507165  1
  O  O13  1  0.704457  0.089357  0.492835  1
  O  O14  1  0.540333  0.358865  0.346985  1
  O  O15  1  0.459667  0.641135  0.653015  1
  O  O16  1  0.929684  0.675998  0.963400  1
  O  O17  1  0.070316  0.324002  0.036600  1
  O  O18  1  0.090572  0.319800  0.625334  1
  O  O19  1  0.909428  0.680200  0.374666  1
  O  O20  1  0.886745  0.923215  0.731435  1
  O  O21  1  0.113255  0.076785  0.268565  1
