# generated using pymatgen
data_HfSc7Si4(Pt6Rh)2
_symmetry_space_group_name_H-M   'P 1'
_cell_length_a   4.01273100
_cell_length_b   6.53024015
_cell_length_c   16.30745278
_cell_angle_alpha   90.25728586
_cell_angle_beta   90.00000000
_cell_angle_gamma   90.00000000
_symmetry_Int_Tables_number   1
_chemical_formula_structural   HfSc7Si4(Pt6Rh)2
_chemical_formula_sum   'Hf1 Sc7 Si4 Pt12 Rh2'
_cell_volume   427.31776784
_cell_formula_units_Z   1
loop_
 _symmetry_equiv_pos_site_id
 _symmetry_equiv_pos_as_xyz
  1  'x, y, z'
loop_
 _atom_site_type_symbol
 _atom_site_label
 _atom_site_symmetry_multiplicity
 _atom_site_fract_x
 _atom_site_fract_y
 _atom_site_fract_z
 _atom_site_occupancy
  Hf  Hf0  1  0.000000  0.283054  0.460813  1
  Sc  Sc1  1  0.000000  0.718871  0.540362  1
  Sc  Sc2  1  0.000000  0.785604  0.039644  1
  Sc  Sc3  1  0.000000  0.213900  0.960252  1
  Sc  Sc4  1  0.000000  0.532367  0.290598  1
  Sc  Sc5  1  0.000000  0.469021  0.708439  1
  Sc  Sc6  1  0.000000  0.025957  0.212168  1
  Sc  Sc7  1  0.000000  0.973013  0.787887  1
  Si  Si8  1  0.500000  0.840894  0.309379  1
  Si  Si9  1  0.500000  0.158116  0.691048  1
  Si  Si10  1  0.500000  0.337760  0.194026  1
  Si  Si11  1  0.500000  0.661140  0.805970  1
  Pt  Pt12  1  0.000000  0.407609  0.117925  1
  Pt  Pt13  1  0.000000  0.591919  0.882005  1
  Pt  Pt14  1  0.500000  0.596104  0.421839  1
  Pt  Pt15  1  0.500000  0.400992  0.577614  1
  Pt  Pt16  1  0.500000  0.093798  0.079508  1
  Pt  Pt17  1  0.500000  0.905355  0.920431  1
  Pt  Pt18  1  0.500000  0.499699  0.999951  1
  Pt  Pt19  1  0.500000  0.001037  0.499455  1
  Pt  Pt20  1  0.500000  0.213540  0.334523  1
  Pt  Pt21  1  0.500000  0.786565  0.666603  1
  Pt  Pt22  1  0.500000  0.714019  0.168733  1
  Pt  Pt23  1  0.500000  0.285809  0.831409  1
  Rh  Rh24  1  0.000000  0.907300  0.382378  1
  Rh  Rh25  1  0.000000  0.096558  0.617038  1
