# generated using pymatgen
data_Tb6Lu4CuPPb6
_symmetry_space_group_name_H-M   'P 1'
_cell_length_a   9.17982500
_cell_length_b   9.17982469
_cell_length_c   6.69010200
_cell_angle_alpha   90.00000000
_cell_angle_beta   90.00000000
_cell_angle_gamma   120.00000474
_symmetry_Int_Tables_number   1
_chemical_formula_structural   Tb6Lu4CuPPb6
_chemical_formula_sum   'Tb6 Lu4 Cu1 P1 Pb6'
_cell_volume   488.23863131
_cell_formula_units_Z   1
loop_
 _symmetry_equiv_pos_site_id
 _symmetry_equiv_pos_as_xyz
  1  'x, y, z'
loop_
 _atom_site_type_symbol
 _atom_site_label
 _atom_site_symmetry_multiplicity
 _atom_site_fract_x
 _atom_site_fract_y
 _atom_site_fract_z
 _atom_site_occupancy
  Tb  Tb0  1  0.247300  0.000000  0.738516  1
  Tb  Tb1  1  0.752700  0.000000  0.261484  1
  Tb  Tb2  1  0.000000  0.247300  0.738516  1
  Tb  Tb3  1  0.000000  0.752700  0.261484  1
  Tb  Tb4  1  0.752700  0.752700  0.738516  1
  Tb  Tb5  1  0.247300  0.247300  0.261484  1
  Lu  Lu6  1  0.333333  0.666667  0.500000  1
  Lu  Lu7  1  0.666667  0.333333  0.500000  1
  Lu  Lu8  1  0.666667  0.333333  0.000000  1
  Lu  Lu9  1  0.333333  0.666667  0.000000  1
  Cu  Cu10  1  0.000000  0.000000  0.000000  1
  P  P11  1  0.000000  0.000000  0.500000  1
  Pb  Pb12  1  0.603800  0.000000  0.751670  1
  Pb  Pb13  1  0.396200  0.000000  0.248330  1
  Pb  Pb14  1  0.000000  0.603800  0.751670  1
  Pb  Pb15  1  0.000000  0.396200  0.248330  1
  Pb  Pb16  1  0.396200  0.396200  0.751670  1
  Pb  Pb17  1  0.603800  0.603800  0.248330  1
