# generated using pymatgen
data_Y4HfPt13Au2
_symmetry_space_group_name_H-M   'P 1'
_cell_length_a   4.16618500
_cell_length_b   4.12541300
_cell_length_c   20.51672500
_cell_angle_alpha   90.00000000
_cell_angle_beta   90.00000000
_cell_angle_gamma   90.00000000
_symmetry_Int_Tables_number   1
_chemical_formula_structural   Y4HfPt13Au2
_chemical_formula_sum   'Y4 Hf1 Pt13 Au2'
_cell_volume   352.62574855
_cell_formula_units_Z   1
loop_
 _symmetry_equiv_pos_site_id
 _symmetry_equiv_pos_as_xyz
  1  'x, y, z'
loop_
 _atom_site_type_symbol
 _atom_site_label
 _atom_site_symmetry_multiplicity
 _atom_site_fract_x
 _atom_site_fract_y
 _atom_site_fract_z
 _atom_site_occupancy
  Y  Y0  1  0.000000  0.000000  0.196458  1
  Y  Y1  1  0.000000  0.000000  0.396503  1
  Y  Y2  1  0.000000  0.000000  0.605487  1
  Y  Y3  1  0.000000  0.000000  0.803000  1
  Hf  Hf4  1  0.000000  0.000000  0.998202  1
  Pt  Pt5  1  0.500000  0.500000  0.000474  1
  Pt  Pt6  1  0.500000  0.500000  0.396371  1
  Pt  Pt7  1  0.500000  0.500000  0.602489  1
  Pt  Pt8  1  0.500000  0.500000  0.805338  1
  Pt  Pt9  1  0.500000  0.000000  0.093504  1
  Pt  Pt10  1  0.500000  0.000000  0.296343  1
  Pt  Pt11  1  0.500000  0.000000  0.703989  1
  Pt  Pt12  1  0.500000  0.000000  0.906569  1
  Pt  Pt13  1  0.000000  0.500000  0.093219  1
  Pt  Pt14  1  0.000000  0.500000  0.296583  1
  Pt  Pt15  1  0.000000  0.500000  0.499926  1
  Pt  Pt16  1  0.000000  0.500000  0.703773  1
  Pt  Pt17  1  0.000000  0.500000  0.906704  1
  Au  Au18  1  0.500000  0.500000  0.194739  1
  Au  Au19  1  0.500000  0.000000  0.500325  1
