# generated using pymatgen
data_Y4VRe(B8W)2
_symmetry_space_group_name_H-M   'P 1'
_cell_length_a   3.59459600
_cell_length_b   6.01775481
_cell_length_c   11.62869042
_cell_angle_alpha   89.92487921
_cell_angle_beta   90.00000000
_cell_angle_gamma   90.00000000
_symmetry_Int_Tables_number   1
_chemical_formula_structural   Y4VRe(B8W)2
_chemical_formula_sum   'Y4 V1 Re1 B16 W2'
_cell_volume   251.54460720
_cell_formula_units_Z   1
loop_
 _symmetry_equiv_pos_site_id
 _symmetry_equiv_pos_as_xyz
  1  'x, y, z'
loop_
 _atom_site_type_symbol
 _atom_site_label
 _atom_site_symmetry_multiplicity
 _atom_site_fract_x
 _atom_site_fract_y
 _atom_site_fract_z
 _atom_site_occupancy
  Y  Y0  1  0.000000  0.626031  0.352133  1
  Y  Y1  1  0.000000  0.374984  0.648266  1
  Y  Y2  1  0.000000  0.126462  0.151102  1
  Y  Y3  1  0.000000  0.872601  0.847267  1
  V  V4  1  0.000000  0.871785  0.581459  1
  Re  Re5  1  0.000000  0.127352  0.417524  1
  B  B6  1  0.500000  0.787746  0.187988  1
  B  B7  1  0.500000  0.212384  0.812204  1
  B  B8  1  0.500000  0.283786  0.316266  1
  B  B9  1  0.500000  0.716306  0.683896  1
  B  B10  1  0.500000  0.867012  0.032175  1
  B  B11  1  0.500000  0.132982  0.967636  1
  B  B12  1  0.500000  0.364031  0.468329  1
  B  B13  1  0.500000  0.636054  0.531933  1
  B  B14  1  0.500000  0.887124  0.453200  1
  B  B15  1  0.500000  0.113334  0.547116  1
  B  B16  1  0.500000  0.386008  0.047540  1
  B  B17  1  0.500000  0.614656  0.952638  1
  B  B18  1  0.500000  0.977456  0.308897  1
  B  B19  1  0.500000  0.022438  0.691316  1
  B  B20  1  0.500000  0.474643  0.194607  1
  B  B21  1  0.500000  0.525272  0.805511  1
  W  W22  1  0.000000  0.630217  0.085746  1
  W  W23  1  0.000000  0.369338  0.915253  1
