# generated using pymatgen
data_PrTm3CdIr
_symmetry_space_group_name_H-M   'P 1'
_cell_length_a   9.63697151
_cell_length_b   9.63782755
_cell_length_c   9.63782604
_cell_angle_alpha   59.99412121
_cell_angle_beta   60.00293517
_cell_angle_gamma   60.00293574
_symmetry_Int_Tables_number   1
_chemical_formula_structural   PrTm3CdIr
_chemical_formula_sum   'Pr4 Tm12 Cd4 Ir4'
_cell_volume   632.97094985
_cell_formula_units_Z   4
loop_
 _symmetry_equiv_pos_site_id
 _symmetry_equiv_pos_as_xyz
  1  'x, y, z'
loop_
 _atom_site_type_symbol
 _atom_site_label
 _atom_site_symmetry_multiplicity
 _atom_site_fract_x
 _atom_site_fract_y
 _atom_site_fract_z
 _atom_site_occupancy
  Pr  Pr0  1  0.563100  0.936900  0.563100  1
  Pr  Pr1  1  0.936900  0.563100  0.936900  1
  Pr  Pr2  1  0.563100  0.563100  0.936900  1
  Pr  Pr3  1  0.936900  0.936900  0.563100  1
  Tm  Tm4  1  0.351362  0.345829  0.345829  1
  Tm  Tm5  1  0.345829  0.351362  0.956980  1
  Tm  Tm6  1  0.345829  0.956980  0.351362  1
  Tm  Tm7  1  0.956980  0.345829  0.345829  1
  Tm  Tm8  1  0.814712  0.185288  0.185288  1
  Tm  Tm9  1  0.185288  0.814712  0.814712  1
  Tm  Tm10  1  0.188314  0.811686  0.188314  1
  Tm  Tm11  1  0.811686  0.188314  0.811686  1
  Tm  Tm12  1  0.188314  0.188314  0.811686  1
  Tm  Tm13  1  0.811686  0.811686  0.188314  1
  Tm  Tm14  1  0.948848  0.551152  0.551152  1
  Tm  Tm15  1  0.551152  0.948848  0.948848  1
  Cd  Cd16  1  0.583845  0.577808  0.577808  1
  Cd  Cd17  1  0.577808  0.583845  0.260538  1
  Cd  Cd18  1  0.577808  0.260538  0.583845  1
  Cd  Cd19  1  0.260538  0.577808  0.577808  1
  Ir  Ir20  1  0.147746  0.138363  0.138363  1
  Ir  Ir21  1  0.138363  0.147746  0.575528  1
  Ir  Ir22  1  0.138363  0.575528  0.147746  1
  Ir  Ir23  1  0.575528  0.138363  0.138363  1
