# generated using pymatgen
data_Li4La6IrPd12
_symmetry_space_group_name_H-M   'P 1'
_cell_length_a   8.44821970
_cell_length_b   8.44822052
_cell_length_c   8.44822100
_cell_angle_alpha   109.47121699
_cell_angle_beta   109.47121896
_cell_angle_gamma   109.47122712
_symmetry_Int_Tables_number   1
_chemical_formula_structural   Li4La6IrPd12
_chemical_formula_sum   'Li4 La6 Ir1 Pd12'
_cell_volume   464.16651810
_cell_formula_units_Z   1
loop_
 _symmetry_equiv_pos_site_id
 _symmetry_equiv_pos_as_xyz
  1  'x, y, z'
loop_
 _atom_site_type_symbol
 _atom_site_label
 _atom_site_symmetry_multiplicity
 _atom_site_fract_x
 _atom_site_fract_y
 _atom_site_fract_z
 _atom_site_occupancy
  Li  Li0  1  0.000000  0.000000  0.500000  1
  Li  Li1  1  0.000000  0.500000  0.000000  1
  Li  Li2  1  0.500000  0.000000  0.000000  1
  Li  Li3  1  0.500000  0.500000  0.500000  1
  La  La4  1  0.698403  0.698403  0.000000  1
  La  La5  1  0.301597  0.000000  0.301597  1
  La  La6  1  0.000000  0.301597  0.301597  1
  La  La7  1  0.301597  0.301597  0.000000  1
  La  La8  1  0.698403  0.000000  0.698403  1
  La  La9  1  0.000000  0.698403  0.698403  1
  Ir  Ir10  1  0.000000  0.000000  0.000000  1
  Pd  Pd11  1  0.332056  0.332056  0.664114  1
  Pd  Pd12  1  0.667944  0.000000  0.332056  1
  Pd  Pd13  1  0.000000  0.667944  0.332056  1
  Pd  Pd14  1  0.667944  0.332056  0.000000  1
  Pd  Pd15  1  0.332056  0.664114  0.332056  1
  Pd  Pd16  1  0.000000  0.332056  0.667944  1
  Pd  Pd17  1  0.332056  0.667944  0.000000  1
  Pd  Pd18  1  0.332056  0.000000  0.667944  1
  Pd  Pd19  1  0.664114  0.332056  0.332056  1
  Pd  Pd20  1  0.667944  0.667944  0.335886  1
  Pd  Pd21  1  0.667944  0.335886  0.667944  1
  Pd  Pd22  1  0.335886  0.667944  0.667944  1
