# generated using pymatgen
data_Tb20(Ir3Ru)3
_symmetry_space_group_name_H-M   'P 1'
_cell_length_a   10.90629300
_cell_length_b   10.90629300
_cell_length_c   6.44487000
_cell_angle_alpha   90.00000000
_cell_angle_beta   90.00000000
_cell_angle_gamma   90.00000000
_symmetry_Int_Tables_number   1
_chemical_formula_structural   Tb20(Ir3Ru)3
_chemical_formula_sum   'Tb20 Ir9 Ru3'
_cell_volume   766.59941489
_cell_formula_units_Z   1
loop_
 _symmetry_equiv_pos_site_id
 _symmetry_equiv_pos_as_xyz
  1  'x, y, z'
loop_
 _atom_site_type_symbol
 _atom_site_label
 _atom_site_symmetry_multiplicity
 _atom_site_fract_x
 _atom_site_fract_y
 _atom_site_fract_z
 _atom_site_occupancy
  Tb  Tb0  1  0.293812  0.086799  0.378763  1
  Tb  Tb1  1  0.293808  0.913356  0.878971  1
  Tb  Tb2  1  0.706192  0.086644  0.878971  1
  Tb  Tb3  1  0.706188  0.913201  0.378763  1
  Tb  Tb4  1  0.586644  0.793808  0.878971  1
  Tb  Tb5  1  0.586799  0.206188  0.378763  1
  Tb  Tb6  1  0.413201  0.793812  0.378763  1
  Tb  Tb7  1  0.413356  0.206192  0.878971  1
  Tb  Tb8  1  0.207747  0.412601  0.622595  1
  Tb  Tb9  1  0.207549  0.587361  0.119915  1
  Tb  Tb10  1  0.792451  0.412639  0.119915  1
  Tb  Tb11  1  0.792253  0.587399  0.622595  1
  Tb  Tb12  1  0.912639  0.707549  0.119915  1
  Tb  Tb13  1  0.912601  0.292253  0.622595  1
  Tb  Tb14  1  0.087399  0.707747  0.622595  1
  Tb  Tb15  1  0.087361  0.292451  0.119915  1
  Tb  Tb16  1  0.000000  0.000000  0.499503  1
  Tb  Tb17  1  0.000000  0.000000  0.999509  1
  Tb  Tb18  1  0.500000  0.500000  0.999509  1
  Tb  Tb19  1  0.500000  0.500000  0.499503  1
  Ir  Ir20  1  0.847510  0.153040  0.250125  1
  Ir  Ir21  1  0.847293  0.846913  0.749823  1
  Ir  Ir22  1  0.152707  0.153087  0.749823  1
  Ir  Ir23  1  0.152490  0.846960  0.250125  1
  Ir  Ir24  1  0.653087  0.347293  0.749823  1
  Ir  Ir25  1  0.653040  0.652490  0.250125  1
  Ir  Ir26  1  0.346960  0.347510  0.250125  1
  Ir  Ir27  1  0.346913  0.652707  0.749823  1
  Ir  Ir28  1  0.000000  0.500000  0.378893  1
  Ru  Ru29  1  0.500000  0.000000  0.121701  1
  Ru  Ru30  1  0.500000  0.000000  0.621705  1
  Ru  Ru31  1  0.000000  0.500000  0.878905  1
