# generated using pymatgen
data_Gd3VMoC6
_symmetry_space_group_name_H-M   'P 1'
_cell_length_a   8.45586900
_cell_length_b   8.45586917
_cell_length_c   5.06404700
_cell_angle_alpha   90.00000000
_cell_angle_beta   90.00000000
_cell_angle_gamma   119.99998657
_symmetry_Int_Tables_number   1
_chemical_formula_structural   Gd3VMoC6
_chemical_formula_sum   'Gd6 V2 Mo2 C12'
_cell_volume   313.57751859
_cell_formula_units_Z   2
loop_
 _symmetry_equiv_pos_site_id
 _symmetry_equiv_pos_as_xyz
  1  'x, y, z'
loop_
 _atom_site_type_symbol
 _atom_site_label
 _atom_site_symmetry_multiplicity
 _atom_site_fract_x
 _atom_site_fract_y
 _atom_site_fract_z
 _atom_site_occupancy
  Gd  Gd0  1  0.625033  0.694650  0.750000  1
  Gd  Gd1  1  0.930383  0.625033  0.250000  1
  Gd  Gd2  1  0.694650  0.069617  0.250000  1
  Gd  Gd3  1  0.305350  0.930383  0.750000  1
  Gd  Gd4  1  0.069617  0.374967  0.750000  1
  Gd  Gd5  1  0.374967  0.305350  0.250000  1
  V  V6  1  0.000000  0.000000  0.500000  1
  V  V7  1  0.000000  0.000000  0.000000  1
  Mo  Mo8  1  0.666667  0.333333  0.750000  1
  Mo  Mo9  1  0.333333  0.666667  0.250000  1
  C  C10  1  0.962270  0.776873  0.750000  1
  C  C11  1  0.185397  0.962270  0.250000  1
  C  C12  1  0.776873  0.814603  0.250000  1
  C  C13  1  0.223127  0.185397  0.750000  1
  C  C14  1  0.814603  0.037730  0.750000  1
  C  C15  1  0.037730  0.223127  0.250000  1
  C  C16  1  0.867136  0.589059  0.750000  1
  C  C17  1  0.278076  0.867136  0.250000  1
  C  C18  1  0.589059  0.721924  0.250000  1
  C  C19  1  0.410941  0.278076  0.750000  1
  C  C20  1  0.132864  0.410941  0.250000  1
  C  C21  1  0.721924  0.132864  0.750000  1
