# generated using pymatgen
data_Eu4Zr3SbO14
_symmetry_space_group_name_H-M   'P 1'
_cell_length_a   7.60442909
_cell_length_b   7.59687571
_cell_length_c   7.59687600
_cell_angle_alpha   59.99999875
_cell_angle_beta   60.03285098
_cell_angle_gamma   60.03285288
_symmetry_Int_Tables_number   1
_chemical_formula_structural   Eu4Zr3SbO14
_chemical_formula_sum   'Eu4 Zr3 Sb1 O14'
_cell_volume   310.48251321
_cell_formula_units_Z   1
loop_
 _symmetry_equiv_pos_site_id
 _symmetry_equiv_pos_as_xyz
  1  'x, y, z'
loop_
 _atom_site_type_symbol
 _atom_site_label
 _atom_site_symmetry_multiplicity
 _atom_site_fract_x
 _atom_site_fract_y
 _atom_site_fract_z
 _atom_site_occupancy
  Eu  Eu0  1  0.625000  0.125000  0.625000  1
  Eu  Eu1  1  0.625000  0.625000  0.125000  1
  Eu  Eu2  1  0.125000  0.625000  0.625000  1
  Eu  Eu3  1  0.625000  0.625000  0.625000  1
  Zr  Zr4  1  0.125000  0.125000  0.125000  1
  Zr  Zr5  1  0.125000  0.125000  0.625000  1
  Zr  Zr6  1  0.125000  0.625000  0.125000  1
  Sb  Sb7  1  0.625000  0.125000  0.125000  1
  O  O8  1  0.218399  0.789063  0.789063  1
  O  O9  1  0.791368  0.808444  0.200094  1
  O  O10  1  0.791368  0.200094  0.808444  1
  O  O11  1  0.218399  0.789063  0.203475  1
  O  O12  1  0.218399  0.203475  0.789063  1
  O  O13  1  0.791368  0.200094  0.200094  1
  O  O14  1  0.458632  0.049906  0.049906  1
  O  O15  1  0.031601  0.046525  0.460937  1
  O  O16  1  0.031601  0.460937  0.046525  1
  O  O17  1  0.458632  0.049906  0.441556  1
  O  O18  1  0.745629  0.751457  0.751457  1
  O  O19  1  0.458632  0.441556  0.049906  1
  O  O20  1  0.031601  0.460937  0.460937  1
  O  O21  1  0.504371  0.498543  0.498543  1
