# generated using pymatgen
data_TmFe4P3W
_symmetry_space_group_name_H-M   'P 1'
_cell_length_a   3.68584900
_cell_length_b   10.42456600
_cell_length_c   11.93199600
_cell_angle_alpha   90.00000000
_cell_angle_beta   90.00000000
_cell_angle_gamma   90.00000000
_symmetry_Int_Tables_number   1
_chemical_formula_structural   TmFe4P3W
_chemical_formula_sum   'Tm4 Fe16 P12 W4'
_cell_volume   458.46757073
_cell_formula_units_Z   4
loop_
 _symmetry_equiv_pos_site_id
 _symmetry_equiv_pos_as_xyz
  1  'x, y, z'
loop_
 _atom_site_type_symbol
 _atom_site_label
 _atom_site_symmetry_multiplicity
 _atom_site_fract_x
 _atom_site_fract_y
 _atom_site_fract_z
 _atom_site_occupancy
  Tm  Tm0  1  0.250000  0.581773  0.706743  1
  Tm  Tm1  1  0.250000  0.918227  0.206743  1
  Tm  Tm2  1  0.750000  0.418227  0.293257  1
  Tm  Tm3  1  0.750000  0.081773  0.793257  1
  Fe  Fe4  1  0.250000  0.407062  0.490939  1
  Fe  Fe5  1  0.250000  0.092938  0.990939  1
  Fe  Fe6  1  0.750000  0.592938  0.509061  1
  Fe  Fe7  1  0.750000  0.907062  0.009061  1
  Fe  Fe8  1  0.250000  0.218821  0.176672  1
  Fe  Fe9  1  0.250000  0.281179  0.676672  1
  Fe  Fe10  1  0.750000  0.781179  0.823328  1
  Fe  Fe11  1  0.750000  0.718821  0.323328  1
  Fe  Fe12  1  0.250000  0.877493  0.701153  1
  Fe  Fe13  1  0.250000  0.622507  0.201153  1
  Fe  Fe14  1  0.750000  0.122507  0.298847  1
  Fe  Fe15  1  0.750000  0.377493  0.798847  1
  Fe  Fe16  1  0.250000  0.462680  0.933326  1
  Fe  Fe17  1  0.250000  0.037320  0.433326  1
  Fe  Fe18  1  0.750000  0.537320  0.066674  1
  Fe  Fe19  1  0.750000  0.962680  0.566674  1
  P  P20  1  0.250000  0.425423  0.115647  1
  P  P21  1  0.250000  0.074577  0.615647  1
  P  P22  1  0.750000  0.574577  0.884353  1
  P  P23  1  0.750000  0.925423  0.384353  1
  P  P24  1  0.250000  0.264568  0.865546  1
  P  P25  1  0.250000  0.235432  0.365546  1
  P  P26  1  0.750000  0.735432  0.134454  1
  P  P27  1  0.750000  0.764568  0.634454  1
  P  P28  1  0.250000  0.591931  0.389798  1
  P  P29  1  0.250000  0.908069  0.889798  1
  P  P30  1  0.750000  0.408069  0.610202  1
  P  P31  1  0.750000  0.091931  0.110202  1
  W  W32  1  0.250000  0.704280  0.988343  1
  W  W33  1  0.250000  0.795720  0.488343  1
  W  W34  1  0.750000  0.295720  0.011657  1
  W  W35  1  0.750000  0.204280  0.511657  1
