# generated using pymatgen
data_Cs4Al3In(SiTe4)4
_symmetry_space_group_name_H-M   'P 1'
_cell_length_a   18.79586893
_cell_length_b   7.90825969
_cell_length_c   8.74429735
_cell_angle_alpha   69.72541549
_cell_angle_beta   90.57546906
_cell_angle_gamma   90.27231878
_symmetry_Int_Tables_number   1
_chemical_formula_structural   Cs4Al3In(SiTe4)4
_chemical_formula_sum   'Cs4 Al3 In1 Si4 Te16'
_cell_volume   1219.18207067
_cell_formula_units_Z   1
loop_
 _symmetry_equiv_pos_site_id
 _symmetry_equiv_pos_as_xyz
  1  'x, y, z'
loop_
 _atom_site_type_symbol
 _atom_site_label
 _atom_site_symmetry_multiplicity
 _atom_site_fract_x
 _atom_site_fract_y
 _atom_site_fract_z
 _atom_site_occupancy
  Cs  Cs0  1  0.394564  0.959812  0.178962  1
  Cs  Cs1  1  0.898742  0.043132  0.822867  1
  Cs  Cs2  1  0.600542  0.517892  0.827317  1
  Cs  Cs3  1  0.103910  0.478419  0.174457  1
  Al  Al4  1  0.082302  0.828945  0.526581  1
  Al  Al5  1  0.271677  0.591179  0.703066  1
  Al  Al6  1  0.776128  0.408775  0.297919  1
  In  In7  1  0.584876  0.169057  0.471507  1
  Si  Si8  1  0.416696  0.327486  0.538960  1
  Si  Si9  1  0.921716  0.676760  0.460937  1
  Si  Si10  1  0.727986  0.907170  0.278456  1
  Si  Si11  1  0.225413  0.086206  0.720142  1
  Te  Te12  1  0.599643  0.868876  0.370194  1
  Te  Te13  1  0.097223  0.110401  0.622093  1
  Te  Te14  1  0.407895  0.601413  0.625752  1
  Te  Te15  1  0.913126  0.404136  0.371802  1
  Te  Te16  1  0.804240  0.785733  0.538526  1
  Te  Te17  1  0.299217  0.214115  0.460225  1
  Te  Te18  1  0.199437  0.723539  0.433576  1
  Te  Te19  1  0.710076  0.285149  0.573536  1
  Te  Te20  1  0.763317  0.222519  0.097591  1
  Te  Te21  1  0.264436  0.775480  0.905047  1
  Te  Te22  1  0.235629  0.267724  0.907725  1
  Te  Te23  1  0.738893  0.729543  0.088410  1
  Te  Te24  1  0.997421  0.920003  0.263661  1
  Te  Te25  1  0.491218  0.086760  0.744940  1
  Te  Te26  1  0.991547  0.594710  0.726466  1
  Te  Te27  1  0.482127  0.415068  0.269288  1
