# generated using pymatgen
data_Tb2Y3Tm3(CdIr)2
_symmetry_space_group_name_H-M   'P 1'
_cell_length_a   9.60770473
_cell_length_b   9.60770515
_cell_length_c   9.60770400
_cell_angle_alpha   59.99999709
_cell_angle_beta   59.99999562
_cell_angle_gamma   59.99999457
_symmetry_Int_Tables_number   1
_chemical_formula_structural   Tb2Y3Tm3(CdIr)2
_chemical_formula_sum   'Tb4 Y6 Tm6 Cd4 Ir4'
_cell_volume   627.11023550
_cell_formula_units_Z   2
loop_
 _symmetry_equiv_pos_site_id
 _symmetry_equiv_pos_as_xyz
  1  'x, y, z'
loop_
 _atom_site_type_symbol
 _atom_site_label
 _atom_site_symmetry_multiplicity
 _atom_site_fract_x
 _atom_site_fract_y
 _atom_site_fract_z
 _atom_site_occupancy
  Tb  Tb0  1  0.349524  0.349524  0.349524  1
  Tb  Tb1  1  0.349524  0.349524  0.951428  1
  Tb  Tb2  1  0.349524  0.951428  0.349524  1
  Tb  Tb3  1  0.951428  0.349524  0.349524  1
  Y  Y4  1  0.938395  0.561605  0.561605  1
  Y  Y5  1  0.561605  0.938395  0.938395  1
  Y  Y6  1  0.561605  0.938395  0.561605  1
  Y  Y7  1  0.938395  0.561605  0.938395  1
  Y  Y8  1  0.561605  0.561605  0.938395  1
  Y  Y9  1  0.938395  0.938395  0.561605  1
  Tm  Tm10  1  0.812198  0.187802  0.187802  1
  Tm  Tm11  1  0.187802  0.812198  0.812198  1
  Tm  Tm12  1  0.187802  0.812198  0.187802  1
  Tm  Tm13  1  0.812198  0.187802  0.812198  1
  Tm  Tm14  1  0.187802  0.187802  0.812198  1
  Tm  Tm15  1  0.812198  0.812198  0.187802  1
  Cd  Cd16  1  0.580486  0.580486  0.580486  1
  Cd  Cd17  1  0.580486  0.580486  0.258544  1
  Cd  Cd18  1  0.580486  0.258544  0.580486  1
  Cd  Cd19  1  0.258544  0.580486  0.580486  1
  Ir  Ir20  1  0.140747  0.140747  0.140747  1
  Ir  Ir21  1  0.140747  0.140747  0.577760  1
  Ir  Ir22  1  0.140747  0.577760  0.140747  1
  Ir  Ir23  1  0.577760  0.140747  0.140747  1
