# generated using pymatgen
data_Tb8Si15Rh
_symmetry_space_group_name_H-M   'P 1'
_cell_length_a   8.14163200
_cell_length_b   8.14163138
_cell_length_c   8.03148300
_cell_angle_alpha   90.00000000
_cell_angle_beta   90.00000000
_cell_angle_gamma   119.99999440
_symmetry_Int_Tables_number   1
_chemical_formula_structural   Tb8Si15Rh
_chemical_formula_sum   'Tb8 Si15 Rh1'
_cell_volume   461.05135682
_cell_formula_units_Z   1
loop_
 _symmetry_equiv_pos_site_id
 _symmetry_equiv_pos_as_xyz
  1  'x, y, z'
loop_
 _atom_site_type_symbol
 _atom_site_label
 _atom_site_symmetry_multiplicity
 _atom_site_fract_x
 _atom_site_fract_y
 _atom_site_fract_z
 _atom_site_occupancy
  Tb  Tb0  1  0.000000  0.000000  0.748366  1
  Tb  Tb1  1  0.000000  0.000000  0.251664  1
  Tb  Tb2  1  0.500127  0.499873  0.745565  1
  Tb  Tb3  1  0.500127  0.000255  0.745565  1
  Tb  Tb4  1  0.999745  0.499873  0.745565  1
  Tb  Tb5  1  0.500589  0.499411  0.254409  1
  Tb  Tb6  1  0.998822  0.499411  0.254409  1
  Tb  Tb7  1  0.500589  0.001178  0.254409  1
  Si  Si8  1  0.666667  0.333333  0.999579  1
  Si  Si9  1  0.666667  0.333333  0.500840  1
  Si  Si10  1  0.333333  0.666667  0.499043  1
  Si  Si11  1  0.836667  0.163333  0.999823  1
  Si  Si12  1  0.836667  0.673333  0.999823  1
  Si  Si13  1  0.326667  0.163333  0.999823  1
  Si  Si14  1  0.832552  0.167448  0.500012  1
  Si  Si15  1  0.832552  0.665104  0.500012  1
  Si  Si16  1  0.334896  0.167448  0.500012  1
  Si  Si17  1  0.166199  0.833801  0.500023  1
  Si  Si18  1  0.667603  0.833801  0.500023  1
  Si  Si19  1  0.166199  0.332397  0.500023  1
  Si  Si20  1  0.170224  0.829776  0.000190  1
  Si  Si21  1  0.659551  0.829776  0.000190  1
  Si  Si22  1  0.170224  0.340449  0.000190  1
  Rh  Rh23  1  0.333333  0.666667  0.000441  1
