# generated using pymatgen
data_CsEr3Te5
_symmetry_space_group_name_H-M   'P 1'
_cell_length_a   4.39635400
_cell_length_b   13.42039400
_cell_length_c   23.65647300
_cell_angle_alpha   90.00000000
_cell_angle_beta   90.00000000
_cell_angle_gamma   90.00000000
_symmetry_Int_Tables_number   1
_chemical_formula_structural   CsEr3Te5
_chemical_formula_sum   'Cs4 Er12 Te20'
_cell_volume   1395.75089945
_cell_formula_units_Z   4
loop_
 _symmetry_equiv_pos_site_id
 _symmetry_equiv_pos_as_xyz
  1  'x, y, z'
loop_
 _atom_site_type_symbol
 _atom_site_label
 _atom_site_symmetry_multiplicity
 _atom_site_fract_x
 _atom_site_fract_y
 _atom_site_fract_z
 _atom_site_occupancy
  Cs  Cs0  1  0.250000  0.853070  0.092178  1
  Cs  Cs1  1  0.750000  0.146930  0.907822  1
  Cs  Cs2  1  0.750000  0.353070  0.407822  1
  Cs  Cs3  1  0.250000  0.646930  0.592178  1
  Er  Er4  1  0.750000  0.796294  0.825378  1
  Er  Er5  1  0.250000  0.203706  0.174622  1
  Er  Er6  1  0.250000  0.296294  0.674622  1
  Er  Er7  1  0.750000  0.703706  0.325378  1
  Er  Er8  1  0.250000  0.957465  0.698057  1
  Er  Er9  1  0.750000  0.042535  0.301943  1
  Er  Er10  1  0.750000  0.457465  0.801943  1
  Er  Er11  1  0.250000  0.542535  0.198057  1
  Er  Er12  1  0.750000  0.392141  0.054667  1
  Er  Er13  1  0.250000  0.607859  0.945333  1
  Er  Er14  1  0.250000  0.892141  0.445333  1
  Er  Er15  1  0.750000  0.107859  0.554667  1
  Te  Te16  1  0.250000  0.947058  0.569237  1
  Te  Te17  1  0.750000  0.052942  0.430763  1
  Te  Te18  1  0.750000  0.447058  0.930763  1
  Te  Te19  1  0.250000  0.552942  0.069237  1
  Te  Te20  1  0.750000  0.765964  0.953454  1
  Te  Te21  1  0.250000  0.234036  0.046546  1
  Te  Te22  1  0.250000  0.265964  0.546546  1
  Te  Te23  1  0.750000  0.734036  0.453454  1
  Te  Te24  1  0.250000  0.951214  0.826772  1
  Te  Te25  1  0.750000  0.048786  0.173228  1
  Te  Te26  1  0.750000  0.451214  0.673228  1
  Te  Te27  1  0.250000  0.548786  0.326772  1
  Te  Te28  1  0.750000  0.126141  0.685895  1
  Te  Te29  1  0.250000  0.873859  0.314105  1
  Te  Te30  1  0.250000  0.626141  0.814105  1
  Te  Te31  1  0.750000  0.373859  0.185895  1
  Te  Te32  1  0.750000  0.695698  0.196988  1
  Te  Te33  1  0.250000  0.304302  0.803012  1
  Te  Te34  1  0.250000  0.195698  0.303012  1
  Te  Te35  1  0.750000  0.804302  0.696988  1
