# generated using pymatgen
data_Nd5HoAl18(Si3Os4)2
_symmetry_space_group_name_H-M   'P 1'
_cell_length_a   8.82477706
_cell_length_b   8.73575946
_cell_length_c   9.64734800
_cell_angle_alpha   90.00000000
_cell_angle_beta   90.00000000
_cell_angle_gamma   120.32375538
_symmetry_Int_Tables_number   1
_chemical_formula_structural   Nd5HoAl18(Si3Os4)2
_chemical_formula_sum   'Nd5 Ho1 Al18 Si6 Os8'
_cell_volume   641.97318869
_cell_formula_units_Z   1
loop_
 _symmetry_equiv_pos_site_id
 _symmetry_equiv_pos_as_xyz
  1  'x, y, z'
loop_
 _atom_site_type_symbol
 _atom_site_label
 _atom_site_symmetry_multiplicity
 _atom_site_fract_x
 _atom_site_fract_y
 _atom_site_fract_z
 _atom_site_occupancy
  Nd  Nd0  1  0.191737  0.382159  0.250000  1
  Nd  Nd1  1  0.809165  0.618302  0.750000  1
  Nd  Nd2  1  0.614463  0.809444  0.250000  1
  Nd  Nd3  1  0.385183  0.190036  0.750000  1
  Nd  Nd4  1  0.195709  0.808206  0.250000  1
  Ho  Ho5  1  0.800960  0.194836  0.750000  1
  Al  Al6  1  0.164877  0.330897  0.578094  1
  Al  Al7  1  0.833680  0.667544  0.423676  1
  Al  Al8  1  0.672018  0.837356  0.575455  1
  Al  Al9  1  0.833680  0.667544  0.076324  1
  Al  Al10  1  0.329220  0.164200  0.426508  1
  Al  Al11  1  0.164877  0.330897  0.921906  1
  Al  Al12  1  0.165110  0.835732  0.575147  1
  Al  Al13  1  0.329220  0.164200  0.073492  1
  Al  Al14  1  0.835031  0.163903  0.428109  1
  Al  Al15  1  0.672018  0.837356  0.924545  1
  Al  Al16  1  0.835031  0.163903  0.071891  1
  Al  Al17  1  0.165110  0.835732  0.924853  1
  Al  Al18  1  0.869332  0.429133  0.250000  1
  Al  Al19  1  0.129077  0.567873  0.750000  1
  Al  Al20  1  0.560995  0.429950  0.250000  1
  Al  Al21  1  0.438977  0.569938  0.750000  1
  Al  Al22  1  0.998702  0.996252  0.250000  1
  Al  Al23  1  0.997955  0.006693  0.750000  1
  Si  Si24  1  0.331850  0.662611  0.033388  1
  Si  Si25  1  0.669226  0.336088  0.963369  1
  Si  Si26  1  0.669226  0.336088  0.536631  1
  Si  Si27  1  0.331850  0.662611  0.466612  1
  Si  Si28  1  0.565495  0.128845  0.250000  1
  Si  Si29  1  0.438002  0.873012  0.750000  1
  Os  Os30  1  0.501285  0.000771  0.998342  1
  Os  Os31  1  0.999346  0.498786  0.998700  1
  Os  Os32  1  0.501285  0.000771  0.501658  1
  Os  Os33  1  0.500373  0.499943  0.999591  1
  Os  Os34  1  0.999346  0.498786  0.501300  1
  Os  Os35  1  0.500373  0.499943  0.500409  1
  Os  Os36  1  0.000109  0.999830  0.999774  1
  Os  Os37  1  0.000109  0.999830  0.500226  1
