# generated using pymatgen
data_YbGd6IrBr12
_symmetry_space_group_name_H-M   'P 1'
_cell_length_a   9.43327235
_cell_length_b   9.43327257
_cell_length_c   9.43327200
_cell_angle_alpha   106.78857551
_cell_angle_beta   106.78857591
_cell_angle_gamma   106.78855226
_symmetry_Int_Tables_number   1
_chemical_formula_structural   YbGd6IrBr12
_chemical_formula_sum   'Yb1 Gd6 Ir1 Br12'
_cell_volume   703.08269003
_cell_formula_units_Z   1
loop_
 _symmetry_equiv_pos_site_id
 _symmetry_equiv_pos_as_xyz
  1  'x, y, z'
loop_
 _atom_site_type_symbol
 _atom_site_label
 _atom_site_symmetry_multiplicity
 _atom_site_fract_x
 _atom_site_fract_y
 _atom_site_fract_z
 _atom_site_occupancy
  Yb  Yb0  1  0.500000  0.500000  0.500000  1
  Gd  Gd1  1  0.104781  0.313537  0.023478  1
  Gd  Gd2  1  0.313537  0.023479  0.104780  1
  Gd  Gd3  1  0.023479  0.104780  0.313538  1
  Gd  Gd4  1  0.976522  0.895220  0.686463  1
  Gd  Gd5  1  0.686463  0.976522  0.895220  1
  Gd  Gd6  1  0.895219  0.686463  0.976522  1
  Ir  Ir7  1  0.000000  0.000000  0.000000  1
  Br  Br8  1  0.216994  0.679936  0.072514  1
  Br  Br9  1  0.454212  0.376443  0.163628  1
  Br  Br10  1  0.679937  0.072514  0.216994  1
  Br  Br11  1  0.927487  0.783006  0.320064  1
  Br  Br12  1  0.163628  0.454212  0.376443  1
  Br  Br13  1  0.376443  0.163628  0.454212  1
  Br  Br14  1  0.623557  0.836372  0.545789  1
  Br  Br15  1  0.836373  0.545788  0.623557  1
  Br  Br16  1  0.072514  0.216994  0.679937  1
  Br  Br17  1  0.320064  0.927487  0.783006  1
  Br  Br18  1  0.545788  0.623557  0.836373  1
  Br  Br19  1  0.783006  0.320064  0.927486  1
