# generated using pymatgen
data_TmLu3(ScRh)4
_symmetry_space_group_name_H-M   'P 1'
_cell_length_a   4.19651900
_cell_length_b   7.16648909
_cell_length_c   8.58249714
_cell_angle_alpha   89.92263362
_cell_angle_beta   90.00000000
_cell_angle_gamma   90.00000000
_symmetry_Int_Tables_number   1
_chemical_formula_structural   TmLu3(ScRh)4
_chemical_formula_sum   'Tm1 Lu3 Sc4 Rh4'
_cell_volume   258.11242360
_cell_formula_units_Z   1
loop_
 _symmetry_equiv_pos_site_id
 _symmetry_equiv_pos_as_xyz
  1  'x, y, z'
loop_
 _atom_site_type_symbol
 _atom_site_label
 _atom_site_symmetry_multiplicity
 _atom_site_fract_x
 _atom_site_fract_y
 _atom_site_fract_z
 _atom_site_occupancy
  Tm  Tm0  1  0.250000  0.017674  0.327715  1
  Lu  Lu1  1  0.250000  0.517602  0.170592  1
  Lu  Lu2  1  0.750000  0.482349  0.829051  1
  Lu  Lu3  1  0.750000  0.982450  0.671834  1
  Sc  Sc4  1  0.250000  0.639895  0.569793  1
  Sc  Sc5  1  0.750000  0.360636  0.430770  1
  Sc  Sc6  1  0.750000  0.860125  0.068321  1
  Sc  Sc7  1  0.250000  0.140469  0.930337  1
  Rh  Rh8  1  0.250000  0.751911  0.899771  1
  Rh  Rh9  1  0.750000  0.247883  0.100347  1
  Rh  Rh10  1  0.750000  0.746446  0.400953  1
  Rh  Rh11  1  0.250000  0.252559  0.600517  1
