# generated using pymatgen
data_CaCe2Zn11
_symmetry_space_group_name_H-M   'P 1'
_cell_length_a   4.49155665
_cell_length_b   8.24409853
_cell_length_c   8.24409795
_cell_angle_alpha   65.76109178
_cell_angle_beta   74.19225017
_cell_angle_gamma   74.19225157
_symmetry_Int_Tables_number   1
_chemical_formula_structural   CaCe2Zn11
_chemical_formula_sum   'Ca1 Ce2 Zn11'
_cell_volume   263.30622273
_cell_formula_units_Z   1
loop_
 _symmetry_equiv_pos_site_id
 _symmetry_equiv_pos_as_xyz
  1  'x, y, z'
loop_
 _atom_site_type_symbol
 _atom_site_label
 _atom_site_symmetry_multiplicity
 _atom_site_fract_x
 _atom_site_fract_y
 _atom_site_fract_z
 _atom_site_occupancy
  Ca  Ca0  1  0.000000  0.000000  0.000000  1
  Ce  Ce1  1  0.702973  0.297027  0.297027  1
  Ce  Ce2  1  0.297027  0.702973  0.702973  1
  Zn  Zn3  1  0.000000  0.500000  0.500000  1
  Zn  Zn4  1  0.500000  0.317685  0.682315  1
  Zn  Zn5  1  0.500000  0.682315  0.317685  1
  Zn  Zn6  1  0.660722  0.981240  0.697317  1
  Zn  Zn7  1  0.339278  0.018760  0.302683  1
  Zn  Zn8  1  0.660722  0.697317  0.981240  1
  Zn  Zn9  1  0.339278  0.302683  0.018760  1
  Zn  Zn10  1  0.862972  0.854062  0.419997  1
  Zn  Zn11  1  0.137028  0.145938  0.580003  1
  Zn  Zn12  1  0.862972  0.419997  0.854062  1
  Zn  Zn13  1  0.137028  0.580003  0.145938  1
