# generated using pymatgen
data_Ti6Ga6Pt5Au
_symmetry_space_group_name_H-M   'P 1'
_cell_length_a   7.01879400
_cell_length_b   7.01879371
_cell_length_c   6.84528900
_cell_angle_alpha   90.00000000
_cell_angle_beta   90.00000000
_cell_angle_gamma   120.00001078
_symmetry_Int_Tables_number   1
_chemical_formula_structural   Ti6Ga6Pt5Au
_chemical_formula_sum   'Ti6 Ga6 Pt5 Au1'
_cell_volume   292.04336738
_cell_formula_units_Z   1
loop_
 _symmetry_equiv_pos_site_id
 _symmetry_equiv_pos_as_xyz
  1  'x, y, z'
loop_
 _atom_site_type_symbol
 _atom_site_label
 _atom_site_symmetry_multiplicity
 _atom_site_fract_x
 _atom_site_fract_y
 _atom_site_fract_z
 _atom_site_occupancy
  Ti  Ti0  1  0.404304  0.382437  0.244937  1
  Ti  Ti1  1  0.586034  0.964327  0.754031  1
  Ti  Ti2  1  0.378293  0.413966  0.754031  1
  Ti  Ti3  1  0.035673  0.621707  0.754031  1
  Ti  Ti4  1  0.978133  0.595696  0.244937  1
  Ti  Ti5  1  0.617563  0.021867  0.244937  1
  Ga  Ga6  1  0.275191  0.002305  0.998681  1
  Ga  Ga7  1  0.271034  0.996805  0.497853  1
  Ga  Ga8  1  0.003195  0.274229  0.497853  1
  Ga  Ga9  1  0.997695  0.272886  0.998681  1
  Ga  Ga10  1  0.727114  0.724809  0.998681  1
  Ga  Ga11  1  0.725771  0.728966  0.497853  1
  Pt  Pt12  1  0.000000  0.000000  0.749287  1
  Pt  Pt13  1  0.666667  0.333333  0.969963  1
  Pt  Pt14  1  0.333333  0.666667  0.039689  1
  Pt  Pt15  1  0.333333  0.666667  0.464202  1
  Pt  Pt16  1  0.000000  0.000000  0.247820  1
  Au  Au17  1  0.666667  0.333333  0.542537  1
