# generated using pymatgen
data_ErHf5(ScPt2)2
_symmetry_space_group_name_H-M   'P 1'
_cell_length_a   4.59092900
_cell_length_b   6.78405897
_cell_length_c   8.11689312
_cell_angle_alpha   90.25875826
_cell_angle_beta   90.00000000
_cell_angle_gamma   90.00000000
_symmetry_Int_Tables_number   1
_chemical_formula_structural   ErHf5(ScPt2)2
_chemical_formula_sum   'Er1 Hf5 Sc2 Pt4'
_cell_volume   252.79913845
_cell_formula_units_Z   1
loop_
 _symmetry_equiv_pos_site_id
 _symmetry_equiv_pos_as_xyz
  1  'x, y, z'
loop_
 _atom_site_type_symbol
 _atom_site_label
 _atom_site_symmetry_multiplicity
 _atom_site_fract_x
 _atom_site_fract_y
 _atom_site_fract_z
 _atom_site_occupancy
  Er  Er0  1  0.250000  0.985574  0.318439  1
  Hf  Hf1  1  0.750000  0.649106  0.422438  1
  Hf  Hf2  1  0.250000  0.351393  0.580843  1
  Hf  Hf3  1  0.750000  0.156259  0.077817  1
  Hf  Hf4  1  0.250000  0.846418  0.917751  1
  Hf  Hf5  1  0.750000  0.511658  0.827277  1
  Sc  Sc6  1  0.250000  0.486159  0.174876  1
  Sc  Sc7  1  0.750000  0.016731  0.681339  1
  Pt  Pt8  1  0.750000  0.260862  0.408858  1
  Pt  Pt9  1  0.250000  0.737959  0.596441  1
  Pt  Pt10  1  0.750000  0.756537  0.091144  1
  Pt  Pt11  1  0.250000  0.241343  0.902777  1
