# generated using pymatgen
data_DyY3Al18(PtRh)3
_symmetry_space_group_name_H-M   'P 1'
_cell_length_a   7.59636706
_cell_length_b   7.59641054
_cell_length_c   9.43792305
_cell_angle_alpha   89.99027893
_cell_angle_beta   89.99119742
_cell_angle_gamma   119.62803055
_symmetry_Int_Tables_number   1
_chemical_formula_structural   DyY3Al18(PtRh)3
_chemical_formula_sum   'Dy1 Y3 Al18 Pt3 Rh3'
_cell_volume   473.40960531
_cell_formula_units_Z   1
loop_
 _symmetry_equiv_pos_site_id
 _symmetry_equiv_pos_as_xyz
  1  'x, y, z'
loop_
 _atom_site_type_symbol
 _atom_site_label
 _atom_site_symmetry_multiplicity
 _atom_site_fract_x
 _atom_site_fract_y
 _atom_site_fract_z
 _atom_site_occupancy
  Dy  Dy0  1  0.330496  0.004048  0.249784  1
  Y  Y1  1  0.995888  0.669511  0.750221  1
  Y  Y2  1  0.005621  0.331879  0.249959  1
  Y  Y3  1  0.668140  0.994394  0.750043  1
  Al  Al4  1  0.124422  0.125228  0.750660  1
  Al  Al5  1  0.874892  0.875582  0.249344  1
  Al  Al6  1  0.999942  0.330651  0.576180  1
  Al  Al7  1  0.999240  0.669694  0.423401  1
  Al  Al8  1  0.996394  0.665350  0.074985  1
  Al  Al9  1  0.334721  0.003691  0.925210  1
  Al  Al10  1  0.996245  0.330740  0.925119  1
  Al  Al11  1  0.669180  0.003757  0.074987  1
  Al  Al12  1  0.669266  0.000059  0.423709  1
  Al  Al13  1  0.330389  0.000852  0.576395  1
  Al  Al14  1  0.332437  0.328950  0.053540  1
  Al  Al15  1  0.670971  0.667552  0.946553  1
  Al  Al16  1  0.670035  0.670034  0.555901  1
  Al  Al17  1  0.329957  0.329887  0.444002  1
  Al  Al18  1  0.339417  0.543894  0.750517  1
  Al  Al19  1  0.659862  0.452110  0.246561  1
  Al  Al20  1  0.547756  0.339981  0.753441  1
  Al  Al21  1  0.456095  0.660689  0.249489  1
  Pt  Pt22  1  0.671895  0.328020  0.499984  1
  Pt  Pt23  1  0.327437  0.672602  0.499973  1
  Pt  Pt24  1  0.327502  0.672541  0.000030  1
  Rh  Rh25  1  0.671877  0.328102  0.000001  1
  Rh  Rh26  1  0.999776  0.000281  0.499978  1
  Rh  Rh27  1  0.000150  0.999919  0.000033  1
