# generated using pymatgen
data_Rb6Y(AsI6)3
_symmetry_space_group_name_H-M   'P 1'
_cell_length_a   8.26942143
_cell_length_b   8.26751061
_cell_length_c   21.18614000
_cell_angle_alpha   88.66765341
_cell_angle_beta   88.67700562
_cell_angle_gamma   119.93973552
_symmetry_Int_Tables_number   1
_chemical_formula_structural   Rb6Y(AsI6)3
_chemical_formula_sum   'Rb6 Y1 As3 I18'
_cell_volume   1253.80445004
_cell_formula_units_Z   1
loop_
 _symmetry_equiv_pos_site_id
 _symmetry_equiv_pos_as_xyz
  1  'x, y, z'
loop_
 _atom_site_type_symbol
 _atom_site_label
 _atom_site_symmetry_multiplicity
 _atom_site_fract_x
 _atom_site_fract_y
 _atom_site_fract_z
 _atom_site_occupancy
  Rb  Rb0  1  0.997686  0.012923  0.756960  1
  Rb  Rb1  1  0.667184  0.323562  0.068623  1
  Rb  Rb2  1  0.007100  0.992247  0.250991  1
  Rb  Rb3  1  0.327289  0.668747  0.565348  1
  Rb  Rb4  1  0.327677  0.670396  0.934541  1
  Rb  Rb5  1  0.676045  0.334205  0.421153  1
  Y  Y6  1  0.680404  0.349907  0.840671  1
  As  As7  1  0.648526  0.317657  0.651994  1
  As  As8  1  0.349075  0.679817  0.341700  1
  As  As9  1  0.319351  0.650477  0.159187  1
  I  I10  1  0.629118  0.798995  0.078591  1
  I  I11  1  0.356647  0.194583  0.930826  1
  I  I12  1  0.497169  0.000755  0.759762  1
  I  I13  1  0.200807  0.858996  0.412917  1
  I  I14  1  0.871758  0.197162  0.916937  1
  I  I15  1  0.797997  0.627600  0.572376  1
  I  I16  1  0.798559  0.141097  0.583965  1
  I  I17  1  0.309315  0.141508  0.594859  1
  I  I18  1  0.498478  0.993094  0.239040  1
  I  I19  1  0.993748  0.498547  0.733582  1
  I  I20  1  0.140117  0.797440  0.090142  1
  I  I21  1  0.007440  0.501848  0.265535  1
  I  I22  1  0.499773  0.499873  0.746063  1
  I  I23  1  0.869751  0.708034  0.904956  1
  I  I24  1  0.141892  0.312209  0.100476  1
  I  I25  1  0.688631  0.857381  0.403078  1
  I  I26  1  0.498130  0.502694  0.252452  1
  I  I27  1  0.200337  0.368245  0.423277  1
