# generated using pymatgen
data_Pr4Dy3Tm3Sn8
_symmetry_space_group_name_H-M   'P 1'
_cell_length_a   8.10633900
_cell_length_b   8.29385111
_cell_length_c   15.64627200
_cell_angle_alpha   90.04088978
_cell_angle_beta   90.00000000
_cell_angle_gamma   90.00000000
_symmetry_Int_Tables_number   1
_chemical_formula_structural   Pr4Dy3Tm3Sn8
_chemical_formula_sum   'Pr8 Dy6 Tm6 Sn16'
_cell_volume   1051.94191898
_cell_formula_units_Z   2
loop_
 _symmetry_equiv_pos_site_id
 _symmetry_equiv_pos_as_xyz
  1  'x, y, z'
loop_
 _atom_site_type_symbol
 _atom_site_label
 _atom_site_symmetry_multiplicity
 _atom_site_fract_x
 _atom_site_fract_y
 _atom_site_fract_z
 _atom_site_occupancy
  Pr  Pr0  1  0.513249  0.323033  0.902979  1
  Pr  Pr1  1  0.013249  0.176967  0.597021  1
  Pr  Pr2  1  0.487220  0.678137  0.403925  1
  Pr  Pr3  1  0.987220  0.821863  0.096075  1
  Pr  Pr4  1  0.487446  0.678183  0.095707  1
  Pr  Pr5  1  0.987446  0.821817  0.404293  1
  Pr  Pr6  1  0.512337  0.322246  0.597101  1
  Pr  Pr7  1  0.012337  0.177754  0.902899  1
  Dy  Dy8  1  0.643361  0.164097  0.377470  1
  Dy  Dy9  1  0.143361  0.335903  0.122530  1
  Dy  Dy10  1  0.642887  0.164349  0.123549  1
  Dy  Dy11  1  0.142887  0.335651  0.376451  1
  Dy  Dy12  1  0.357277  0.836190  0.623261  1
  Dy  Dy13  1  0.857277  0.663810  0.876739  1
  Tm  Tm14  1  0.356518  0.836046  0.874920  1
  Tm  Tm15  1  0.856518  0.663954  0.625080  1
  Tm  Tm16  1  0.190468  0.502985  0.750181  1
  Tm  Tm17  1  0.690468  0.997015  0.749819  1
  Tm  Tm18  1  0.809816  0.497455  0.250324  1
  Tm  Tm19  1  0.309816  0.002545  0.249676  1
  Sn  Sn20  1  0.307285  0.039325  0.040752  1
  Sn  Sn21  1  0.807285  0.460675  0.459248  1
  Sn  Sn22  1  0.695532  0.957562  0.543389  1
  Sn  Sn23  1  0.195532  0.542438  0.956611  1
  Sn  Sn24  1  0.689949  0.959458  0.956830  1
  Sn  Sn25  1  0.189949  0.540542  0.543170  1
  Sn  Sn26  1  0.306200  0.040322  0.457176  1
  Sn  Sn27  1  0.806200  0.459678  0.042824  1
  Sn  Sn28  1  0.555294  0.624366  0.749756  1
  Sn  Sn29  1  0.055294  0.875634  0.750244  1
  Sn  Sn30  1  0.444685  0.376347  0.250263  1
  Sn  Sn31  1  0.944685  0.123653  0.249737  1
  Sn  Sn32  1  0.321704  0.143303  0.750385  1
  Sn  Sn33  1  0.821704  0.356697  0.749615  1
  Sn  Sn34  1  0.678777  0.855960  0.250112  1
  Sn  Sn35  1  0.178777  0.644040  0.249888  1
