# generated using pymatgen
data_Mn7Nb12Al5N4
_symmetry_space_group_name_H-M   'P 1'
_cell_length_a   8.16246620
_cell_length_b   8.14154167
_cell_length_c   8.14154200
_cell_angle_alpha   59.99999864
_cell_angle_beta   60.08476257
_cell_angle_gamma   60.08476379
_symmetry_Int_Tables_number   1
_chemical_formula_structural   Mn7Nb12Al5N4
_chemical_formula_sum   'Mn7 Nb12 Al5 N4'
_cell_volume   383.06717624
_cell_formula_units_Z   1
loop_
 _symmetry_equiv_pos_site_id
 _symmetry_equiv_pos_as_xyz
  1  'x, y, z'
loop_
 _atom_site_type_symbol
 _atom_site_label
 _atom_site_symmetry_multiplicity
 _atom_site_fract_x
 _atom_site_fract_y
 _atom_site_fract_z
 _atom_site_occupancy
  Mn  Mn0  1  0.105200  0.631600  0.631600  1
  Mn  Mn1  1  0.641015  0.108540  0.625222  1
  Mn  Mn2  1  0.641015  0.625222  0.108540  1
  Mn  Mn3  1  0.641015  0.625222  0.625222  1
  Mn  Mn4  1  0.827382  0.525457  0.823580  1
  Mn  Mn5  1  0.827382  0.823580  0.525457  1
  Mn  Mn6  1  0.827382  0.823580  0.823580  1
  Nb  Nb7  1  0.805557  0.806761  0.193842  1
  Nb  Nb8  1  0.187643  0.199987  0.806185  1
  Nb  Nb9  1  0.805557  0.193842  0.806761  1
  Nb  Nb10  1  0.187643  0.806185  0.199987  1
  Nb  Nb11  1  0.187643  0.806185  0.806185  1
  Nb  Nb12  1  0.805557  0.193842  0.193842  1
  Nb  Nb13  1  0.445143  0.443723  0.055566  1
  Nb  Nb14  1  0.058183  0.055474  0.443172  1
  Nb  Nb15  1  0.445143  0.055566  0.443723  1
  Nb  Nb16  1  0.058183  0.443172  0.055474  1
  Nb  Nb17  1  0.058183  0.443172  0.443172  1
  Nb  Nb18  1  0.445143  0.055566  0.055566  1
  Al  Al19  1  0.748020  0.417327  0.417327  1
  Al  Al20  1  0.419212  0.745991  0.417399  1
  Al  Al21  1  0.419212  0.417399  0.745991  1
  Al  Al22  1  0.419212  0.417399  0.417399  1
  Al  Al23  1  0.497382  0.834206  0.834206  1
  N  N24  1  0.627114  0.124296  0.124296  1
  N  N25  1  0.123293  0.625711  0.125498  1
  N  N26  1  0.123293  0.125498  0.625711  1
  N  N27  1  0.123293  0.125498  0.125498  1
