# generated using pymatgen
data_Ho4Ga20Pt11
_symmetry_space_group_name_H-M   'P 1'
_cell_length_a   4.15133752
_cell_length_b   10.96625244
_cell_length_c   13.74987994
_cell_angle_alpha   82.52571094
_cell_angle_beta   81.31751234
_cell_angle_gamma   79.08936131
_symmetry_Int_Tables_number   1
_chemical_formula_structural   Ho4Ga20Pt11
_chemical_formula_sum   'Ho4 Ga20 Pt11'
_cell_volume   604.26767256
_cell_formula_units_Z   1
loop_
 _symmetry_equiv_pos_site_id
 _symmetry_equiv_pos_as_xyz
  1  'x, y, z'
loop_
 _atom_site_type_symbol
 _atom_site_label
 _atom_site_symmetry_multiplicity
 _atom_site_fract_x
 _atom_site_fract_y
 _atom_site_fract_z
 _atom_site_occupancy
  Ho  Ho0  1  0.124155  0.086500  0.665191  1
  Ho  Ho1  1  0.875845  0.913500  0.334809  1
  Ho  Ho2  1  0.774599  0.629525  0.821275  1
  Ho  Ho3  1  0.225401  0.370475  0.178725  1
  Ga  Ga4  1  0.009978  0.068682  0.911363  1
  Ga  Ga5  1  0.990022  0.931318  0.088637  1
  Ga  Ga6  1  0.065525  0.674610  0.194341  1
  Ga  Ga7  1  0.934475  0.325390  0.805659  1
  Ga  Ga8  1  0.101561  0.342694  0.454182  1
  Ga  Ga9  1  0.898439  0.657306  0.545818  1
  Ga  Ga10  1  0.202716  0.602967  0.991602  1
  Ga  Ga11  1  0.797284  0.397033  0.008398  1
  Ga  Ga12  1  0.259950  0.779370  0.700730  1
  Ga  Ga13  1  0.740050  0.220630  0.299270  1
  Ga  Ga14  1  0.302886  0.899643  0.494584  1
  Ga  Ga15  1  0.697114  0.100357  0.505416  1
  Ga  Ga16  1  0.387207  0.524405  0.701182  1
  Ga  Ga17  1  0.612793  0.475595  0.298818  1
  Ga  Ga18  1  0.396866  0.204466  0.001803  1
  Ga  Ga19  1  0.603134  0.795534  0.998197  1
  Ga  Ga20  1  0.544198  0.281498  0.630107  1
  Ga  Ga21  1  0.455802  0.718502  0.369893  1
  Ga  Ga22  1  0.637350  0.933577  0.791725  1
  Ga  Ga23  1  0.362650  0.066423  0.208275  1
  Pt  Pt24  1  0.500000  0.500000  0.500000  1
  Pt  Pt25  1  0.027150  0.576352  0.369349  1
  Pt  Pt26  1  0.972850  0.423648  0.630651  1
  Pt  Pt27  1  0.139760  0.832808  0.887672  1
  Pt  Pt28  1  0.860240  0.167192  0.112328  1
  Pt  Pt29  1  0.239913  0.127982  0.392190  1
  Pt  Pt30  1  0.760087  0.872018  0.607810  1
  Pt  Pt31  1  0.345370  0.417729  0.891531  1
  Pt  Pt32  1  0.654630  0.582271  0.108469  1
  Pt  Pt33  1  0.506408  0.167884  0.819302  1
  Pt  Pt34  1  0.493592  0.832116  0.180698  1
