# generated using pymatgen
data_DyHf7Ta11TiSi16
_symmetry_space_group_name_H-M   'P 1'
_cell_length_a   6.86892180
_cell_length_b   6.87042072
_cell_length_c   12.71526405
_cell_angle_alpha   89.99692213
_cell_angle_beta   89.96961820
_cell_angle_gamma   89.98218850
_symmetry_Int_Tables_number   1
_chemical_formula_structural   DyHf7Ta11TiSi16
_chemical_formula_sum   'Dy1 Hf7 Ta11 Ti1 Si16'
_cell_volume   600.06349268
_cell_formula_units_Z   1
loop_
 _symmetry_equiv_pos_site_id
 _symmetry_equiv_pos_as_xyz
  1  'x, y, z'
loop_
 _atom_site_type_symbol
 _atom_site_label
 _atom_site_symmetry_multiplicity
 _atom_site_fract_x
 _atom_site_fract_y
 _atom_site_fract_z
 _atom_site_occupancy
  Dy  Dy0  1  0.338578  0.003368  0.468961  1
  Hf  Hf1  1  0.003115  0.659763  0.030055  1
  Hf  Hf2  1  0.995745  0.344544  0.532282  1
  Hf  Hf3  1  0.659011  0.003343  0.969293  1
  Hf  Hf4  1  0.160409  0.498432  0.781245  1
  Hf  Hf5  1  0.838441  0.502400  0.278792  1
  Hf  Hf6  1  0.499086  0.160553  0.218083  1
  Hf  Hf7  1  0.502730  0.839895  0.719962  1
  Ta  Ta8  1  0.347886  0.503210  0.375027  1
  Ta  Ta9  1  0.847226  0.994931  0.372572  1
  Ta  Ta10  1  0.002961  0.151857  0.124321  1
  Ta  Ta11  1  0.997452  0.843257  0.629357  1
  Ta  Ta12  1  0.507587  0.346290  0.625745  1
  Ta  Ta13  1  0.152216  0.003678  0.874622  1
  Ta  Ta14  1  0.672518  0.667134  0.500517  1
  Ta  Ta15  1  0.829657  0.169331  0.751455  1
  Ta  Ta16  1  0.168317  0.829219  0.248191  1
  Ta  Ta17  1  0.330013  0.330352  0.999569  1
  Ta  Ta18  1  0.495623  0.651647  0.122654  1
  Ti  Ti19  1  0.651751  0.495579  0.877481  1
  Si  Si20  1  0.042752  0.698449  0.436136  1
  Si  Si21  1  0.953993  0.302341  0.935164  1
  Si  Si22  1  0.706204  0.042295  0.564746  1
  Si  Si23  1  0.198883  0.457049  0.185263  1
  Si  Si24  1  0.797494  0.544286  0.690275  1
  Si  Si25  1  0.457399  0.202919  0.814862  1
  Si  Si26  1  0.545035  0.797667  0.311679  1
  Si  Si27  1  0.300023  0.955425  0.063149  1
  Si  Si28  1  0.792731  0.863417  0.176019  1
  Si  Si29  1  0.293736  0.631874  0.574336  1
  Si  Si30  1  0.706497  0.364324  0.071278  1
  Si  Si31  1  0.640042  0.295545  0.427177  1
  Si  Si32  1  0.367492  0.706394  0.925348  1
  Si  Si33  1  0.131764  0.210433  0.319348  1
  Si  Si34  1  0.204747  0.138019  0.680070  1
  Si  Si35  1  0.860887  0.790772  0.824968  1
