# generated using pymatgen
data_Yb4ZnOs4Ru3
_symmetry_space_group_name_H-M   'P 1'
_cell_length_a   5.29924528
_cell_length_b   5.28949083
_cell_length_c   8.83545100
_cell_angle_alpha   90.00000000
_cell_angle_beta   90.00000000
_cell_angle_gamma   121.29693648
_symmetry_Int_Tables_number   1
_chemical_formula_structural   Yb4ZnOs4Ru3
_chemical_formula_sum   'Yb4 Zn1 Os4 Ru3'
_cell_volume   211.62251569
_cell_formula_units_Z   1
loop_
 _symmetry_equiv_pos_site_id
 _symmetry_equiv_pos_as_xyz
  1  'x, y, z'
loop_
 _atom_site_type_symbol
 _atom_site_label
 _atom_site_symmetry_multiplicity
 _atom_site_fract_x
 _atom_site_fract_y
 _atom_site_fract_z
 _atom_site_occupancy
  Yb  Yb0  1  0.664516  0.331824  0.565152  1
  Yb  Yb1  1  0.333085  0.663754  0.437749  1
  Yb  Yb2  1  0.333085  0.663754  0.062251  1
  Yb  Yb3  1  0.664516  0.331824  0.934848  1
  Zn  Zn4  1  0.832488  0.175020  0.250000  1
  Os  Os5  1  0.170703  0.347775  0.750000  1
  Os  Os6  1  0.165412  0.833694  0.750000  1
  Os  Os7  1  0.654894  0.831528  0.750000  1
  Os  Os8  1  0.823219  0.668761  0.250000  1
  Ru  Ru9  1  0.003532  0.977819  0.497240  1
  Ru  Ru10  1  0.003532  0.977819  0.002760  1
  Ru  Ru11  1  0.351019  0.196429  0.250000  1
