# generated using pymatgen
data_Ta2Ga5
_symmetry_space_group_name_H-M   'P 1'
_cell_length_a   9.33246300
_cell_length_b   9.33246300
_cell_length_c   2.80708000
_cell_angle_alpha   90.00000000
_cell_angle_beta   90.00000000
_cell_angle_gamma   90.00000000
_symmetry_Int_Tables_number   1
_chemical_formula_structural   Ta2Ga5
_chemical_formula_sum   'Ta4 Ga10'
_cell_volume   244.48225546
_cell_formula_units_Z   2
loop_
 _symmetry_equiv_pos_site_id
 _symmetry_equiv_pos_as_xyz
  1  'x, y, z'
loop_
 _atom_site_type_symbol
 _atom_site_label
 _atom_site_symmetry_multiplicity
 _atom_site_fract_x
 _atom_site_fract_y
 _atom_site_fract_z
 _atom_site_occupancy
  Ta  Ta0  1  0.681312  0.181311  0.500002  1
  Ta  Ta1  1  0.181311  0.318689  0.500002  1
  Ta  Ta2  1  0.818688  0.681312  0.500002  1
  Ta  Ta3  1  0.318689  0.818688  0.500002  1
  Ga  Ga4  1  0.500000  0.000000  0.000000  1
  Ga  Ga5  1  0.210504  0.060166  0.000000  1
  Ga  Ga6  1  0.939834  0.210504  0.000000  1
  Ga  Ga7  1  0.439834  0.289496  0.000000  1
  Ga  Ga8  1  0.710504  0.439834  0.000000  1
  Ga  Ga9  1  0.000000  0.500000  0.000000  1
  Ga  Ga10  1  0.289496  0.560166  0.000000  1
  Ga  Ga11  1  0.560166  0.710504  0.000000  1
  Ga  Ga12  1  0.060166  0.789496  0.000000  1
  Ga  Ga13  1  0.789496  0.939834  0.000000  1
