# generated using pymatgen
data_Er4Mn8Co12SiP11
_symmetry_space_group_name_H-M   'P 1'
_cell_length_a   3.61096800
_cell_length_b   10.33797787
_cell_length_c   12.02485993
_cell_angle_alpha   90.04598661
_cell_angle_beta   90.00000000
_cell_angle_gamma   90.00000000
_symmetry_Int_Tables_number   1
_chemical_formula_structural   Er4Mn8Co12SiP11
_chemical_formula_sum   'Er4 Mn8 Co12 Si1 P11'
_cell_volume   448.88916638
_cell_formula_units_Z   1
loop_
 _symmetry_equiv_pos_site_id
 _symmetry_equiv_pos_as_xyz
  1  'x, y, z'
loop_
 _atom_site_type_symbol
 _atom_site_label
 _atom_site_symmetry_multiplicity
 _atom_site_fract_x
 _atom_site_fract_y
 _atom_site_fract_z
 _atom_site_occupancy
  Er  Er0  1  0.250000  0.583103  0.708208  1
  Er  Er1  1  0.250000  0.916795  0.209445  1
  Er  Er2  1  0.750000  0.417024  0.292034  1
  Er  Er3  1  0.750000  0.083712  0.791369  1
  Mn  Mn4  1  0.250000  0.714017  0.991588  1
  Mn  Mn5  1  0.250000  0.786122  0.490932  1
  Mn  Mn6  1  0.750000  0.286061  0.009078  1
  Mn  Mn7  1  0.750000  0.213746  0.509488  1
  Mn  Mn8  1  0.250000  0.407057  0.491459  1
  Mn  Mn9  1  0.250000  0.093348  0.991353  1
  Mn  Mn10  1  0.750000  0.593061  0.508932  1
  Mn  Mn11  1  0.750000  0.906998  0.008975  1
  Co  Co12  1  0.250000  0.215389  0.179051  1
  Co  Co13  1  0.250000  0.277937  0.676713  1
  Co  Co14  1  0.750000  0.778761  0.822647  1
  Co  Co15  1  0.750000  0.721987  0.324147  1
  Co  Co16  1  0.250000  0.883255  0.696080  1
  Co  Co17  1  0.250000  0.619802  0.196902  1
  Co  Co18  1  0.750000  0.115623  0.305432  1
  Co  Co19  1  0.750000  0.382242  0.802620  1
  Co  Co20  1  0.250000  0.467820  0.928991  1
  Co  Co21  1  0.250000  0.034125  0.434430  1
  Co  Co22  1  0.750000  0.538223  0.063831  1
  Co  Co23  1  0.750000  0.965774  0.566979  1
  Si  Si24  1  0.250000  0.416803  0.109733  1
  P  P25  1  0.250000  0.080829  0.612312  1
  P  P26  1  0.750000  0.580956  0.886781  1
  P  P27  1  0.750000  0.918881  0.388886  1
  P  P28  1  0.250000  0.269293  0.867609  1
  P  P29  1  0.250000  0.231127  0.367512  1
  P  P30  1  0.750000  0.731552  0.133635  1
  P  P31  1  0.750000  0.768671  0.632761  1
  P  P32  1  0.250000  0.598507  0.383011  1
  P  P33  1  0.250000  0.901698  0.882945  1
  P  P34  1  0.750000  0.401192  0.616623  1
  P  P35  1  0.750000  0.098511  0.117508  1
