# generated using pymatgen
data_KAl2Au3
_symmetry_space_group_name_H-M   'P 1'
_cell_length_a   5.62411329
_cell_length_b   7.11253742
_cell_length_c   13.42460800
_cell_angle_alpha   90.00000000
_cell_angle_beta   90.00000000
_cell_angle_gamma   89.98225412
_symmetry_Int_Tables_number   1
_chemical_formula_structural   KAl2Au3
_chemical_formula_sum   'K4 Al8 Au12'
_cell_volume   537.00733432
_cell_formula_units_Z   4
loop_
 _symmetry_equiv_pos_site_id
 _symmetry_equiv_pos_as_xyz
  1  'x, y, z'
loop_
 _atom_site_type_symbol
 _atom_site_label
 _atom_site_symmetry_multiplicity
 _atom_site_fract_x
 _atom_site_fract_y
 _atom_site_fract_z
 _atom_site_occupancy
  K  K0  1  0.248665  0.106882  0.075826  1
  K  K1  1  0.251335  0.393118  0.575826  1
  K  K2  1  0.749660  0.892974  0.924157  1
  K  K3  1  0.750340  0.607026  0.424157  1
  Al  Al4  1  0.998852  0.900782  0.656439  1
  Al  Al5  1  0.501148  0.599218  0.156439  1
  Al  Al6  1  0.498011  0.100564  0.344062  1
  Al  Al7  1  0.001989  0.399436  0.844062  1
  Al  Al8  1  0.999788  0.099414  0.343462  1
  Al  Al9  1  0.500212  0.400586  0.843462  1
  Al  Al10  1  0.500774  0.898756  0.655506  1
  Al  Al11  1  0.999226  0.601244  0.155506  1
  Au  Au12  1  0.251298  0.112958  0.788748  1
  Au  Au13  1  0.248702  0.387042  0.288748  1
  Au  Au14  1  0.748933  0.887288  0.211483  1
  Au  Au15  1  0.751067  0.612712  0.711483  1
  Au  Au16  1  0.250100  0.698795  0.788416  1
  Au  Au17  1  0.249900  0.801205  0.288416  1
  Au  Au18  1  0.750527  0.301323  0.211932  1
  Au  Au19  1  0.749473  0.198677  0.711932  1
  Au  Au20  1  0.252578  0.580446  0.994749  1
  Au  Au21  1  0.247422  0.919554  0.494749  1
  Au  Au22  1  0.751572  0.417773  0.005223  1
  Au  Au23  1  0.748428  0.082227  0.505223  1
