# generated using pymatgen
data_Ca2Pr8GaSn5
_symmetry_space_group_name_H-M   'P 1'
_cell_length_a   8.26094300
_cell_length_b   8.25914236
_cell_length_c   14.62011500
_cell_angle_alpha   89.98317022
_cell_angle_beta   90.00000000
_cell_angle_gamma   90.00000000
_symmetry_Int_Tables_number   1
_chemical_formula_structural   Ca2Pr8GaSn5
_chemical_formula_sum   'Ca4 Pr16 Ga2 Sn10'
_cell_volume   997.50561113
_cell_formula_units_Z   2
loop_
 _symmetry_equiv_pos_site_id
 _symmetry_equiv_pos_as_xyz
  1  'x, y, z'
loop_
 _atom_site_type_symbol
 _atom_site_label
 _atom_site_symmetry_multiplicity
 _atom_site_fract_x
 _atom_site_fract_y
 _atom_site_fract_z
 _atom_site_occupancy
  Ca  Ca0  1  0.998747  0.496458  0.745922  1
  Ca  Ca1  1  0.001253  0.496458  0.245922  1
  Ca  Ca2  1  0.496830  0.000691  0.254038  1
  Ca  Ca3  1  0.503170  0.000691  0.754038  1
  Pr  Pr4  1  0.830054  0.839769  0.601776  1
  Pr  Pr5  1  0.169946  0.839769  0.101776  1
  Pr  Pr6  1  0.167575  0.835889  0.398543  1
  Pr  Pr7  1  0.839038  0.170537  0.398404  1
  Pr  Pr8  1  0.672218  0.667610  0.399730  1
  Pr  Pr9  1  0.672895  0.321452  0.603917  1
  Pr  Pr10  1  0.330360  0.670631  0.600608  1
  Pr  Pr11  1  0.669640  0.670631  0.100608  1
  Pr  Pr12  1  0.676829  0.325072  0.895854  1
  Pr  Pr13  1  0.832425  0.835889  0.898543  1
  Pr  Pr14  1  0.323171  0.325072  0.395854  1
  Pr  Pr15  1  0.165133  0.168326  0.601337  1
  Pr  Pr16  1  0.834867  0.168326  0.101337  1
  Pr  Pr17  1  0.327782  0.667610  0.899730  1
  Pr  Pr18  1  0.327105  0.321452  0.103917  1
  Pr  Pr19  1  0.160962  0.170537  0.898404  1
  Ga  Ga20  1  0.874927  0.125288  0.750027  1
  Ga  Ga21  1  0.125073  0.125288  0.250027  1
  Sn  Sn22  1  0.628321  0.371635  0.250097  1
  Sn  Sn23  1  0.124041  0.875991  0.749999  1
  Sn  Sn24  1  0.371679  0.371635  0.750097  1
  Sn  Sn25  1  0.371376  0.628412  0.249931  1
  Sn  Sn26  1  0.875959  0.875991  0.249999  1
  Sn  Sn27  1  0.628624  0.628412  0.749931  1
  Sn  Sn28  1  0.999680  0.501926  0.501349  1
  Sn  Sn29  1  0.500099  0.000314  0.498465  1
  Sn  Sn30  1  0.499901  0.000314  0.998465  1
  Sn  Sn31  1  0.000320  0.501926  0.001349  1
