# generated using pymatgen
data_TbY2InSi2Ag3
_symmetry_space_group_name_H-M   'P 1'
_cell_length_a   7.25494619
_cell_length_b   7.25205797
_cell_length_c   4.24857800
_cell_angle_alpha   90.00000000
_cell_angle_beta   90.00000000
_cell_angle_gamma   119.98682592
_symmetry_Int_Tables_number   1
_chemical_formula_structural   TbY2InSi2Ag3
_chemical_formula_sum   'Tb1 Y2 In1 Si2 Ag3'
_cell_volume   193.60979625
_cell_formula_units_Z   1
loop_
 _symmetry_equiv_pos_site_id
 _symmetry_equiv_pos_as_xyz
  1  'x, y, z'
loop_
 _atom_site_type_symbol
 _atom_site_label
 _atom_site_symmetry_multiplicity
 _atom_site_fract_x
 _atom_site_fract_y
 _atom_site_fract_z
 _atom_site_occupancy
  Tb  Tb0  1  0.000000  0.431795  0.500000  1
  Y  Y1  1  0.568173  0.568219  0.500000  1
  Y  Y2  1  0.431827  0.000046  0.500000  1
  In  In3  1  0.000000  0.999979  0.500000  1
  Si  Si4  1  0.333412  0.666682  0.000000  1
  Si  Si5  1  0.666588  0.333269  0.000000  1
  Ag  Ag6  1  0.000000  0.736412  0.000000  1
  Ag  Ag7  1  0.263637  0.263618  0.000000  1
  Ag  Ag8  1  0.736363  0.999981  0.000000  1
