# generated using pymatgen
data_Tb3Lu5(AgRh)2
_symmetry_space_group_name_H-M   'P 1'
_cell_length_a   9.44288654
_cell_length_b   9.47907474
_cell_length_c   9.41408165
_cell_angle_alpha   59.69355574
_cell_angle_beta   59.77624771
_cell_angle_gamma   59.86575691
_symmetry_Int_Tables_number   1
_chemical_formula_structural   Tb3Lu5(AgRh)2
_chemical_formula_sum   'Tb6 Lu10 Ag4 Rh4'
_cell_volume   592.84664709
_cell_formula_units_Z   2
loop_
 _symmetry_equiv_pos_site_id
 _symmetry_equiv_pos_as_xyz
  1  'x, y, z'
loop_
 _atom_site_type_symbol
 _atom_site_label
 _atom_site_symmetry_multiplicity
 _atom_site_fract_x
 _atom_site_fract_y
 _atom_site_fract_z
 _atom_site_occupancy
  Tb  Tb0  1  0.434388  0.067164  0.068070  1
  Tb  Tb1  1  0.438004  0.062853  0.438120  1
  Tb  Tb2  1  0.065562  0.433653  0.069024  1
  Tb  Tb3  1  0.649293  0.648667  0.055470  1
  Tb  Tb4  1  0.186032  0.814503  0.187260  1
  Tb  Tb5  1  0.066330  0.433516  0.437816  1
  Lu  Lu6  1  0.817009  0.816463  0.183397  1
  Lu  Lu7  1  0.814659  0.186040  0.813803  1
  Lu  Lu8  1  0.185186  0.185567  0.815303  1
  Lu  Lu9  1  0.644124  0.065094  0.647810  1
  Lu  Lu10  1  0.059386  0.060549  0.444388  1
  Lu  Lu11  1  0.439234  0.436489  0.061070  1
  Lu  Lu12  1  0.646185  0.642128  0.643310  1
  Lu  Lu13  1  0.814088  0.186061  0.186785  1
  Lu  Lu14  1  0.187567  0.813151  0.812134  1
  Lu  Lu15  1  0.057846  0.645495  0.649744  1
  Ag  Ag16  1  0.418507  0.418102  0.418016  1
  Ag  Ag17  1  0.415798  0.418143  0.745848  1
  Ag  Ag18  1  0.413931  0.745036  0.420391  1
  Ag  Ag19  1  0.745872  0.413772  0.420102  1
  Rh  Rh20  1  0.855304  0.429694  0.852618  1
  Rh  Rh21  1  0.861554  0.863062  0.846336  1
  Rh  Rh22  1  0.850130  0.858347  0.436730  1
  Rh  Rh23  1  0.434011  0.856451  0.846453  1
