# generated using pymatgen
data_Tb5Er11MgAg3PtRh3
_symmetry_space_group_name_H-M   'P 1'
_cell_length_a   9.55707377
_cell_length_b   9.54959176
_cell_length_c   9.54959200
_cell_angle_alpha   59.85887254
_cell_angle_beta   59.79383831
_cell_angle_gamma   59.79382968
_symmetry_Int_Tables_number   1
_chemical_formula_structural   Tb5Er11MgAg3PtRh3
_chemical_formula_sum   'Tb5 Er11 Mg1 Ag3 Pt1 Rh3'
_cell_volume   613.70084218
_cell_formula_units_Z   1
loop_
 _symmetry_equiv_pos_site_id
 _symmetry_equiv_pos_as_xyz
  1  'x, y, z'
loop_
 _atom_site_type_symbol
 _atom_site_label
 _atom_site_symmetry_multiplicity
 _atom_site_fract_x
 _atom_site_fract_y
 _atom_site_fract_z
 _atom_site_occupancy
  Tb  Tb0  1  0.563599  0.936625  0.936625  1
  Tb  Tb1  1  0.564587  0.935239  0.564216  1
  Tb  Tb2  1  0.935628  0.563599  0.934911  1
  Tb  Tb3  1  0.564587  0.564216  0.935239  1
  Tb  Tb4  1  0.935628  0.934911  0.563599  1
  Er  Er5  1  0.351240  0.349344  0.349344  1
  Er  Er6  1  0.350851  0.352024  0.951524  1
  Er  Er7  1  0.350851  0.951524  0.352024  1
  Er  Er8  1  0.934081  0.355911  0.355911  1
  Er  Er9  1  0.807136  0.188795  0.188795  1
  Er  Er10  1  0.183527  0.814521  0.814521  1
  Er  Er11  1  0.185925  0.810327  0.187366  1
  Er  Er12  1  0.810476  0.187178  0.811587  1
  Er  Er13  1  0.185925  0.187366  0.810327  1
  Er  Er14  1  0.810476  0.811587  0.187178  1
  Er  Er15  1  0.935557  0.561673  0.561673  1
  Mg  Mg16  1  0.290598  0.570618  0.570618  1
  Ag  Ag17  1  0.584251  0.583583  0.583583  1
  Ag  Ag18  1  0.583470  0.584613  0.249465  1
  Ag  Ag19  1  0.583470  0.249465  0.584613  1
  Pt  Pt20  1  0.139501  0.144679  0.144679  1
  Rh  Rh21  1  0.138558  0.148352  0.570805  1
  Rh  Rh22  1  0.138558  0.570805  0.148352  1
  Rh  Rh23  1  0.571515  0.143043  0.143043  1
