# generated using pymatgen
data_LaTh3(Al3Ir)6
_symmetry_space_group_name_H-M   'P 1'
_cell_length_a   7.67908038
_cell_length_b   7.67997087
_cell_length_c   9.55035600
_cell_angle_alpha   90.00000000
_cell_angle_beta   90.00000000
_cell_angle_gamma   119.47506092
_symmetry_Int_Tables_number   1
_chemical_formula_structural   LaTh3(Al3Ir)6
_chemical_formula_sum   'La1 Th3 Al18 Ir6'
_cell_volume   490.33401287
_cell_formula_units_Z   1
loop_
 _symmetry_equiv_pos_site_id
 _symmetry_equiv_pos_as_xyz
  1  'x, y, z'
loop_
 _atom_site_type_symbol
 _atom_site_label
 _atom_site_symmetry_multiplicity
 _atom_site_fract_x
 _atom_site_fract_y
 _atom_site_fract_z
 _atom_site_occupancy
  La  La0  1  0.329449  0.005076  0.750000  1
  Th  Th1  1  0.995596  0.671229  0.250000  1
  Th  Th2  1  0.004115  0.329520  0.750000  1
  Th  Th3  1  0.670428  0.995121  0.250000  1
  Al  Al4  1  0.133858  0.133136  0.250000  1
  Al  Al5  1  0.867052  0.868137  0.750000  1
  Al  Al6  1  0.005329  0.335588  0.074316  1
  Al  Al7  1  0.996371  0.665816  0.925639  1
  Al  Al8  1  0.996371  0.665816  0.574361  1
  Al  Al9  1  0.335403  0.004990  0.427601  1
  Al  Al10  1  0.005329  0.335588  0.425684  1
  Al  Al11  1  0.663395  0.995253  0.574375  1
  Al  Al12  1  0.663395  0.995253  0.925625  1
  Al  Al13  1  0.335403  0.004990  0.072399  1
  Al  Al14  1  0.336156  0.335446  0.549112  1
  Al  Al15  1  0.663444  0.663399  0.452862  1
  Al  Al16  1  0.663444  0.663399  0.047138  1
  Al  Al17  1  0.336156  0.335446  0.950888  1
  Al  Al18  1  0.341055  0.544378  0.250000  1
  Al  Al19  1  0.660239  0.454306  0.750000  1
  Al  Al20  1  0.544969  0.340152  0.250000  1
  Al  Al21  1  0.453848  0.658216  0.750000  1
  Ir  Ir22  1  0.674536  0.329374  0.001708  1
  Ir  Ir23  1  0.327663  0.671072  0.001831  1
  Ir  Ir24  1  0.327663  0.671072  0.498169  1
  Ir  Ir25  1  0.674536  0.329374  0.498292  1
  Ir  Ir26  1  0.997398  0.999426  0.002139  1
  Ir  Ir27  1  0.997398  0.999426  0.497861  1
