# generated using pymatgen
data_Tb11Pr5(AgIr)4
_symmetry_space_group_name_H-M   'P 1'
_cell_length_a   9.70170029
_cell_length_b   9.70138768
_cell_length_c   9.70138738
_cell_angle_alpha   59.96893962
_cell_angle_beta   59.99893333
_cell_angle_gamma   59.99893535
_symmetry_Int_Tables_number   1
_chemical_formula_structural   Tb11Pr5(AgIr)4
_chemical_formula_sum   'Tb11 Pr5 Ag4 Ir4'
_cell_volume   645.49297672
_cell_formula_units_Z   1
loop_
 _symmetry_equiv_pos_site_id
 _symmetry_equiv_pos_as_xyz
  1  'x, y, z'
loop_
 _atom_site_type_symbol
 _atom_site_label
 _atom_site_symmetry_multiplicity
 _atom_site_fract_x
 _atom_site_fract_y
 _atom_site_fract_z
 _atom_site_occupancy
  Tb  Tb0  1  0.349865  0.350624  0.350624  1
  Tb  Tb1  1  0.349221  0.351778  0.949779  1
  Tb  Tb2  1  0.349221  0.949779  0.351778  1
  Tb  Tb3  1  0.948884  0.350624  0.350624  1
  Tb  Tb4  1  0.812567  0.187433  0.187433  1
  Tb  Tb5  1  0.186489  0.813511  0.813511  1
  Tb  Tb6  1  0.186986  0.811907  0.187882  1
  Tb  Tb7  1  0.813225  0.187882  0.811907  1
  Tb  Tb8  1  0.186986  0.187882  0.811907  1
  Tb  Tb9  1  0.813225  0.811907  0.187882  1
  Tb  Tb10  1  0.942336  0.557664  0.557664  1
  Pr  Pr11  1  0.558753  0.941247  0.941247  1
  Pr  Pr12  1  0.562479  0.937663  0.559506  1
  Pr  Pr13  1  0.940352  0.559506  0.937663  1
  Pr  Pr14  1  0.562479  0.559506  0.937663  1
  Pr  Pr15  1  0.940352  0.937663  0.559506  1
  Ag  Ag16  1  0.583499  0.578608  0.578608  1
  Ag  Ag17  1  0.579107  0.579217  0.262568  1
  Ag  Ag18  1  0.579107  0.262568  0.579217  1
  Ag  Ag19  1  0.259286  0.578608  0.578608  1
  Ir  Ir20  1  0.141361  0.142417  0.142417  1
  Ir  Ir21  1  0.140207  0.146478  0.573108  1
  Ir  Ir22  1  0.140207  0.573108  0.146478  1
  Ir  Ir23  1  0.573805  0.142417  0.142417  1
