# generated using pymatgen
data_Ho5SbPbO12
_symmetry_space_group_name_H-M   'P 1'
_cell_length_a   6.51062742
_cell_length_b   6.42475611
_cell_length_c   6.49613172
_cell_angle_alpha   99.13039033
_cell_angle_beta   99.24744603
_cell_angle_gamma   98.40029423
_symmetry_Int_Tables_number   1
_chemical_formula_structural   Ho5SbPbO12
_chemical_formula_sum   'Ho5 Sb1 Pb1 O12'
_cell_volume   260.66116674
_cell_formula_units_Z   1
loop_
 _symmetry_equiv_pos_site_id
 _symmetry_equiv_pos_as_xyz
  1  'x, y, z'
loop_
 _atom_site_type_symbol
 _atom_site_label
 _atom_site_symmetry_multiplicity
 _atom_site_fract_x
 _atom_site_fract_y
 _atom_site_fract_z
 _atom_site_occupancy
  Ho  Ho0  1  0.387987  0.688442  0.857305  1
  Ho  Ho1  1  0.861934  0.392856  0.699424  1
  Ho  Ho2  1  0.305058  0.143517  0.612463  1
  Ho  Ho3  1  0.607884  0.305171  0.132156  1
  Ho  Ho4  1  0.141757  0.610036  0.308011  1
  Sb  Sb5  1  0.001872  0.998981  0.003947  1
  Pb  Pb6  1  0.684605  0.857777  0.395211  1
  O  O7  1  0.431972  0.587347  0.177259  1
  O  O8  1  0.171581  0.434476  0.585577  1
  O  O9  1  0.598497  0.170910  0.429593  1
  O  O10  1  0.564460  0.407514  0.816571  1
  O  O11  1  0.817017  0.576572  0.412024  1
  O  O12  1  0.415748  0.822175  0.570432  1
  O  O13  1  0.929226  0.041702  0.695209  1
  O  O14  1  0.955682  0.306353  0.070793  1
  O  O15  1  0.302581  0.074396  0.956490  1
  O  O16  1  0.081875  0.960781  0.305548  1
  O  O17  1  0.043473  0.694017  0.929292  1
  O  O18  1  0.696792  0.926978  0.042695  1
