# generated using pymatgen
data_Ce2Dy3Lu3(Si3Rh)4
_symmetry_space_group_name_H-M   'P 1'
_cell_length_a   8.15161800
_cell_length_b   8.15165720
_cell_length_c   7.92574000
_cell_angle_alpha   90.00000000
_cell_angle_beta   90.00000000
_cell_angle_gamma   119.99974302
_symmetry_Int_Tables_number   1
_chemical_formula_structural   Ce2Dy3Lu3(Si3Rh)4
_chemical_formula_sum   'Ce2 Dy3 Lu3 Si12 Rh4'
_cell_volume   456.10129518
_cell_formula_units_Z   1
loop_
 _symmetry_equiv_pos_site_id
 _symmetry_equiv_pos_as_xyz
  1  'x, y, z'
loop_
 _atom_site_type_symbol
 _atom_site_label
 _atom_site_symmetry_multiplicity
 _atom_site_fract_x
 _atom_site_fract_y
 _atom_site_fract_z
 _atom_site_occupancy
  Ce  Ce0  1  0.000002  0.999997  0.250000  1
  Ce  Ce1  1  0.000002  0.000000  0.750000  1
  Dy  Dy2  1  0.492726  0.507275  0.750000  1
  Dy  Dy3  1  0.492725  0.985451  0.750000  1
  Dy  Dy4  1  0.014552  0.507275  0.750000  1
  Lu  Lu5  1  0.509315  0.490690  0.250000  1
  Lu  Lu6  1  0.509311  0.018629  0.250000  1
  Lu  Lu7  1  0.981372  0.490688  0.250000  1
  Si  Si8  1  0.168139  0.831860  0.499019  1
  Si  Si9  1  0.168140  0.336279  0.499019  1
  Si  Si10  1  0.663721  0.831860  0.499019  1
  Si  Si11  1  0.833010  0.166990  0.496198  1
  Si  Si12  1  0.833011  0.666022  0.496198  1
  Si  Si13  1  0.333978  0.166989  0.496199  1
  Si  Si14  1  0.833010  0.166990  0.003802  1
  Si  Si15  1  0.833011  0.666022  0.003802  1
  Si  Si16  1  0.333978  0.166989  0.003801  1
  Si  Si17  1  0.168139  0.831860  0.000981  1
  Si  Si18  1  0.168140  0.336279  0.000981  1
  Si  Si19  1  0.663721  0.831860  0.000981  1
  Rh  Rh20  1  0.333331  0.666663  0.458545  1
  Rh  Rh21  1  0.666668  0.333334  0.520871  1
  Rh  Rh22  1  0.666668  0.333334  0.979129  1
  Rh  Rh23  1  0.333331  0.666663  0.041455  1
