# generated using pymatgen
data_Tm5GaSe4
_symmetry_space_group_name_H-M   'P 1'
_cell_length_a   7.02955820
_cell_length_b   7.02957437
_cell_length_c   7.02955770
_cell_angle_alpha   99.49169079
_cell_angle_beta   99.49148391
_cell_angle_gamma   132.08211781
_symmetry_Int_Tables_number   1
_chemical_formula_structural   Tm5GaSe4
_chemical_formula_sum   'Tm5 Ga1 Se4'
_cell_volume   235.59480032
_cell_formula_units_Z   1
loop_
 _symmetry_equiv_pos_site_id
 _symmetry_equiv_pos_as_xyz
  1  'x, y, z'
loop_
 _atom_site_type_symbol
 _atom_site_label
 _atom_site_symmetry_multiplicity
 _atom_site_fract_x
 _atom_site_fract_y
 _atom_site_fract_z
 _atom_site_occupancy
  Tm  Tm0  1  0.403049  0.791214  0.194267  1
  Tm  Tm1  1  0.000000  0.000000  0.000000  1
  Tm  Tm2  1  0.596951  0.208786  0.805733  1
  Tm  Tm3  1  0.208784  0.403051  0.611835  1
  Tm  Tm4  1  0.791216  0.596949  0.388165  1
  Ga  Ga5  1  0.500000  0.500000  0.000000  1
  Se  Se6  1  0.096299  0.695928  0.792199  1
  Se  Se7  1  0.695912  0.903716  0.599631  1
  Se  Se8  1  0.304088  0.096284  0.400369  1
  Se  Se9  1  0.903701  0.304072  0.207801  1
