# generated using pymatgen
data_DyTm3(LuPb)6
_symmetry_space_group_name_H-M   'P 1'
_cell_length_a   8.90051512
_cell_length_b   8.92266388
_cell_length_c   6.51058900
_cell_angle_alpha   90.00000000
_cell_angle_beta   90.00000000
_cell_angle_gamma   119.93690636
_symmetry_Int_Tables_number   1
_chemical_formula_structural   DyTm3(LuPb)6
_chemical_formula_sum   'Dy1 Tm3 Lu6 Pb6'
_cell_volume   448.06018016
_cell_formula_units_Z   1
loop_
 _symmetry_equiv_pos_site_id
 _symmetry_equiv_pos_as_xyz
  1  'x, y, z'
loop_
 _atom_site_type_symbol
 _atom_site_label
 _atom_site_symmetry_multiplicity
 _atom_site_fract_x
 _atom_site_fract_y
 _atom_site_fract_z
 _atom_site_occupancy
  Dy  Dy0  1  0.764698  0.999601  0.750000  1
  Tm  Tm1  1  0.234879  0.235439  0.750000  1
  Tm  Tm2  1  0.233524  0.000368  0.250000  1
  Tm  Tm3  1  0.764795  0.763697  0.250000  1
  Lu  Lu4  1  0.333976  0.667912  0.000060  1
  Lu  Lu5  1  0.666722  0.332145  0.000120  1
  Lu  Lu6  1  0.999085  0.764188  0.750000  1
  Lu  Lu7  1  0.001241  0.236462  0.250000  1
  Lu  Lu8  1  0.333976  0.667912  0.499940  1
  Lu  Lu9  1  0.666722  0.332145  0.499880  1
  Pb  Pb10  1  0.001795  0.398386  0.750000  1
  Pb  Pb11  1  0.394675  0.395128  0.250000  1
  Pb  Pb12  1  0.605490  0.000320  0.250000  1
  Pb  Pb13  1  0.604794  0.602625  0.750000  1
  Pb  Pb14  1  0.393779  0.999744  0.750000  1
  Pb  Pb15  1  0.999850  0.603929  0.250000  1
