# generated using pymatgen
data_Y3Lu7(Si5Ir2)4
_symmetry_space_group_name_H-M   'P 1'
_cell_length_a   12.57118977
_cell_length_b   12.57118977
_cell_length_c   4.22308300
_cell_angle_alpha   90.00000000
_cell_angle_beta   90.00000000
_cell_angle_gamma   89.91119766
_symmetry_Int_Tables_number   1
_chemical_formula_structural   Y3Lu7(Si5Ir2)4
_chemical_formula_sum   'Y3 Lu7 Si20 Ir8'
_cell_volume   667.39332786
_cell_formula_units_Z   1
loop_
 _symmetry_equiv_pos_site_id
 _symmetry_equiv_pos_as_xyz
  1  'x, y, z'
loop_
 _atom_site_type_symbol
 _atom_site_label
 _atom_site_symmetry_multiplicity
 _atom_site_fract_x
 _atom_site_fract_y
 _atom_site_fract_z
 _atom_site_occupancy
  Y  Y0  1  0.115894  0.615894  0.500000  1
  Y  Y1  1  0.384022  0.115933  0.500000  1
  Y  Y2  1  0.615933  0.884022  0.500000  1
  Lu  Lu3  1  0.500278  0.499892  0.000000  1
  Lu  Lu4  1  0.999892  0.000278  0.000000  1
  Lu  Lu5  1  0.676147  0.176147  0.500000  1
  Lu  Lu6  1  0.324003  0.824003  0.500000  1
  Lu  Lu7  1  0.175507  0.324305  0.500000  1
  Lu  Lu8  1  0.824305  0.675507  0.500000  1
  Lu  Lu9  1  0.883619  0.383619  0.500000  1
  Si  Si10  1  0.566279  0.066279  0.000000  1
  Si  Si11  1  0.433794  0.933794  0.000000  1
  Si  Si12  1  0.065858  0.434029  0.000000  1
  Si  Si13  1  0.934029  0.565858  0.000000  1
  Si  Si14  1  0.663718  0.700396  0.000000  1
  Si  Si15  1  0.336503  0.299121  0.000000  1
  Si  Si16  1  0.163311  0.799084  0.000000  1
  Si  Si17  1  0.836308  0.201329  0.000000  1
  Si  Si18  1  0.299084  0.663311  0.000000  1
  Si  Si19  1  0.701329  0.336308  0.000000  1
  Si  Si20  1  0.200396  0.163718  0.000000  1
  Si  Si21  1  0.799121  0.836503  0.000000  1
  Si  Si22  1  0.654977  0.503123  0.500000  1
  Si  Si23  1  0.345494  0.496565  0.500000  1
  Si  Si24  1  0.154464  0.996899  0.500000  1
  Si  Si25  1  0.845462  0.003630  0.500000  1
  Si  Si26  1  0.496899  0.654464  0.500000  1
  Si  Si27  1  0.503630  0.345462  0.500000  1
  Si  Si28  1  0.003123  0.154977  0.500000  1
  Si  Si29  1  0.996565  0.845494  0.500000  1
  Ir  Ir30  1  0.746290  0.520667  0.000000  1
  Ir  Ir31  1  0.255055  0.477915  0.000000  1
  Ir  Ir32  1  0.244636  0.978207  0.000000  1
  Ir  Ir33  1  0.755337  0.021948  0.000000  1
  Ir  Ir34  1  0.478207  0.744636  0.000000  1
  Ir  Ir35  1  0.521948  0.255337  0.000000  1
  Ir  Ir36  1  0.020667  0.246290  0.000000  1
  Ir  Ir37  1  0.977915  0.755055  0.000000  1
