# generated using pymatgen
data_Rb2MnH9
_symmetry_space_group_name_H-M   'P 1'
_cell_length_a   9.68433000
_cell_length_b   9.68432881
_cell_length_c   5.62247800
_cell_angle_alpha   90.00000000
_cell_angle_beta   90.00000000
_cell_angle_gamma   119.99999724
_symmetry_Int_Tables_number   1
_chemical_formula_structural   Rb2MnH9
_chemical_formula_sum   'Rb6 Mn3 H27'
_cell_volume   456.66477654
_cell_formula_units_Z   3
loop_
 _symmetry_equiv_pos_site_id
 _symmetry_equiv_pos_as_xyz
  1  'x, y, z'
loop_
 _atom_site_type_symbol
 _atom_site_label
 _atom_site_symmetry_multiplicity
 _atom_site_fract_x
 _atom_site_fract_y
 _atom_site_fract_z
 _atom_site_occupancy
  Rb  Rb0  1  0.261643  0.000000  0.500000  1
  Rb  Rb1  1  0.000000  0.261643  0.500000  1
  Rb  Rb2  1  0.738357  0.738357  0.500000  1
  Rb  Rb3  1  0.591077  0.000000  0.000000  1
  Rb  Rb4  1  0.000000  0.591077  0.000000  1
  Rb  Rb5  1  0.408923  0.408923  0.000000  1
  Mn  Mn6  1  0.000000  0.000000  0.000000  1
  Mn  Mn7  1  0.333333  0.666667  0.500000  1
  Mn  Mn8  1  0.666667  0.333333  0.500000  1
  H  H9  1  0.884696  0.000000  0.191011  1
  H  H10  1  0.000000  0.884696  0.191011  1
  H  H11  1  0.884696  0.000000  0.808989  1
  H  H12  1  0.000000  0.884696  0.808989  1
  H  H13  1  0.115304  0.115304  0.191011  1
  H  H14  1  0.115304  0.115304  0.808989  1
  H  H15  1  0.158471  0.000000  0.000000  1
  H  H16  1  0.000000  0.158471  0.000000  1
  H  H17  1  0.841529  0.841529  0.000000  1
  H  H18  1  0.235294  0.544864  0.300787  1
  H  H19  1  0.455136  0.690430  0.300787  1
  H  H20  1  0.235294  0.544864  0.699213  1
  H  H21  1  0.544864  0.235294  0.699213  1
  H  H22  1  0.309570  0.764706  0.300787  1
  H  H23  1  0.455136  0.690430  0.699213  1
  H  H24  1  0.690430  0.455136  0.699213  1
  H  H25  1  0.544864  0.235294  0.300787  1
  H  H26  1  0.309570  0.764706  0.699213  1
  H  H27  1  0.690430  0.455136  0.300787  1
  H  H28  1  0.764706  0.309570  0.699213  1
  H  H29  1  0.764706  0.309570  0.300787  1
  H  H30  1  0.365974  0.526595  0.500000  1
  H  H31  1  0.473405  0.839378  0.500000  1
  H  H32  1  0.526595  0.365974  0.500000  1
  H  H33  1  0.160622  0.634026  0.500000  1
  H  H34  1  0.839378  0.473405  0.500000  1
  H  H35  1  0.634026  0.160622  0.500000  1
