# generated using pymatgen
data_Y2In(PIr2)6
_symmetry_space_group_name_H-M   'P 1'
_cell_length_a   9.72507600
_cell_length_b   9.72507675
_cell_length_c   4.00405600
_cell_angle_alpha   90.00000000
_cell_angle_beta   90.00000000
_cell_angle_gamma   120.00000019
_symmetry_Int_Tables_number   1
_chemical_formula_structural   Y2In(PIr2)6
_chemical_formula_sum   'Y2 In1 P6 Ir12'
_cell_volume   327.95693195
_cell_formula_units_Z   1
loop_
 _symmetry_equiv_pos_site_id
 _symmetry_equiv_pos_as_xyz
  1  'x, y, z'
loop_
 _atom_site_type_symbol
 _atom_site_label
 _atom_site_symmetry_multiplicity
 _atom_site_fract_x
 _atom_site_fract_y
 _atom_site_fract_z
 _atom_site_occupancy
  Y  Y0  1  0.333333  0.666667  0.767715  1
  Y  Y1  1  0.000000  0.000000  0.237787  1
  In  In2  1  0.666667  0.333333  0.539359  1
  P  P3  1  0.948198  0.209046  0.735691  1
  P  P4  1  0.790954  0.739151  0.735691  1
  P  P5  1  0.260849  0.051802  0.735691  1
  P  P6  1  0.387128  0.457590  0.270092  1
  P  P7  1  0.542410  0.929537  0.270092  1
  P  P8  1  0.070463  0.612872  0.270092  1
  Ir  Ir9  1  0.735381  0.943920  0.746875  1
  Ir  Ir10  1  0.056080  0.791461  0.746875  1
  Ir  Ir11  1  0.208539  0.264619  0.746875  1
  Ir  Ir12  1  0.599198  0.726140  0.260257  1
  Ir  Ir13  1  0.273860  0.873059  0.260257  1
  Ir  Ir14  1  0.126941  0.400802  0.260257  1
  Ir  Ir15  1  0.963672  0.460108  0.777396  1
  Ir  Ir16  1  0.539892  0.503564  0.777396  1
  Ir  Ir17  1  0.496436  0.036328  0.777396  1
  Ir  Ir18  1  0.374779  0.206455  0.229463  1
  Ir  Ir19  1  0.793545  0.168323  0.229463  1
  Ir  Ir20  1  0.831677  0.625221  0.229463  1
