# generated using pymatgen
data_Hf5Zr5Zn2Sn5Sb
_symmetry_space_group_name_H-M   'P 1'
_cell_length_a   8.66537404
_cell_length_b   8.66938375
_cell_length_c   5.86180300
_cell_angle_alpha   90.00000000
_cell_angle_beta   90.00000000
_cell_angle_gamma   119.99632757
_symmetry_Int_Tables_number   1
_chemical_formula_structural   Hf5Zr5Zn2Sn5Sb
_chemical_formula_sum   'Hf5 Zr5 Zn2 Sn5 Sb1'
_cell_volume   381.37609024
_cell_formula_units_Z   1
loop_
 _symmetry_equiv_pos_site_id
 _symmetry_equiv_pos_as_xyz
  1  'x, y, z'
loop_
 _atom_site_type_symbol
 _atom_site_label
 _atom_site_symmetry_multiplicity
 _atom_site_fract_x
 _atom_site_fract_y
 _atom_site_fract_z
 _atom_site_occupancy
  Hf  Hf0  1  0.268613  0.268472  0.750000  1
  Hf  Hf1  1  0.333749  0.666909  0.500392  1
  Hf  Hf2  1  0.666280  0.332676  0.999545  1
  Hf  Hf3  1  0.666280  0.332676  0.500455  1
  Hf  Hf4  1  0.333749  0.666909  0.999608  1
  Zr  Zr5  1  0.731538  0.732739  0.250000  1
  Zr  Zr6  1  0.731057  0.999831  0.750000  1
  Zr  Zr7  1  0.999183  0.267253  0.250000  1
  Zr  Zr8  1  0.999994  0.731616  0.750000  1
  Zr  Zr9  1  0.269149  0.000365  0.250000  1
  Zn  Zn10  1  0.001453  0.000582  0.998546  1
  Zn  Zn11  1  0.001453  0.000582  0.501454  1
  Sn  Sn12  1  0.383920  0.000504  0.750000  1
  Sn  Sn13  1  0.385064  0.385421  0.250000  1
  Sn  Sn14  1  0.999723  0.614691  0.250000  1
  Sn  Sn15  1  0.000909  0.385619  0.750000  1
  Sn  Sn16  1  0.613829  0.613236  0.750000  1
  Sb  Sb17  1  0.614059  0.999923  0.250000  1
