# generated using pymatgen
data_Tb20Bi8Os3Ru
_symmetry_space_group_name_H-M   'P 1'
_cell_length_a   8.02404303
_cell_length_b   9.06011000
_cell_length_c   12.53022431
_cell_angle_alpha   90.00000000
_cell_angle_beta   89.93260758
_cell_angle_gamma   90.00000000
_symmetry_Int_Tables_number   1
_chemical_formula_structural   Tb20Bi8Os3Ru
_chemical_formula_sum   'Tb20 Bi8 Os3 Ru1'
_cell_volume   910.93054395
_cell_formula_units_Z   1
loop_
 _symmetry_equiv_pos_site_id
 _symmetry_equiv_pos_as_xyz
  1  'x, y, z'
loop_
 _atom_site_type_symbol
 _atom_site_label
 _atom_site_symmetry_multiplicity
 _atom_site_fract_x
 _atom_site_fract_y
 _atom_site_fract_z
 _atom_site_occupancy
  Tb  Tb0  1  0.842701  0.750000  0.792419  1
  Tb  Tb1  1  0.157308  0.250000  0.208020  1
  Tb  Tb2  1  0.342405  0.250000  0.707416  1
  Tb  Tb3  1  0.657259  0.750000  0.293109  1
  Tb  Tb4  1  0.376938  0.750000  0.692332  1
  Tb  Tb5  1  0.624324  0.250000  0.306216  1
  Tb  Tb6  1  0.876170  0.250000  0.806088  1
  Tb  Tb7  1  0.124006  0.750000  0.194061  1
  Tb  Tb8  1  0.946186  0.750000  0.504393  1
  Tb  Tb9  1  0.056047  0.250000  0.495932  1
  Tb  Tb10  1  0.442744  0.250000  0.995934  1
  Tb  Tb11  1  0.556635  0.750000  0.004336  1
  Tb  Tb12  1  0.675538  0.042263  0.563761  1
  Tb  Tb13  1  0.323788  0.958900  0.436156  1
  Tb  Tb14  1  0.175508  0.957960  0.936107  1
  Tb  Tb15  1  0.323788  0.541100  0.436156  1
  Tb  Tb16  1  0.824772  0.041848  0.063746  1
  Tb  Tb17  1  0.675538  0.457737  0.563761  1
  Tb  Tb18  1  0.824772  0.458152  0.063746  1
  Tb  Tb19  1  0.175508  0.542040  0.936107  1
  Bi  Bi20  1  0.569899  0.493146  0.827491  1
  Bi  Bi21  1  0.429579  0.507234  0.172422  1
  Bi  Bi22  1  0.070699  0.507201  0.672179  1
  Bi  Bi23  1  0.429579  0.992766  0.172422  1
  Bi  Bi24  1  0.929126  0.493074  0.328009  1
  Bi  Bi25  1  0.569899  0.006854  0.827491  1
  Bi  Bi26  1  0.929126  0.006926  0.328009  1
  Bi  Bi27  1  0.070699  0.992799  0.672179  1
  Os  Os28  1  0.424890  0.250000  0.488430  1
  Os  Os29  1  0.075381  0.250000  0.988885  1
  Os  Os30  1  0.924589  0.750000  0.011431  1
  Ru  Ru31  1  0.574597  0.750000  0.511257  1
