# generated using pymatgen
data_La2Nd3Ge5P7Ir19
_symmetry_space_group_name_H-M   'P 1'
_cell_length_a   13.01777522
_cell_length_b   12.89816334
_cell_length_c   4.04487400
_cell_angle_alpha   90.00000000
_cell_angle_beta   90.00000000
_cell_angle_gamma   119.37194640
_symmetry_Int_Tables_number   1
_chemical_formula_structural   La2Nd3Ge5P7Ir19
_chemical_formula_sum   'La2 Nd3 Ge5 P7 Ir19'
_cell_volume   591.85338980
_cell_formula_units_Z   1
loop_
 _symmetry_equiv_pos_site_id
 _symmetry_equiv_pos_as_xyz
  1  'x, y, z'
loop_
 _atom_site_type_symbol
 _atom_site_label
 _atom_site_symmetry_multiplicity
 _atom_site_fract_x
 _atom_site_fract_y
 _atom_site_fract_z
 _atom_site_occupancy
  La  La0  1  0.182220  0.186567  0.500000  1
  La  La1  1  0.818194  0.003412  0.500000  1
  Nd  Nd2  1  0.000116  0.813665  0.500000  1
  Nd  Nd3  1  0.339129  0.669902  0.000000  1
  Nd  Nd4  1  0.661790  0.329648  0.000000  1
  Ge  Ge5  1  0.521943  0.678742  0.500000  1
  Ge  Ge6  1  0.317394  0.836884  0.500000  1
  Ge  Ge7  1  0.169629  0.488472  0.500000  1
  Ge  Ge8  1  0.478801  0.158258  0.500000  1
  Ge  Ge9  1  0.683223  0.516774  0.500000  1
  P  P10  1  0.000122  0.186100  0.000000  1
  P  P11  1  0.823256  0.818926  0.000000  1
  P  P12  1  0.177443  0.000475  0.000000  1
  P  P13  1  0.823443  0.307297  0.500000  1
  P  P14  1  0.003628  0.639290  0.000000  1
  P  P15  1  0.363857  0.363443  0.000000  1
  P  P16  1  0.635256  0.997651  0.000000  1
  Ir  Ir17  1  0.995063  0.286736  0.500000  1
  Ir  Ir18  1  0.731563  0.727579  0.500000  1
  Ir  Ir19  1  0.269179  0.000265  0.500000  1
  Ir  Ir20  1  0.634272  0.810893  0.000000  1
  Ir  Ir21  1  0.189424  0.821983  0.000000  1
  Ir  Ir22  1  0.178082  0.371399  0.000000  1
  Ir  Ir23  1  0.366518  0.178792  0.000000  1
  Ir  Ir24  1  0.815788  0.628037  0.000000  1
  Ir  Ir25  1  0.823647  0.206454  0.000000  1
  Ir  Ir26  1  0.519279  0.873119  0.500000  1
  Ir  Ir27  1  0.118326  0.644388  0.500000  1
  Ir  Ir28  1  0.355781  0.476409  0.500000  1
  Ir  Ir29  1  0.481375  0.354106  0.500000  1
  Ir  Ir30  1  0.870909  0.502036  0.500000  1
  Ir  Ir31  1  0.647892  0.122757  0.500000  1
  Ir  Ir32  1  0.998548  0.002601  0.000000  1
  Ir  Ir33  1  0.004214  0.459460  0.000000  1
  Ir  Ir34  1  0.541864  0.539411  0.000000  1
  Ir  Ir35  1  0.458831  0.998068  0.000000  1
