# generated using pymatgen
data_Zr4ZnCoN
_symmetry_space_group_name_H-M   'P 1'
_cell_length_a   8.75138858
_cell_length_b   8.75138929
_cell_length_c   8.75139000
_cell_angle_alpha   60.00000488
_cell_angle_beta   60.00000221
_cell_angle_gamma   60.00000633
_symmetry_Int_Tables_number   1
_chemical_formula_structural   Zr4ZnCoN
_chemical_formula_sum   'Zr16 Zn4 Co4 N4'
_cell_volume   473.93202436
_cell_formula_units_Z   4
loop_
 _symmetry_equiv_pos_site_id
 _symmetry_equiv_pos_as_xyz
  1  'x, y, z'
loop_
 _atom_site_type_symbol
 _atom_site_label
 _atom_site_symmetry_multiplicity
 _atom_site_fract_x
 _atom_site_fract_y
 _atom_site_fract_z
 _atom_site_occupancy
  Zr  Zr0  1  0.072538  0.642487  0.642487  1
  Zr  Zr1  1  0.642487  0.072538  0.642487  1
  Zr  Zr2  1  0.642487  0.642487  0.072538  1
  Zr  Zr3  1  0.642487  0.642487  0.642487  1
  Zr  Zr4  1  0.817171  0.817171  0.182829  1
  Zr  Zr5  1  0.182829  0.182829  0.817171  1
  Zr  Zr6  1  0.817171  0.182829  0.817171  1
  Zr  Zr7  1  0.182829  0.817171  0.182829  1
  Zr  Zr8  1  0.182829  0.817171  0.817171  1
  Zr  Zr9  1  0.817171  0.182829  0.182829  1
  Zr  Zr10  1  0.430460  0.430460  0.069540  1
  Zr  Zr11  1  0.069540  0.069540  0.430460  1
  Zr  Zr12  1  0.430460  0.069540  0.430460  1
  Zr  Zr13  1  0.069540  0.430460  0.069540  1
  Zr  Zr14  1  0.069540  0.430460  0.430460  1
  Zr  Zr15  1  0.430460  0.069540  0.069540  1
  Zn  Zn16  1  0.740283  0.419905  0.419905  1
  Zn  Zn17  1  0.419905  0.740283  0.419905  1
  Zn  Zn18  1  0.419905  0.419905  0.740283  1
  Zn  Zn19  1  0.419905  0.419905  0.419905  1
  Co  Co20  1  0.444733  0.851756  0.851756  1
  Co  Co21  1  0.851756  0.444733  0.851756  1
  Co  Co22  1  0.851756  0.851756  0.444733  1
  Co  Co23  1  0.851756  0.851756  0.851756  1
  N  N24  1  0.623225  0.125592  0.125592  1
  N  N25  1  0.125592  0.623225  0.125592  1
  N  N26  1  0.125592  0.125592  0.623225  1
  N  N27  1  0.125592  0.125592  0.125592  1
