# generated using pymatgen
data_Li3Hf2SnRh6
_symmetry_space_group_name_H-M   'P 1'
_cell_length_a   4.39801700
_cell_length_b   6.23451900
_cell_length_c   13.21563400
_cell_angle_alpha   90.00000000
_cell_angle_beta   89.99961383
_cell_angle_gamma   90.00000000
_symmetry_Int_Tables_number   1
_chemical_formula_structural   Li3Hf2SnRh6
_chemical_formula_sum   'Li6 Hf4 Sn2 Rh12'
_cell_volume   362.36634802
_cell_formula_units_Z   2
loop_
 _symmetry_equiv_pos_site_id
 _symmetry_equiv_pos_as_xyz
  1  'x, y, z'
loop_
 _atom_site_type_symbol
 _atom_site_label
 _atom_site_symmetry_multiplicity
 _atom_site_fract_x
 _atom_site_fract_y
 _atom_site_fract_z
 _atom_site_occupancy
  Li  Li0  1  0.999963  0.000000  0.999632  1
  Li  Li1  1  0.499874  0.499999  0.165723  1
  Li  Li2  1  0.999871  0.000000  0.334275  1
  Li  Li3  1  0.499961  0.499999  0.500363  1
  Li  Li4  1  0.000130  0.000000  0.669135  1
  Li  Li5  1  0.500147  0.499999  0.830864  1
  Hf  Hf6  1  0.000005  0.499999  0.999564  1
  Hf  Hf7  1  0.499829  0.000000  0.165432  1
  Hf  Hf8  1  0.999827  0.499999  0.334584  1
  Hf  Hf9  1  0.500009  0.000000  0.500427  1
  Sn  Sn10  1  0.000165  0.499999  0.669810  1
  Sn  Sn11  1  0.500195  0.000000  0.830197  1
  Rh  Rh12  1  0.499988  0.247598  0.999361  1
  Rh  Rh13  1  0.499988  0.752402  0.999361  1
  Rh  Rh14  1  0.999881  0.250744  0.167131  1
  Rh  Rh15  1  0.999881  0.749254  0.167131  1
  Rh  Rh16  1  0.499881  0.249251  0.332896  1
  Rh  Rh17  1  0.499881  0.750749  0.332896  1
  Rh  Rh18  1  0.999988  0.252420  0.500624  1
  Rh  Rh19  1  0.999988  0.747580  0.500624  1
  Rh  Rh20  1  0.500130  0.248690  0.663837  1
  Rh  Rh21  1  0.500130  0.751310  0.663837  1
  Rh  Rh22  1  0.000141  0.251305  0.836149  1
  Rh  Rh23  1  0.000141  0.748693  0.836149  1
