# generated using pymatgen
data_Pr9Nd8Sm3Sn16
_symmetry_space_group_name_H-M   'P 1'
_cell_length_a   8.32004106
_cell_length_b   8.47448805
_cell_length_c   16.03296904
_cell_angle_alpha   90.00752561
_cell_angle_beta   89.99802847
_cell_angle_gamma   90.00169862
_symmetry_Int_Tables_number   1
_chemical_formula_structural   Pr9Nd8Sm3Sn16
_chemical_formula_sum   'Pr9 Nd8 Sm3 Sn16'
_cell_volume   1130.45398955
_cell_formula_units_Z   1
loop_
 _symmetry_equiv_pos_site_id
 _symmetry_equiv_pos_as_xyz
  1  'x, y, z'
loop_
 _atom_site_type_symbol
 _atom_site_label
 _atom_site_symmetry_multiplicity
 _atom_site_fract_x
 _atom_site_fract_y
 _atom_site_fract_z
 _atom_site_occupancy
  Pr  Pr0  1  0.867472  0.664762  0.879491  1
  Pr  Pr1  1  0.518630  0.319010  0.900864  1
  Pr  Pr2  1  0.018296  0.180464  0.599143  1
  Pr  Pr3  1  0.481427  0.680681  0.400535  1
  Pr  Pr4  1  0.981585  0.819253  0.099375  1
  Pr  Pr5  1  0.481427  0.680649  0.099476  1
  Pr  Pr6  1  0.981551  0.819253  0.400692  1
  Pr  Pr7  1  0.518690  0.319045  0.599125  1
  Pr  Pr8  1  0.018319  0.180415  0.900847  1
  Nd  Nd9  1  0.367645  0.835467  0.879487  1
  Nd  Nd10  1  0.867319  0.664719  0.620527  1
  Nd  Nd11  1  0.632552  0.164429  0.379263  1
  Nd  Nd12  1  0.132570  0.335509  0.121080  1
  Nd  Nd13  1  0.632524  0.164445  0.120777  1
  Nd  Nd14  1  0.132594  0.335442  0.378902  1
  Nd  Nd15  1  0.367696  0.835457  0.620501  1
  Nd  Nd16  1  0.197481  0.501649  0.749967  1
  Sm  Sm17  1  0.697880  0.998284  0.749944  1
  Sm  Sm18  1  0.801916  0.498405  0.250007  1
  Sm  Sm19  1  0.301765  0.001530  0.250006  1
  Sn  Sn20  1  0.293005  0.034770  0.043049  1
  Sn  Sn21  1  0.793035  0.465286  0.457000  1
  Sn  Sn22  1  0.706928  0.965349  0.542919  1
  Sn  Sn23  1  0.207485  0.535353  0.958261  1
  Sn  Sn24  1  0.706632  0.965788  0.957166  1
  Sn  Sn25  1  0.207030  0.535473  0.541829  1
  Sn  Sn26  1  0.292998  0.034757  0.456942  1
  Sn  Sn27  1  0.792919  0.464985  0.043246  1
  Sn  Sn28  1  0.567902  0.617232  0.749860  1
  Sn  Sn29  1  0.065879  0.884887  0.749873  1
  Sn  Sn30  1  0.433983  0.383275  0.250000  1
  Sn  Sn31  1  0.933759  0.116679  0.249995  1
  Sn  Sn32  1  0.324285  0.141704  0.749988  1
  Sn  Sn33  1  0.822054  0.355275  0.749869  1
  Sn  Sn34  1  0.676496  0.856513  0.249996  1
  Sn  Sn35  1  0.176271  0.643803  0.249996  1
