# generated using pymatgen
data_Er3Tm2(OsO6)2
_symmetry_space_group_name_H-M   'P 1'
_cell_length_a   6.80855239
_cell_length_b   6.80855261
_cell_length_c   7.40959738
_cell_angle_alpha   74.02791238
_cell_angle_beta   74.02791377
_cell_angle_gamma   48.79860456
_symmetry_Int_Tables_number   1
_chemical_formula_structural   Er3Tm2(OsO6)2
_chemical_formula_sum   'Er3 Tm2 Os2 O12'
_cell_volume   246.35601499
_cell_formula_units_Z   1
loop_
 _symmetry_equiv_pos_site_id
 _symmetry_equiv_pos_as_xyz
  1  'x, y, z'
loop_
 _atom_site_type_symbol
 _atom_site_label
 _atom_site_symmetry_multiplicity
 _atom_site_fract_x
 _atom_site_fract_y
 _atom_site_fract_z
 _atom_site_occupancy
  Er  Er0  1  0.800313  0.800313  0.359144  1
  Er  Er1  1  0.199679  0.199679  0.641564  1
  Er  Er2  1  0.187753  0.187753  0.172734  1
  Tm  Tm3  1  0.812254  0.812254  0.826989  1
  Tm  Tm4  1  0.499934  0.499934  0.500187  1
  Os  Os5  1  0.280208  0.719804  0.999815  1
  Os  Os6  1  0.719804  0.280208  0.999815  1
  O  O7  1  0.414637  0.921294  0.912056  1
  O  O8  1  0.077346  0.587132  0.086771  1
  O  O9  1  0.587132  0.077346  0.086771  1
  O  O10  1  0.921294  0.414637  0.912056  1
  O  O11  1  0.599727  0.096719  0.572632  1
  O  O12  1  0.902727  0.401017  0.428685  1
  O  O13  1  0.401017  0.902727  0.428685  1
  O  O14  1  0.000390  0.000390  0.822179  1
  O  O15  1  0.999139  0.999139  0.177357  1
  O  O16  1  0.498076  0.498076  0.794778  1
  O  O17  1  0.501854  0.501854  0.205151  1
  O  O18  1  0.096719  0.599727  0.572632  1
