# generated using pymatgen
data_Ho9Mg(Zn2Sb)2
_symmetry_space_group_name_H-M   'P 1'
_cell_length_a   8.55628722
_cell_length_b   8.55628727
_cell_length_c   8.55628770
_cell_angle_alpha   124.82552096
_cell_angle_beta   124.82551910
_cell_angle_gamma   81.82723031
_symmetry_Int_Tables_number   1
_chemical_formula_structural   Ho9Mg(Zn2Sb)2
_chemical_formula_sum   'Ho9 Mg1 Zn4 Sb2'
_cell_volume   406.07974631
_cell_formula_units_Z   1
loop_
 _symmetry_equiv_pos_site_id
 _symmetry_equiv_pos_as_xyz
  1  'x, y, z'
loop_
 _atom_site_type_symbol
 _atom_site_label
 _atom_site_symmetry_multiplicity
 _atom_site_fract_x
 _atom_site_fract_y
 _atom_site_fract_z
 _atom_site_occupancy
  Ho  Ho0  1  0.500000  0.500000  0.000000  1
  Ho  Ho1  1  0.517685  0.008795  0.813874  1
  Ho  Ho2  1  0.194922  0.703812  0.186126  1
  Ho  Ho3  1  0.008795  0.194922  0.491110  1
  Ho  Ho4  1  0.703812  0.517685  0.508890  1
  Ho  Ho5  1  0.482315  0.991205  0.186126  1
  Ho  Ho6  1  0.805078  0.296188  0.813874  1
  Ho  Ho7  1  0.991205  0.805078  0.508890  1
  Ho  Ho8  1  0.296188  0.482315  0.491110  1
  Mg  Mg9  1  0.000000  0.000000  0.000000  1
  Zn  Zn10  1  0.137365  0.636325  0.773692  1
  Zn  Zn11  1  0.862635  0.363675  0.226308  1
  Zn  Zn12  1  0.636325  0.862635  0.498960  1
  Zn  Zn13  1  0.363675  0.137365  0.501040  1
  Sb  Sb14  1  0.250125  0.250125  0.000000  1
  Sb  Sb15  1  0.749875  0.749875  0.000000  1
