# generated using pymatgen
data_Er4Tc3B16Mo
_symmetry_space_group_name_H-M   'P 1'
_cell_length_a   3.59074100
_cell_length_b   5.96299630
_cell_length_c   11.53355052
_cell_angle_alpha   89.92435099
_cell_angle_beta   90.00000000
_cell_angle_gamma   90.00000000
_symmetry_Int_Tables_number   1
_chemical_formula_structural   Er4Tc3B16Mo
_chemical_formula_sum   'Er4 Tc3 B16 Mo1'
_cell_volume   246.95126998
_cell_formula_units_Z   1
loop_
 _symmetry_equiv_pos_site_id
 _symmetry_equiv_pos_as_xyz
  1  'x, y, z'
loop_
 _atom_site_type_symbol
 _atom_site_label
 _atom_site_symmetry_multiplicity
 _atom_site_fract_x
 _atom_site_fract_y
 _atom_site_fract_z
 _atom_site_occupancy
  Er  Er0  1  0.000000  0.626348  0.348253  1
  Er  Er1  1  0.000000  0.371931  0.651922  1
  Er  Er2  1  0.000000  0.127321  0.148836  1
  Er  Er3  1  0.000000  0.872534  0.851658  1
  Tc  Tc4  1  0.000000  0.635448  0.088241  1
  Tc  Tc5  1  0.000000  0.365267  0.912942  1
  Tc  Tc6  1  0.000000  0.130705  0.413827  1
  B  B7  1  0.500000  0.787371  0.185323  1
  B  B8  1  0.500000  0.213718  0.815277  1
  B  B9  1  0.500000  0.287759  0.314468  1
  B  B10  1  0.500000  0.710293  0.686831  1
  B  B11  1  0.500000  0.864471  0.031323  1
  B  B12  1  0.500000  0.135700  0.969005  1
  B  B13  1  0.500000  0.365106  0.467193  1
  B  B14  1  0.500000  0.632564  0.530988  1
  B  B15  1  0.500000  0.886679  0.450919  1
  B  B16  1  0.500000  0.116731  0.546593  1
  B  B17  1  0.500000  0.386308  0.047588  1
  B  B18  1  0.500000  0.613834  0.952899  1
  B  B19  1  0.500000  0.977761  0.306193  1
  B  B20  1  0.500000  0.024640  0.694083  1
  B  B21  1  0.500000  0.475762  0.192535  1
  B  B22  1  0.500000  0.522976  0.807994  1
  Mo  Mo23  1  0.000000  0.868775  0.585106  1
