# generated using pymatgen
data_Sc4Be4GaAsIrRh9
_symmetry_space_group_name_H-M   'P 1'
_cell_length_a   9.48272500
_cell_length_b   9.48272472
_cell_length_c   3.11253600
_cell_angle_alpha   90.00000000
_cell_angle_beta   90.00000000
_cell_angle_gamma   89.84274754
_symmetry_Int_Tables_number   1
_chemical_formula_structural   Sc4Be4GaAsIrRh9
_chemical_formula_sum   'Sc4 Be4 Ga1 As1 Ir1 Rh9'
_cell_volume   279.88462818
_cell_formula_units_Z   1
loop_
 _symmetry_equiv_pos_site_id
 _symmetry_equiv_pos_as_xyz
  1  'x, y, z'
loop_
 _atom_site_type_symbol
 _atom_site_label
 _atom_site_symmetry_multiplicity
 _atom_site_fract_x
 _atom_site_fract_y
 _atom_site_fract_z
 _atom_site_occupancy
  Sc  Sc0  1  0.671497  0.177489  0.000000  1
  Sc  Sc1  1  0.328503  0.822511  0.000000  1
  Sc  Sc2  1  0.177474  0.328573  0.000000  1
  Sc  Sc3  1  0.822526  0.671427  0.000000  1
  Be  Be4  1  0.125851  0.622625  0.000000  1
  Be  Be5  1  0.874149  0.377375  0.000000  1
  Be  Be6  1  0.622374  0.874682  0.000000  1
  Be  Be7  1  0.377626  0.125318  0.000000  1
  Ga  Ga8  1  0.500000  0.500000  0.000000  1
  As  As9  1  0.000000  0.000000  0.000000  1
  Ir  Ir10  1  0.000000  0.500000  0.500000  1
  Rh  Rh11  1  0.207026  0.067999  0.500000  1
  Rh  Rh12  1  0.792974  0.932001  0.500000  1
  Rh  Rh13  1  0.068342  0.793360  0.500000  1
  Rh  Rh14  1  0.708890  0.429167  0.500000  1
  Rh  Rh15  1  0.931658  0.206640  0.500000  1
  Rh  Rh16  1  0.291110  0.570833  0.500000  1
  Rh  Rh17  1  0.570024  0.709542  0.500000  1
  Rh  Rh18  1  0.429976  0.290458  0.500000  1
  Rh  Rh19  1  0.500000  0.000000  0.500000  1
