# generated using pymatgen
data_Cd3BiP7N12
_symmetry_space_group_name_H-M   'P 1'
_cell_length_a   7.47919753
_cell_length_b   7.49053932
_cell_length_c   7.49054007
_cell_angle_alpha   109.50186888
_cell_angle_beta   109.44055672
_cell_angle_gamma   109.44055651
_symmetry_Int_Tables_number   1
_chemical_formula_structural   Cd3BiP7N12
_chemical_formula_sum   'Cd3 Bi1 P7 N12'
_cell_volume   323.16441730
_cell_formula_units_Z   1
loop_
 _symmetry_equiv_pos_site_id
 _symmetry_equiv_pos_as_xyz
  1  'x, y, z'
loop_
 _atom_site_type_symbol
 _atom_site_label
 _atom_site_symmetry_multiplicity
 _atom_site_fract_x
 _atom_site_fract_y
 _atom_site_fract_z
 _atom_site_occupancy
  Cd  Cd0  1  0.998092  0.000000  0.664654  1
  Cd  Cd1  1  0.998092  0.664654  0.000000  1
  Cd  Cd2  1  0.333437  0.335346  0.335346  1
  Bi  Bi3  1  0.659764  0.000000  0.000000  1
  P  P4  1  0.245810  0.748364  0.495485  1
  P  P5  1  0.750325  0.252880  0.504515  1
  P  P6  1  0.750325  0.504515  0.252880  1
  P  P7  1  0.245810  0.495485  0.748364  1
  P  P8  1  0.497446  0.747120  0.251636  1
  P  P9  1  0.497446  0.251636  0.747120  1
  P  P10  1  0.022639  0.000000  0.000000  1
  N  N11  1  0.716559  0.300040  0.300040  1
  N  N12  1  0.285264  0.704192  0.286108  1
  N  N13  1  0.300760  0.591023  0.591023  1
  N  N14  1  0.581071  0.581916  0.295808  1
  N  N15  1  0.416519  0.699960  0.000000  1
  N  N16  1  0.999155  0.713892  0.418084  1
  N  N17  1  0.581071  0.295808  0.581916  1
  N  N18  1  0.709737  0.000000  0.408977  1
  N  N19  1  0.416519  0.000000  0.699960  1
  N  N20  1  0.709737  0.408977  0.000000  1
  N  N21  1  0.285264  0.286108  0.704192  1
  N  N22  1  0.999155  0.418084  0.713892  1
