# generated using pymatgen
data_Ca20Tl3Si8Hg
_symmetry_space_group_name_H-M   'P 1'
_cell_length_a   7.73737400
_cell_length_b   7.73737400
_cell_length_c   15.48313500
_cell_angle_alpha   90.00000000
_cell_angle_beta   90.00000000
_cell_angle_gamma   90.00000000
_symmetry_Int_Tables_number   1
_chemical_formula_structural   Ca20Tl3Si8Hg
_chemical_formula_sum   'Ca20 Tl3 Si8 Hg1'
_cell_volume   926.92816823
_cell_formula_units_Z   1
loop_
 _symmetry_equiv_pos_site_id
 _symmetry_equiv_pos_as_xyz
  1  'x, y, z'
loop_
 _atom_site_type_symbol
 _atom_site_label
 _atom_site_symmetry_multiplicity
 _atom_site_fract_x
 _atom_site_fract_y
 _atom_site_fract_z
 _atom_site_occupancy
  Ca  Ca0  1  0.676303  0.173493  0.113928  1
  Ca  Ca1  1  0.175905  0.674886  0.614703  1
  Ca  Ca2  1  0.323697  0.826507  0.113928  1
  Ca  Ca3  1  0.824095  0.325114  0.614703  1
  Ca  Ca4  1  0.826507  0.676303  0.113928  1
  Ca  Ca5  1  0.325114  0.175905  0.614703  1
  Ca  Ca6  1  0.173493  0.323697  0.113928  1
  Ca  Ca7  1  0.674886  0.824095  0.614703  1
  Ca  Ca8  1  0.826507  0.323697  0.886072  1
  Ca  Ca9  1  0.325114  0.824095  0.385297  1
  Ca  Ca10  1  0.173493  0.676303  0.886072  1
  Ca  Ca11  1  0.674886  0.175905  0.385297  1
  Ca  Ca12  1  0.676303  0.826507  0.886072  1
  Ca  Ca13  1  0.175905  0.325114  0.385297  1
  Ca  Ca14  1  0.323697  0.173493  0.886072  1
  Ca  Ca15  1  0.824095  0.674886  0.385297  1
  Ca  Ca16  1  0.500000  0.500000  0.752382  1
  Ca  Ca17  1  0.000000  0.000000  0.251658  1
  Ca  Ca18  1  0.000000  0.000000  0.748342  1
  Ca  Ca19  1  0.500000  0.500000  0.247618  1
  Tl  Tl20  1  0.500000  0.500000  0.500000  1
  Tl  Tl21  1  0.500000  0.500000  0.000000  1
  Tl  Tl22  1  0.000000  0.000000  0.500000  1
  Si  Si23  1  0.612691  0.111862  0.751318  1
  Si  Si24  1  0.111862  0.612691  0.248682  1
  Si  Si25  1  0.888138  0.387309  0.248682  1
  Si  Si26  1  0.387309  0.888138  0.751318  1
  Si  Si27  1  0.888138  0.612691  0.751318  1
  Si  Si28  1  0.387309  0.111862  0.248682  1
  Si  Si29  1  0.111862  0.387309  0.751318  1
  Si  Si30  1  0.612691  0.888138  0.248682  1
  Hg  Hg31  1  0.000000  0.000000  0.000000  1
