# generated using pymatgen
data_Th2Al9RuRh2
_symmetry_space_group_name_H-M   'P 1'
_cell_length_a   7.67222067
_cell_length_b   7.67222061
_cell_length_c   9.57971403
_cell_angle_alpha   89.94068099
_cell_angle_beta   89.94067802
_cell_angle_gamma   119.30772454
_symmetry_Int_Tables_number   1
_chemical_formula_structural   Th2Al9RuRh2
_chemical_formula_sum   'Th4 Al18 Ru2 Rh4'
_cell_volume   491.71326286
_cell_formula_units_Z   2
loop_
 _symmetry_equiv_pos_site_id
 _symmetry_equiv_pos_as_xyz
  1  'x, y, z'
loop_
 _atom_site_type_symbol
 _atom_site_label
 _atom_site_symmetry_multiplicity
 _atom_site_fract_x
 _atom_site_fract_y
 _atom_site_fract_z
 _atom_site_occupancy
  Th  Th0  1  0.993520  0.671790  0.249035  1
  Th  Th1  1  0.004074  0.327187  0.750679  1
  Th  Th2  1  0.672813  0.995926  0.249321  1
  Th  Th3  1  0.328210  0.006480  0.750965  1
  Al  Al4  1  0.132555  0.133112  0.249066  1
  Al  Al5  1  0.866888  0.867445  0.750934  1
  Al  Al6  1  0.004721  0.334555  0.074255  1
  Al  Al7  1  0.992906  0.663632  0.925107  1
  Al  Al8  1  0.995364  0.664687  0.575595  1
  Al  Al9  1  0.335313  0.004636  0.424405  1
  Al  Al10  1  0.005347  0.336345  0.424752  1
  Al  Al11  1  0.663655  0.994653  0.575248  1
  Al  Al12  1  0.665445  0.995279  0.925745  1
  Al  Al13  1  0.336368  0.007094  0.074893  1
  Al  Al14  1  0.336332  0.336613  0.547123  1
  Al  Al15  1  0.663387  0.663668  0.452877  1
  Al  Al16  1  0.665326  0.662841  0.044619  1
  Al  Al17  1  0.337159  0.334674  0.955381  1
  Al  Al18  1  0.340613  0.546530  0.250227  1
  Al  Al19  1  0.659266  0.453826  0.751209  1
  Al  Al20  1  0.546174  0.340734  0.248791  1
  Al  Al21  1  0.453470  0.659387  0.749773  1
  Ru  Ru22  1  0.673205  0.326795  0.000000  1
  Ru  Ru23  1  0.000241  0.999759  0.000000  1
  Rh  Rh24  1  0.327838  0.672162  0.000000  1
  Rh  Rh25  1  0.327781  0.672219  0.500000  1
  Rh  Rh26  1  0.672054  0.327946  0.500000  1
  Rh  Rh27  1  0.999972  0.000028  0.500000  1
