# generated using pymatgen
data_ScTaBe17
_symmetry_space_group_name_H-M   'P 1'
_cell_length_a   5.60437903
_cell_length_b   5.60437873
_cell_length_c   5.60437877
_cell_angle_alpha   82.95069560
_cell_angle_beta   97.04930568
_cell_angle_gamma   97.04929755
_symmetry_Int_Tables_number   1
_chemical_formula_structural   ScTaBe17
_chemical_formula_sum   'Sc1 Ta1 Be17'
_cell_volume   172.33821659
_cell_formula_units_Z   1
loop_
 _symmetry_equiv_pos_site_id
 _symmetry_equiv_pos_as_xyz
  1  'x, y, z'
loop_
 _atom_site_type_symbol
 _atom_site_label
 _atom_site_symmetry_multiplicity
 _atom_site_fract_x
 _atom_site_fract_y
 _atom_site_fract_z
 _atom_site_occupancy
  Sc  Sc0  1  0.838360  0.161640  0.161641  1
  Ta  Ta1  1  0.163788  0.836211  0.836213  1
  Be  Be2  1  0.496854  0.503147  0.998770  1
  Be  Be3  1  0.339153  0.153348  0.153347  1
  Be  Be4  1  0.846653  0.660848  0.153348  1
  Be  Be5  1  0.499201  0.790228  0.208397  1
  Be  Be6  1  0.209772  0.500798  0.208397  1
  Be  Be7  1  0.156660  0.843340  0.341072  1
  Be  Be8  1  0.596370  0.403630  0.403631  1
  Be  Be9  1  0.209772  0.208397  0.500798  1
  Be  Be10  1  0.001230  0.503146  0.503146  1
  Be  Be11  1  0.791603  0.790228  0.500799  1
  Be  Be12  1  0.496855  0.998770  0.503147  1
  Be  Be13  1  0.400691  0.599308  0.599310  1
  Be  Be14  1  0.846652  0.153348  0.660847  1
  Be  Be15  1  0.499202  0.208397  0.790228  1
  Be  Be16  1  0.791602  0.500798  0.790228  1
  Be  Be17  1  0.658927  0.843340  0.843340  1
  Be  Be18  1  0.156660  0.341072  0.843341  1
