# generated using pymatgen
data_Tb3HoTmPb3
_symmetry_space_group_name_H-M   'P 1'
_cell_length_a   6.62747200
_cell_length_b   9.06063453
_cell_length_c   9.06129306
_cell_angle_alpha   119.99759128
_cell_angle_beta   89.99937888
_cell_angle_gamma   90.00123952
_symmetry_Int_Tables_number   1
_chemical_formula_structural   Tb3HoTmPb3
_chemical_formula_sum   'Tb6 Ho2 Tm2 Pb6'
_cell_volume   471.23535187
_cell_formula_units_Z   2
loop_
 _symmetry_equiv_pos_site_id
 _symmetry_equiv_pos_as_xyz
  1  'x, y, z'
loop_
 _atom_site_type_symbol
 _atom_site_label
 _atom_site_symmetry_multiplicity
 _atom_site_fract_x
 _atom_site_fract_y
 _atom_site_fract_z
 _atom_site_occupancy
  Tb  Tb0  1  0.750194  0.238597  0.000000  1
  Tb  Tb1  1  0.750190  0.761307  0.761355  1
  Tb  Tb2  1  0.750190  0.999951  0.238645  1
  Tb  Tb3  1  0.249806  0.761402  0.000000  1
  Tb  Tb4  1  0.249811  0.238689  0.238639  1
  Tb  Tb5  1  0.249811  0.000051  0.761361  1
  Ho  Ho6  1  0.499994  0.333329  0.666691  1
  Ho  Ho7  1  0.499994  0.666638  0.333309  1
  Tm  Tm8  1  0.999997  0.666672  0.333305  1
  Tm  Tm9  1  0.999997  0.333368  0.666695  1
  Pb  Pb10  1  0.750554  0.604540  0.000000  1
  Pb  Pb11  1  0.750565  0.395392  0.395378  1
  Pb  Pb12  1  0.750565  0.000014  0.604622  1
  Pb  Pb13  1  0.249435  0.395458  0.000000  1
  Pb  Pb14  1  0.249448  0.604606  0.604621  1
  Pb  Pb15  1  0.249448  0.999985  0.395379  1
