# generated using pymatgen
data_NdSmCu2Ni5
_symmetry_space_group_name_H-M   'P 1'
_cell_length_a   5.04755150
_cell_length_b   5.04755045
_cell_length_c   12.47924587
_cell_angle_alpha   78.33213823
_cell_angle_beta   78.33214014
_cell_angle_gamma   59.99998863
_symmetry_Int_Tables_number   1
_chemical_formula_structural   NdSmCu2Ni5
_chemical_formula_sum   'Nd2 Sm2 Cu4 Ni10'
_cell_volume   267.73392267
_cell_formula_units_Z   2
loop_
 _symmetry_equiv_pos_site_id
 _symmetry_equiv_pos_as_xyz
  1  'x, y, z'
loop_
 _atom_site_type_symbol
 _atom_site_label
 _atom_site_symmetry_multiplicity
 _atom_site_fract_x
 _atom_site_fract_y
 _atom_site_fract_z
 _atom_site_occupancy
  Nd  Nd0  1  0.949711  0.949711  0.150867  1
  Nd  Nd1  1  0.050289  0.050289  0.849133  1
  Sm  Sm2  1  0.852743  0.852743  0.441771  1
  Sm  Sm3  1  0.147257  0.147257  0.558229  1
  Cu  Cu4  1  0.721961  0.721961  0.834118  1
  Cu  Cu5  1  0.278039  0.278039  0.165882  1
  Cu  Cu6  1  0.611409  0.611409  0.165771  1
  Cu  Cu7  1  0.388591  0.388591  0.834229  1
  Ni  Ni8  1  0.500000  0.500000  0.500000  1
  Ni  Ni9  1  0.000000  0.500000  0.000000  1
  Ni  Ni10  1  0.500000  0.000000  0.000000  1
  Ni  Ni11  1  0.500000  0.500000  0.000000  1
  Ni  Ni12  1  0.389602  0.389602  0.330910  1
  Ni  Ni13  1  0.889888  0.389602  0.330910  1
  Ni  Ni14  1  0.389602  0.889888  0.330910  1
  Ni  Ni15  1  0.610398  0.610398  0.669090  1
  Ni  Ni16  1  0.110112  0.610398  0.669090  1
  Ni  Ni17  1  0.610398  0.110112  0.669090  1
