# generated using pymatgen
data_Ce7Lu(Nb3Si4)4
_symmetry_space_group_name_H-M   'P 1'
_cell_length_a   6.94739855
_cell_length_b   7.13822604
_cell_length_c   13.47272101
_cell_angle_alpha   89.87045207
_cell_angle_beta   89.92540427
_cell_angle_gamma   89.94293929
_symmetry_Int_Tables_number   1
_chemical_formula_structural   Ce7Lu(Nb3Si4)4
_chemical_formula_sum   'Ce7 Lu1 Nb12 Si16'
_cell_volume   668.13794090
_cell_formula_units_Z   1
loop_
 _symmetry_equiv_pos_site_id
 _symmetry_equiv_pos_as_xyz
  1  'x, y, z'
loop_
 _atom_site_type_symbol
 _atom_site_label
 _atom_site_symmetry_multiplicity
 _atom_site_fract_x
 _atom_site_fract_y
 _atom_site_fract_z
 _atom_site_occupancy
  Ce  Ce0  1  0.003561  0.830768  0.904353  1
  Ce  Ce1  1  0.497808  0.330860  0.094410  1
  Ce  Ce2  1  0.997191  0.169717  0.406752  1
  Ce  Ce3  1  0.496811  0.328182  0.405095  1
  Ce  Ce4  1  0.997162  0.169059  0.094419  1
  Ce  Ce5  1  0.503267  0.668950  0.905470  1
  Ce  Ce6  1  0.004085  0.831203  0.593952  1
  Lu  Lu7  1  0.501413  0.671405  0.596278  1
  Nb  Nb8  1  0.662794  0.174406  0.624990  1
  Nb  Nb9  1  0.163929  0.328363  0.874215  1
  Nb  Nb10  1  0.336962  0.826788  0.125536  1
  Nb  Nb11  1  0.837397  0.673239  0.374851  1
  Nb  Nb12  1  0.337527  0.826204  0.374987  1
  Nb  Nb13  1  0.838070  0.673140  0.125574  1
  Nb  Nb14  1  0.662514  0.173250  0.874123  1
  Nb  Nb15  1  0.161952  0.326705  0.624896  1
  Nb  Nb16  1  0.835746  0.495701  0.749271  1
  Nb  Nb17  1  0.335362  0.005804  0.750409  1
  Nb  Nb18  1  0.163694  0.504405  0.250657  1
  Nb  Nb19  1  0.663824  0.994644  0.250225  1
  Si  Si20  1  0.659641  0.956985  0.459150  1
  Si  Si21  1  0.160257  0.540678  0.042542  1
  Si  Si22  1  0.339287  0.041188  0.957533  1
  Si  Si23  1  0.834223  0.462946  0.543167  1
  Si  Si24  1  0.342223  0.036792  0.543403  1
  Si  Si25  1  0.840071  0.458975  0.957215  1
  Si  Si26  1  0.660291  0.959431  0.042449  1
  Si  Si27  1  0.162531  0.540538  0.458390  1
  Si  Si28  1  0.459115  0.375063  0.748757  1
  Si  Si29  1  0.958416  0.126414  0.749678  1
  Si  Si30  1  0.541375  0.625499  0.250172  1
  Si  Si31  1  0.041294  0.873967  0.250376  1
  Si  Si32  1  0.700798  0.875872  0.748299  1
  Si  Si33  1  0.204514  0.623284  0.748138  1
  Si  Si34  1  0.297437  0.121984  0.250067  1
  Si  Si35  1  0.797458  0.377592  0.250201  1
