# generated using pymatgen
data_K2YbAs2O7
_symmetry_space_group_name_H-M   'P 1'
_cell_length_a   5.84394163
_cell_length_b   7.66394616
_cell_length_c   9.54697800
_cell_angle_alpha   69.44013941
_cell_angle_beta   89.14699405
_cell_angle_gamma   88.82838530
_symmetry_Int_Tables_number   1
_chemical_formula_structural   K2YbAs2O7
_chemical_formula_sum   'K4 Yb2 As4 O14'
_cell_volume   400.25468607
_cell_formula_units_Z   2
loop_
 _symmetry_equiv_pos_site_id
 _symmetry_equiv_pos_as_xyz
  1  'x, y, z'
loop_
 _atom_site_type_symbol
 _atom_site_label
 _atom_site_symmetry_multiplicity
 _atom_site_fract_x
 _atom_site_fract_y
 _atom_site_fract_z
 _atom_site_occupancy
  K  K0  1  0.237079  0.845439  0.539802  1
  K  K1  1  0.741421  0.251484  0.017129  1
  K  K2  1  0.762921  0.154561  0.460198  1
  K  K3  1  0.258579  0.748516  0.982871  1
  Yb  Yb4  1  0.231386  0.228498  0.728315  1
  Yb  Yb5  1  0.768614  0.771502  0.271685  1
  As  As6  1  0.250252  0.112944  0.170790  1
  As  As7  1  0.749748  0.887056  0.829210  1
  As  As8  1  0.290940  0.435533  0.321198  1
  As  As9  1  0.709060  0.564467  0.678802  1
  O  O10  1  0.515683  0.999444  0.732605  1
  O  O11  1  0.742538  0.861353  0.013465  1
  O  O12  1  0.108332  0.621167  0.272329  1
  O  O13  1  0.732644  0.645326  0.839040  1
  O  O14  1  0.004056  0.967818  0.744943  1
  O  O15  1  0.431273  0.500626  0.685874  1
  O  O16  1  0.779819  0.746374  0.522817  1
  O  O17  1  0.568727  0.499374  0.314126  1
  O  O18  1  0.891668  0.378833  0.727671  1
  O  O19  1  0.995944  0.032182  0.255057  1
  O  O20  1  0.267356  0.354674  0.160960  1
  O  O21  1  0.257462  0.138647  0.986535  1
  O  O22  1  0.484317  0.000556  0.267395  1
  O  O23  1  0.220181  0.253626  0.477183  1
