# generated using pymatgen
data_TbDy16Ho3Pb16
_symmetry_space_group_name_H-M   'P 1'
_cell_length_a   8.21929237
_cell_length_b   8.28896123
_cell_length_c   15.66366400
_cell_angle_alpha   90.01544208
_cell_angle_beta   89.73581629
_cell_angle_gamma   89.92600668
_symmetry_Int_Tables_number   1
_chemical_formula_structural   TbDy16Ho3Pb16
_chemical_formula_sum   'Tb1 Dy16 Ho3 Pb16'
_cell_volume   1067.14368969
_cell_formula_units_Z   1
loop_
 _symmetry_equiv_pos_site_id
 _symmetry_equiv_pos_as_xyz
  1  'x, y, z'
loop_
 _atom_site_type_symbol
 _atom_site_label
 _atom_site_symmetry_multiplicity
 _atom_site_fract_x
 _atom_site_fract_y
 _atom_site_fract_z
 _atom_site_occupancy
  Tb  Tb0  1  0.967453  0.823287  0.598407  1
  Dy  Dy1  1  0.623823  0.158271  0.621289  1
  Dy  Dy2  1  0.121976  0.341603  0.879885  1
  Dy  Dy3  1  0.378438  0.842180  0.121041  1
  Dy  Dy4  1  0.875826  0.658078  0.378410  1
  Dy  Dy5  1  0.376105  0.841609  0.378618  1
  Dy  Dy6  1  0.878127  0.658027  0.120982  1
  Dy  Dy7  1  0.621292  0.158147  0.879341  1
  Dy  Dy8  1  0.123162  0.341710  0.621140  1
  Dy  Dy9  1  0.464587  0.675326  0.599541  1
  Dy  Dy10  1  0.962802  0.824373  0.899529  1
  Dy  Dy11  1  0.536756  0.324579  0.100590  1
  Dy  Dy12  1  0.034961  0.176311  0.400272  1
  Dy  Dy13  1  0.534845  0.323999  0.400296  1
  Dy  Dy14  1  0.036997  0.175476  0.100427  1
  Dy  Dy15  1  0.463410  0.675584  0.900228  1
  Dy  Dy16  1  0.790348  0.495916  0.750372  1
  Ho  Ho17  1  0.290340  0.004548  0.750514  1
  Ho  Ho18  1  0.209454  0.504248  0.249924  1
  Ho  Ho19  1  0.709495  0.995703  0.249409  1
  Pb  Pb20  1  0.717090  0.966634  0.456180  1
  Pb  Pb21  1  0.219579  0.533496  0.043388  1
  Pb  Pb22  1  0.280099  0.032337  0.957189  1
  Pb  Pb23  1  0.781591  0.464981  0.542385  1
  Pb  Pb24  1  0.284571  0.036361  0.542504  1
  Pb  Pb25  1  0.780234  0.466372  0.957539  1
  Pb  Pb26  1  0.719791  0.966774  0.042888  1
  Pb  Pb27  1  0.217171  0.534628  0.457056  1
  Pb  Pb28  1  0.426696  0.374351  0.750220  1
  Pb  Pb29  1  0.927394  0.125571  0.750266  1
  Pb  Pb30  1  0.572524  0.625207  0.249797  1
  Pb  Pb31  1  0.072524  0.874603  0.249888  1
  Pb  Pb32  1  0.651138  0.846190  0.749741  1
  Pb  Pb33  1  0.152794  0.653674  0.750248  1
  Pb  Pb34  1  0.348273  0.154310  0.250311  1
  Pb  Pb35  1  0.848335  0.345534  0.250182  1
