# generated using pymatgen
data_Li(CuS)4
_symmetry_space_group_name_H-M   'P 1'
_cell_length_a   3.79284100
_cell_length_b   3.79284155
_cell_length_c   11.56295900
_cell_angle_alpha   90.00000000
_cell_angle_beta   90.00000000
_cell_angle_gamma   120.00000396
_symmetry_Int_Tables_number   1
_chemical_formula_structural   Li(CuS)4
_chemical_formula_sum   'Li1 Cu4 S4'
_cell_volume   144.05519894
_cell_formula_units_Z   1
loop_
 _symmetry_equiv_pos_site_id
 _symmetry_equiv_pos_as_xyz
  1  'x, y, z'
loop_
 _atom_site_type_symbol
 _atom_site_label
 _atom_site_symmetry_multiplicity
 _atom_site_fract_x
 _atom_site_fract_y
 _atom_site_fract_z
 _atom_site_occupancy
  Li  Li0  1  0.000000  0.000000  0.500000  1
  Cu  Cu1  1  0.666667  0.333333  0.842764  1
  Cu  Cu2  1  0.333333  0.666667  0.157236  1
  Cu  Cu3  1  0.333333  0.666667  0.673977  1
  Cu  Cu4  1  0.666667  0.333333  0.326023  1
  S  S5  1  0.000000  0.000000  0.908920  1
  S  S6  1  0.000000  0.000000  0.091080  1
  S  S7  1  0.666667  0.333333  0.640745  1
  S  S8  1  0.333333  0.666667  0.359255  1
