# generated using pymatgen
data_AcPr(GeAu)2
_symmetry_space_group_name_H-M   'P 1'
_cell_length_a   4.54624400
_cell_length_b   4.54624418
_cell_length_c   8.29646800
_cell_angle_alpha   90.00000000
_cell_angle_beta   90.00000000
_cell_angle_gamma   119.99999871
_symmetry_Int_Tables_number   1
_chemical_formula_structural   AcPr(GeAu)2
_chemical_formula_sum   'Ac1 Pr1 Ge2 Au2'
_cell_volume   148.50100009
_cell_formula_units_Z   1
loop_
 _symmetry_equiv_pos_site_id
 _symmetry_equiv_pos_as_xyz
  1  'x, y, z'
loop_
 _atom_site_type_symbol
 _atom_site_label
 _atom_site_symmetry_multiplicity
 _atom_site_fract_x
 _atom_site_fract_y
 _atom_site_fract_z
 _atom_site_occupancy
  Ac  Ac0  1  0.000000  0.000000  0.751827  1
  Pr  Pr1  1  0.000000  0.000000  0.249314  1
  Ge  Ge2  1  0.666667  0.333333  0.986771  1
  Ge  Ge3  1  0.333333  0.666667  0.461373  1
  Au  Au4  1  0.666667  0.333333  0.498667  1
  Au  Au5  1  0.333333  0.666667  0.032048  1
