# generated using pymatgen
data_Np2Al9Ir2Pt
_symmetry_space_group_name_H-M   'P 1'
_cell_length_a   7.60975485
_cell_length_b   7.60824411
_cell_length_c   9.45961694
_cell_angle_alpha   90.00771845
_cell_angle_beta   89.99846316
_cell_angle_gamma   119.49750441
_symmetry_Int_Tables_number   1
_chemical_formula_structural   Np2Al9Ir2Pt
_chemical_formula_sum   'Np4 Al18 Ir4 Pt2'
_cell_volume   476.69009538
_cell_formula_units_Z   2
loop_
 _symmetry_equiv_pos_site_id
 _symmetry_equiv_pos_as_xyz
  1  'x, y, z'
loop_
 _atom_site_type_symbol
 _atom_site_label
 _atom_site_symmetry_multiplicity
 _atom_site_fract_x
 _atom_site_fract_y
 _atom_site_fract_z
 _atom_site_occupancy
  Np  Np0  1  0.994811  0.670248  0.253653  1
  Np  Np1  1  0.005189  0.329752  0.746347  1
  Np  Np2  1  0.670295  0.994832  0.253643  1
  Np  Np3  1  0.329705  0.005168  0.746357  1
  Al  Al4  1  0.128791  0.128737  0.249739  1
  Al  Al5  1  0.871209  0.871263  0.750261  1
  Al  Al6  1  0.999990  0.332753  0.075894  1
  Al  Al7  1  0.000010  0.667247  0.924106  1
  Al  Al8  1  0.998427  0.664007  0.575955  1
  Al  Al9  1  0.335809  0.001460  0.423963  1
  Al  Al10  1  0.001573  0.335993  0.424045  1
  Al  Al11  1  0.664191  0.998540  0.576037  1
  Al  Al12  1  0.667422  0.000093  0.924025  1
  Al  Al13  1  0.332578  0.999907  0.075975  1
  Al  Al14  1  0.333584  0.333622  0.551149  1
  Al  Al15  1  0.666416  0.666378  0.448851  1
  Al  Al16  1  0.670145  0.670078  0.058821  1
  Al  Al17  1  0.329855  0.329922  0.941179  1
  Al  Al18  1  0.341132  0.548109  0.251818  1
  Al  Al19  1  0.658868  0.451891  0.748182  1
  Al  Al20  1  0.548178  0.341305  0.251820  1
  Al  Al21  1  0.451822  0.658695  0.748180  1
  Ir  Ir22  1  0.327971  0.672003  0.500048  1
  Ir  Ir23  1  0.672029  0.327997  0.499952  1
  Ir  Ir24  1  0.000000  0.000000  0.000000  1
  Ir  Ir25  1  0.000000  0.000000  0.500000  1
  Pt  Pt26  1  0.670774  0.329295  0.000025  1
  Pt  Pt27  1  0.329226  0.670705  0.999975  1
