# generated using pymatgen
data_LiHf12Tc5Ir6
_symmetry_space_group_name_H-M   'P 1'
_cell_length_a   4.62348500
_cell_length_b   6.51437800
_cell_length_c   13.88215600
_cell_angle_alpha   90.00000000
_cell_angle_beta   90.00009497
_cell_angle_gamma   90.00000000
_symmetry_Int_Tables_number   1
_chemical_formula_structural   LiHf12Tc5Ir6
_chemical_formula_sum   'Li1 Hf12 Tc5 Ir6'
_cell_volume   418.11844691
_cell_formula_units_Z   1
loop_
 _symmetry_equiv_pos_site_id
 _symmetry_equiv_pos_as_xyz
  1  'x, y, z'
loop_
 _atom_site_type_symbol
 _atom_site_label
 _atom_site_symmetry_multiplicity
 _atom_site_fract_x
 _atom_site_fract_y
 _atom_site_fract_z
 _atom_site_occupancy
  Li  Li0  1  0.000000  0.000000  0.000000  1
  Hf  Hf1  1  0.500001  0.251684  0.000000  1
  Hf  Hf2  1  0.500001  0.748316  0.000000  1
  Hf  Hf3  1  0.999992  0.250081  0.167929  1
  Hf  Hf4  1  0.999992  0.749920  0.167929  1
  Hf  Hf5  1  0.499994  0.249646  0.333584  1
  Hf  Hf6  1  0.499994  0.750354  0.333584  1
  Hf  Hf7  1  0.000000  0.249160  0.500000  1
  Hf  Hf8  1  0.000000  0.750840  0.500000  1
  Hf  Hf9  1  0.500005  0.249646  0.666416  1
  Hf  Hf10  1  0.500005  0.750354  0.666416  1
  Hf  Hf11  1  0.000008  0.250081  0.832071  1
  Hf  Hf12  1  0.000008  0.749920  0.832071  1
  Tc  Tc13  1  0.499986  0.499999  0.166530  1
  Tc  Tc14  1  0.999997  0.000000  0.333139  1
  Tc  Tc15  1  0.500001  0.499999  0.500000  1
  Tc  Tc16  1  0.000003  0.000000  0.666861  1
  Tc  Tc17  1  0.500014  0.499999  0.833469  1
  Ir  Ir18  1  0.000000  0.499999  0.000000  1
  Ir  Ir19  1  0.499989  0.000000  0.164125  1
  Ir  Ir20  1  0.999993  0.499999  0.332805  1
  Ir  Ir21  1  0.500001  0.000000  0.500000  1
  Ir  Ir22  1  0.000007  0.499999  0.667196  1
  Ir  Ir23  1  0.500010  0.000000  0.835875  1
