# generated using pymatgen
data_CaYCo9Tc3P7
_symmetry_space_group_name_H-M   'P 1'
_cell_length_a   3.69013200
_cell_length_b   9.04003255
_cell_length_c   9.04003400
_cell_angle_alpha   119.99999798
_cell_angle_beta   90.00000000
_cell_angle_gamma   90.00000000
_symmetry_Int_Tables_number   1
_chemical_formula_structural   CaYCo9Tc3P7
_chemical_formula_sum   'Ca1 Y1 Co9 Tc3 P7'
_cell_volume   261.16357224
_cell_formula_units_Z   1
loop_
 _symmetry_equiv_pos_site_id
 _symmetry_equiv_pos_as_xyz
  1  'x, y, z'
loop_
 _atom_site_type_symbol
 _atom_site_label
 _atom_site_symmetry_multiplicity
 _atom_site_fract_x
 _atom_site_fract_y
 _atom_site_fract_z
 _atom_site_occupancy
  Ca  Ca0  1  0.500000  0.333333  0.666667  1
  Y  Y1  1  0.000000  0.666667  0.333333  1
  Co  Co2  1  0.000000  0.567403  0.941494  1
  Co  Co3  1  0.000000  0.374091  0.432597  1
  Co  Co4  1  0.000000  0.058506  0.625909  1
  Co  Co5  1  0.000000  0.878001  0.158337  1
  Co  Co6  1  0.000000  0.280335  0.121999  1
  Co  Co7  1  0.000000  0.841663  0.719665  1
  Co  Co8  1  0.500000  0.944900  0.382224  1
  Co  Co9  1  0.500000  0.437323  0.055100  1
  Co  Co10  1  0.500000  0.617776  0.562677  1
  Tc  Tc11  1  0.500000  0.780729  0.902026  1
  Tc  Tc12  1  0.500000  0.121297  0.219271  1
  Tc  Tc13  1  0.500000  0.097974  0.878703  1
  P  P14  1  0.000000  0.000000  0.000000  1
  P  P15  1  0.500000  0.707103  0.114595  1
  P  P16  1  0.500000  0.407493  0.292897  1
  P  P17  1  0.500000  0.885405  0.592507  1
  P  P18  1  0.000000  0.588897  0.701102  1
  P  P19  1  0.000000  0.112204  0.411103  1
  P  P20  1  0.000000  0.298898  0.887796  1
