# generated using pymatgen
data_Gd8In4Ga7Si
_symmetry_space_group_name_H-M   'P 1'
_cell_length_a   7.30311502
_cell_length_b   7.30311499
_cell_length_c   8.96175800
_cell_angle_alpha   90.00417375
_cell_angle_beta   90.00417375
_cell_angle_gamma   90.45469969
_symmetry_Int_Tables_number   1
_chemical_formula_structural   Gd8In4Ga7Si
_chemical_formula_sum   'Gd8 In4 Ga7 Si1'
_cell_volume   477.96468936
_cell_formula_units_Z   1
loop_
 _symmetry_equiv_pos_site_id
 _symmetry_equiv_pos_as_xyz
  1  'x, y, z'
loop_
 _atom_site_type_symbol
 _atom_site_label
 _atom_site_symmetry_multiplicity
 _atom_site_fract_x
 _atom_site_fract_y
 _atom_site_fract_z
 _atom_site_occupancy
  Gd  Gd0  1  0.829540  0.172409  0.497751  1
  Gd  Gd1  1  0.172409  0.829540  0.497751  1
  Gd  Gd2  1  0.325384  0.325384  0.002903  1
  Gd  Gd3  1  0.671279  0.671279  0.998827  1
  Gd  Gd4  1  0.671856  0.671856  0.501119  1
  Gd  Gd5  1  0.326743  0.326743  0.497063  1
  Gd  Gd6  1  0.172642  0.829614  0.002198  1
  Gd  Gd7  1  0.829614  0.172642  0.002198  1
  In  In8  1  0.500819  0.001075  0.249787  1
  In  In9  1  0.999848  0.500249  0.749878  1
  In  In10  1  0.500249  0.999848  0.749878  1
  In  In11  1  0.001075  0.500819  0.249787  1
  Ga  Ga12  1  0.624522  0.376992  0.250681  1
  Ga  Ga13  1  0.376992  0.624522  0.250681  1
  Ga  Ga14  1  0.126800  0.126800  0.750336  1
  Ga  Ga15  1  0.875030  0.875030  0.750568  1
  Ga  Ga16  1  0.372268  0.624216  0.749617  1
  Ga  Ga17  1  0.624216  0.372268  0.749617  1
  Ga  Ga18  1  0.877934  0.877934  0.249576  1
  Si  Si19  1  0.120783  0.120783  0.249778  1
