# generated using pymatgen
data_ScCd3As(PN2)6
_symmetry_space_group_name_H-M   'P 1'
_cell_length_a   7.40255768
_cell_length_b   7.43415185
_cell_length_c   7.43415165
_cell_angle_alpha   109.55714257
_cell_angle_beta   109.38514323
_cell_angle_gamma   109.38515890
_symmetry_Int_Tables_number   1
_chemical_formula_structural   ScCd3As(PN2)6
_chemical_formula_sum   'Sc1 Cd3 As1 P6 N12'
_cell_volume   315.27027109
_cell_formula_units_Z   1
loop_
 _symmetry_equiv_pos_site_id
 _symmetry_equiv_pos_as_xyz
  1  'x, y, z'
loop_
 _atom_site_type_symbol
 _atom_site_label
 _atom_site_symmetry_multiplicity
 _atom_site_fract_x
 _atom_site_fract_y
 _atom_site_fract_z
 _atom_site_occupancy
  Sc  Sc0  1  0.620801  0.000000  0.000000  1
  Cd  Cd1  1  0.001735  0.000000  0.670643  1
  Cd  Cd2  1  0.001735  0.670643  0.000000  1
  Cd  Cd3  1  0.331092  0.329357  0.329357  1
  As  As4  1  0.972730  0.000000  0.000000  1
  P  P5  1  0.252558  0.748869  0.499321  1
  P  P6  1  0.753237  0.249547  0.500679  1
  P  P7  1  0.753237  0.500679  0.249547  1
  P  P8  1  0.252558  0.499321  0.748869  1
  P  P9  1  0.503689  0.750453  0.251131  1
  P  P10  1  0.503689  0.251131  0.750453  1
  N  N11  1  0.708507  0.284483  0.284483  1
  N  N12  1  0.292827  0.714525  0.290184  1
  N  N13  1  0.310550  0.591403  0.591403  1
  N  N14  1  0.578301  0.575659  0.285475  1
  N  N15  1  0.424024  0.715517  0.000000  1
  N  N16  1  0.002643  0.709816  0.424341  1
  N  N17  1  0.578301  0.285475  0.575659  1
  N  N18  1  0.719147  0.000000  0.408597  1
  N  N19  1  0.424024  0.000000  0.715517  1
  N  N20  1  0.719147  0.408597  0.000000  1
  N  N21  1  0.292827  0.290184  0.714525  1
  N  N22  1  0.002643  0.424341  0.709816  1
