# generated using pymatgen
data_Tb2Al4FeSi2
_symmetry_space_group_name_H-M   'P 1'
_cell_length_a   4.08922235
_cell_length_b   4.08922727
_cell_length_c   10.25686425
_cell_angle_alpha   101.50096978
_cell_angle_beta   101.50089766
_cell_angle_gamma   89.99750357
_symmetry_Int_Tables_number   1
_chemical_formula_structural   Tb2Al4FeSi2
_chemical_formula_sum   'Tb2 Al4 Fe1 Si2'
_cell_volume   164.55361810
_cell_formula_units_Z   1
loop_
 _symmetry_equiv_pos_site_id
 _symmetry_equiv_pos_as_xyz
  1  'x, y, z'
loop_
 _atom_site_type_symbol
 _atom_site_label
 _atom_site_symmetry_multiplicity
 _atom_site_fract_x
 _atom_site_fract_y
 _atom_site_fract_z
 _atom_site_occupancy
  Tb  Tb0  1  0.185668  0.185665  0.371469  1
  Tb  Tb1  1  0.814337  0.814333  0.628531  1
  Al  Al2  1  0.566757  0.066733  0.133544  1
  Al  Al3  1  0.066738  0.566752  0.133544  1
  Al  Al4  1  0.933267  0.433243  0.866455  1
  Al  Al5  1  0.433248  0.933263  0.866456  1
  Fe  Fe6  1  0.999984  0.000019  0.000001  1
  Si  Si7  1  0.661850  0.661847  0.323834  1
  Si  Si8  1  0.338155  0.338151  0.676166  1
