# generated using pymatgen
data_Ce4Cd2Ni3Ir
_symmetry_space_group_name_H-M   'P 1'
_cell_length_a   7.56213341
_cell_length_b   7.56213470
_cell_length_c   3.65887400
_cell_angle_alpha   90.00000000
_cell_angle_beta   90.00000000
_cell_angle_gamma   90.35648287
_symmetry_Int_Tables_number   1
_chemical_formula_structural   Ce4Cd2Ni3Ir
_chemical_formula_sum   'Ce4 Cd2 Ni3 Ir1'
_cell_volume   209.23184858
_cell_formula_units_Z   1
loop_
 _symmetry_equiv_pos_site_id
 _symmetry_equiv_pos_as_xyz
  1  'x, y, z'
loop_
 _atom_site_type_symbol
 _atom_site_label
 _atom_site_symmetry_multiplicity
 _atom_site_fract_x
 _atom_site_fract_y
 _atom_site_fract_z
 _atom_site_occupancy
  Ce  Ce0  1  0.670162  0.170162  0.500000  1
  Ce  Ce1  1  0.170415  0.326502  0.500000  1
  Ce  Ce2  1  0.826502  0.670415  0.500000  1
  Ce  Ce3  1  0.329010  0.829010  0.500000  1
  Cd  Cd4  1  0.001334  0.994530  0.000000  1
  Cd  Cd5  1  0.494530  0.501334  0.000000  1
  Ni  Ni6  1  0.622794  0.874942  0.000000  1
  Ni  Ni7  1  0.134929  0.634929  0.000000  1
  Ni  Ni8  1  0.374942  0.122794  0.000000  1
  Ir  Ir9  1  0.875382  0.375382  0.000000  1
