# generated using pymatgen
data_Li3La4ZnIr3Pd
_symmetry_space_group_name_H-M   'P 1'
_cell_length_a   7.26684072
_cell_length_b   4.10494600
_cell_length_c   8.62726900
_cell_angle_alpha   90.00000000
_cell_angle_beta   90.17946260
_cell_angle_gamma   90.00000000
_symmetry_Int_Tables_number   1
_chemical_formula_structural   Li3La4ZnIr3Pd
_chemical_formula_sum   'Li3 La4 Zn1 Ir3 Pd1'
_cell_volume   257.35007470
_cell_formula_units_Z   1
loop_
 _symmetry_equiv_pos_site_id
 _symmetry_equiv_pos_as_xyz
  1  'x, y, z'
loop_
 _atom_site_type_symbol
 _atom_site_label
 _atom_site_symmetry_multiplicity
 _atom_site_fract_x
 _atom_site_fract_y
 _atom_site_fract_z
 _atom_site_occupancy
  Li  Li0  1  0.632211  0.250000  0.552806  1
  Li  Li1  1  0.122395  0.250000  0.944325  1
  Li  Li2  1  0.371526  0.750000  0.448635  1
  La  La3  1  0.032911  0.250000  0.324852  1
  La  La4  1  0.555579  0.250000  0.180996  1
  La  La5  1  0.961164  0.750000  0.689498  1
  La  La6  1  0.464973  0.750000  0.806029  1
  Zn  Zn7  1  0.868199  0.750000  0.058621  1
  Ir  Ir8  1  0.242816  0.250000  0.628327  1
  Ir  Ir9  1  0.749194  0.250000  0.884547  1
  Ir  Ir10  1  0.756200  0.750000  0.366291  1
  Pd  Pd11  1  0.242834  0.750000  0.115077  1
