# generated using pymatgen
data_S2BrNO10
_symmetry_space_group_name_H-M   'P 1'
_cell_length_a   4.89921020
_cell_length_b   5.96292200
_cell_length_c   8.15621767
_cell_angle_alpha   103.25664079
_cell_angle_beta   103.89660732
_cell_angle_gamma   91.06685083
_symmetry_Int_Tables_number   1
_chemical_formula_structural   S2BrNO10
_chemical_formula_sum   'S2 Br1 N1 O10'
_cell_volume   224.44920313
_cell_formula_units_Z   1
loop_
 _symmetry_equiv_pos_site_id
 _symmetry_equiv_pos_as_xyz
  1  'x, y, z'
loop_
 _atom_site_type_symbol
 _atom_site_label
 _atom_site_symmetry_multiplicity
 _atom_site_fract_x
 _atom_site_fract_y
 _atom_site_fract_z
 _atom_site_occupancy
  S  S0  1  0.390562  0.087818  0.765526  1
  S  S1  1  0.609438  0.912182  0.234474  1
  Br  Br2  1  0.000000  0.000000  0.000000  1
  N  N3  1  0.500000  0.500000  0.500000  1
  O  O4  1  0.714267  0.519708  0.597162  1
  O  O5  1  0.285733  0.480292  0.402838  1
  O  O6  1  0.295112  0.180428  0.939093  1
  O  O7  1  0.704888  0.819572  0.060907  1
  O  O8  1  0.711420  0.154302  0.824501  1
  O  O9  1  0.288580  0.845698  0.175499  1
  O  O10  1  0.321461  0.841128  0.703838  1
  O  O11  1  0.678539  0.158872  0.296162  1
  O  O12  1  0.280932  0.230075  0.646054  1
  O  O13  1  0.719068  0.769925  0.353946  1
