# generated using pymatgen
data_Dy3AlFe2Os3
_symmetry_space_group_name_H-M   'P 1'
_cell_length_a   5.28763896
_cell_length_b   5.28543284
_cell_length_c   12.99862911
_cell_angle_alpha   89.93612189
_cell_angle_beta   89.90187952
_cell_angle_gamma   119.75969825
_symmetry_Int_Tables_number   1
_chemical_formula_structural   Dy3AlFe2Os3
_chemical_formula_sum   'Dy6 Al2 Fe4 Os6'
_cell_volume   315.36632755
_cell_formula_units_Z   2
loop_
 _symmetry_equiv_pos_site_id
 _symmetry_equiv_pos_as_xyz
  1  'x, y, z'
loop_
 _atom_site_type_symbol
 _atom_site_label
 _atom_site_symmetry_multiplicity
 _atom_site_fract_x
 _atom_site_fract_y
 _atom_site_fract_z
 _atom_site_occupancy
  Dy  Dy0  1  0.337311  0.671666  0.921951  1
  Dy  Dy1  1  0.999799  0.999440  0.247987  1
  Dy  Dy2  1  0.675740  0.339560  0.583921  1
  Dy  Dy3  1  0.324260  0.660440  0.666079  1
  Dy  Dy4  1  0.000202  0.000560  0.002013  1
  Dy  Dy5  1  0.662689  0.328334  0.328049  1
  Al  Al6  1  0.670560  0.836148  0.457385  1
  Al  Al7  1  0.329440  0.163852  0.792615  1
  Fe  Fe8  1  0.500000  0.500000  0.125000  1
  Fe  Fe9  1  0.169725  0.838447  0.458496  1
  Fe  Fe10  1  0.830275  0.161553  0.791504  1
  Fe  Fe11  1  0.500000  0.000000  0.125000  1
  Os  Os12  1  0.169466  0.336104  0.456803  1
  Os  Os13  1  0.830534  0.663896  0.793197  1
  Os  Os14  1  0.331619  0.664306  0.291570  1
  Os  Os15  1  0.000000  0.000000  0.625000  1
  Os  Os16  1  0.668381  0.335694  0.958430  1
  Os  Os17  1  0.000000  0.500000  0.125000  1
