# generated using pymatgen
data_Y6Si6Ir3Os
_symmetry_space_group_name_H-M   'P 1'
_cell_length_a   5.77332557
_cell_length_b   5.77332562
_cell_length_c   13.69838350
_cell_angle_alpha   90.08026879
_cell_angle_beta   89.91973117
_cell_angle_gamma   137.44153719
_symmetry_Int_Tables_number   1
_chemical_formula_structural   Y6Si6Ir3Os
_chemical_formula_sum   'Y6 Si6 Ir3 Os1'
_cell_volume   308.80717718
_cell_formula_units_Z   1
loop_
 _symmetry_equiv_pos_site_id
 _symmetry_equiv_pos_as_xyz
  1  'x, y, z'
loop_
 _atom_site_type_symbol
 _atom_site_label
 _atom_site_symmetry_multiplicity
 _atom_site_fract_x
 _atom_site_fract_y
 _atom_site_fract_z
 _atom_site_occupancy
  Y  Y0  1  0.922824  0.077176  0.383946  1
  Y  Y1  1  0.077225  0.922775  0.616038  1
  Y  Y2  1  0.924661  0.075339  0.115105  1
  Y  Y3  1  0.076581  0.923419  0.885277  1
  Y  Y4  1  0.644059  0.355941  0.249851  1
  Y  Y5  1  0.356290  0.643710  0.749044  1
  Si  Si6  1  0.611248  0.388752  0.460304  1
  Si  Si7  1  0.388159  0.611841  0.539152  1
  Si  Si8  1  0.614737  0.385263  0.039415  1
  Si  Si9  1  0.383387  0.616613  0.959387  1
  Si  Si10  1  0.333802  0.666198  0.249774  1
  Si  Si11  1  0.670087  0.329913  0.751747  1
  Ir  Ir12  1  0.213948  0.786052  0.081448  1
  Ir  Ir13  1  0.784557  0.215443  0.579774  1
  Ir  Ir14  1  0.213826  0.786174  0.420545  1
  Os  Os15  1  0.784612  0.215388  0.919193  1
