# generated using pymatgen
data_Dy9ErCuPPb6
_symmetry_space_group_name_H-M   'P 1'
_cell_length_a   9.16380600
_cell_length_b   9.16380718
_cell_length_c   6.69734200
_cell_angle_alpha   90.00000000
_cell_angle_beta   90.00000000
_cell_angle_gamma   120.00001018
_symmetry_Int_Tables_number   1
_chemical_formula_structural   Dy9ErCuPPb6
_chemical_formula_sum   'Dy9 Er1 Cu1 P1 Pb6'
_cell_volume   487.06272350
_cell_formula_units_Z   1
loop_
 _symmetry_equiv_pos_site_id
 _symmetry_equiv_pos_as_xyz
  1  'x, y, z'
loop_
 _atom_site_type_symbol
 _atom_site_label
 _atom_site_symmetry_multiplicity
 _atom_site_fract_x
 _atom_site_fract_y
 _atom_site_fract_z
 _atom_site_occupancy
  Dy  Dy0  1  0.246697  0.000008  0.237543  1
  Dy  Dy1  1  0.753311  0.000008  0.762457  1
  Dy  Dy2  1  0.999992  0.246689  0.237543  1
  Dy  Dy3  1  0.999992  0.753303  0.762457  1
  Dy  Dy4  1  0.753311  0.753303  0.237543  1
  Dy  Dy5  1  0.246697  0.246689  0.762457  1
  Dy  Dy6  1  0.333333  0.666667  0.000000  1
  Dy  Dy7  1  0.666667  0.333333  0.000000  1
  Dy  Dy8  1  0.666667  0.333333  0.500000  1
  Er  Er9  1  0.333333  0.666667  0.500000  1
  Cu  Cu10  1  0.000000  0.000000  0.500000  1
  P  P11  1  0.000000  0.000000  0.000000  1
  Pb  Pb12  1  0.605611  0.999782  0.249968  1
  Pb  Pb13  1  0.394171  0.999782  0.750032  1
  Pb  Pb14  1  0.000218  0.605829  0.249968  1
  Pb  Pb15  1  0.000218  0.394389  0.750032  1
  Pb  Pb16  1  0.394171  0.394389  0.249968  1
  Pb  Pb17  1  0.605611  0.605829  0.750032  1
