# generated using pymatgen
data_Hf5Ta3(TcOs)4
_symmetry_space_group_name_H-M   'P 1'
_cell_length_a   6.46222503
_cell_length_b   4.57401000
_cell_length_c   9.14043004
_cell_angle_alpha   90.00000000
_cell_angle_beta   90.01036186
_cell_angle_gamma   90.00000000
_symmetry_Int_Tables_number   1
_chemical_formula_structural   Hf5Ta3(TcOs)4
_chemical_formula_sum   'Hf5 Ta3 Tc4 Os4'
_cell_volume   270.17540325
_cell_formula_units_Z   1
loop_
 _symmetry_equiv_pos_site_id
 _symmetry_equiv_pos_as_xyz
  1  'x, y, z'
loop_
 _atom_site_type_symbol
 _atom_site_label
 _atom_site_symmetry_multiplicity
 _atom_site_fract_x
 _atom_site_fract_y
 _atom_site_fract_z
 _atom_site_occupancy
  Hf  Hf0  1  0.500039  0.749999  0.124752  1
  Hf  Hf1  1  0.000049  0.749999  0.124847  1
  Hf  Hf2  1  0.499641  0.250000  0.375119  1
  Hf  Hf3  1  0.000252  0.250000  0.375048  1
  Hf  Hf4  1  0.000362  0.749999  0.625262  1
  Ta  Ta5  1  0.499322  0.749999  0.624958  1
  Ta  Ta6  1  0.999192  0.250000  0.875038  1
  Ta  Ta7  1  0.500854  0.250000  0.875016  1
  Tc  Tc8  1  0.750357  0.250000  0.117363  1
  Tc  Tc9  1  0.252549  0.749999  0.378967  1
  Tc  Tc10  1  0.745403  0.250000  0.631916  1
  Tc  Tc11  1  0.252203  0.749999  0.871708  1
  Os  Os12  1  0.249777  0.250000  0.118048  1
  Os  Os13  1  0.747799  0.749999  0.378576  1
  Os  Os14  1  0.254037  0.250000  0.631484  1
  Os  Os15  1  0.748164  0.749999  0.871898  1
