# generated using pymatgen
data_HfZrB(Ir2Ru)2
_symmetry_space_group_name_H-M   'P 1'
_cell_length_a   5.72997853
_cell_length_b   5.71707205
_cell_length_c   5.72072723
_cell_angle_alpha   60.20065566
_cell_angle_beta   59.94650341
_cell_angle_gamma   59.92527805
_symmetry_Int_Tables_number   1
_chemical_formula_structural   HfZrB(Ir2Ru)2
_chemical_formula_sum   'Hf1 Zr1 B1 Ir4 Ru2'
_cell_volume   132.58498213
_cell_formula_units_Z   1
loop_
 _symmetry_equiv_pos_site_id
 _symmetry_equiv_pos_as_xyz
  1  'x, y, z'
loop_
 _atom_site_type_symbol
 _atom_site_label
 _atom_site_symmetry_multiplicity
 _atom_site_fract_x
 _atom_site_fract_y
 _atom_site_fract_z
 _atom_site_occupancy
  Hf  Hf0  1  0.749997  0.749993  0.750014  1
  Zr  Zr1  1  0.250005  0.249996  0.249993  1
  B  B2  1  0.999994  0.997155  0.002856  1
  Ir  Ir3  1  0.741433  0.258815  0.258319  1
  Ir  Ir4  1  0.258294  0.258642  0.741347  1
  Ir  Ir5  1  0.741717  0.258642  0.741347  1
  Ir  Ir6  1  0.258577  0.741709  0.741137  1
  Ru  Ru7  1  0.742252  0.742523  0.257494  1
  Ru  Ru8  1  0.257731  0.742523  0.257494  1
