# generated using pymatgen
data_Tm20Ir3(OsRh2)3
_symmetry_space_group_name_H-M   'P 1'
_cell_length_a   10.72477120
_cell_length_b   10.72474211
_cell_length_c   6.33082407
_cell_angle_alpha   90.00647693
_cell_angle_beta   90.01617648
_cell_angle_gamma   89.98492334
_symmetry_Int_Tables_number   1
_chemical_formula_structural   Tm20Ir3(OsRh2)3
_chemical_formula_sum   'Tm20 Ir3 Os3 Rh6'
_cell_volume   728.17389193
_cell_formula_units_Z   1
loop_
 _symmetry_equiv_pos_site_id
 _symmetry_equiv_pos_as_xyz
  1  'x, y, z'
loop_
 _atom_site_type_symbol
 _atom_site_label
 _atom_site_symmetry_multiplicity
 _atom_site_fract_x
 _atom_site_fract_y
 _atom_site_fract_z
 _atom_site_occupancy
  Tm  Tm0  1  0.294514  0.086859  0.375650  1
  Tm  Tm1  1  0.294683  0.913312  0.875759  1
  Tm  Tm2  1  0.705491  0.085507  0.876015  1
  Tm  Tm3  1  0.705476  0.913112  0.375549  1
  Tm  Tm4  1  0.585009  0.793502  0.876811  1
  Tm  Tm5  1  0.585021  0.205956  0.375794  1
  Tm  Tm6  1  0.414670  0.793494  0.376371  1
  Tm  Tm7  1  0.413854  0.205977  0.876968  1
  Tm  Tm8  1  0.208760  0.414188  0.625724  1
  Tm  Tm9  1  0.208030  0.586109  0.120405  1
  Tm  Tm10  1  0.792500  0.414198  0.120709  1
  Tm  Tm11  1  0.791747  0.586984  0.625381  1
  Tm  Tm12  1  0.912155  0.707065  0.120880  1
  Tm  Tm13  1  0.913565  0.292181  0.626635  1
  Tm  Tm14  1  0.087555  0.707604  0.626771  1
  Tm  Tm15  1  0.087795  0.292963  0.121123  1
  Tm  Tm16  1  0.999993  0.999962  0.499643  1
  Tm  Tm17  1  0.000024  0.999999  0.999977  1
  Tm  Tm18  1  0.499785  0.500331  0.000081  1
  Tm  Tm19  1  0.499692  0.500209  0.499381  1
  Ir  Ir20  1  0.654185  0.651336  0.250727  1
  Ir  Ir21  1  0.346375  0.348067  0.250438  1
  Ir  Ir22  1  0.346422  0.652196  0.749732  1
  Os  Os23  1  0.500227  0.000442  0.124036  1
  Os  Os24  1  0.500244  0.000451  0.623959  1
  Os  Os25  1  0.999498  0.499758  0.875824  1
  Rh  Rh26  1  0.848775  0.153299  0.250690  1
  Rh  Rh27  1  0.848726  0.847334  0.749790  1
  Rh  Rh28  1  0.151311  0.152666  0.749994  1
  Rh  Rh29  1  0.150864  0.847127  0.250749  1
  Rh  Rh30  1  0.653428  0.347974  0.749886  1
  Rh  Rh31  1  0.999627  0.499838  0.378545  1
