# generated using pymatgen
data_Yb5Ce3(Si4Mo3)4
_symmetry_space_group_name_H-M   'P 1'
_cell_length_a   6.78668492
_cell_length_b   6.97462556
_cell_length_c   12.98475445
_cell_angle_alpha   90.03644037
_cell_angle_beta   89.92868665
_cell_angle_gamma   89.92956628
_symmetry_Int_Tables_number   1
_chemical_formula_structural   Yb5Ce3(Si4Mo3)4
_chemical_formula_sum   'Yb5 Ce3 Si16 Mo12'
_cell_volume   614.62691222
_cell_formula_units_Z   1
loop_
 _symmetry_equiv_pos_site_id
 _symmetry_equiv_pos_as_xyz
  1  'x, y, z'
loop_
 _atom_site_type_symbol
 _atom_site_label
 _atom_site_symmetry_multiplicity
 _atom_site_fract_x
 _atom_site_fract_y
 _atom_site_fract_z
 _atom_site_occupancy
  Yb  Yb0  1  0.496480  0.336457  0.090013  1
  Yb  Yb1  1  0.995916  0.163229  0.408341  1
  Yb  Yb2  1  0.501752  0.664667  0.591857  1
  Yb  Yb3  1  0.002403  0.835604  0.908291  1
  Yb  Yb4  1  0.501878  0.665376  0.909979  1
  Ce  Ce5  1  0.998408  0.831232  0.594912  1
  Ce  Ce6  1  0.499186  0.334794  0.406646  1
  Ce  Ce7  1  0.000446  0.165132  0.091026  1
  Si  Si8  1  0.656184  0.041448  0.546519  1
  Si  Si9  1  0.157308  0.462348  0.952405  1
  Si  Si10  1  0.346687  0.957639  0.047295  1
  Si  Si11  1  0.844699  0.540731  0.452213  1
  Si  Si12  1  0.341232  0.955304  0.452757  1
  Si  Si13  1  0.841827  0.544292  0.046286  1
  Si  Si14  1  0.656560  0.041084  0.951829  1
  Si  Si15  1  0.157793  0.454374  0.546825  1
  Si  Si16  1  0.535148  0.368787  0.750574  1
  Si  Si17  1  0.036613  0.132169  0.750819  1
  Si  Si18  1  0.465125  0.635409  0.247687  1
  Si  Si19  1  0.964530  0.865635  0.251508  1
  Si  Si20  1  0.799899  0.626536  0.752331  1
  Si  Si21  1  0.306921  0.872553  0.752439  1
  Si  Si22  1  0.195044  0.372645  0.249116  1
  Si  Si23  1  0.694769  0.127430  0.248996  1
  Mo  Mo24  1  0.832539  0.332140  0.626821  1
  Mo  Mo25  1  0.332452  0.171082  0.873619  1
  Mo  Mo26  1  0.166100  0.668460  0.126790  1
  Mo  Mo27  1  0.667477  0.833342  0.373714  1
  Mo  Mo28  1  0.169398  0.665103  0.373300  1
  Mo  Mo29  1  0.672096  0.834340  0.127066  1
  Mo  Mo30  1  0.833983  0.330052  0.872807  1
  Mo  Mo31  1  0.331529  0.168475  0.627050  1
  Mo  Mo32  1  0.665292  0.005168  0.749435  1
  Mo  Mo33  1  0.164060  0.496737  0.749170  1
  Mo  Mo34  1  0.333804  0.998925  0.250470  1
  Mo  Mo35  1  0.834464  0.501306  0.249096  1
