# generated using pymatgen
data_La4Pr3Y(MgIr)2
_symmetry_space_group_name_H-M   'P 1'
_cell_length_a   10.08019132
_cell_length_b   10.08019102
_cell_length_c   10.13417700
_cell_angle_alpha   59.82268766
_cell_angle_beta   59.82268866
_cell_angle_gamma   60.35464339
_symmetry_Int_Tables_number   1
_chemical_formula_structural   La4Pr3Y(MgIr)2
_chemical_formula_sum   'La8 Pr6 Y2 Mg4 Ir4'
_cell_volume   728.09163496
_cell_formula_units_Z   2
loop_
 _symmetry_equiv_pos_site_id
 _symmetry_equiv_pos_as_xyz
  1  'x, y, z'
loop_
 _atom_site_type_symbol
 _atom_site_label
 _atom_site_symmetry_multiplicity
 _atom_site_fract_x
 _atom_site_fract_y
 _atom_site_fract_z
 _atom_site_occupancy
  La  La0  1  0.343820  0.343820  0.350547  1
  La  La1  1  0.343820  0.343820  0.961815  1
  La  La2  1  0.350547  0.961815  0.343820  1
  La  La3  1  0.961815  0.350547  0.343820  1
  La  La4  1  0.813551  0.186449  0.186449  1
  La  La5  1  0.186449  0.813551  0.813551  1
  La  La6  1  0.186449  0.813551  0.186449  1
  La  La7  1  0.813551  0.186449  0.813551  1
  Pr  Pr8  1  0.936850  0.563150  0.563150  1
  Pr  Pr9  1  0.563150  0.936850  0.936850  1
  Pr  Pr10  1  0.563150  0.936850  0.563150  1
  Pr  Pr11  1  0.936850  0.563150  0.936850  1
  Pr  Pr12  1  0.561213  0.561213  0.938787  1
  Pr  Pr13  1  0.938787  0.938787  0.561213  1
  Y  Y14  1  0.190683  0.190683  0.809317  1
  Y  Y15  1  0.809317  0.809317  0.190683  1
  Mg  Mg16  1  0.580243  0.580243  0.576994  1
  Mg  Mg17  1  0.580243  0.580243  0.262520  1
  Mg  Mg18  1  0.576994  0.262520  0.580243  1
  Mg  Mg19  1  0.262520  0.576994  0.580243  1
  Ir  Ir20  1  0.139766  0.139766  0.141517  1
  Ir  Ir21  1  0.139766  0.139766  0.578950  1
  Ir  Ir22  1  0.141517  0.578950  0.139766  1
  Ir  Ir23  1  0.578950  0.141517  0.139766  1
