# generated using pymatgen
data_Tb6Zn23As
_symmetry_space_group_name_H-M   'P 1'
_cell_length_a   9.08689533
_cell_length_b   9.08689531
_cell_length_c   9.08689600
_cell_angle_alpha   59.99999750
_cell_angle_beta   59.99999755
_cell_angle_gamma   60.00000252
_symmetry_Int_Tables_number   1
_chemical_formula_structural   Tb6Zn23As
_chemical_formula_sum   'Tb6 Zn23 As1'
_cell_volume   530.55645382
_cell_formula_units_Z   1
loop_
 _symmetry_equiv_pos_site_id
 _symmetry_equiv_pos_as_xyz
  1  'x, y, z'
loop_
 _atom_site_type_symbol
 _atom_site_label
 _atom_site_symmetry_multiplicity
 _atom_site_fract_x
 _atom_site_fract_y
 _atom_site_fract_z
 _atom_site_occupancy
  Tb  Tb0  1  0.716710  0.283290  0.283290  1
  Tb  Tb1  1  0.716710  0.283290  0.716710  1
  Tb  Tb2  1  0.716710  0.716710  0.283290  1
  Tb  Tb3  1  0.283290  0.716710  0.716710  1
  Tb  Tb4  1  0.283290  0.716710  0.283290  1
  Tb  Tb5  1  0.283290  0.283290  0.716710  1
  Zn  Zn6  1  0.621386  0.126205  0.126205  1
  Zn  Zn7  1  0.126205  0.621386  0.126205  1
  Zn  Zn8  1  0.126205  0.126205  0.621386  1
  Zn  Zn9  1  0.126205  0.126205  0.126205  1
  Zn  Zn10  1  0.378614  0.873795  0.873795  1
  Zn  Zn11  1  0.873795  0.378614  0.873795  1
  Zn  Zn12  1  0.873795  0.873795  0.378614  1
  Zn  Zn13  1  0.873795  0.873795  0.873795  1
  Zn  Zn14  1  0.500000  0.000000  0.000000  1
  Zn  Zn15  1  0.500000  0.000000  0.500000  1
  Zn  Zn16  1  0.500000  0.500000  0.000000  1
  Zn  Zn17  1  0.000000  0.500000  0.500000  1
  Zn  Zn18  1  0.000000  0.500000  0.000000  1
  Zn  Zn19  1  0.000000  0.000000  0.500000  1
  Zn  Zn20  1  0.000000  0.000000  0.000000  1
  Zn  Zn21  1  0.010954  0.329681  0.329681  1
  Zn  Zn22  1  0.329681  0.010954  0.329681  1
  Zn  Zn23  1  0.329681  0.329681  0.010954  1
  Zn  Zn24  1  0.329681  0.329681  0.329681  1
  Zn  Zn25  1  0.989046  0.670319  0.670319  1
  Zn  Zn26  1  0.670319  0.989046  0.670319  1
  Zn  Zn27  1  0.670319  0.670319  0.989046  1
  Zn  Zn28  1  0.670319  0.670319  0.670319  1
  As  As29  1  0.500000  0.500000  0.500000  1
