# generated using pymatgen
data_Ho2Er3Co16(TcP4)3
_symmetry_space_group_name_H-M   'P 1'
_cell_length_a   12.01003300
_cell_length_b   12.01003266
_cell_length_c   3.69953900
_cell_angle_alpha   90.00000000
_cell_angle_beta   90.00000000
_cell_angle_gamma   120.00000368
_symmetry_Int_Tables_number   1
_chemical_formula_structural   Ho2Er3Co16(TcP4)3
_chemical_formula_sum   'Ho2 Er3 Co16 Tc3 P12'
_cell_volume   462.13260950
_cell_formula_units_Z   1
loop_
 _symmetry_equiv_pos_site_id
 _symmetry_equiv_pos_as_xyz
  1  'x, y, z'
loop_
 _atom_site_type_symbol
 _atom_site_label
 _atom_site_symmetry_multiplicity
 _atom_site_fract_x
 _atom_site_fract_y
 _atom_site_fract_z
 _atom_site_occupancy
  Ho  Ho0  1  0.666667  0.333333  0.000000  1
  Ho  Ho1  1  0.333333  0.666667  0.000000  1
  Er  Er2  1  0.815369  0.815369  0.500000  1
  Er  Er3  1  0.184631  0.000000  0.500000  1
  Er  Er4  1  0.000000  0.184631  0.500000  1
  Co  Co5  1  0.873829  0.356593  0.500000  1
  Co  Co6  1  0.643407  0.517237  0.500000  1
  Co  Co7  1  0.482763  0.126171  0.500000  1
  Co  Co8  1  0.356593  0.873829  0.500000  1
  Co  Co9  1  0.517237  0.643407  0.500000  1
  Co  Co10  1  0.126171  0.482763  0.500000  1
  Co  Co11  1  0.803542  0.179025  0.000000  1
  Co  Co12  1  0.820975  0.624516  0.000000  1
  Co  Co13  1  0.375484  0.196458  0.000000  1
  Co  Co14  1  0.179025  0.803542  0.000000  1
  Co  Co15  1  0.624516  0.820975  0.000000  1
  Co  Co16  1  0.196458  0.375484  0.000000  1
  Co  Co17  1  0.281798  0.281798  0.500000  1
  Co  Co18  1  0.718202  0.000000  0.500000  1
  Co  Co19  1  0.000000  0.718202  0.500000  1
  Co  Co20  1  0.000000  0.000000  0.000000  1
  Tc  Tc21  1  0.445574  0.445574  0.000000  1
  Tc  Tc22  1  0.554426  0.000000  0.000000  1
  Tc  Tc23  1  0.000000  0.554426  0.000000  1
  P  P24  1  0.686001  0.165137  0.500000  1
  P  P25  1  0.834863  0.520864  0.500000  1
  P  P26  1  0.479136  0.313999  0.500000  1
  P  P27  1  0.165137  0.686001  0.500000  1
  P  P28  1  0.520864  0.834863  0.500000  1
  P  P29  1  0.313999  0.479136  0.500000  1
  P  P30  1  0.178456  0.178456  0.000000  1
  P  P31  1  0.821544  0.000000  0.000000  1
  P  P32  1  0.000000  0.821544  0.000000  1
  P  P33  1  0.637352  0.637352  0.000000  1
  P  P34  1  0.362648  0.000000  0.000000  1
  P  P35  1  0.000000  0.362648  0.000000  1
