# generated using pymatgen
data_La8Dy2IrRh3
_symmetry_space_group_name_H-M   'P 1'
_cell_length_a   6.67302035
_cell_length_b   7.28925349
_cell_length_c   9.19623475
_cell_angle_alpha   95.83893711
_cell_angle_beta   111.00119827
_cell_angle_gamma   89.99254231
_symmetry_Int_Tables_number   1
_chemical_formula_structural   La8Dy2IrRh3
_chemical_formula_sum   'La8 Dy2 Ir1 Rh3'
_cell_volume   415.11861247
_cell_formula_units_Z   1
loop_
 _symmetry_equiv_pos_site_id
 _symmetry_equiv_pos_as_xyz
  1  'x, y, z'
loop_
 _atom_site_type_symbol
 _atom_site_label
 _atom_site_symmetry_multiplicity
 _atom_site_fract_x
 _atom_site_fract_y
 _atom_site_fract_z
 _atom_site_occupancy
  La  La0  1  0.800225  0.082451  0.817073  1
  La  La1  1  0.982651  0.415931  0.181906  1
  La  La2  1  0.201254  0.916212  0.182188  1
  La  La3  1  0.017241  0.584181  0.818080  1
  La  La4  1  0.216156  0.184485  0.573951  1
  La  La5  1  0.640537  0.315459  0.424443  1
  La  La6  1  0.785119  0.815647  0.427441  1
  La  La7  1  0.357212  0.685283  0.575009  1
  Dy  Dy8  1  0.430817  0.248784  0.999262  1
  Dy  Dy9  1  0.566856  0.750496  0.999081  1
  Ir  Ir10  1  0.193921  0.925399  0.787321  1
  Rh  Rh11  1  0.596860  0.425678  0.788430  1
  Rh  Rh12  1  0.808043  0.075605  0.213703  1
  Rh  Rh13  1  0.403110  0.574389  0.212111  1
