# generated using pymatgen
data_Nb8CdRhS16
_symmetry_space_group_name_H-M   'P 1'
_cell_length_a   6.72893500
_cell_length_b   6.72893505
_cell_length_c   12.93389200
_cell_angle_alpha   90.00000000
_cell_angle_beta   90.00000000
_cell_angle_gamma   119.99999482
_symmetry_Int_Tables_number   1
_chemical_formula_structural   Nb8CdRhS16
_chemical_formula_sum   'Nb8 Cd1 Rh1 S16'
_cell_volume   507.16882971
_cell_formula_units_Z   1
loop_
 _symmetry_equiv_pos_site_id
 _symmetry_equiv_pos_as_xyz
  1  'x, y, z'
loop_
 _atom_site_type_symbol
 _atom_site_label
 _atom_site_symmetry_multiplicity
 _atom_site_fract_x
 _atom_site_fract_y
 _atom_site_fract_z
 _atom_site_occupancy
  Nb  Nb0  1  0.000000  0.000000  0.233542  1
  Nb  Nb1  1  0.000000  0.000000  0.766458  1
  Nb  Nb2  1  0.505236  0.010473  0.231117  1
  Nb  Nb3  1  0.989527  0.494764  0.231117  1
  Nb  Nb4  1  0.505236  0.494764  0.231117  1
  Nb  Nb5  1  0.494764  0.989527  0.768883  1
  Nb  Nb6  1  0.010473  0.505236  0.768883  1
  Nb  Nb7  1  0.494764  0.505236  0.768883  1
  Cd  Cd8  1  0.000000  0.000000  0.500000  1
  Rh  Rh9  1  0.000000  0.000000  0.000000  1
  S  S10  1  0.333333  0.666667  0.892267  1
  S  S11  1  0.666667  0.333333  0.107733  1
  S  S12  1  0.666667  0.333333  0.355789  1
  S  S13  1  0.333333  0.666667  0.644211  1
  S  S14  1  0.168410  0.831590  0.353324  1
  S  S15  1  0.168410  0.336821  0.353324  1
  S  S16  1  0.663179  0.831590  0.353324  1
  S  S17  1  0.831590  0.168410  0.646676  1
  S  S18  1  0.831590  0.663179  0.646676  1
  S  S19  1  0.336821  0.168410  0.646676  1
  S  S20  1  0.833649  0.166351  0.886992  1
  S  S21  1  0.833649  0.667298  0.886992  1
  S  S22  1  0.332702  0.166351  0.886992  1
  S  S23  1  0.166351  0.833649  0.113008  1
  S  S24  1  0.166351  0.332702  0.113008  1
  S  S25  1  0.667298  0.833649  0.113008  1
