# generated using pymatgen
data_Ga5Ag3I16
_symmetry_space_group_name_H-M   'P 1'
_cell_length_a   8.62036800
_cell_length_b   8.54791824
_cell_length_c   16.13530751
_cell_angle_alpha   89.27672180
_cell_angle_beta   90.00000000
_cell_angle_gamma   90.00000000
_symmetry_Int_Tables_number   1
_chemical_formula_structural   Ga5Ag3I16
_chemical_formula_sum   'Ga5 Ag3 I16'
_cell_volume   1188.85477951
_cell_formula_units_Z   1
loop_
 _symmetry_equiv_pos_site_id
 _symmetry_equiv_pos_as_xyz
  1  'x, y, z'
loop_
 _atom_site_type_symbol
 _atom_site_label
 _atom_site_symmetry_multiplicity
 _atom_site_fract_x
 _atom_site_fract_y
 _atom_site_fract_z
 _atom_site_occupancy
  Ga  Ga0  1  0.250000  0.352247  0.904511  1
  Ga  Ga1  1  0.750000  0.901197  0.594719  1
  Ga  Ga2  1  0.750000  0.643594  0.104384  1
  Ga  Ga3  1  0.250000  0.121241  0.393667  1
  Ga  Ga4  1  0.250000  0.467986  0.139401  1
  Ag  Ag5  1  0.750000  0.072716  0.387949  1
  Ag  Ag6  1  0.750000  0.439087  0.905701  1
  Ag  Ag7  1  0.250000  0.930419  0.595886  1
  I  I8  1  0.250000  0.141813  0.019270  1
  I  I9  1  0.750000  0.758988  0.452876  1
  I  I10  1  0.750000  0.765534  0.956105  1
  I  I11  1  0.250000  0.251853  0.537877  1
  I  I12  1  0.250000  0.822655  0.420143  1
  I  I13  1  0.750000  0.341624  0.081472  1
  I  I14  1  0.750000  0.197091  0.560510  1
  I  I15  1  0.250000  0.629535  0.968096  1
  I  I16  1  0.990291  0.727703  0.189473  1
  I  I17  1  0.010698  0.208624  0.305231  1
  I  I18  1  0.494357  0.327593  0.810012  1
  I  I19  1  0.511471  0.817291  0.684001  1
  I  I20  1  0.005643  0.327593  0.810012  1
  I  I21  1  0.988529  0.817291  0.684001  1
  I  I22  1  0.509709  0.727703  0.189473  1
  I  I23  1  0.489302  0.208624  0.305231  1
