# generated using pymatgen
data_Gd6LuCrO12
_symmetry_space_group_name_H-M   'P 1'
_cell_length_a   6.71017317
_cell_length_b   6.71017323
_cell_length_c   6.71017300
_cell_angle_alpha   93.34192177
_cell_angle_beta   93.34193036
_cell_angle_gamma   93.34192127
_symmetry_Int_Tables_number   1
_chemical_formula_structural   Gd6LuCrO12
_chemical_formula_sum   'Gd6 Lu1 Cr1 O12'
_cell_volume   300.53088910
_cell_formula_units_Z   1
loop_
 _symmetry_equiv_pos_site_id
 _symmetry_equiv_pos_as_xyz
  1  'x, y, z'
loop_
 _atom_site_type_symbol
 _atom_site_label
 _atom_site_symmetry_multiplicity
 _atom_site_fract_x
 _atom_site_fract_y
 _atom_site_fract_z
 _atom_site_occupancy
  Gd  Gd0  1  0.739885  0.924130  0.435039  1
  Gd  Gd1  1  0.435039  0.739885  0.924130  1
  Gd  Gd2  1  0.075870  0.564961  0.260115  1
  Gd  Gd3  1  0.924130  0.435039  0.739885  1
  Gd  Gd4  1  0.564961  0.260115  0.075870  1
  Gd  Gd5  1  0.260115  0.075870  0.564961  1
  Lu  Lu6  1  0.000000  0.000000  0.000000  1
  Cr  Cr7  1  0.500000  0.500000  0.500000  1
  O  O8  1  0.066004  0.913676  0.311858  1
  O  O9  1  0.688142  0.933996  0.086324  1
  O  O10  1  0.460047  0.795287  0.586250  1
  O  O11  1  0.086324  0.688142  0.933996  1
  O  O12  1  0.795287  0.586250  0.460047  1
  O  O13  1  0.413750  0.539953  0.204713  1
  O  O14  1  0.586250  0.460047  0.795287  1
  O  O15  1  0.204713  0.413750  0.539953  1
  O  O16  1  0.913676  0.311858  0.066004  1
  O  O17  1  0.539953  0.204713  0.413750  1
  O  O18  1  0.311858  0.066004  0.913676  1
  O  O19  1  0.933996  0.086324  0.688142  1
