# generated using pymatgen
data_Ca3Hf2Ga2SiO12
_symmetry_space_group_name_H-M   'P 1'
_cell_length_a   10.95851844
_cell_length_b   10.95853035
_cell_length_c   10.95852466
_cell_angle_alpha   109.01595409
_cell_angle_beta   109.01591133
_cell_angle_gamma   110.38584633
_symmetry_Int_Tables_number   1
_chemical_formula_structural   Ca3Hf2Ga2SiO12
_chemical_formula_sum   'Ca12 Hf8 Ga8 Si4 O48'
_cell_volume   1012.86215232
_cell_formula_units_Z   4
loop_
 _symmetry_equiv_pos_site_id
 _symmetry_equiv_pos_as_xyz
  1  'x, y, z'
loop_
 _atom_site_type_symbol
 _atom_site_label
 _atom_site_symmetry_multiplicity
 _atom_site_fract_x
 _atom_site_fract_y
 _atom_site_fract_z
 _atom_site_occupancy
  Ca  Ca0  1  0.375000  0.749669  0.874669  1
  Ca  Ca1  1  0.249999  0.249999  0.999998  1
  Ca  Ca2  1  0.999668  0.624999  0.874669  1
  Ca  Ca3  1  0.750332  0.125000  0.125332  1
  Ca  Ca4  1  0.374999  0.249668  0.374669  1
  Ca  Ca5  1  0.750000  0.750000  0.999999  1
  Ca  Ca6  1  0.500000  0.000000  0.500001  1
  Ca  Ca7  1  0.875001  0.500332  0.125331  1
  Ca  Ca8  1  0.499668  0.625000  0.374668  1
  Ca  Ca9  1  0.250332  0.125001  0.625331  1
  Ca  Ca10  1  0.000001  0.500001  0.500002  1
  Ca  Ca11  1  0.875000  0.000331  0.625331  1
  Hf  Hf12  1  0.125000  0.875000  0.750000  1
  Hf  Hf13  1  0.625000  0.875000  0.750000  1
  Hf  Hf14  1  0.125000  0.375000  0.750000  1
  Hf  Hf15  1  0.625000  0.375000  0.750000  1
  Hf  Hf16  1  0.125000  0.875000  0.250000  1
  Hf  Hf17  1  0.625000  0.875000  0.250000  1
  Hf  Hf18  1  0.125000  0.375000  0.250000  1
  Hf  Hf19  1  0.625000  0.375000  0.250000  1
  Ga  Ga20  1  0.500881  0.125000  0.875881  1
  Ga  Ga21  1  0.875000  0.250881  0.875880  1
  Ga  Ga22  1  0.375000  0.999119  0.124119  1
  Ga  Ga23  1  0.249119  0.625000  0.124120  1
  Ga  Ga24  1  0.000881  0.125000  0.375880  1
  Ga  Ga25  1  0.875000  0.750881  0.375881  1
  Ga  Ga26  1  0.375000  0.499119  0.624120  1
  Ga  Ga27  1  0.749119  0.625000  0.624119  1
  Si  Si28  1  0.000000  0.000000  0.000000  1
  Si  Si29  1  0.500000  0.500000  0.000000  1
  Si  Si30  1  0.750000  0.250000  0.500000  1
  Si  Si31  1  0.250000  0.750000  0.500000  1
  O  O32  1  0.325155  0.376497  0.863692  1
  O  O33  1  0.546278  0.975066  0.874138  1
  O  O34  1  0.529241  0.693413  0.777746  1
  O  O35  1  0.306587  0.084332  0.835828  1
  O  O36  1  0.029241  0.251495  0.835828  1
  O  O37  1  0.038537  0.987195  0.863692  1
  O  O38  1  0.225065  0.850927  0.928787  1
  O  O39  1  0.415667  0.193414  0.164172  1
  O  O40  1  0.524934  0.953722  0.125862  1
  O  O41  1  0.538537  0.674844  0.051342  1
  O  O42  1  0.922140  0.296279  0.071213  1
  O  O43  1  0.748505  0.584333  0.777746  1
  O  O44  1  0.203722  0.577860  0.928787  1
  O  O45  1  0.825155  0.961463  0.948658  1
  O  O46  1  0.123503  0.174844  0.136308  1
  O  O47  1  0.649073  0.274935  0.071213  1
  O  O48  1  0.012805  0.876497  0.051342  1
  O  O49  1  0.827860  0.399073  0.874138  1
  O  O50  1  0.512805  0.461463  0.136308  1
  O  O51  1  0.334333  0.998505  0.277746  1
  O  O52  1  0.443413  0.779241  0.277746  1
  O  O53  1  0.100927  0.672140  0.125862  1
  O  O54  1  0.001495  0.279242  0.335828  1
  O  O55  1  0.623503  0.487195  0.948658  1
  O  O56  1  0.248505  0.470758  0.164172  1
  O  O57  1  0.626497  0.262805  0.551342  1
  O  O58  1  0.149073  0.077860  0.374138  1
  O  O59  1  0.806587  0.970759  0.222254  1
  O  O60  1  0.915667  0.751495  0.222254  1
  O  O61  1  0.737195  0.288537  0.363692  1
  O  O62  1  0.422140  0.350927  0.625862  1
  O  O63  1  0.237195  0.873503  0.448658  1
  O  O64  1  0.600927  0.475065  0.428787  1
  O  O65  1  0.126497  0.575156  0.363692  1
  O  O66  1  0.424845  0.788537  0.551342  1
  O  O67  1  0.046278  0.172140  0.571213  1
  O  O68  1  0.501495  0.165667  0.722254  1
  O  O69  1  0.327860  0.453721  0.428787  1
  O  O70  1  0.711463  0.075156  0.448658  1
  O  O71  1  0.725066  0.796278  0.374138  1
  O  O72  1  0.834333  0.556586  0.335828  1
  O  O73  1  0.024935  0.899073  0.571213  1
  O  O74  1  0.211463  0.762805  0.636308  1
  O  O75  1  0.220759  0.498505  0.664172  1
  O  O76  1  0.943413  0.665668  0.664172  1
  O  O77  1  0.720759  0.056587  0.722254  1
  O  O78  1  0.703722  0.774934  0.625862  1
  O  O79  1  0.924845  0.373503  0.636308  1
