# generated using pymatgen
data_CaLa6RuBr12
_symmetry_space_group_name_H-M   'P 1'
_cell_length_a   9.53428906
_cell_length_b   9.87606097
_cell_length_c   9.86709046
_cell_angle_alpha   107.83325522
_cell_angle_beta   106.92452224
_cell_angle_gamma   106.68013796
_symmetry_Int_Tables_number   1
_chemical_formula_structural   CaLa6RuBr12
_chemical_formula_sum   'Ca1 La6 Ru1 Br12'
_cell_volume   770.59216601
_cell_formula_units_Z   1
loop_
 _symmetry_equiv_pos_site_id
 _symmetry_equiv_pos_as_xyz
  1  'x, y, z'
loop_
 _atom_site_type_symbol
 _atom_site_label
 _atom_site_symmetry_multiplicity
 _atom_site_fract_x
 _atom_site_fract_y
 _atom_site_fract_z
 _atom_site_occupancy
  Ca  Ca0  1  0.500000  0.500000  0.500000  1
  La  La1  1  0.298973  0.101411  0.024669  1
  La  La2  1  0.023998  0.324856  0.113693  1
  La  La3  1  0.114063  0.028310  0.323124  1
  La  La4  1  0.885936  0.971690  0.676876  1
  La  La5  1  0.976002  0.675144  0.886306  1
  La  La6  1  0.701027  0.898589  0.975330  1
  Ru  Ru7  1  0.000000  0.000000  0.000000  1
  Br  Br8  1  0.679468  0.215755  0.069370  1
  Br  Br9  1  0.379386  0.456328  0.173478  1
  Br  Br10  1  0.071017  0.685942  0.215059  1
  Br  Br11  1  0.782103  0.928521  0.314947  1
  Br  Br12  1  0.463452  0.175411  0.380382  1
  Br  Br13  1  0.166582  0.378026  0.458830  1
  Br  Br14  1  0.833419  0.621974  0.541171  1
  Br  Br15  1  0.536548  0.824590  0.619618  1
  Br  Br16  1  0.217896  0.071479  0.685053  1
  Br  Br17  1  0.928983  0.314058  0.784940  1
  Br  Br18  1  0.620615  0.543673  0.826522  1
  Br  Br19  1  0.320532  0.784244  0.930630  1
