# generated using pymatgen
data_Tb4ErSi9P3Ir19
_symmetry_space_group_name_H-M   'P 1'
_cell_length_a   12.83039800
_cell_length_b   12.83039747
_cell_length_c   3.95043600
_cell_angle_alpha   90.00000000
_cell_angle_beta   90.00000000
_cell_angle_gamma   120.00000136
_symmetry_Int_Tables_number   1
_chemical_formula_structural   Tb4ErSi9P3Ir19
_chemical_formula_sum   'Tb4 Er1 Si9 P3 Ir19'
_cell_volume   563.19124518
_cell_formula_units_Z   1
loop_
 _symmetry_equiv_pos_site_id
 _symmetry_equiv_pos_as_xyz
  1  'x, y, z'
loop_
 _atom_site_type_symbol
 _atom_site_label
 _atom_site_symmetry_multiplicity
 _atom_site_fract_x
 _atom_site_fract_y
 _atom_site_fract_z
 _atom_site_occupancy
  Tb  Tb0  1  0.666667  0.333333  0.000000  1
  Tb  Tb1  1  0.814337  0.814238  0.500000  1
  Tb  Tb2  1  0.185762  0.000099  0.500000  1
  Tb  Tb3  1  0.999901  0.185663  0.500000  1
  Er  Er4  1  0.333333  0.666667  0.000000  1
  Si  Si5  1  0.686413  0.167226  0.500000  1
  Si  Si6  1  0.832774  0.519186  0.500000  1
  Si  Si7  1  0.480814  0.313587  0.500000  1
  Si  Si8  1  0.168387  0.686785  0.500000  1
  Si  Si9  1  0.518398  0.831613  0.500000  1
  Si  Si10  1  0.313215  0.481602  0.500000  1
  Si  Si11  1  0.632614  0.632555  0.000000  1
  Si  Si12  1  0.367445  0.000059  0.000000  1
  Si  Si13  1  0.999941  0.367386  0.000000  1
  P  P14  1  0.178658  0.179039  0.000000  1
  P  P15  1  0.820961  0.999619  0.000000  1
  P  P16  1  0.000381  0.821342  0.000000  1
  Ir  Ir17  1  0.806501  0.179448  0.000000  1
  Ir  Ir18  1  0.820552  0.627052  0.000000  1
  Ir  Ir19  1  0.372948  0.193499  0.000000  1
  Ir  Ir20  1  0.180174  0.806361  0.000000  1
  Ir  Ir21  1  0.626188  0.819826  0.000000  1
  Ir  Ir22  1  0.193639  0.373812  0.000000  1
  Ir  Ir23  1  0.447005  0.446916  0.000000  1
  Ir  Ir24  1  0.553084  0.000089  0.000000  1
  Ir  Ir25  1  0.999911  0.552995  0.000000  1
  Ir  Ir26  1  0.278423  0.278811  0.500000  1
  Ir  Ir27  1  0.721189  0.999611  0.500000  1
  Ir  Ir28  1  0.000389  0.721577  0.500000  1
  Ir  Ir29  1  0.872796  0.359808  0.500000  1
  Ir  Ir30  1  0.640192  0.512989  0.500000  1
  Ir  Ir31  1  0.487011  0.127204  0.500000  1
  Ir  Ir32  1  0.360169  0.872104  0.500000  1
  Ir  Ir33  1  0.511935  0.639831  0.500000  1
  Ir  Ir34  1  0.127896  0.488065  0.500000  1
  Ir  Ir35  1  0.000000  0.000000  0.000000  1
