# generated using pymatgen
data_KBa2CrCo5P6
_symmetry_space_group_name_H-M   'P 1'
_cell_length_a   5.35014787
_cell_length_b   6.91053752
_cell_length_c   8.45338857
_cell_angle_alpha   111.48152811
_cell_angle_beta   108.45727223
_cell_angle_gamma   90.00269031
_symmetry_Int_Tables_number   1
_chemical_formula_structural   KBa2CrCo5P6
_chemical_formula_sum   'K1 Ba2 Cr1 Co5 P6'
_cell_volume   273.47908596
_cell_formula_units_Z   1
loop_
 _symmetry_equiv_pos_site_id
 _symmetry_equiv_pos_as_xyz
  1  'x, y, z'
loop_
 _atom_site_type_symbol
 _atom_site_label
 _atom_site_symmetry_multiplicity
 _atom_site_fract_x
 _atom_site_fract_y
 _atom_site_fract_z
 _atom_site_occupancy
  K  K0  1  0.998785  0.997528  0.998868  1
  Ba  Ba1  1  0.665070  0.998956  0.321956  1
  Ba  Ba2  1  0.338030  0.003734  0.678838  1
  Cr  Cr3  1  0.415720  0.501094  0.333761  1
  Co  Co4  1  0.082686  0.499516  0.666516  1
  Co  Co5  1  0.750828  0.499405  0.999540  1
  Co  Co6  1  0.584587  0.498752  0.668906  1
  Co  Co7  1  0.247439  0.499592  0.996854  1
  Co  Co8  1  0.917751  0.501705  0.334416  1
  P  P9  1  0.217996  0.313654  0.438076  1
  P  P10  1  0.886504  0.319823  0.773004  1
  P  P11  1  0.553744  0.316060  0.106629  1
  P  P12  1  0.780949  0.687151  0.561245  1
  P  P13  1  0.445915  0.675763  0.891655  1
  P  P14  1  0.113996  0.687267  0.229737  1
