# generated using pymatgen
data_Er(Tm2Ir)2
_symmetry_space_group_name_H-M   'P 1'
_cell_length_a   6.43167105
_cell_length_b   7.15743354
_cell_length_c   8.36826958
_cell_angle_alpha   96.45258635
_cell_angle_beta   112.59961689
_cell_angle_gamma   89.99999922
_symmetry_Int_Tables_number   1
_chemical_formula_structural   Er(Tm2Ir)2
_chemical_formula_sum   'Er2 Tm8 Ir4'
_cell_volume   353.00179498
_cell_formula_units_Z   2
loop_
 _symmetry_equiv_pos_site_id
 _symmetry_equiv_pos_as_xyz
  1  'x, y, z'
loop_
 _atom_site_type_symbol
 _atom_site_label
 _atom_site_symmetry_multiplicity
 _atom_site_fract_x
 _atom_site_fract_y
 _atom_site_fract_z
 _atom_site_occupancy
  Er  Er0  1  0.970338  0.919216  0.182015  1
  Er  Er1  1  0.788322  0.580784  0.817985  1
  Tm  Tm2  1  0.029945  0.081217  0.818234  1
  Tm  Tm3  1  0.211711  0.418783  0.181766  1
  Tm  Tm4  1  0.653996  0.818315  0.442499  1
  Tm  Tm5  1  0.211498  0.681685  0.557501  1
  Tm  Tm6  1  0.345878  0.181818  0.557654  1
  Tm  Tm7  1  0.788224  0.318182  0.442346  1
  Tm  Tm8  1  0.427141  0.750000  0.000000  1
  Tm  Tm9  1  0.572378  0.250000  0.000000  1
  Ir  Ir10  1  0.826834  0.573073  0.218652  1
  Ir  Ir11  1  0.608181  0.926927  0.781348  1
  Ir  Ir12  1  0.173554  0.426319  0.781552  1
  Ir  Ir13  1  0.392001  0.073681  0.218448  1
