# generated using pymatgen
data_Tm3GaSn3RuRh
_symmetry_space_group_name_H-M   'P 1'
_cell_length_a   7.41658100
_cell_length_b   7.41658077
_cell_length_c   4.04244000
_cell_angle_alpha   90.00000000
_cell_angle_beta   90.00000000
_cell_angle_gamma   120.00000549
_symmetry_Int_Tables_number   1
_chemical_formula_structural   Tm3GaSn3RuRh
_chemical_formula_sum   'Tm3 Ga1 Sn3 Ru1 Rh1'
_cell_volume   192.56691159
_cell_formula_units_Z   1
loop_
 _symmetry_equiv_pos_site_id
 _symmetry_equiv_pos_as_xyz
  1  'x, y, z'
loop_
 _atom_site_type_symbol
 _atom_site_label
 _atom_site_symmetry_multiplicity
 _atom_site_fract_x
 _atom_site_fract_y
 _atom_site_fract_z
 _atom_site_occupancy
  Tm  Tm0  1  0.014090  0.409287  0.000000  1
  Tm  Tm1  1  0.590713  0.604803  0.000000  1
  Tm  Tm2  1  0.395197  0.985910  0.000000  1
  Ga  Ga3  1  0.666667  0.333333  0.500000  1
  Sn  Sn4  1  0.253568  0.257102  0.500000  1
  Sn  Sn5  1  0.003534  0.746432  0.500000  1
  Sn  Sn6  1  0.742898  0.996466  0.500000  1
  Ru  Ru7  1  0.000000  0.000000  0.000000  1
  Rh  Rh8  1  0.333333  0.666667  0.500000  1
