# generated using pymatgen
data_Ho12CdInSi4
_symmetry_space_group_name_H-M   'P 1'
_cell_length_a   8.47671968
_cell_length_b   8.47672067
_cell_length_c   8.47672117
_cell_angle_alpha   112.18219547
_cell_angle_beta   111.16545346
_cell_angle_gamma   105.15223993
_symmetry_Int_Tables_number   1
_chemical_formula_structural   Ho12CdInSi4
_chemical_formula_sum   'Ho12 Cd1 In1 Si4'
_cell_volume   466.86159769
_cell_formula_units_Z   1
loop_
 _symmetry_equiv_pos_site_id
 _symmetry_equiv_pos_as_xyz
  1  'x, y, z'
loop_
 _atom_site_type_symbol
 _atom_site_label
 _atom_site_symmetry_multiplicity
 _atom_site_fract_x
 _atom_site_fract_y
 _atom_site_fract_z
 _atom_site_occupancy
  Ho  Ho0  1  0.319790  0.615628  0.295836  1
  Ho  Ho1  1  0.680210  0.384372  0.704164  1
  Ho  Ho2  1  0.319790  0.023953  0.704164  1
  Ho  Ho3  1  0.680210  0.976047  0.295836  1
  Ho  Ho4  1  0.185230  0.276800  0.462029  1
  Ho  Ho5  1  0.814770  0.723200  0.537971  1
  Ho  Ho6  1  0.185230  0.723200  0.908430  1
  Ho  Ho7  1  0.814770  0.276800  0.091570  1
  Ho  Ho8  1  0.442503  0.238857  0.203646  1
  Ho  Ho9  1  0.557497  0.761143  0.796354  1
  Ho  Ho10  1  0.035211  0.238857  0.796354  1
  Ho  Ho11  1  0.964789  0.761143  0.203646  1
  Cd  Cd12  1  0.000000  0.000000  0.000000  1
  In  In13  1  0.500000  0.500000  0.000000  1
  Si  Si14  1  0.116414  0.616414  0.500000  1
  Si  Si15  1  0.883586  0.383586  0.500000  1
  Si  Si16  1  0.364934  0.000000  0.364934  1
  Si  Si17  1  0.635066  0.000000  0.635066  1
