# generated using pymatgen
data_HoEr3TcB12Ru
_symmetry_space_group_name_H-M   'P 1'
_cell_length_a   3.64906000
_cell_length_b   9.11331349
_cell_length_c   11.49457400
_cell_angle_alpha   89.85530017
_cell_angle_beta   90.00000000
_cell_angle_gamma   90.00000000
_symmetry_Int_Tables_number   1
_chemical_formula_structural   HoEr3TcB12Ru
_chemical_formula_sum   'Ho2 Er6 Tc2 B24 Ru2'
_cell_volume   382.25115818
_cell_formula_units_Z   2
loop_
 _symmetry_equiv_pos_site_id
 _symmetry_equiv_pos_as_xyz
  1  'x, y, z'
loop_
 _atom_site_type_symbol
 _atom_site_label
 _atom_site_symmetry_multiplicity
 _atom_site_fract_x
 _atom_site_fract_y
 _atom_site_fract_z
 _atom_site_occupancy
  Ho  Ho0  1  0.000000  0.324814  0.415542  1
  Ho  Ho1  1  0.000000  0.675186  0.584458  1
  Er  Er2  1  0.000000  0.821041  0.087401  1
  Er  Er3  1  0.000000  0.178959  0.912599  1
  Er  Er4  1  0.000000  0.942259  0.370547  1
  Er  Er5  1  0.000000  0.057741  0.629453  1
  Er  Er6  1  0.000000  0.443178  0.129850  1
  Er  Er7  1  0.000000  0.556822  0.870150  1
  Tc  Tc8  1  0.000000  0.638821  0.319832  1
  Tc  Tc9  1  0.000000  0.361179  0.680168  1
  B  B10  1  0.500000  0.553206  0.433007  1
  B  B11  1  0.500000  0.446794  0.566993  1
  B  B12  1  0.500000  0.053727  0.066662  1
  B  B13  1  0.500000  0.946273  0.933338  1
  B  B14  1  0.500000  0.749005  0.418986  1
  B  B15  1  0.500000  0.250995  0.581014  1
  B  B16  1  0.500000  0.248880  0.080813  1
  B  B17  1  0.500000  0.751120  0.919187  1
  B  B18  1  0.500000  0.792076  0.264859  1
  B  B19  1  0.500000  0.207924  0.735141  1
  B  B20  1  0.500000  0.290950  0.234270  1
  B  B21  1  0.500000  0.709050  0.765730  1
  B  B22  1  0.500000  0.631275  0.184685  1
  B  B23  1  0.500000  0.368725  0.815315  1
  B  B24  1  0.500000  0.130756  0.314254  1
  B  B25  1  0.500000  0.869244  0.685746  1
  B  B26  1  0.500000  0.982693  0.211773  1
  B  B27  1  0.500000  0.017307  0.788227  1
  B  B28  1  0.500000  0.482365  0.287466  1
  B  B29  1  0.500000  0.517635  0.712534  1
  B  B30  1  0.500000  0.603347  0.028370  1
  B  B31  1  0.500000  0.396653  0.971630  1
  B  B32  1  0.500000  0.102964  0.471312  1
  B  B33  1  0.500000  0.897036  0.528688  1
  Ru  Ru34  1  0.000000  0.137687  0.178366  1
  Ru  Ru35  1  0.000000  0.862313  0.821634  1
