# generated using pymatgen
data_Dy6Y2TiV3O20
_symmetry_space_group_name_H-M   'P 1'
_cell_length_a   3.72824300
_cell_length_b   10.40930832
_cell_length_c   11.28907669
_cell_angle_alpha   90.09040268
_cell_angle_beta   90.00000000
_cell_angle_gamma   90.00000000
_symmetry_Int_Tables_number   1
_chemical_formula_structural   Dy6Y2TiV3O20
_chemical_formula_sum   'Dy6 Y2 Ti1 V3 O20'
_cell_volume   438.11080711
_cell_formula_units_Z   1
loop_
 _symmetry_equiv_pos_site_id
 _symmetry_equiv_pos_as_xyz
  1  'x, y, z'
loop_
 _atom_site_type_symbol
 _atom_site_label
 _atom_site_symmetry_multiplicity
 _atom_site_fract_x
 _atom_site_fract_y
 _atom_site_fract_z
 _atom_site_occupancy
  Dy  Dy0  1  0.250000  0.637321  0.554409  1
  Dy  Dy1  1  0.750000  0.363795  0.445558  1
  Dy  Dy2  1  0.750000  0.381596  0.773294  1
  Dy  Dy3  1  0.750000  0.880240  0.725527  1
  Dy  Dy4  1  0.250000  0.617225  0.224818  1
  Dy  Dy5  1  0.250000  0.117949  0.275430  1
  Y  Y6  1  0.250000  0.136263  0.943733  1
  Y  Y7  1  0.750000  0.862596  0.055802  1
  Ti  Ti8  1  0.750000  0.326496  0.119485  1
  V  V9  1  0.250000  0.170955  0.618429  1
  V  V10  1  0.250000  0.671092  0.880980  1
  V  V11  1  0.750000  0.828605  0.381140  1
  O  O12  1  0.250000  0.226049  0.457428  1
  O  O13  1  0.250000  0.726247  0.042129  1
  O  O14  1  0.750000  0.773843  0.542602  1
  O  O15  1  0.750000  0.276675  0.956814  1
  O  O16  1  0.250000  0.493977  0.395178  1
  O  O17  1  0.250000  0.995080  0.105858  1
  O  O18  1  0.750000  0.506074  0.605368  1
  O  O19  1  0.750000  0.006357  0.894075  1
  O  O20  1  0.250000  0.264806  0.117451  1
  O  O21  1  0.250000  0.764634  0.383857  1
  O  O22  1  0.750000  0.734870  0.883097  1
  O  O23  1  0.750000  0.235091  0.615931  1
  O  O24  1  0.250000  0.008342  0.654166  1
  O  O25  1  0.250000  0.508294  0.845540  1
  O  O26  1  0.750000  0.991743  0.346296  1
  O  O27  1  0.750000  0.493216  0.154812  1
  O  O28  1  0.250000  0.258229  0.769047  1
  O  O29  1  0.250000  0.758123  0.730404  1
  O  O30  1  0.750000  0.743060  0.230594  1
  O  O31  1  0.750000  0.241160  0.270747  1
