# generated using pymatgen
data_Zr10GaSn5Bi2
_symmetry_space_group_name_H-M   'P 1'
_cell_length_a   8.86118157
_cell_length_b   8.84412746
_cell_length_c   5.94624028
_cell_angle_alpha   89.96511092
_cell_angle_beta   90.01741308
_cell_angle_gamma   119.93635307
_symmetry_Int_Tables_number   1
_chemical_formula_structural   Zr10GaSn5Bi2
_chemical_formula_sum   'Zr10 Ga1 Sn5 Bi2'
_cell_volume   403.82928568
_cell_formula_units_Z   1
loop_
 _symmetry_equiv_pos_site_id
 _symmetry_equiv_pos_as_xyz
  1  'x, y, z'
loop_
 _atom_site_type_symbol
 _atom_site_label
 _atom_site_symmetry_multiplicity
 _atom_site_fract_x
 _atom_site_fract_y
 _atom_site_fract_z
 _atom_site_occupancy
  Zr  Zr0  1  0.669849  0.335764  0.003335  1
  Zr  Zr1  1  0.330151  0.665916  0.003335  1
  Zr  Zr2  1  0.330186  0.665835  0.496401  1
  Zr  Zr3  1  0.669814  0.335648  0.496401  1
  Zr  Zr4  1  0.731887  0.726542  0.733481  1
  Zr  Zr5  1  0.268113  0.994655  0.733481  1
  Zr  Zr6  1  0.000000  0.274434  0.734274  1
  Zr  Zr7  1  0.275066  0.275295  0.265527  1
  Zr  Zr8  1  0.724934  0.000229  0.265527  1
  Zr  Zr9  1  0.000000  0.723563  0.266199  1
  Ga  Ga10  1  0.000000  0.000628  0.497508  1
  Sn  Sn11  1  0.000000  0.000098  0.002342  1
  Sn  Sn12  1  0.000000  0.610391  0.754261  1
  Sn  Sn13  1  0.614294  0.615265  0.246132  1
  Sn  Sn14  1  0.385706  0.000970  0.246132  1
  Sn  Sn15  1  0.000000  0.386390  0.245660  1
  Bi  Bi16  1  0.389817  0.389097  0.755001  1
  Bi  Bi17  1  0.610183  0.999280  0.755001  1
