# generated using pymatgen
data_CrNi2Sb12Os
_symmetry_space_group_name_H-M   'P 1'
_cell_length_a   8.03951629
_cell_length_b   8.07222120
_cell_length_c   9.32452384
_cell_angle_alpha   55.22327286
_cell_angle_beta   55.10841145
_cell_angle_gamma   71.16159579
_symmetry_Int_Tables_number   1
_chemical_formula_structural   CrNi2Sb12Os
_chemical_formula_sum   'Cr1 Ni2 Sb12 Os1'
_cell_volume   407.68767572
_cell_formula_units_Z   1
loop_
 _symmetry_equiv_pos_site_id
 _symmetry_equiv_pos_as_xyz
  1  'x, y, z'
loop_
 _atom_site_type_symbol
 _atom_site_label
 _atom_site_symmetry_multiplicity
 _atom_site_fract_x
 _atom_site_fract_y
 _atom_site_fract_z
 _atom_site_occupancy
  Cr  Cr0  1  0.500000  0.000000  0.000000  1
  Ni  Ni1  1  0.000000  0.500000  0.500000  1
  Ni  Ni2  1  0.500000  0.000000  0.500000  1
  Sb  Sb3  1  0.153542  0.156324  0.181708  1
  Sb  Sb4  1  0.846458  0.843676  0.818292  1
  Sb  Sb5  1  0.841947  0.842233  0.497435  1
  Sb  Sb6  1  0.158053  0.157767  0.502565  1
  Sb  Sb7  1  0.818674  0.507214  0.338777  1
  Sb  Sb8  1  0.181326  0.492786  0.661223  1
  Sb  Sb9  1  0.504264  0.817238  0.344005  1
  Sb  Sb10  1  0.495736  0.182762  0.655995  1
  Sb  Sb11  1  0.665688  0.344930  0.837145  1
  Sb  Sb12  1  0.334312  0.655070  0.162855  1
  Sb  Sb13  1  0.659387  0.333600  0.159159  1
  Sb  Sb14  1  0.340613  0.666400  0.840841  1
  Os  Os15  1  0.000000  0.500000  0.000000  1
