# generated using pymatgen
data_Ho2SiPt8
_symmetry_space_group_name_H-M   'P 1'
_cell_length_a   4.06669600
_cell_length_b   4.06669600
_cell_length_c   11.28423500
_cell_angle_alpha   90.00000000
_cell_angle_beta   90.00000000
_cell_angle_gamma   90.00000000
_symmetry_Int_Tables_number   1
_chemical_formula_structural   Ho2SiPt8
_chemical_formula_sum   'Ho2 Si1 Pt8'
_cell_volume   186.61886300
_cell_formula_units_Z   1
loop_
 _symmetry_equiv_pos_site_id
 _symmetry_equiv_pos_as_xyz
  1  'x, y, z'
loop_
 _atom_site_type_symbol
 _atom_site_label
 _atom_site_symmetry_multiplicity
 _atom_site_fract_x
 _atom_site_fract_y
 _atom_site_fract_z
 _atom_site_occupancy
  Ho  Ho0  1  0.500000  0.500000  0.814720  1
  Ho  Ho1  1  0.500000  0.500000  0.185280  1
  Si  Si2  1  0.000000  0.000000  0.500000  1
  Pt  Pt3  1  0.500000  0.000000  0.000000  1
  Pt  Pt4  1  0.000000  0.500000  0.000000  1
  Pt  Pt5  1  0.500000  0.000000  0.627544  1
  Pt  Pt6  1  0.000000  0.500000  0.627544  1
  Pt  Pt7  1  0.500000  0.000000  0.372456  1
  Pt  Pt8  1  0.000000  0.500000  0.372456  1
  Pt  Pt9  1  0.000000  0.000000  0.817022  1
  Pt  Pt10  1  0.000000  0.000000  0.182978  1
