# generated using pymatgen
data_Sr6HoV(BO3)6
_symmetry_space_group_name_H-M   'P 1'
_cell_length_a   7.77218281
_cell_length_b   7.77218300
_cell_length_c   7.77218334
_cell_angle_alpha   105.25144751
_cell_angle_beta   105.25144778
_cell_angle_gamma   105.25143905
_symmetry_Int_Tables_number   1
_chemical_formula_structural   Sr6HoV(BO3)6
_chemical_formula_sum   'Sr6 Ho1 V1 B6 O18'
_cell_volume   408.21577651
_cell_formula_units_Z   1
loop_
 _symmetry_equiv_pos_site_id
 _symmetry_equiv_pos_as_xyz
  1  'x, y, z'
loop_
 _atom_site_type_symbol
 _atom_site_label
 _atom_site_symmetry_multiplicity
 _atom_site_fract_x
 _atom_site_fract_y
 _atom_site_fract_z
 _atom_site_occupancy
  Sr  Sr0  1  0.648832  0.265530  0.162556  1
  Sr  Sr1  1  0.162556  0.648832  0.265530  1
  Sr  Sr2  1  0.734469  0.837445  0.351168  1
  Sr  Sr3  1  0.265531  0.162555  0.648832  1
  Sr  Sr4  1  0.837445  0.351168  0.734470  1
  Sr  Sr5  1  0.351168  0.734470  0.837444  1
  Ho  Ho6  1  0.000000  0.000000  0.000000  1
  V  V7  1  0.500000  0.500000  0.500000  1
  B  B8  1  0.295557  0.377659  0.045898  1
  B  B9  1  0.377658  0.045898  0.295557  1
  B  B10  1  0.045898  0.295557  0.377658  1
  B  B11  1  0.954102  0.704444  0.622342  1
  B  B12  1  0.622342  0.954103  0.704443  1
  B  B13  1  0.704444  0.622342  0.954103  1
  O  O14  1  0.727732  0.815653  0.015965  1
  O  O15  1  0.804277  0.547873  0.069579  1
  O  O16  1  0.984035  0.272268  0.184345  1
  O  O17  1  0.452126  0.930421  0.195722  1
  O  O18  1  0.431209  0.497916  0.225653  1
  O  O19  1  0.184346  0.984035  0.272267  1
  O  O20  1  0.497915  0.225653  0.431209  1
  O  O21  1  0.930421  0.195722  0.452127  1
  O  O22  1  0.225653  0.431209  0.497916  1
  O  O23  1  0.774347  0.568791  0.502085  1
  O  O24  1  0.069579  0.804277  0.547873  1
  O  O25  1  0.502085  0.774347  0.568791  1
  O  O26  1  0.815653  0.015964  0.727732  1
  O  O27  1  0.568791  0.502085  0.774348  1
  O  O28  1  0.547873  0.069579  0.804278  1
  O  O29  1  0.015964  0.727731  0.815654  1
  O  O30  1  0.195722  0.452126  0.930421  1
  O  O31  1  0.272268  0.184346  0.984035  1
