# generated using pymatgen
data_Nd4Y(GaTe)2
_symmetry_space_group_name_H-M   'P 1'
_cell_length_a   8.92092100
_cell_length_b   8.92092208
_cell_length_c   8.18788200
_cell_angle_alpha   90.00000000
_cell_angle_beta   90.00000000
_cell_angle_gamma   125.95395695
_symmetry_Int_Tables_number   1
_chemical_formula_structural   Nd4Y(GaTe)2
_chemical_formula_sum   'Nd8 Y2 Ga4 Te4'
_cell_volume   527.47515537
_cell_formula_units_Z   2
loop_
 _symmetry_equiv_pos_site_id
 _symmetry_equiv_pos_as_xyz
  1  'x, y, z'
loop_
 _atom_site_type_symbol
 _atom_site_label
 _atom_site_symmetry_multiplicity
 _atom_site_fract_x
 _atom_site_fract_y
 _atom_site_fract_z
 _atom_site_occupancy
  Nd  Nd0  1  0.799433  0.538295  0.168062  1
  Nd  Nd1  1  0.461705  0.200567  0.831938  1
  Nd  Nd2  1  0.961705  0.700567  0.668062  1
  Nd  Nd3  1  0.299433  0.038295  0.331938  1
  Nd  Nd4  1  0.200567  0.461705  0.831938  1
  Nd  Nd5  1  0.538295  0.799433  0.168062  1
  Nd  Nd6  1  0.038295  0.299433  0.331938  1
  Nd  Nd7  1  0.700567  0.961705  0.668062  1
  Y  Y8  1  0.000000  0.000000  0.000000  1
  Y  Y9  1  0.500000  0.500000  0.500000  1
  Ga  Ga10  1  0.875302  0.875302  0.377499  1
  Ga  Ga11  1  0.124698  0.124698  0.622501  1
  Ga  Ga12  1  0.624698  0.624698  0.877499  1
  Ga  Ga13  1  0.375302  0.375302  0.122501  1
  Te  Te14  1  0.200516  0.799484  0.000000  1
  Te  Te15  1  0.700516  0.299484  0.500000  1
  Te  Te16  1  0.799484  0.200516  0.000000  1
  Te  Te17  1  0.299484  0.700516  0.500000  1
