# generated using pymatgen
data_Dy5Er11(InPd)4
_symmetry_space_group_name_H-M   'P 1'
_cell_length_a   9.70777053
_cell_length_b   9.68217586
_cell_length_c   9.68218200
_cell_angle_alpha   59.85154128
_cell_angle_beta   59.91251862
_cell_angle_gamma   59.91225813
_symmetry_Int_Tables_number   1
_chemical_formula_structural   Dy5Er11(InPd)4
_chemical_formula_sum   'Dy5 Er11 In4 Pd4'
_cell_volume   641.92749890
_cell_formula_units_Z   1
loop_
 _symmetry_equiv_pos_site_id
 _symmetry_equiv_pos_as_xyz
  1  'x, y, z'
loop_
 _atom_site_type_symbol
 _atom_site_label
 _atom_site_symmetry_multiplicity
 _atom_site_fract_x
 _atom_site_fract_y
 _atom_site_fract_z
 _atom_site_occupancy
  Dy  Dy0  1  0.562557  0.937442  0.937437  1
  Dy  Dy1  1  0.563771  0.935776  0.563535  1
  Dy  Dy2  1  0.936892  0.563539  0.935767  1
  Dy  Dy3  1  0.563776  0.563529  0.935779  1
  Dy  Dy4  1  0.936898  0.935756  0.563550  1
  Er  Er5  1  0.352683  0.351511  0.351487  1
  Er  Er6  1  0.352485  0.352042  0.942995  1
  Er  Er7  1  0.352450  0.943021  0.352041  1
  Er  Er8  1  0.944326  0.351493  0.351498  1
  Er  Er9  1  0.811435  0.188561  0.188608  1
  Er  Er10  1  0.189150  0.810882  0.810920  1
  Er  Er11  1  0.187941  0.811346  0.189903  1
  Er  Er12  1  0.810796  0.189919  0.811283  1
  Er  Er13  1  0.187968  0.189913  0.811276  1
  Er  Er14  1  0.810815  0.811308  0.189922  1
  Er  Er15  1  0.937406  0.562581  0.562505  1
  In  In16  1  0.584157  0.583132  0.583201  1
  In  In17  1  0.582582  0.582646  0.252159  1
  In  In18  1  0.582595  0.252140  0.582685  1
  In  In19  1  0.249575  0.583137  0.583170  1
  Pd  Pd20  1  0.144512  0.143937  0.143902  1
  Pd  Pd21  1  0.143780  0.144527  0.567930  1
  Pd  Pd22  1  0.143764  0.567932  0.144524  1
  Pd  Pd23  1  0.567683  0.143927  0.143925  1
