# generated using pymatgen
data_HoU3(PS)4
_symmetry_space_group_name_H-M   'P 1'
_cell_length_a   5.33821500
_cell_length_b   5.34416900
_cell_length_c   16.09045100
_cell_angle_alpha   90.00000000
_cell_angle_beta   90.00000000
_cell_angle_gamma   90.00000000
_symmetry_Int_Tables_number   1
_chemical_formula_structural   HoU3(PS)4
_chemical_formula_sum   'Ho2 U6 P8 S8'
_cell_volume   459.03358525
_cell_formula_units_Z   2
loop_
 _symmetry_equiv_pos_site_id
 _symmetry_equiv_pos_as_xyz
  1  'x, y, z'
loop_
 _atom_site_type_symbol
 _atom_site_label
 _atom_site_symmetry_multiplicity
 _atom_site_fract_x
 _atom_site_fract_y
 _atom_site_fract_z
 _atom_site_occupancy
  Ho  Ho0  1  0.750000  0.001433  0.369157  1
  Ho  Ho1  1  0.750000  0.501433  0.130843  1
  U  U2  1  0.250000  0.501409  0.355839  1
  U  U3  1  0.250000  0.001409  0.144161  1
  U  U4  1  0.750000  0.498460  0.641212  1
  U  U5  1  0.750000  0.998460  0.858788  1
  U  U6  1  0.250000  0.998613  0.639691  1
  U  U7  1  0.250000  0.498613  0.860309  1
  P  P8  1  0.026103  0.220795  0.997644  1
  P  P9  1  0.473897  0.720795  0.502356  1
  P  P10  1  0.473178  0.779177  0.997682  1
  P  P11  1  0.026822  0.279177  0.502318  1
  P  P12  1  0.026822  0.779177  0.997682  1
  P  P13  1  0.473178  0.279177  0.502318  1
  P  P14  1  0.473897  0.220795  0.997644  1
  P  P15  1  0.026103  0.720795  0.502356  1
  S  S16  1  0.250000  0.501558  0.179263  1
  S  S17  1  0.250000  0.001558  0.320737  1
  S  S18  1  0.750000  0.498281  0.820057  1
  S  S19  1  0.750000  0.998281  0.679943  1
  S  S20  1  0.250000  0.998409  0.814590  1
  S  S21  1  0.250000  0.498409  0.685410  1
  S  S22  1  0.750000  0.001893  0.186066  1
  S  S23  1  0.750000  0.501893  0.313934  1
