# generated using pymatgen
data_Yb3MnOsC6
_symmetry_space_group_name_H-M   'P 1'
_cell_length_a   8.21593400
_cell_length_b   8.21593388
_cell_length_c   4.99535200
_cell_angle_alpha   90.00000000
_cell_angle_beta   90.00000000
_cell_angle_gamma   119.99999243
_symmetry_Int_Tables_number   1
_chemical_formula_structural   Yb3MnOsC6
_chemical_formula_sum   'Yb6 Mn2 Os2 C12'
_cell_volume   292.01868347
_cell_formula_units_Z   2
loop_
 _symmetry_equiv_pos_site_id
 _symmetry_equiv_pos_as_xyz
  1  'x, y, z'
loop_
 _atom_site_type_symbol
 _atom_site_label
 _atom_site_symmetry_multiplicity
 _atom_site_fract_x
 _atom_site_fract_y
 _atom_site_fract_z
 _atom_site_occupancy
  Yb  Yb0  1  0.614587  0.691745  0.750000  1
  Yb  Yb1  1  0.922842  0.614587  0.250000  1
  Yb  Yb2  1  0.691745  0.077158  0.250000  1
  Yb  Yb3  1  0.308255  0.922842  0.750000  1
  Yb  Yb4  1  0.077158  0.385413  0.750000  1
  Yb  Yb5  1  0.385413  0.308255  0.250000  1
  Mn  Mn6  1  0.000000  0.000000  0.500000  1
  Mn  Mn7  1  0.000000  0.000000  0.000000  1
  Os  Os8  1  0.666667  0.333333  0.750000  1
  Os  Os9  1  0.333333  0.666667  0.250000  1
  C  C10  1  0.956750  0.779323  0.750000  1
  C  C11  1  0.177428  0.956750  0.250000  1
  C  C12  1  0.779323  0.822572  0.250000  1
  C  C13  1  0.220677  0.177428  0.750000  1
  C  C14  1  0.822572  0.043250  0.750000  1
  C  C15  1  0.043250  0.220677  0.250000  1
  C  C16  1  0.861112  0.591712  0.750000  1
  C  C17  1  0.269401  0.861112  0.250000  1
  C  C18  1  0.591712  0.730599  0.250000  1
  C  C19  1  0.408288  0.269401  0.750000  1
  C  C20  1  0.138888  0.408288  0.250000  1
  C  C21  1  0.730599  0.138888  0.750000  1
