# generated using pymatgen
data_DyY19(IrPt5)2
_symmetry_space_group_name_H-M   'P 1'
_cell_length_a   11.08147400
_cell_length_b   11.08202100
_cell_length_c   6.43850300
_cell_angle_alpha   90.00000000
_cell_angle_beta   90.00000000
_cell_angle_gamma   89.99837653
_symmetry_Int_Tables_number   1
_chemical_formula_structural   DyY19(IrPt5)2
_chemical_formula_sum   'Dy1 Y19 Ir2 Pt10'
_cell_volume   790.68118217
_cell_formula_units_Z   1
loop_
 _symmetry_equiv_pos_site_id
 _symmetry_equiv_pos_as_xyz
  1  'x, y, z'
loop_
 _atom_site_type_symbol
 _atom_site_label
 _atom_site_symmetry_multiplicity
 _atom_site_fract_x
 _atom_site_fract_y
 _atom_site_fract_z
 _atom_site_occupancy
  Dy  Dy0  1  0.500000  0.500000  0.500498  1
  Y  Y1  1  0.292595  0.088486  0.377243  1
  Y  Y2  1  0.292602  0.911463  0.877216  1
  Y  Y3  1  0.707398  0.088537  0.877216  1
  Y  Y4  1  0.707405  0.911514  0.377243  1
  Y  Y5  1  0.588535  0.792667  0.877252  1
  Y  Y6  1  0.588471  0.207419  0.377231  1
  Y  Y7  1  0.411529  0.792581  0.377231  1
  Y  Y8  1  0.411465  0.207333  0.877252  1
  Y  Y9  1  0.205090  0.412176  0.623356  1
  Y  Y10  1  0.205014  0.587875  0.123349  1
  Y  Y11  1  0.794986  0.412125  0.123349  1
  Y  Y12  1  0.794910  0.587824  0.623356  1
  Y  Y13  1  0.912113  0.705094  0.123393  1
  Y  Y14  1  0.912168  0.294905  0.623329  1
  Y  Y15  1  0.087832  0.705095  0.623329  1
  Y  Y16  1  0.087887  0.294906  0.123393  1
  Y  Y17  1  0.000000  0.000000  0.500465  1
  Y  Y18  1  0.000000  0.000000  0.000468  1
  Y  Y19  1  0.500000  0.500000  0.000471  1
  Ir  Ir20  1  0.000000  0.500000  0.877709  1
  Ir  Ir21  1  0.000000  0.500000  0.377671  1
  Pt  Pt22  1  0.845839  0.153109  0.249882  1
  Pt  Pt23  1  0.845806  0.846937  0.749860  1
  Pt  Pt24  1  0.154194  0.153063  0.749860  1
  Pt  Pt25  1  0.154161  0.846891  0.249882  1
  Pt  Pt26  1  0.652843  0.346108  0.749459  1
  Pt  Pt27  1  0.652807  0.653930  0.250288  1
  Pt  Pt28  1  0.347193  0.346070  0.250288  1
  Pt  Pt29  1  0.347157  0.653892  0.749459  1
  Pt  Pt30  1  0.500000  0.000000  0.119503  1
  Pt  Pt31  1  0.500000  0.000000  0.619502  1
