# generated using pymatgen
data_Li3Pr3CuSn4
_symmetry_space_group_name_H-M   'P 1'
_cell_length_a   8.78215490
_cell_length_b   8.90754441
_cell_length_c   8.90754366
_cell_angle_alpha   149.47586369
_cell_angle_beta   131.79690447
_cell_angle_gamma   58.26921314
_symmetry_Int_Tables_number   1
_chemical_formula_structural   Li3Pr3CuSn4
_chemical_formula_sum   'Li3 Pr3 Cu1 Sn4'
_cell_volume   261.70006077
_cell_formula_units_Z   1
loop_
 _symmetry_equiv_pos_site_id
 _symmetry_equiv_pos_as_xyz
  1  'x, y, z'
loop_
 _atom_site_type_symbol
 _atom_site_label
 _atom_site_symmetry_multiplicity
 _atom_site_fract_x
 _atom_site_fract_y
 _atom_site_fract_z
 _atom_site_occupancy
  Li  Li0  1  0.481995  0.670604  0.811390  1
  Li  Li1  1  0.861094  0.672193  0.188902  1
  Li  Li2  1  0.149523  0.331091  0.818431  1
  Pr  Pr3  1  0.496148  0.999673  0.496475  1
  Pr  Pr4  1  0.140037  0.131723  0.008314  1
  Pr  Pr5  1  0.858432  0.868978  0.989454  1
  Cu  Cu6  1  0.519441  0.326060  0.193381  1
  Sn  Sn7  1  0.194867  0.500691  0.694176  1
  Sn  Sn8  1  0.794671  0.496411  0.298260  1
  Sn  Sn9  1  0.706169  0.215284  0.490885  1
  Sn  Sn10  1  0.297622  0.787291  0.510331  1
