# generated using pymatgen
data_Ba4DyY5(BiS8)2
_symmetry_space_group_name_H-M   'P 1'
_cell_length_a   4.07752300
_cell_length_b   12.38857400
_cell_length_c   14.68694300
_cell_angle_alpha   89.99703298
_cell_angle_beta   90.00000000
_cell_angle_gamma   90.00000000
_symmetry_Int_Tables_number   1
_chemical_formula_structural   Ba4DyY5(BiS8)2
_chemical_formula_sum   'Ba4 Dy1 Y5 Bi2 S16'
_cell_volume   741.90645183
_cell_formula_units_Z   1
loop_
 _symmetry_equiv_pos_site_id
 _symmetry_equiv_pos_as_xyz
  1  'x, y, z'
loop_
 _atom_site_type_symbol
 _atom_site_label
 _atom_site_symmetry_multiplicity
 _atom_site_fract_x
 _atom_site_fract_y
 _atom_site_fract_z
 _atom_site_occupancy
  Ba  Ba0  1  0.250000  0.760253  0.337083  1
  Ba  Ba1  1  0.250000  0.260262  0.162930  1
  Ba  Ba2  1  0.750000  0.240181  0.662627  1
  Ba  Ba3  1  0.750000  0.740190  0.837364  1
  Dy  Dy4  1  0.750000  0.078704  0.400510  1
  Y  Y5  1  0.750000  0.565616  0.610890  1
  Y  Y6  1  0.750000  0.065619  0.889112  1
  Y  Y7  1  0.250000  0.419903  0.898757  1
  Y  Y8  1  0.250000  0.919905  0.601249  1
  Y  Y9  1  0.750000  0.578728  0.099430  1
  Bi  Bi10  1  0.250000  0.435217  0.390653  1
  Bi  Bi11  1  0.250000  0.935228  0.109343  1
  S  S12  1  0.250000  0.205868  0.836598  1
  S  S13  1  0.250000  0.705872  0.663408  1
  S  S14  1  0.750000  0.788363  0.166021  1
  S  S15  1  0.750000  0.288215  0.334051  1
  S  S16  1  0.250000  0.122593  0.524670  1
  S  S17  1  0.250000  0.622665  0.975133  1
  S  S18  1  0.750000  0.876688  0.476735  1
  S  S19  1  0.750000  0.376487  0.023198  1
  S  S20  1  0.250000  0.525326  0.213303  1
  S  S21  1  0.250000  0.025394  0.286903  1
  S  S22  1  0.750000  0.475288  0.783898  1
  S  S23  1  0.750000  0.975281  0.716113  1
  S  S24  1  0.250000  0.418229  0.580464  1
  S  S25  1  0.250000  0.918230  0.919553  1
  S  S26  1  0.750000  0.587852  0.426409  1
  S  S27  1  0.750000  0.087849  0.073598  1
