# generated using pymatgen
data_Ho4MnOsC4
_symmetry_space_group_name_H-M   'P 1'
_cell_length_a   5.05023900
_cell_length_b   6.39514185
_cell_length_c   9.68168605
_cell_angle_alpha   90.53309318
_cell_angle_beta   90.00000000
_cell_angle_gamma   90.00000000
_symmetry_Int_Tables_number   1
_chemical_formula_structural   Ho4MnOsC4
_chemical_formula_sum   'Ho8 Mn2 Os2 C8'
_cell_volume   312.67582939
_cell_formula_units_Z   2
loop_
 _symmetry_equiv_pos_site_id
 _symmetry_equiv_pos_as_xyz
  1  'x, y, z'
loop_
 _atom_site_type_symbol
 _atom_site_label
 _atom_site_symmetry_multiplicity
 _atom_site_fract_x
 _atom_site_fract_y
 _atom_site_fract_z
 _atom_site_occupancy
  Ho  Ho0  1  0.250000  0.683496  0.556887  1
  Ho  Ho1  1  0.750000  0.316504  0.443113  1
  Ho  Ho2  1  0.750000  0.820249  0.052250  1
  Ho  Ho3  1  0.250000  0.179751  0.947750  1
  Ho  Ho4  1  0.250000  0.525805  0.215677  1
  Ho  Ho5  1  0.750000  0.474195  0.784323  1
  Ho  Ho6  1  0.750000  0.974584  0.713876  1
  Ho  Ho7  1  0.250000  0.025416  0.286124  1
  Mn  Mn8  1  0.250000  0.727539  0.861762  1
  Mn  Mn9  1  0.750000  0.272461  0.138238  1
  Os  Os10  1  0.750000  0.774660  0.360971  1
  Os  Os11  1  0.250000  0.225340  0.639029  1
  C  C12  1  0.250000  0.468314  0.764798  1
  C  C13  1  0.750000  0.531686  0.235202  1
  C  C14  1  0.750000  0.045895  0.254372  1
  C  C15  1  0.250000  0.954105  0.745628  1
  C  C16  1  0.250000  0.813491  0.039711  1
  C  C17  1  0.750000  0.186509  0.960289  1
  C  C18  1  0.750000  0.677198  0.550241  1
  C  C19  1  0.250000  0.322802  0.449759  1
