# generated using pymatgen
data_GaSeO4F
_symmetry_space_group_name_H-M   'P 1'
_cell_length_a   5.35408422
_cell_length_b   5.35676124
_cell_length_c   7.60242141
_cell_angle_alpha   66.86659931
_cell_angle_beta   68.14071493
_cell_angle_gamma   83.46905297
_symmetry_Int_Tables_number   1
_chemical_formula_structural   GaSeO4F
_chemical_formula_sum   'Ga2 Se2 O8 F2'
_cell_volume   185.95777376
_cell_formula_units_Z   2
loop_
 _symmetry_equiv_pos_site_id
 _symmetry_equiv_pos_as_xyz
  1  'x, y, z'
loop_
 _atom_site_type_symbol
 _atom_site_label
 _atom_site_symmetry_multiplicity
 _atom_site_fract_x
 _atom_site_fract_y
 _atom_site_fract_z
 _atom_site_occupancy
  Ga  Ga0  1  0.000000  0.500000  0.500000  1
  Ga  Ga1  1  0.000000  0.000000  0.000000  1
  Se  Se2  1  0.637656  0.936265  0.739352  1
  Se  Se3  1  0.362344  0.063735  0.260648  1
  O  O4  1  0.776033  0.797749  0.565083  1
  O  O5  1  0.223967  0.202251  0.434917  1
  O  O6  1  0.667537  0.275450  0.617001  1
  O  O7  1  0.332463  0.724550  0.382999  1
  O  O8  1  0.311265  0.841754  0.841321  1
  O  O9  1  0.688735  0.158246  0.158679  1
  O  O10  1  0.762845  0.822577  0.928423  1
  O  O11  1  0.237155  0.177423  0.071577  1
  F  F12  1  0.952035  0.661365  0.236934  1
  F  F13  1  0.047965  0.338635  0.763066  1
