# generated using pymatgen
data_Tb10OsPd5
_symmetry_space_group_name_H-M   'P 1'
_cell_length_a   11.17466400
_cell_length_b   11.17466400
_cell_length_c   6.43951500
_cell_angle_alpha   90.00000000
_cell_angle_beta   90.00000000
_cell_angle_gamma   90.00000000
_symmetry_Int_Tables_number   1
_chemical_formula_structural   Tb10OsPd5
_chemical_formula_sum   'Tb20 Os2 Pd10'
_cell_volume   804.12230044
_cell_formula_units_Z   2
loop_
 _symmetry_equiv_pos_site_id
 _symmetry_equiv_pos_as_xyz
  1  'x, y, z'
loop_
 _atom_site_type_symbol
 _atom_site_label
 _atom_site_symmetry_multiplicity
 _atom_site_fract_x
 _atom_site_fract_y
 _atom_site_fract_z
 _atom_site_occupancy
  Tb  Tb0  1  0.299134  0.085386  0.373961  1
  Tb  Tb1  1  0.299134  0.914614  0.873961  1
  Tb  Tb2  1  0.700866  0.085386  0.873961  1
  Tb  Tb3  1  0.700866  0.914614  0.373961  1
  Tb  Tb4  1  0.585386  0.799134  0.873961  1
  Tb  Tb5  1  0.585386  0.200866  0.373961  1
  Tb  Tb6  1  0.414614  0.799134  0.373961  1
  Tb  Tb7  1  0.414614  0.200866  0.873961  1
  Tb  Tb8  1  0.208931  0.409791  0.627724  1
  Tb  Tb9  1  0.208931  0.590209  0.127724  1
  Tb  Tb10  1  0.791069  0.409791  0.127724  1
  Tb  Tb11  1  0.791069  0.590209  0.627724  1
  Tb  Tb12  1  0.909791  0.708931  0.127724  1
  Tb  Tb13  1  0.909791  0.291069  0.627724  1
  Tb  Tb14  1  0.090209  0.708931  0.627724  1
  Tb  Tb15  1  0.090209  0.291069  0.127724  1
  Tb  Tb16  1  0.000000  0.000000  0.495775  1
  Tb  Tb17  1  0.000000  0.000000  0.995775  1
  Tb  Tb18  1  0.500000  0.500000  0.995775  1
  Tb  Tb19  1  0.500000  0.500000  0.495775  1
  Os  Os20  1  0.500000  0.000000  0.125346  1
  Os  Os21  1  0.500000  0.000000  0.625346  1
  Pd  Pd22  1  0.848867  0.156829  0.248726  1
  Pd  Pd23  1  0.848867  0.843171  0.748726  1
  Pd  Pd24  1  0.151133  0.156829  0.748726  1
  Pd  Pd25  1  0.151133  0.843171  0.248726  1
  Pd  Pd26  1  0.656829  0.348867  0.748726  1
  Pd  Pd27  1  0.656829  0.651133  0.248726  1
  Pd  Pd28  1  0.343171  0.348867  0.248726  1
  Pd  Pd29  1  0.343171  0.651133  0.748726  1
  Pd  Pd30  1  0.000000  0.500000  0.881457  1
  Pd  Pd31  1  0.000000  0.500000  0.381457  1
