# generated using pymatgen
data_Tb7Dy(LuSn3)2
_symmetry_space_group_name_H-M   'P 1'
_cell_length_a   8.97358000
_cell_length_b   8.97357979
_cell_length_c   6.52870100
_cell_angle_alpha   90.00000000
_cell_angle_beta   90.00000000
_cell_angle_gamma   120.00000078
_symmetry_Int_Tables_number   1
_chemical_formula_structural   Tb7Dy(LuSn3)2
_chemical_formula_sum   'Tb7 Dy1 Lu2 Sn6'
_cell_volume   455.29080068
_cell_formula_units_Z   1
loop_
 _symmetry_equiv_pos_site_id
 _symmetry_equiv_pos_as_xyz
  1  'x, y, z'
loop_
 _atom_site_type_symbol
 _atom_site_label
 _atom_site_symmetry_multiplicity
 _atom_site_fract_x
 _atom_site_fract_y
 _atom_site_fract_z
 _atom_site_occupancy
  Tb  Tb0  1  0.333333  0.666667  0.000000  1
  Tb  Tb1  1  0.760133  0.760100  0.749089  1
  Tb  Tb2  1  0.239900  0.000033  0.749089  1
  Tb  Tb3  1  0.999967  0.239867  0.749089  1
  Tb  Tb4  1  0.239900  0.239867  0.250911  1
  Tb  Tb5  1  0.760133  0.000033  0.250911  1
  Tb  Tb6  1  0.999967  0.760100  0.250911  1
  Dy  Dy7  1  0.666667  0.333333  0.000000  1
  Lu  Lu8  1  0.333333  0.666667  0.500000  1
  Lu  Lu9  1  0.666667  0.333333  0.500000  1
  Sn  Sn10  1  0.395664  0.395542  0.746466  1
  Sn  Sn11  1  0.604458  0.000122  0.746466  1
  Sn  Sn12  1  0.999878  0.604336  0.746466  1
  Sn  Sn13  1  0.604458  0.604336  0.253534  1
  Sn  Sn14  1  0.395664  0.000122  0.253534  1
  Sn  Sn15  1  0.999878  0.395542  0.253534  1
