# generated using pymatgen
data_Tm6ZrCr(Co4P3)4
_symmetry_space_group_name_H-M   'P 1'
_cell_length_a   3.67619100
_cell_length_b   10.54080800
_cell_length_c   12.22142700
_cell_angle_alpha   90.00000000
_cell_angle_beta   90.00000000
_cell_angle_gamma   90.00000000
_symmetry_Int_Tables_number   1
_chemical_formula_structural   Tm6ZrCr(Co4P3)4
_chemical_formula_sum   'Tm6 Zr1 Cr1 Co16 P12'
_cell_volume   473.58058348
_cell_formula_units_Z   1
loop_
 _symmetry_equiv_pos_site_id
 _symmetry_equiv_pos_as_xyz
  1  'x, y, z'
loop_
 _atom_site_type_symbol
 _atom_site_label
 _atom_site_symmetry_multiplicity
 _atom_site_fract_x
 _atom_site_fract_y
 _atom_site_fract_z
 _atom_site_occupancy
  Tm  Tm0  1  0.000000  0.500000  0.529587  1
  Tm  Tm1  1  0.500000  0.000000  0.477299  1
  Tm  Tm2  1  0.500000  0.822462  0.205783  1
  Tm  Tm3  1  0.500000  0.177538  0.205783  1
  Tm  Tm4  1  0.000000  0.682113  0.795595  1
  Tm  Tm5  1  0.000000  0.317887  0.795595  1
  Zr  Zr6  1  0.500000  0.500000  0.155490  1
  Cr  Cr7  1  0.000000  0.000000  0.841449  1
  Co  Co8  1  0.500000  0.500000  0.702476  1
  Co  Co9  1  0.000000  0.000000  0.297182  1
  Co  Co10  1  0.000000  0.500000  0.982803  1
  Co  Co11  1  0.500000  0.000000  0.010019  1
  Co  Co12  1  0.500000  0.326400  0.987532  1
  Co  Co13  1  0.500000  0.673600  0.987532  1
  Co  Co14  1  0.000000  0.162211  0.002364  1
  Co  Co15  1  0.000000  0.837789  0.002364  1
  Co  Co16  1  0.500000  0.293765  0.435033  1
  Co  Co17  1  0.500000  0.706235  0.435033  1
  Co  Co18  1  0.000000  0.202270  0.570389  1
  Co  Co19  1  0.000000  0.797730  0.570389  1
  Co  Co20  1  0.500000  0.879776  0.706653  1
  Co  Co21  1  0.500000  0.120224  0.706653  1
  Co  Co22  1  0.000000  0.624291  0.297792  1
  Co  Co23  1  0.000000  0.375709  0.297792  1
  P  P24  1  0.500000  0.500000  0.880769  1
  P  P25  1  0.000000  0.000000  0.117435  1
  P  P26  1  0.500000  0.500000  0.363676  1
  P  P27  1  0.000000  0.000000  0.653992  1
  P  P28  1  0.500000  0.310921  0.618360  1
  P  P29  1  0.500000  0.689079  0.618360  1
  P  P30  1  0.000000  0.186323  0.385736  1
  P  P31  1  0.000000  0.813677  0.385736  1
  P  P32  1  0.500000  0.850280  0.886438  1
  P  P33  1  0.500000  0.149720  0.886438  1
  P  P34  1  0.000000  0.665514  0.102236  1
  P  P35  1  0.000000  0.334486  0.102236  1
