# generated using pymatgen
data_Ce3Ho3UO12
_symmetry_space_group_name_H-M   'P 1'
_cell_length_a   6.65586389
_cell_length_b   6.65586368
_cell_length_c   6.65586448
_cell_angle_alpha   99.08948115
_cell_angle_beta   99.08948092
_cell_angle_gamma   99.08948985
_symmetry_Int_Tables_number   1
_chemical_formula_structural   Ce3Ho3UO12
_chemical_formula_sum   'Ce3 Ho3 U1 O12'
_cell_volume   282.39431602
_cell_formula_units_Z   1
loop_
 _symmetry_equiv_pos_site_id
 _symmetry_equiv_pos_as_xyz
  1  'x, y, z'
loop_
 _atom_site_type_symbol
 _atom_site_label
 _atom_site_symmetry_multiplicity
 _atom_site_fract_x
 _atom_site_fract_y
 _atom_site_fract_z
 _atom_site_occupancy
  Ce  Ce0  1  0.396750  0.688830  0.858244  1
  Ce  Ce1  1  0.858244  0.396750  0.688830  1
  Ce  Ce2  1  0.688830  0.858244  0.396750  1
  Ho  Ho3  1  0.607362  0.309737  0.140627  1
  Ho  Ho4  1  0.140627  0.607362  0.309737  1
  Ho  Ho5  1  0.309737  0.140627  0.607362  1
  U  U6  1  0.007478  0.007478  0.007478  1
  O  O7  1  0.176719  0.427234  0.577951  1
  O  O8  1  0.577951  0.176719  0.427234  1
  O  O9  1  0.427234  0.577951  0.176719  1
  O  O10  1  0.821374  0.565422  0.405324  1
  O  O11  1  0.405324  0.821374  0.565422  1
  O  O12  1  0.565422  0.405324  0.821374  1
  O  O13  1  0.929501  0.055116  0.691923  1
  O  O14  1  0.945220  0.316252  0.078934  1
  O  O15  1  0.316252  0.078934  0.945220  1
  O  O16  1  0.078934  0.945220  0.316252  1
  O  O17  1  0.055116  0.691923  0.929501  1
  O  O18  1  0.691923  0.929501  0.055116  1
