# generated using pymatgen
data_Nd4HgPd3Pb2
_symmetry_space_group_name_H-M   'P 1'
_cell_length_a   3.77391700
_cell_length_b   8.24345690
_cell_length_c   8.24345690
_cell_angle_alpha   89.37427519
_cell_angle_beta   90.00000000
_cell_angle_gamma   90.00000000
_symmetry_Int_Tables_number   1
_chemical_formula_structural   Nd4HgPd3Pb2
_chemical_formula_sum   'Nd4 Hg1 Pd3 Pb2'
_cell_volume   256.43965755
_cell_formula_units_Z   1
loop_
 _symmetry_equiv_pos_site_id
 _symmetry_equiv_pos_as_xyz
  1  'x, y, z'
loop_
 _atom_site_type_symbol
 _atom_site_label
 _atom_site_symmetry_multiplicity
 _atom_site_fract_x
 _atom_site_fract_y
 _atom_site_fract_z
 _atom_site_occupancy
  Nd  Nd0  1  0.500000  0.173717  0.673717  1
  Nd  Nd1  1  0.500000  0.842134  0.342134  1
  Nd  Nd2  1  0.500000  0.309216  0.169765  1
  Nd  Nd3  1  0.500000  0.669765  0.809216  1
  Hg  Hg4  1  0.000000  0.622646  0.122646  1
  Pd  Pd5  1  0.000000  0.376459  0.876459  1
  Pd  Pd6  1  0.000000  0.879662  0.627091  1
  Pd  Pd7  1  0.000000  0.127091  0.379662  1
  Pb  Pb8  1  0.000000  0.004601  0.994709  1
  Pb  Pb9  1  0.000000  0.494709  0.504601  1
