# generated using pymatgen
data_SmYAs2Cl2O5
_symmetry_space_group_name_H-M   'P 1'
_cell_length_a   6.76914875
_cell_length_b   7.04807721
_cell_length_c   9.71785365
_cell_angle_alpha   110.80099369
_cell_angle_beta   97.23072412
_cell_angle_gamma   99.43660954
_symmetry_Int_Tables_number   1
_chemical_formula_structural   SmYAs2Cl2O5
_chemical_formula_sum   'Sm2 Y2 As4 Cl4 O10'
_cell_volume   418.94304925
_cell_formula_units_Z   2
loop_
 _symmetry_equiv_pos_site_id
 _symmetry_equiv_pos_as_xyz
  1  'x, y, z'
loop_
 _atom_site_type_symbol
 _atom_site_label
 _atom_site_symmetry_multiplicity
 _atom_site_fract_x
 _atom_site_fract_y
 _atom_site_fract_z
 _atom_site_occupancy
  Sm  Sm0  1  0.385503  0.757368  0.549889  1
  Sm  Sm1  1  0.614497  0.242632  0.450111  1
  Y  Y2  1  0.844595  0.741459  0.347478  1
  Y  Y3  1  0.155405  0.258541  0.652522  1
  As  As4  1  0.896216  0.799318  0.706890  1
  As  As5  1  0.103784  0.200682  0.293110  1
  As  As6  1  0.693845  0.243657  0.793910  1
  As  As7  1  0.306155  0.756343  0.206090  1
  Cl  Cl8  1  0.329160  0.671063  0.802236  1
  Cl  Cl9  1  0.670840  0.328937  0.197764  1
  Cl  Cl10  1  0.851302  0.759553  0.078817  1
  Cl  Cl11  1  0.148698  0.240447  0.921183  1
  O  O12  1  0.842796  0.325729  0.677316  1
  O  O13  1  0.157204  0.674271  0.322684  1
  O  O14  1  0.541660  0.840500  0.356556  1
  O  O15  1  0.458340  0.159500  0.643444  1
  O  O16  1  0.704448  0.962972  0.715776  1
  O  O17  1  0.295552  0.037028  0.284224  1
  O  O18  1  0.715599  0.611169  0.532972  1
  O  O19  1  0.284401  0.388831  0.467028  1
  O  O20  1  0.056497  0.889044  0.592408  1
  O  O21  1  0.943503  0.110956  0.407592  1
