# generated using pymatgen
data_Tb3Cd(GaPt)4
_symmetry_space_group_name_H-M   'P 1'
_cell_length_a   4.34479400
_cell_length_b   6.94121963
_cell_length_c   7.79492814
_cell_angle_alpha   85.58088382
_cell_angle_beta   90.00000000
_cell_angle_gamma   90.00000000
_symmetry_Int_Tables_number   1
_chemical_formula_structural   Tb3Cd(GaPt)4
_chemical_formula_sum   'Tb3 Cd1 Ga4 Pt4'
_cell_volume   234.38189160
_cell_formula_units_Z   1
loop_
 _symmetry_equiv_pos_site_id
 _symmetry_equiv_pos_as_xyz
  1  'x, y, z'
loop_
 _atom_site_type_symbol
 _atom_site_label
 _atom_site_symmetry_multiplicity
 _atom_site_fract_x
 _atom_site_fract_y
 _atom_site_fract_z
 _atom_site_occupancy
  Tb  Tb0  1  0.250000  0.971586  0.312835  1
  Tb  Tb1  1  0.250000  0.481817  0.173233  1
  Tb  Tb2  1  0.750000  0.021752  0.689184  1
  Cd  Cd3  1  0.750000  0.519140  0.824975  1
  Ga  Ga4  1  0.750000  0.646014  0.441854  1
  Ga  Ga5  1  0.250000  0.346019  0.563446  1
  Ga  Ga6  1  0.750000  0.162508  0.066125  1
  Ga  Ga7  1  0.250000  0.851062  0.930443  1
  Pt  Pt8  1  0.250000  0.714891  0.624073  1
  Pt  Pt9  1  0.250000  0.230000  0.885416  1
  Pt  Pt10  1  0.750000  0.780513  0.111682  1
  Pt  Pt11  1  0.750000  0.274699  0.376735  1
