# generated using pymatgen
data_Cs3Pa2Cl10O
_symmetry_space_group_name_H-M   'P 1'
_cell_length_a   7.74478500
_cell_length_b   7.74478500
_cell_length_c   19.61140800
_cell_angle_alpha   90.00000000
_cell_angle_beta   90.00000000
_cell_angle_gamma   90.00000000
_symmetry_Int_Tables_number   1
_chemical_formula_structural   Cs3Pa2Cl10O
_chemical_formula_sum   'Cs6 Pa4 Cl20 O2'
_cell_volume   1176.32548722
_cell_formula_units_Z   2
loop_
 _symmetry_equiv_pos_site_id
 _symmetry_equiv_pos_as_xyz
  1  'x, y, z'
loop_
 _atom_site_type_symbol
 _atom_site_label
 _atom_site_symmetry_multiplicity
 _atom_site_fract_x
 _atom_site_fract_y
 _atom_site_fract_z
 _atom_site_occupancy
  Cs  Cs0  1  0.500000  0.500000  0.000000  1
  Cs  Cs1  1  0.000000  0.000000  0.500000  1
  Cs  Cs2  1  0.000000  0.500000  0.250000  1
  Cs  Cs3  1  0.500000  0.000000  0.750000  1
  Cs  Cs4  1  0.500000  0.000000  0.250000  1
  Cs  Cs5  1  0.000000  0.500000  0.750000  1
  Pa  Pa6  1  0.500000  0.500000  0.393955  1
  Pa  Pa7  1  0.000000  0.000000  0.893955  1
  Pa  Pa8  1  0.500000  0.500000  0.606045  1
  Pa  Pa9  1  0.000000  0.000000  0.106045  1
  Cl  Cl10  1  0.781682  0.690088  0.389377  1
  Cl  Cl11  1  0.218318  0.309912  0.389377  1
  Cl  Cl12  1  0.718318  0.190088  0.889377  1
  Cl  Cl13  1  0.281682  0.809912  0.889377  1
  Cl  Cl14  1  0.690088  0.218318  0.389377  1
  Cl  Cl15  1  0.309912  0.781682  0.389377  1
  Cl  Cl16  1  0.190088  0.281682  0.889377  1
  Cl  Cl17  1  0.809912  0.718318  0.889377  1
  Cl  Cl18  1  0.218318  0.309912  0.610623  1
  Cl  Cl19  1  0.781682  0.690088  0.610623  1
  Cl  Cl20  1  0.281682  0.809912  0.110623  1
  Cl  Cl21  1  0.718318  0.190088  0.110623  1
  Cl  Cl22  1  0.309912  0.781682  0.610623  1
  Cl  Cl23  1  0.690088  0.218318  0.610623  1
  Cl  Cl24  1  0.809912  0.718318  0.110623  1
  Cl  Cl25  1  0.190088  0.281682  0.110623  1
  Cl  Cl26  1  0.500000  0.500000  0.258087  1
  Cl  Cl27  1  0.000000  0.000000  0.758087  1
  Cl  Cl28  1  0.500000  0.500000  0.741913  1
  Cl  Cl29  1  0.000000  0.000000  0.241913  1
  O  O30  1  0.500000  0.500000  0.500000  1
  O  O31  1  0.000000  0.000000  0.000000  1
