# generated using pymatgen
data_Er10In8IrPt3
_symmetry_space_group_name_H-M   'P 1'
_cell_length_a   3.59576300
_cell_length_b   8.10612219
_cell_length_c   18.15528542
_cell_angle_alpha   89.97522969
_cell_angle_beta   90.00000000
_cell_angle_gamma   90.00000000
_symmetry_Int_Tables_number   1
_chemical_formula_structural   Er10In8IrPt3
_chemical_formula_sum   'Er10 In8 Ir1 Pt3'
_cell_volume   529.18465897
_cell_formula_units_Z   1
loop_
 _symmetry_equiv_pos_site_id
 _symmetry_equiv_pos_as_xyz
  1  'x, y, z'
loop_
 _atom_site_type_symbol
 _atom_site_label
 _atom_site_symmetry_multiplicity
 _atom_site_fract_x
 _atom_site_fract_y
 _atom_site_fract_z
 _atom_site_occupancy
  Er  Er0  1  0.000000  0.114938  0.412135  1
  Er  Er1  1  0.000000  0.882829  0.585358  1
  Er  Er2  1  0.000000  0.383265  0.914725  1
  Er  Er3  1  0.000000  0.617000  0.085791  1
  Er  Er4  1  0.000000  0.237712  0.221846  1
  Er  Er5  1  0.000000  0.757445  0.779744  1
  Er  Er6  1  0.000000  0.257168  0.720730  1
  Er  Er7  1  0.000000  0.750403  0.279890  1
  Er  Er8  1  0.000000  0.999842  0.000166  1
  Er  Er9  1  0.000000  0.500501  0.499747  1
  In  In10  1  0.500000  0.422439  0.351168  1
  In  In11  1  0.500000  0.576619  0.648761  1
  In  In12  1  0.500000  0.076616  0.851463  1
  In  In13  1  0.500000  0.925625  0.149523  1
  In  In14  1  0.500000  0.291998  0.066092  1
  In  In15  1  0.500000  0.707713  0.933623  1
  In  In16  1  0.500000  0.208076  0.566551  1
  In  In17  1  0.500000  0.793455  0.432327  1
  Ir  Ir18  1  0.500000  0.022397  0.303930  1
  Pt  Pt19  1  0.500000  0.975149  0.696607  1
  Pt  Pt20  1  0.500000  0.475235  0.803389  1
  Pt  Pt21  1  0.500000  0.523576  0.196433  1
