# generated using pymatgen
data_Rb12Li8Ti(SiP4)3
_symmetry_space_group_name_H-M   'P 1'
_cell_length_a   9.85267560
_cell_length_b   9.85267513
_cell_length_c   15.58113723
_cell_angle_alpha   90.02273533
_cell_angle_beta   90.02273773
_cell_angle_gamma   142.78312976
_symmetry_Int_Tables_number   1
_chemical_formula_structural   Rb12Li8Ti(SiP4)3
_chemical_formula_sum   'Rb12 Li8 Ti1 Si3 P12'
_cell_volume   914.83566501
_cell_formula_units_Z   1
loop_
 _symmetry_equiv_pos_site_id
 _symmetry_equiv_pos_as_xyz
  1  'x, y, z'
loop_
 _atom_site_type_symbol
 _atom_site_label
 _atom_site_symmetry_multiplicity
 _atom_site_fract_x
 _atom_site_fract_y
 _atom_site_fract_z
 _atom_site_occupancy
  Rb  Rb0  1  0.946111  0.608715  0.832796  1
  Rb  Rb1  1  0.553902  0.892151  0.331459  1
  Rb  Rb2  1  0.391285  0.053889  0.167204  1
  Rb  Rb3  1  0.053776  0.390453  0.166326  1
  Rb  Rb4  1  0.893255  0.548434  0.329831  1
  Rb  Rb5  1  0.451566  0.106745  0.670169  1
  Rb  Rb6  1  0.609547  0.946224  0.833674  1
  Rb  Rb7  1  0.279525  0.282255  0.319799  1
  Rb  Rb8  1  0.777733  0.777680  0.176560  1
  Rb  Rb9  1  0.222320  0.222267  0.823440  1
  Rb  Rb10  1  0.717745  0.720475  0.680201  1
  Rb  Rb11  1  0.107849  0.446098  0.668541  1
  Li  Li12  1  0.919495  0.080505  0.000000  1
  Li  Li13  1  0.579837  0.420163  0.500000  1
  Li  Li14  1  0.080772  0.919228  0.000000  1
  Li  Li15  1  0.416655  0.583345  0.500000  1
  Li  Li16  1  0.751769  0.248231  0.000000  1
  Li  Li17  1  0.750487  0.249513  0.500000  1
  Li  Li18  1  0.248208  0.751792  0.000000  1
  Li  Li19  1  0.251181  0.748819  0.500000  1
  Ti  Ti20  1  0.082691  0.917309  0.500000  1
  Si  Si21  1  0.586868  0.413132  0.000000  1
  Si  Si22  1  0.915271  0.084729  0.500000  1
  Si  Si23  1  0.413206  0.586794  0.000000  1
  P  P24  1  0.875086  0.560908  0.081930  1
  P  P25  1  0.439092  0.124914  0.918070  1
  P  P26  1  0.627627  0.938725  0.582368  1
  P  P27  1  0.934699  0.617920  0.584164  1
  P  P28  1  0.124894  0.438825  0.918207  1
  P  P29  1  0.561175  0.875106  0.081793  1
  P  P30  1  0.382080  0.065301  0.415836  1
  P  P31  1  0.208450  0.215647  0.580650  1
  P  P32  1  0.699100  0.698883  0.924322  1
  P  P33  1  0.301117  0.300900  0.075678  1
  P  P34  1  0.061275  0.372373  0.417632  1
  P  P35  1  0.784353  0.791550  0.419350  1
