# generated using pymatgen
data_Nd(TaS2)6
_symmetry_space_group_name_H-M   'P 1'
_cell_length_a   5.80920134
_cell_length_b   5.80920142
_cell_length_c   13.76808800
_cell_angle_alpha   85.95578807
_cell_angle_beta   85.95578801
_cell_angle_gamma   119.99881593
_symmetry_Int_Tables_number   1
_chemical_formula_structural   Nd(TaS2)6
_chemical_formula_sum   'Nd1 Ta6 S12'
_cell_volume   398.36263451
_cell_formula_units_Z   1
loop_
 _symmetry_equiv_pos_site_id
 _symmetry_equiv_pos_as_xyz
  1  'x, y, z'
loop_
 _atom_site_type_symbol
 _atom_site_label
 _atom_site_symmetry_multiplicity
 _atom_site_fract_x
 _atom_site_fract_y
 _atom_site_fract_z
 _atom_site_occupancy
  Nd  Nd0  1  0.000000  0.000000  0.000000  1
  Ta  Ta1  1  0.086881  0.086881  0.738862  1
  Ta  Ta2  1  0.420997  0.754642  0.737014  1
  Ta  Ta3  1  0.754642  0.420997  0.737014  1
  Ta  Ta4  1  0.245358  0.579003  0.262986  1
  Ta  Ta5  1  0.579003  0.245358  0.262986  1
  Ta  Ta6  1  0.913119  0.913119  0.261138  1
  S  S7  1  0.290898  0.290898  0.146067  1
  S  S8  1  0.612132  0.951343  0.146086  1
  S  S9  1  0.951343  0.612132  0.146086  1
  S  S10  1  0.048657  0.387868  0.853914  1
  S  S11  1  0.387868  0.048657  0.853914  1
  S  S12  1  0.709102  0.709102  0.853933  1
  S  S13  1  0.207232  0.207232  0.374565  1
  S  S14  1  0.542578  0.874755  0.374545  1
  S  S15  1  0.874755  0.542578  0.374545  1
  S  S16  1  0.125245  0.457422  0.625455  1
  S  S17  1  0.457422  0.125245  0.625455  1
  S  S18  1  0.792768  0.792768  0.625435  1
