# generated using pymatgen
data_Pa5Nb3Co16(GeP5)2
_symmetry_space_group_name_H-M   'P 1'
_cell_length_a   12.22809397
_cell_length_b   12.26275354
_cell_length_c   3.80704200
_cell_angle_alpha   90.00000000
_cell_angle_beta   90.00000000
_cell_angle_gamma   119.97154453
_symmetry_Int_Tables_number   1
_chemical_formula_structural   Pa5Nb3Co16(GeP5)2
_chemical_formula_sum   'Pa5 Nb3 Co16 Ge2 P10'
_cell_volume   494.52644818
_cell_formula_units_Z   1
loop_
 _symmetry_equiv_pos_site_id
 _symmetry_equiv_pos_as_xyz
  1  'x, y, z'
loop_
 _atom_site_type_symbol
 _atom_site_label
 _atom_site_symmetry_multiplicity
 _atom_site_fract_x
 _atom_site_fract_y
 _atom_site_fract_z
 _atom_site_occupancy
  Pa  Pa0  1  0.816545  0.997451  0.500000  1
  Pa  Pa1  1  0.002859  0.816638  0.500000  1
  Pa  Pa2  1  0.181753  0.183173  0.500000  1
  Pa  Pa3  1  0.324790  0.658061  0.000000  1
  Pa  Pa4  1  0.666740  0.334133  0.000000  1
  Nb  Nb5  1  0.442898  0.007032  0.000000  1
  Nb  Nb6  1  0.997004  0.438467  0.000000  1
  Nb  Nb7  1  0.560909  0.556507  0.000000  1
  Co  Co8  1  0.276658  0.008398  0.500000  1
  Co  Co9  1  0.997222  0.273704  0.500000  1
  Co  Co10  1  0.731825  0.723860  0.500000  1
  Co  Co11  1  0.635424  0.814089  0.000000  1
  Co  Co12  1  0.185342  0.818979  0.000000  1
  Co  Co13  1  0.177476  0.371514  0.000000  1
  Co  Co14  1  0.373688  0.185024  0.000000  1
  Co  Co15  1  0.809085  0.624356  0.000000  1
  Co  Co16  1  0.816973  0.191489  0.000000  1
  Co  Co17  1  0.530627  0.888514  0.500000  1
  Co  Co18  1  0.120933  0.633685  0.500000  1
  Co  Co19  1  0.351262  0.473915  0.500000  1
  Co  Co20  1  0.488313  0.358651  0.500000  1
  Co  Co21  1  0.869992  0.510406  0.500000  1
  Co  Co22  1  0.642888  0.134602  0.500000  1
  Co  Co23  1  0.000432  0.001151  0.000000  1
  Ge  Ge24  1  0.522495  0.690805  0.500000  1
  Ge  Ge25  1  0.311743  0.833687  0.500000  1
  P  P26  1  0.180249  0.001419  0.000000  1
  P  P27  1  0.997805  0.178624  0.000000  1
  P  P28  1  0.822661  0.819194  0.000000  1
  P  P29  1  0.163414  0.470245  0.500000  1
  P  P30  1  0.474632  0.169516  0.500000  1
  P  P31  1  0.693187  0.525305  0.500000  1
  P  P32  1  0.832661  0.307647  0.500000  1
  P  P33  1  0.638741  0.001070  0.000000  1
  P  P34  1  0.999458  0.635463  0.000000  1
  P  P35  1  0.361318  0.363226  0.000000  1
