# generated using pymatgen
data_LiLaNd4(P2Ru3)6
_symmetry_space_group_name_H-M   'P 1'
_cell_length_a   12.73718286
_cell_length_b   12.55820811
_cell_length_c   4.01557000
_cell_angle_alpha   90.00000000
_cell_angle_beta   90.00000000
_cell_angle_gamma   119.53626171
_symmetry_Int_Tables_number   1
_chemical_formula_structural   LiLaNd4(P2Ru3)6
_chemical_formula_sum   'Li1 La1 Nd4 P12 Ru18'
_cell_volume   558.84248341
_cell_formula_units_Z   1
loop_
 _symmetry_equiv_pos_site_id
 _symmetry_equiv_pos_as_xyz
  1  'x, y, z'
loop_
 _atom_site_type_symbol
 _atom_site_label
 _atom_site_symmetry_multiplicity
 _atom_site_fract_x
 _atom_site_fract_y
 _atom_site_fract_z
 _atom_site_occupancy
  Li  Li0  1  0.000000  0.562193  0.000000  1
  La  La1  1  0.000000  0.181700  0.500000  1
  Nd  Nd2  1  0.817582  0.814817  0.500000  1
  Nd  Nd3  1  0.182418  0.997235  0.500000  1
  Nd  Nd4  1  0.658812  0.329067  0.000000  1
  Nd  Nd5  1  0.341188  0.670256  0.000000  1
  P  P6  1  0.000000  0.803852  0.000000  1
  P  P7  1  0.185098  0.185912  0.000000  1
  P  P8  1  0.814902  0.000813  0.000000  1
  P  P9  1  0.692408  0.171817  0.500000  1
  P  P10  1  0.818671  0.520182  0.500000  1
  P  P11  1  0.471735  0.305110  0.500000  1
  P  P12  1  0.181329  0.701511  0.500000  1
  P  P13  1  0.528265  0.833375  0.500000  1
  P  P14  1  0.307592  0.479408  0.500000  1
  P  P15  1  0.000000  0.371301  0.000000  1
  P  P16  1  0.623264  0.623524  0.000000  1
  P  P17  1  0.376736  0.000261  0.000000  1
  Ru  Ru18  1  0.443094  0.444901  0.000000  1
  Ru  Ru19  1  0.556906  0.001807  0.000000  1
  Ru  Ru20  1  0.000000  0.707853  0.500000  1
  Ru  Ru21  1  0.282385  0.285023  0.500000  1
  Ru  Ru22  1  0.717615  0.002638  0.500000  1
  Ru  Ru23  1  0.804429  0.186947  0.000000  1
  Ru  Ru24  1  0.812557  0.617160  0.000000  1
  Ru  Ru25  1  0.373607  0.190905  0.000000  1
  Ru  Ru26  1  0.187443  0.804603  0.000000  1
  Ru  Ru27  1  0.626393  0.817298  0.000000  1
  Ru  Ru28  1  0.195571  0.382518  0.000000  1
  Ru  Ru29  1  0.877535  0.369134  0.500000  1
  Ru  Ru30  1  0.629110  0.508701  0.500000  1
  Ru  Ru31  1  0.490485  0.126424  0.500000  1
  Ru  Ru32  1  0.370890  0.879590  0.500000  1
  Ru  Ru33  1  0.509515  0.635939  0.500000  1
  Ru  Ru34  1  0.122465  0.491599  0.500000  1
  Ru  Ru35  1  0.000000  0.994629  0.000000  1
