# generated using pymatgen
data_ZnBi2Te2(SO7)2
_symmetry_space_group_name_H-M   'P 1'
_cell_length_a   5.37223402
_cell_length_b   8.11790982
_cell_length_c   8.33041188
_cell_angle_alpha   116.39293240
_cell_angle_beta   106.05686079
_cell_angle_gamma   85.67701993
_symmetry_Int_Tables_number   1
_chemical_formula_structural   ZnBi2Te2(SO7)2
_chemical_formula_sum   'Zn1 Bi2 Te2 S2 O14'
_cell_volume   312.25836577
_cell_formula_units_Z   1
loop_
 _symmetry_equiv_pos_site_id
 _symmetry_equiv_pos_as_xyz
  1  'x, y, z'
loop_
 _atom_site_type_symbol
 _atom_site_label
 _atom_site_symmetry_multiplicity
 _atom_site_fract_x
 _atom_site_fract_y
 _atom_site_fract_z
 _atom_site_occupancy
  Zn  Zn0  1  0.000000  0.000000  0.500000  1
  Bi  Bi1  1  0.095191  0.257954  0.986860  1
  Bi  Bi2  1  0.904809  0.742046  0.013140  1
  Te  Te3  1  0.524045  0.269829  0.657338  1
  Te  Te4  1  0.475955  0.730171  0.342662  1
  S  S5  1  0.764261  0.248167  0.254648  1
  S  S6  1  0.235739  0.751833  0.745352  1
  O  O7  1  0.904041  0.404349  0.261597  1
  O  O8  1  0.095959  0.595651  0.738403  1
  O  O9  1  0.869513  0.225325  0.428209  1
  O  O10  1  0.130487  0.774675  0.571791  1
  O  O11  1  0.483692  0.286078  0.236782  1
  O  O12  1  0.516308  0.713922  0.763218  1
  O  O13  1  0.800522  0.079213  0.088376  1
  O  O14  1  0.199478  0.920787  0.911624  1
  O  O15  1  0.753556  0.433859  0.892241  1
  O  O16  1  0.246444  0.566141  0.107759  1
  O  O17  1  0.277645  0.197712  0.744458  1
  O  O18  1  0.722355  0.802288  0.255542  1
  O  O19  1  0.748035  0.075741  0.660399  1
  O  O20  1  0.251965  0.924259  0.339601  1
