# generated using pymatgen
data_Eu2P3Pd
_symmetry_space_group_name_H-M   'P 1'
_cell_length_a   7.02716100
_cell_length_b   6.03833233
_cell_length_c   12.02578118
_cell_angle_alpha   86.26570250
_cell_angle_beta   90.00000000
_cell_angle_gamma   90.00000000
_symmetry_Int_Tables_number   1
_chemical_formula_structural   Eu2P3Pd
_chemical_formula_sum   'Eu8 P12 Pd4'
_cell_volume   509.19853139
_cell_formula_units_Z   4
loop_
 _symmetry_equiv_pos_site_id
 _symmetry_equiv_pos_as_xyz
  1  'x, y, z'
loop_
 _atom_site_type_symbol
 _atom_site_label
 _atom_site_symmetry_multiplicity
 _atom_site_fract_x
 _atom_site_fract_y
 _atom_site_fract_z
 _atom_site_occupancy
  Eu  Eu0  1  0.261303  0.628440  0.324495  1
  Eu  Eu1  1  0.238697  0.628440  0.824495  1
  Eu  Eu2  1  0.738697  0.371560  0.675505  1
  Eu  Eu3  1  0.761303  0.371560  0.175505  1
  Eu  Eu4  1  0.757631  0.856702  0.437563  1
  Eu  Eu5  1  0.257631  0.143298  0.062437  1
  Eu  Eu6  1  0.242369  0.143298  0.562437  1
  Eu  Eu7  1  0.742369  0.856702  0.937563  1
  P  P8  1  0.066358  0.666357  0.589812  1
  P  P9  1  0.566358  0.333643  0.910188  1
  P  P10  1  0.933642  0.333643  0.410188  1
  P  P11  1  0.433642  0.666357  0.089812  1
  P  P12  1  0.382534  0.642344  0.571765  1
  P  P13  1  0.882534  0.357656  0.928235  1
  P  P14  1  0.617466  0.357656  0.428235  1
  P  P15  1  0.582231  0.904479  0.195604  1
  P  P16  1  0.917769  0.904479  0.695604  1
  P  P17  1  0.417769  0.095521  0.804396  1
  P  P18  1  0.082231  0.095521  0.304396  1
  P  P19  1  0.117466  0.642344  0.071765  1
  Pd  Pd20  1  0.917801  0.861828  0.182471  1
  Pd  Pd21  1  0.082199  0.138172  0.817529  1
  Pd  Pd22  1  0.417801  0.138172  0.317529  1
  Pd  Pd23  1  0.582199  0.861828  0.682471  1
