# generated using pymatgen
data_HfSc3(Fe3Si4)2
_symmetry_space_group_name_H-M   'P 1'
_cell_length_a   9.67109261
_cell_length_b   9.67109279
_cell_length_c   12.92800660
_cell_angle_alpha   53.05886964
_cell_angle_beta   53.05886867
_cell_angle_gamma   30.74195143
_symmetry_Int_Tables_number   1
_chemical_formula_structural   HfSc3(Fe3Si4)2
_chemical_formula_sum   'Hf2 Sc6 Fe12 Si16'
_cell_volume   483.33912271
_cell_formula_units_Z   2
loop_
 _symmetry_equiv_pos_site_id
 _symmetry_equiv_pos_as_xyz
  1  'x, y, z'
loop_
 _atom_site_type_symbol
 _atom_site_label
 _atom_site_symmetry_multiplicity
 _atom_site_fract_x
 _atom_site_fract_y
 _atom_site_fract_z
 _atom_site_occupancy
  Hf  Hf0  1  0.962699  0.706285  0.358508  1
  Hf  Hf1  1  0.293715  0.037301  0.141492  1
  Sc  Sc2  1  0.293226  0.566120  0.642753  1
  Sc  Sc3  1  0.433880  0.706774  0.857247  1
  Sc  Sc4  1  0.707008  0.433744  0.356854  1
  Sc  Sc5  1  0.566256  0.292992  0.143146  1
  Sc  Sc6  1  0.036517  0.292688  0.642646  1
  Sc  Sc7  1  0.707312  0.963483  0.857354  1
  Fe  Fe8  1  0.648506  0.832497  0.278471  1
  Fe  Fe9  1  0.167503  0.351494  0.221529  1
  Fe  Fe10  1  0.757225  0.486383  0.067952  1
  Fe  Fe11  1  0.831698  0.647483  0.778134  1
  Fe  Fe12  1  0.897200  0.140338  0.586141  1
  Fe  Fe13  1  0.859662  0.102800  0.913859  1
  Fe  Fe14  1  0.103026  0.858693  0.413398  1
  Fe  Fe15  1  0.141307  0.896974  0.086602  1
  Fe  Fe16  1  0.240687  0.512879  0.934173  1
  Fe  Fe17  1  0.487121  0.759313  0.565827  1
  Fe  Fe18  1  0.513617  0.242775  0.432048  1
  Fe  Fe19  1  0.352517  0.168302  0.721866  1
  Si  Si20  1  0.877716  0.122284  0.250000  1
  Si  Si21  1  0.122461  0.877539  0.750000  1
  Si  Si22  1  0.381959  0.618041  0.250000  1
  Si  Si23  1  0.619402  0.380598  0.750000  1
  Si  Si24  1  0.969980  0.256167  0.895787  1
  Si  Si25  1  0.743833  0.030020  0.604213  1
  Si  Si26  1  0.030229  0.743503  0.104093  1
  Si  Si27  1  0.256497  0.969771  0.395907  1
  Si  Si28  1  0.568871  0.094398  0.064345  1
  Si  Si29  1  0.905602  0.431129  0.435655  1
  Si  Si30  1  0.433065  0.906389  0.934149  1
  Si  Si31  1  0.093611  0.566935  0.565851  1
  Si  Si32  1  0.389163  0.138583  0.395319  1
  Si  Si33  1  0.861417  0.610837  0.104681  1
  Si  Si34  1  0.609210  0.863699  0.604283  1
  Si  Si35  1  0.136301  0.390790  0.895717  1
