# generated using pymatgen
data_Tb15Ho(CdCo)4
_symmetry_space_group_name_H-M   'P 1'
_cell_length_a   9.54378731
_cell_length_b   9.54378756
_cell_length_c   9.54428100
_cell_angle_alpha   59.99829313
_cell_angle_beta   59.99829228
_cell_angle_gamma   60.00691288
_symmetry_Int_Tables_number   1
_chemical_formula_structural   Tb15Ho(CdCo)4
_chemical_formula_sum   'Tb15 Ho1 Cd4 Co4'
_cell_volume   614.72547397
_cell_formula_units_Z   1
loop_
 _symmetry_equiv_pos_site_id
 _symmetry_equiv_pos_as_xyz
  1  'x, y, z'
loop_
 _atom_site_type_symbol
 _atom_site_label
 _atom_site_symmetry_multiplicity
 _atom_site_fract_x
 _atom_site_fract_y
 _atom_site_fract_z
 _atom_site_occupancy
  Tb  Tb0  1  0.596316  0.596316  0.596617  1
  Tb  Tb1  1  0.188430  0.811657  0.812177  1
  Tb  Tb2  1  0.061907  0.061907  0.438093  1
  Tb  Tb3  1  0.437756  0.062191  0.062109  1
  Tb  Tb4  1  0.811657  0.188430  0.812177  1
  Tb  Tb5  1  0.437756  0.062191  0.437943  1
  Tb  Tb6  1  0.596836  0.210357  0.596403  1
  Tb  Tb7  1  0.812037  0.812037  0.187963  1
  Tb  Tb8  1  0.210357  0.596836  0.596403  1
  Tb  Tb9  1  0.811657  0.188430  0.187736  1
  Tb  Tb10  1  0.062191  0.437756  0.437943  1
  Tb  Tb11  1  0.188430  0.811657  0.187736  1
  Tb  Tb12  1  0.596316  0.596316  0.210752  1
  Tb  Tb13  1  0.188148  0.188148  0.811852  1
  Tb  Tb14  1  0.062191  0.437756  0.062109  1
  Ho  Ho15  1  0.438099  0.438099  0.061901  1
  Cd  Cd16  1  0.830192  0.830192  0.509277  1
  Cd  Cd17  1  0.830192  0.830192  0.830337  1
  Cd  Cd18  1  0.508757  0.830058  0.830592  1
  Cd  Cd19  1  0.830058  0.508757  0.830592  1
  Co  Co20  1  0.391089  0.391089  0.390477  1
  Co  Co21  1  0.827333  0.391205  0.390731  1
  Co  Co22  1  0.391205  0.827333  0.390731  1
  Co  Co23  1  0.391089  0.391089  0.827347  1
