# generated using pymatgen
data_Sc6Sn6Ir2Pt3Rh
_symmetry_space_group_name_H-M   'P 1'
_cell_length_a   7.55610200
_cell_length_b   7.55610175
_cell_length_c   7.07837300
_cell_angle_alpha   90.00000000
_cell_angle_beta   90.00000000
_cell_angle_gamma   120.00000108
_symmetry_Int_Tables_number   1
_chemical_formula_structural   Sc6Sn6Ir2Pt3Rh
_chemical_formula_sum   'Sc6 Sn6 Ir2 Pt3 Rh1'
_cell_volume   349.99325983
_cell_formula_units_Z   1
loop_
 _symmetry_equiv_pos_site_id
 _symmetry_equiv_pos_as_xyz
  1  'x, y, z'
loop_
 _atom_site_type_symbol
 _atom_site_label
 _atom_site_symmetry_multiplicity
 _atom_site_fract_x
 _atom_site_fract_y
 _atom_site_fract_z
 _atom_site_occupancy
  Sc  Sc0  1  0.399045  0.011590  0.246367  1
  Sc  Sc1  1  0.612545  0.600955  0.246367  1
  Sc  Sc2  1  0.988410  0.387455  0.246367  1
  Sc  Sc3  1  0.398272  0.003715  0.753288  1
  Sc  Sc4  1  0.605443  0.601728  0.753288  1
  Sc  Sc5  1  0.996285  0.394557  0.753288  1
  Sn  Sn6  1  0.274679  0.275444  0.998211  1
  Sn  Sn7  1  0.000765  0.725321  0.998211  1
  Sn  Sn8  1  0.003775  0.732027  0.501489  1
  Sn  Sn9  1  0.728251  0.996225  0.501489  1
  Sn  Sn10  1  0.267973  0.271749  0.501489  1
  Sn  Sn11  1  0.724556  0.999235  0.998211  1
  Ir  Ir12  1  0.000000  0.000000  0.244059  1
  Ir  Ir13  1  0.666667  0.333333  0.994378  1
  Pt  Pt14  1  0.333333  0.666667  0.491887  1
  Pt  Pt15  1  0.333333  0.666667  0.007488  1
  Pt  Pt16  1  0.666667  0.333333  0.507990  1
  Rh  Rh17  1  0.000000  0.000000  0.756135  1
