# generated using pymatgen
data_Tb7YTlCd2SnAu8
_symmetry_space_group_name_H-M   'P 1'
_cell_length_a   8.03749208
_cell_length_b   8.03749241
_cell_length_c   7.40578500
_cell_angle_alpha   90.00825488
_cell_angle_beta   89.99174512
_cell_angle_gamma   89.98366252
_symmetry_Int_Tables_number   1
_chemical_formula_structural   Tb7YTlCd2SnAu8
_chemical_formula_sum   'Tb7 Y1 Tl1 Cd2 Sn1 Au8'
_cell_volume   478.42317300
_cell_formula_units_Z   1
loop_
 _symmetry_equiv_pos_site_id
 _symmetry_equiv_pos_as_xyz
  1  'x, y, z'
loop_
 _atom_site_type_symbol
 _atom_site_label
 _atom_site_symmetry_multiplicity
 _atom_site_fract_x
 _atom_site_fract_y
 _atom_site_fract_z
 _atom_site_occupancy
  Tb  Tb0  1  0.841808  0.169325  0.500453  1
  Tb  Tb1  1  0.158560  0.830329  0.500423  1
  Tb  Tb2  1  0.330510  0.341555  0.000014  1
  Tb  Tb3  1  0.682512  0.673365  0.499581  1
  Tb  Tb4  1  0.318312  0.325978  0.499675  1
  Tb  Tb5  1  0.173692  0.817697  0.000652  1
  Tb  Tb6  1  0.826417  0.182107  0.000558  1
  Y  Y7  1  0.667962  0.660525  0.999817  1
  Tl  Tl8  1  0.499971  0.999849  0.749159  1
  Cd  Cd9  1  0.500334  0.999942  0.250067  1
  Cd  Cd10  1  0.000153  0.499768  0.750549  1
  Sn  Sn11  1  0.999292  0.501064  0.247279  1
  Au  Au12  1  0.621682  0.365533  0.264531  1
  Au  Au13  1  0.378341  0.633734  0.265328  1
  Au  Au14  1  0.126044  0.129735  0.762932  1
  Au  Au15  1  0.874399  0.870059  0.763137  1
  Au  Au16  1  0.369719  0.625474  0.736892  1
  Au  Au17  1  0.629865  0.374243  0.737542  1
  Au  Au18  1  0.865818  0.878581  0.235549  1
  Au  Au19  1  0.134611  0.121138  0.235866  1
