# generated using pymatgen
data_Tm3Sc2Sn2Bi
_symmetry_space_group_name_H-M   'P 1'
_cell_length_a   6.21103800
_cell_length_b   8.77971247
_cell_length_c   8.77514601
_cell_angle_alpha   119.98433458
_cell_angle_beta   89.99994621
_cell_angle_gamma   89.99985415
_symmetry_Int_Tables_number   1
_chemical_formula_structural   Tm3Sc2Sn2Bi
_chemical_formula_sum   'Tm6 Sc4 Sn4 Bi2'
_cell_volume   414.47467197
_cell_formula_units_Z   2
loop_
 _symmetry_equiv_pos_site_id
 _symmetry_equiv_pos_as_xyz
  1  'x, y, z'
loop_
 _atom_site_type_symbol
 _atom_site_label
 _atom_site_symmetry_multiplicity
 _atom_site_fract_x
 _atom_site_fract_y
 _atom_site_fract_z
 _atom_site_occupancy
  Tm  Tm0  1  0.750003  0.233757  0.994409  1
  Tm  Tm1  1  0.750002  0.766233  0.760617  1
  Tm  Tm2  1  0.750000  0.999976  0.241298  1
  Tm  Tm3  1  0.249995  0.762035  0.000533  1
  Tm  Tm4  1  0.249995  0.238070  0.238518  1
  Tm  Tm5  1  0.249997  0.000017  0.760157  1
  Sc  Sc6  1  0.495954  0.329413  0.666029  1
  Sc  Sc7  1  0.496553  0.670464  0.336472  1
  Sc  Sc8  1  0.003439  0.670481  0.336480  1
  Sc  Sc9  1  0.004048  0.329408  0.666030  1
  Sn  Sn10  1  0.750002  0.000016  0.599615  1
  Sn  Sn11  1  0.249998  0.397003  0.001433  1
  Sn  Sn12  1  0.250026  0.603026  0.604441  1
  Sn  Sn13  1  0.249990  0.000033  0.397217  1
  Bi  Bi14  1  0.749992  0.602035  0.999423  1
  Bi  Bi15  1  0.750000  0.398033  0.397328  1
