# generated using pymatgen
data_Sc20Ga3Si4Sb9
_symmetry_space_group_name_H-M   'P 1'
_cell_length_a   7.43334018
_cell_length_b   7.45117579
_cell_length_c   14.31858700
_cell_angle_alpha   90.00000000
_cell_angle_beta   90.00000000
_cell_angle_gamma   89.14283200
_symmetry_Int_Tables_number   1
_chemical_formula_structural   Sc20Ga3Si4Sb9
_chemical_formula_sum   'Sc20 Ga3 Si4 Sb9'
_cell_volume   792.97661148
_cell_formula_units_Z   1
loop_
 _symmetry_equiv_pos_site_id
 _symmetry_equiv_pos_as_xyz
  1  'x, y, z'
loop_
 _atom_site_type_symbol
 _atom_site_label
 _atom_site_symmetry_multiplicity
 _atom_site_fract_x
 _atom_site_fract_y
 _atom_site_fract_z
 _atom_site_occupancy
  Sc  Sc0  1  0.211450  0.994925  0.750000  1
  Sc  Sc1  1  0.783386  0.001819  0.250000  1
  Sc  Sc2  1  0.284976  0.494116  0.250000  1
  Sc  Sc3  1  0.711350  0.509936  0.750000  1
  Sc  Sc4  1  0.044781  0.690425  0.612921  1
  Sc  Sc5  1  0.954105  0.318052  0.384487  1
  Sc  Sc6  1  0.449410  0.172973  0.380798  1
  Sc  Sc7  1  0.954105  0.318052  0.115513  1
  Sc  Sc8  1  0.548889  0.825277  0.610965  1
  Sc  Sc9  1  0.044781  0.690425  0.887079  1
  Sc  Sc10  1  0.548889  0.825277  0.889035  1
  Sc  Sc11  1  0.449410  0.172973  0.119202  1
  Sc  Sc12  1  0.398312  0.335757  0.626902  1
  Sc  Sc13  1  0.610534  0.660787  0.368383  1
  Sc  Sc14  1  0.118471  0.838493  0.368915  1
  Sc  Sc15  1  0.610534  0.660787  0.131617  1
  Sc  Sc16  1  0.873936  0.152070  0.626477  1
  Sc  Sc17  1  0.398312  0.335757  0.873098  1
  Sc  Sc18  1  0.873936  0.152070  0.873523  1
  Sc  Sc19  1  0.118471  0.838493  0.131085  1
  Ga  Ga20  1  0.917035  0.616940  0.250000  1
  Ga  Ga21  1  0.580864  0.113633  0.750000  1
  Ga  Ga22  1  0.357285  0.649178  0.750000  1
  Si  Si23  1  0.413631  0.880789  0.250000  1
  Si  Si24  1  0.656629  0.362021  0.250000  1
  Si  Si25  1  0.153141  0.135626  0.250000  1
  Si  Si26  1  0.841493  0.864280  0.750000  1
  Sb  Sb27  1  0.084653  0.380440  0.750000  1
  Sb  Sb28  1  0.224162  0.030600  0.539812  1
  Sb  Sb29  1  0.771528  0.971653  0.455643  1
  Sb  Sb30  1  0.273187  0.523695  0.458427  1
  Sb  Sb31  1  0.771528  0.971653  0.044357  1
  Sb  Sb32  1  0.734740  0.478369  0.541040  1
  Sb  Sb33  1  0.224162  0.030600  0.960188  1
  Sb  Sb34  1  0.734740  0.478369  0.958960  1
  Sb  Sb35  1  0.273187  0.523695  0.041573  1
