# generated using pymatgen
data_Dy9YSi6C
_symmetry_space_group_name_H-M   'P 1'
_cell_length_a   8.46424807
_cell_length_b   8.46295872
_cell_length_c   6.38535005
_cell_angle_alpha   90.00718692
_cell_angle_beta   89.98562158
_cell_angle_gamma   120.00503989
_symmetry_Int_Tables_number   1
_chemical_formula_structural   Dy9YSi6C
_chemical_formula_sum   'Dy9 Y1 Si6 C1'
_cell_volume   396.09911863
_cell_formula_units_Z   1
loop_
 _symmetry_equiv_pos_site_id
 _symmetry_equiv_pos_as_xyz
  1  'x, y, z'
loop_
 _atom_site_type_symbol
 _atom_site_label
 _atom_site_symmetry_multiplicity
 _atom_site_fract_x
 _atom_site_fract_y
 _atom_site_fract_z
 _atom_site_occupancy
  Dy  Dy0  1  0.333330  0.666648  0.499992  1
  Dy  Dy1  1  0.666683  0.333352  0.499992  1
  Dy  Dy2  1  0.666670  0.333346  0.000015  1
  Dy  Dy3  1  0.333323  0.666654  0.000015  1
  Dy  Dy4  1  0.999969  0.764444  0.271213  1
  Dy  Dy5  1  0.235525  0.235556  0.271213  1
  Dy  Dy6  1  0.764507  0.000000  0.271267  1
  Dy  Dy7  1  0.999984  0.235554  0.728749  1
  Dy  Dy8  1  0.764430  0.764446  0.728749  1
  Y  Y9  1  0.235750  0.000000  0.728998  1
  Si  Si10  1  0.000014  0.398814  0.253453  1
  Si  Si11  1  0.601200  0.601186  0.253453  1
  Si  Si12  1  0.398870  0.000000  0.253388  1
  Si  Si13  1  0.999984  0.601150  0.746562  1
  Si  Si14  1  0.398834  0.398850  0.746562  1
  Si  Si15  1  0.601219  0.000000  0.746551  1
  C  C16  1  0.999709  0.000000  0.499829  1
