# generated using pymatgen
data_Tb7Th3(TcBi2)2
_symmetry_space_group_name_H-M   'P 1'
_cell_length_a   8.27077904
_cell_length_b   8.87644929
_cell_length_c   12.61986935
_cell_angle_alpha   90.22435679
_cell_angle_beta   89.94849364
_cell_angle_gamma   89.91555828
_symmetry_Int_Tables_number   1
_chemical_formula_structural   Tb7Th3(TcBi2)2
_chemical_formula_sum   'Tb14 Th6 Tc4 Bi8'
_cell_volume   926.48112184
_cell_formula_units_Z   2
loop_
 _symmetry_equiv_pos_site_id
 _symmetry_equiv_pos_as_xyz
  1  'x, y, z'
loop_
 _atom_site_type_symbol
 _atom_site_label
 _atom_site_symmetry_multiplicity
 _atom_site_fract_x
 _atom_site_fract_y
 _atom_site_fract_z
 _atom_site_occupancy
  Tb  Tb0  1  0.834216  0.747515  0.791197  1
  Tb  Tb1  1  0.165784  0.252485  0.208803  1
  Tb  Tb2  1  0.332182  0.249275  0.710984  1
  Tb  Tb3  1  0.667818  0.750725  0.289016  1
  Tb  Tb4  1  0.374153  0.753058  0.702383  1
  Tb  Tb5  1  0.625847  0.246942  0.297617  1
  Tb  Tb6  1  0.875857  0.253352  0.802066  1
  Tb  Tb7  1  0.124143  0.746648  0.197934  1
  Tb  Tb8  1  0.948565  0.748310  0.499582  1
  Tb  Tb9  1  0.051435  0.251690  0.500418  1
  Tb  Tb10  1  0.448435  0.247701  0.000603  1
  Tb  Tb11  1  0.551565  0.752299  0.999397  1
  Tb  Tb12  1  0.826120  0.456694  0.062312  1
  Tb  Tb13  1  0.173880  0.543306  0.937688  1
  Th  Th14  1  0.678959  0.041282  0.563353  1
  Th  Th15  1  0.321041  0.958718  0.436647  1
  Th  Th16  1  0.175271  0.960098  0.935898  1
  Th  Th17  1  0.322422  0.542429  0.434835  1
  Th  Th18  1  0.824729  0.039902  0.064102  1
  Th  Th19  1  0.677578  0.457571  0.565165  1
  Tc  Tc20  1  0.578218  0.749951  0.516790  1
  Tc  Tc21  1  0.421782  0.250049  0.483210  1
  Tc  Tc22  1  0.080102  0.231094  0.984885  1
  Tc  Tc23  1  0.919898  0.768906  0.015115  1
  Bi  Bi24  1  0.564718  0.489094  0.830352  1
  Bi  Bi25  1  0.435282  0.510906  0.169648  1
  Bi  Bi26  1  0.072356  0.513031  0.674847  1
  Bi  Bi27  1  0.427289  0.986428  0.174175  1
  Bi  Bi28  1  0.927644  0.486969  0.325153  1
  Bi  Bi29  1  0.572711  0.013572  0.825825  1
  Bi  Bi30  1  0.932422  0.011751  0.327888  1
  Bi  Bi31  1  0.067578  0.988249  0.672112  1
