# generated using pymatgen
data_Er4MnAl18Pd5
_symmetry_space_group_name_H-M   'P 1'
_cell_length_a   7.59871427
_cell_length_b   7.59871508
_cell_length_c   9.46746651
_cell_angle_alpha   89.93884059
_cell_angle_beta   89.93883205
_cell_angle_gamma   119.53111256
_symmetry_Int_Tables_number   1
_chemical_formula_structural   Er4MnAl18Pd5
_chemical_formula_sum   'Er4 Mn1 Al18 Pd5'
_cell_volume   475.63777908
_cell_formula_units_Z   1
loop_
 _symmetry_equiv_pos_site_id
 _symmetry_equiv_pos_as_xyz
  1  'x, y, z'
loop_
 _atom_site_type_symbol
 _atom_site_label
 _atom_site_symmetry_multiplicity
 _atom_site_fract_x
 _atom_site_fract_y
 _atom_site_fract_z
 _atom_site_occupancy
  Er  Er0  1  0.995028  0.670550  0.248201  1
  Er  Er1  1  0.004972  0.329450  0.751799  1
  Er  Er2  1  0.670550  0.995028  0.248201  1
  Er  Er3  1  0.329450  0.004972  0.751799  1
  Mn  Mn4  1  0.000000  0.000000  0.000000  1
  Al  Al5  1  0.123941  0.123941  0.241855  1
  Al  Al6  1  0.876059  0.876059  0.758145  1
  Al  Al7  1  0.998744  0.324378  0.072358  1
  Al  Al8  1  0.001256  0.675622  0.927642  1
  Al  Al9  1  0.998601  0.664463  0.578497  1
  Al  Al10  1  0.335537  0.001399  0.421503  1
  Al  Al11  1  0.001399  0.335537  0.421503  1
  Al  Al12  1  0.664463  0.998601  0.578497  1
  Al  Al13  1  0.675622  0.001256  0.927642  1
  Al  Al14  1  0.324378  0.998744  0.072358  1
  Al  Al15  1  0.333655  0.333655  0.558358  1
  Al  Al16  1  0.666345  0.666346  0.441642  1
  Al  Al17  1  0.676730  0.676731  0.052412  1
  Al  Al18  1  0.323270  0.323270  0.947588  1
  Al  Al19  1  0.340209  0.546551  0.248434  1
  Al  Al20  1  0.659791  0.453449  0.751566  1
  Al  Al21  1  0.546551  0.340209  0.248434  1
  Al  Al22  1  0.453449  0.659791  0.751566  1
  Pd  Pd23  1  0.672228  0.327772  0.000000  1
  Pd  Pd24  1  0.327772  0.672228  0.000000  1
  Pd  Pd25  1  0.327699  0.672301  0.500000  1
  Pd  Pd26  1  0.672301  0.327699  0.500000  1
  Pd  Pd27  1  0.000000  0.000000  0.500000  1
