# generated using pymatgen
data_Hf6Ti12Al4Ir6Rh
_symmetry_space_group_name_H-M   'P 1'
_cell_length_a   8.89014216
_cell_length_b   8.89014157
_cell_length_c   8.89014300
_cell_angle_alpha   59.99999840
_cell_angle_beta   60.00000060
_cell_angle_gamma   59.99999821
_symmetry_Int_Tables_number   1
_chemical_formula_structural   Hf6Ti12Al4Ir6Rh
_chemical_formula_sum   'Hf6 Ti12 Al4 Ir6 Rh1'
_cell_volume   496.83378724
_cell_formula_units_Z   1
loop_
 _symmetry_equiv_pos_site_id
 _symmetry_equiv_pos_as_xyz
  1  'x, y, z'
loop_
 _atom_site_type_symbol
 _atom_site_label
 _atom_site_symmetry_multiplicity
 _atom_site_fract_x
 _atom_site_fract_y
 _atom_site_fract_z
 _atom_site_occupancy
  Hf  Hf0  1  0.684195  0.315804  0.315804  1
  Hf  Hf1  1  0.315804  0.684195  0.684195  1
  Hf  Hf2  1  0.315804  0.684195  0.315804  1
  Hf  Hf3  1  0.315804  0.315804  0.684195  1
  Hf  Hf4  1  0.684195  0.315804  0.684195  1
  Hf  Hf5  1  0.684195  0.684195  0.315804  1
  Ti  Ti6  1  0.330930  0.330930  0.330930  1
  Ti  Ti7  1  0.330930  0.330930  0.007211  1
  Ti  Ti8  1  0.007211  0.330930  0.330930  1
  Ti  Ti9  1  0.330930  0.007211  0.330930  1
  Ti  Ti10  1  0.666160  0.666160  0.666160  1
  Ti  Ti11  1  0.666160  0.666160  0.001521  1
  Ti  Ti12  1  0.666160  0.001521  0.666160  1
  Ti  Ti13  1  0.001521  0.666160  0.666160  1
  Ti  Ti14  1  0.117158  0.117158  0.117158  1
  Ti  Ti15  1  0.117158  0.117158  0.648527  1
  Ti  Ti16  1  0.648527  0.117158  0.117158  1
  Ti  Ti17  1  0.117158  0.648527  0.117158  1
  Al  Al18  1  0.881265  0.881265  0.881265  1
  Al  Al19  1  0.881265  0.881265  0.356205  1
  Al  Al20  1  0.881265  0.356205  0.881265  1
  Al  Al21  1  0.356205  0.881265  0.881265  1
  Ir  Ir22  1  0.500854  0.999146  0.999146  1
  Ir  Ir23  1  0.999146  0.500854  0.500854  1
  Ir  Ir24  1  0.999146  0.500854  0.999146  1
  Ir  Ir25  1  0.999146  0.999146  0.500854  1
  Ir  Ir26  1  0.500854  0.999146  0.500854  1
  Ir  Ir27  1  0.500854  0.500854  0.999146  1
  Rh  Rh28  1  0.000000  0.000000  0.000000  1
