# generated using pymatgen
data_Nd2Tm4Ga4Pt13
_symmetry_space_group_name_H-M   'P 1'
_cell_length_a   8.28122897
_cell_length_b   8.28123052
_cell_length_c   8.27480500
_cell_angle_alpha   109.42800901
_cell_angle_beta   109.42801281
_cell_angle_gamma   109.58906238
_symmetry_Int_Tables_number   1
_chemical_formula_structural   Nd2Tm4Ga4Pt13
_chemical_formula_sum   'Nd2 Tm4 Ga4 Pt13'
_cell_volume   436.67281438
_cell_formula_units_Z   1
loop_
 _symmetry_equiv_pos_site_id
 _symmetry_equiv_pos_as_xyz
  1  'x, y, z'
loop_
 _atom_site_type_symbol
 _atom_site_label
 _atom_site_symmetry_multiplicity
 _atom_site_fract_x
 _atom_site_fract_y
 _atom_site_fract_z
 _atom_site_occupancy
  Nd  Nd0  1  0.705421  0.998736  0.704158  1
  Nd  Nd1  1  0.998736  0.705421  0.704158  1
  Tm  Tm2  1  0.697987  0.697987  0.998525  1
  Tm  Tm3  1  0.308347  0.998631  0.306978  1
  Tm  Tm4  1  0.998631  0.308347  0.306978  1
  Tm  Tm5  1  0.300538  0.300538  0.998525  1
  Ga  Ga6  1  0.999744  0.999744  0.491583  1
  Ga  Ga7  1  0.999004  0.499004  0.998008  1
  Ga  Ga8  1  0.499004  0.999004  0.998008  1
  Ga  Ga9  1  0.491840  0.491840  0.491583  1
  Pt  Pt10  1  0.321682  0.321682  0.643363  1
  Pt  Pt11  1  0.682340  0.001224  0.317233  1
  Pt  Pt12  1  0.001224  0.682340  0.317233  1
  Pt  Pt13  1  0.676557  0.327188  0.003745  1
  Pt  Pt14  1  0.316009  0.634893  0.317233  1
  Pt  Pt15  1  0.002927  0.322827  0.678483  1
  Pt  Pt16  1  0.327188  0.676557  0.003745  1
  Pt  Pt17  1  0.322827  0.002927  0.678483  1
  Pt  Pt18  1  0.634893  0.316009  0.317233  1
  Pt  Pt19  1  0.670095  0.670095  0.340191  1
  Pt  Pt20  1  0.675556  0.355657  0.678483  1
  Pt  Pt21  1  0.355657  0.675556  0.678483  1
  Pt  Pt22  1  0.013792  0.013792  0.027586  1
