# generated using pymatgen
data_Nd12Ru3PtCl12
_symmetry_space_group_name_H-M   'P 1'
_cell_length_a   10.21212091
_cell_length_b   10.21212021
_cell_length_c   10.16931300
_cell_angle_alpha   109.38632898
_cell_angle_beta   109.38632758
_cell_angle_gamma   109.55597871
_symmetry_Int_Tables_number   1
_chemical_formula_structural   Nd12Ru3PtCl12
_chemical_formula_sum   'Nd12 Ru3 Pt1 Cl12'
_cell_volume   817.25112272
_cell_formula_units_Z   1
loop_
 _symmetry_equiv_pos_site_id
 _symmetry_equiv_pos_as_xyz
  1  'x, y, z'
loop_
 _atom_site_type_symbol
 _atom_site_label
 _atom_site_symmetry_multiplicity
 _atom_site_fract_x
 _atom_site_fract_y
 _atom_site_fract_z
 _atom_site_occupancy
  Nd  Nd0  1  0.257759  0.741054  0.235143  1
  Nd  Nd1  1  0.483294  0.741054  0.005910  1
  Nd  Nd2  1  0.238416  0.476833  0.488416  1
  Nd  Nd3  1  0.010353  0.020708  0.260353  1
  Nd  Nd4  1  0.238416  0.261584  0.750000  1
  Nd  Nd5  1  0.010353  0.489647  0.750000  1
  Nd  Nd6  1  0.483294  0.242241  0.477382  1
  Nd  Nd7  1  0.257759  0.016706  0.022618  1
  Nd  Nd8  1  0.758946  0.242241  0.264857  1
  Nd  Nd9  1  0.758946  0.016706  0.494090  1
  Nd  Nd10  1  0.479292  0.489647  0.239647  1
  Nd  Nd11  1  0.023167  0.261584  0.011584  1
  Ru  Ru12  1  0.250038  0.500076  0.000038  1
  Ru  Ru13  1  0.999924  0.249962  0.499962  1
  Ru  Ru14  1  0.250038  0.249962  0.250000  1
  Pt  Pt15  1  0.500000  0.000000  0.250000  1
  Cl  Cl16  1  0.248623  0.997673  0.501110  1
  Cl  Cl17  1  0.506865  0.503433  0.753433  1
  Cl  Cl18  1  0.248623  0.750950  0.747513  1
  Cl  Cl19  1  0.995796  0.747899  0.997899  1
  Cl  Cl20  1  0.996567  0.503433  0.250000  1
  Cl  Cl21  1  0.749050  0.997673  0.996561  1
  Cl  Cl22  1  0.752101  0.747899  0.250000  1
  Cl  Cl23  1  0.502327  0.750950  0.503439  1
  Cl  Cl24  1  0.502327  0.251377  0.998890  1
  Cl  Cl25  1  0.752101  0.504204  0.502101  1
  Cl  Cl26  1  0.749050  0.251377  0.752487  1
  Cl  Cl27  1  0.996567  0.993135  0.746567  1
