# generated using pymatgen
data_TbCe2(RhPb)3
_symmetry_space_group_name_H-M   'P 1'
_cell_length_a   7.75197086
_cell_length_b   7.75197080
_cell_length_c   3.96824900
_cell_angle_alpha   90.00000000
_cell_angle_beta   90.00000000
_cell_angle_gamma   120.48996324
_symmetry_Int_Tables_number   1
_chemical_formula_structural   TbCe2(RhPb)3
_chemical_formula_sum   'Tb1 Ce2 Rh3 Pb3'
_cell_volume   205.48890027
_cell_formula_units_Z   1
loop_
 _symmetry_equiv_pos_site_id
 _symmetry_equiv_pos_as_xyz
  1  'x, y, z'
loop_
 _atom_site_type_symbol
 _atom_site_label
 _atom_site_symmetry_multiplicity
 _atom_site_fract_x
 _atom_site_fract_y
 _atom_site_fract_z
 _atom_site_occupancy
  Tb  Tb0  1  0.405507  0.405507  0.500000  1
  Ce  Ce1  1  0.589237  0.999536  0.500000  1
  Ce  Ce2  1  0.999536  0.589237  0.500000  1
  Rh  Rh3  1  0.997369  0.997369  0.500000  1
  Rh  Rh4  1  0.676068  0.331576  0.000000  1
  Rh  Rh5  1  0.331576  0.676068  0.000000  1
  Pb  Pb6  1  0.734716  0.734716  0.000000  1
  Pb  Pb7  1  0.260727  0.005265  0.000000  1
  Pb  Pb8  1  0.005265  0.260727  0.000000  1
