# generated using pymatgen
data_Tm4MgNi2Hg
_symmetry_space_group_name_H-M   'P 1'
_cell_length_a   8.46559687
_cell_length_b   8.46559629
_cell_length_c   8.46559635
_cell_angle_alpha   128.64095054
_cell_angle_beta   128.64094432
_cell_angle_gamma   75.58899695
_symmetry_Int_Tables_number   1
_chemical_formula_structural   Tm4MgNi2Hg
_chemical_formula_sum   'Tm8 Mg2 Ni4 Hg2'
_cell_volume   360.10488843
_cell_formula_units_Z   2
loop_
 _symmetry_equiv_pos_site_id
 _symmetry_equiv_pos_as_xyz
  1  'x, y, z'
loop_
 _atom_site_type_symbol
 _atom_site_label
 _atom_site_symmetry_multiplicity
 _atom_site_fract_x
 _atom_site_fract_y
 _atom_site_fract_z
 _atom_site_occupancy
  Tm  Tm0  1  0.799832  0.299832  0.840214  1
  Tm  Tm1  1  0.200168  0.700168  0.159786  1
  Tm  Tm2  1  0.459618  0.959618  0.159786  1
  Tm  Tm3  1  0.299832  0.459618  0.500000  1
  Tm  Tm4  1  0.040382  0.200168  0.500000  1
  Tm  Tm5  1  0.540382  0.040382  0.840214  1
  Tm  Tm6  1  0.700168  0.540382  0.500000  1
  Tm  Tm7  1  0.959618  0.799832  0.500000  1
  Mg  Mg8  1  0.000000  0.000000  0.000000  1
  Mg  Mg9  1  0.500000  0.500000  0.000000  1
  Ni  Ni10  1  0.126888  0.626888  0.753775  1
  Ni  Ni11  1  0.873112  0.373112  0.246225  1
  Ni  Ni12  1  0.626888  0.873112  0.500000  1
  Ni  Ni13  1  0.373112  0.126888  0.500000  1
  Hg  Hg14  1  0.250000  0.250000  0.000000  1
  Hg  Hg15  1  0.750000  0.750000  0.000000  1
