# generated using pymatgen
data_Tb3Nd2Y5(In2Pd)4
_symmetry_space_group_name_H-M   'P 1'
_cell_length_a   3.65375300
_cell_length_b   8.21541903
_cell_length_c   18.49534408
_cell_angle_alpha   90.01036451
_cell_angle_beta   90.00000000
_cell_angle_gamma   90.00000000
_symmetry_Int_Tables_number   1
_chemical_formula_structural   Tb3Nd2Y5(In2Pd)4
_chemical_formula_sum   'Tb3 Nd2 Y5 In8 Pd4'
_cell_volume   555.17680441
_cell_formula_units_Z   1
loop_
 _symmetry_equiv_pos_site_id
 _symmetry_equiv_pos_as_xyz
  1  'x, y, z'
loop_
 _atom_site_type_symbol
 _atom_site_label
 _atom_site_symmetry_multiplicity
 _atom_site_fract_x
 _atom_site_fract_y
 _atom_site_fract_z
 _atom_site_occupancy
  Tb  Tb0  1  0.500000  0.240231  0.781448  1
  Tb  Tb1  1  0.500000  0.759783  0.218553  1
  Tb  Tb2  1  0.500000  0.259807  0.281446  1
  Nd  Nd3  1  0.500000  0.000008  0.999999  1
  Nd  Nd4  1  0.500000  0.499995  0.499992  1
  Y  Y5  1  0.500000  0.740129  0.718504  1
  Y  Y6  1  0.500000  0.121281  0.583516  1
  Y  Y7  1  0.500000  0.878701  0.416522  1
  Y  Y8  1  0.500000  0.378704  0.083484  1
  Y  Y9  1  0.500000  0.621268  0.916489  1
  In  In10  1  0.000000  0.081057  0.153043  1
  In  In11  1  0.000000  0.918908  0.846917  1
  In  In12  1  0.000000  0.418994  0.653069  1
  In  In13  1  0.000000  0.581047  0.346947  1
  In  In14  1  0.000000  0.201451  0.431128  1
  In  In15  1  0.000000  0.798556  0.568908  1
  In  In16  1  0.000000  0.298577  0.931129  1
  In  In17  1  0.000000  0.701439  0.068873  1
  Pd  Pd18  1  0.000000  0.024922  0.695914  1
  Pd  Pd19  1  0.000000  0.975213  0.304085  1
  Pd  Pd20  1  0.000000  0.475220  0.195927  1
  Pd  Pd21  1  0.000000  0.524709  0.804106  1
