# generated using pymatgen
data_SrB2Pb5(ClO4)2
_symmetry_space_group_name_H-M   'P 1'
_cell_length_a   6.74238376
_cell_length_b   8.87592506
_cell_length_c   11.95168500
_cell_angle_alpha   90.00000000
_cell_angle_beta   90.00000000
_cell_angle_gamma   88.44334860
_symmetry_Int_Tables_number   1
_chemical_formula_structural   SrB2Pb5(ClO4)2
_chemical_formula_sum   'Sr2 B4 Pb10 Cl4 O16'
_cell_volume   714.98335107
_cell_formula_units_Z   2
loop_
 _symmetry_equiv_pos_site_id
 _symmetry_equiv_pos_as_xyz
  1  'x, y, z'
loop_
 _atom_site_type_symbol
 _atom_site_label
 _atom_site_symmetry_multiplicity
 _atom_site_fract_x
 _atom_site_fract_y
 _atom_site_fract_z
 _atom_site_occupancy
  Sr  Sr0  1  0.451762  0.915565  0.250000  1
  Sr  Sr1  1  0.548238  0.084435  0.750000  1
  B  B2  1  0.259659  0.995180  0.505111  1
  B  B3  1  0.740341  0.004820  0.005111  1
  B  B4  1  0.740341  0.004820  0.494889  1
  B  B5  1  0.259659  0.995180  0.994889  1
  Pb  Pb6  1  0.482360  0.295708  0.405297  1
  Pb  Pb7  1  0.517640  0.704292  0.905297  1
  Pb  Pb8  1  0.009875  0.290115  0.598235  1
  Pb  Pb9  1  0.990125  0.709885  0.098235  1
  Pb  Pb10  1  0.517640  0.704292  0.594703  1
  Pb  Pb11  1  0.482360  0.295708  0.094703  1
  Pb  Pb12  1  0.990125  0.709885  0.401765  1
  Pb  Pb13  1  0.009875  0.290115  0.901765  1
  Pb  Pb14  1  0.066698  0.911499  0.750000  1
  Pb  Pb15  1  0.933302  0.088501  0.250000  1
  Cl  Cl16  1  0.149289  0.423461  0.250000  1
  Cl  Cl17  1  0.850711  0.576539  0.750000  1
  Cl  Cl18  1  0.357494  0.392885  0.750000  1
  Cl  Cl19  1  0.642506  0.607115  0.250000  1
  O  O20  1  0.596403  0.188986  0.250000  1
  O  O21  1  0.403597  0.811014  0.750000  1
  O  O22  1  0.896059  0.181690  0.750000  1
  O  O23  1  0.103941  0.818310  0.250000  1
  O  O24  1  0.305970  0.074669  0.410007  1
  O  O25  1  0.694030  0.925331  0.910007  1
  O  O26  1  0.221167  0.068920  0.606731  1
  O  O27  1  0.778833  0.931080  0.106731  1
  O  O28  1  0.694030  0.925331  0.589993  1
  O  O29  1  0.305970  0.074669  0.089993  1
  O  O30  1  0.778833  0.931080  0.393269  1
  O  O31  1  0.221167  0.068920  0.893269  1
  O  O32  1  0.750096  0.161736  0.499664  1
  O  O33  1  0.249904  0.838264  0.999664  1
  O  O34  1  0.249904  0.838264  0.500336  1
  O  O35  1  0.750096  0.161736  0.000336  1
