# generated using pymatgen
data_Zr2PdPt2Au
_symmetry_space_group_name_H-M   'P 1'
_cell_length_a   3.54063000
_cell_length_b   7.02371261
_cell_length_c   8.75104616
_cell_angle_alpha   89.98828165
_cell_angle_beta   90.00000000
_cell_angle_gamma   90.00000000
_symmetry_Int_Tables_number   1
_chemical_formula_structural   Zr2PdPt2Au
_chemical_formula_sum   'Zr4 Pd2 Pt4 Au2'
_cell_volume   217.62422817
_cell_formula_units_Z   2
loop_
 _symmetry_equiv_pos_site_id
 _symmetry_equiv_pos_as_xyz
  1  'x, y, z'
loop_
 _atom_site_type_symbol
 _atom_site_label
 _atom_site_symmetry_multiplicity
 _atom_site_fract_x
 _atom_site_fract_y
 _atom_site_fract_z
 _atom_site_occupancy
  Zr  Zr0  1  0.250000  0.617838  0.752139  1
  Zr  Zr1  1  0.750000  0.382162  0.247861  1
  Zr  Zr2  1  0.250000  0.128896  0.760863  1
  Zr  Zr3  1  0.750000  0.871104  0.239137  1
  Pd  Pd4  1  0.750000  0.373251  0.918391  1
  Pd  Pd5  1  0.250000  0.626749  0.081609  1
  Pt  Pt6  1  0.250000  0.126258  0.093042  1
  Pt  Pt7  1  0.750000  0.873742  0.906958  1
  Pt  Pt8  1  0.250000  0.624388  0.404805  1
  Pt  Pt9  1  0.750000  0.375612  0.595195  1
  Au  Au10  1  0.750000  0.871915  0.581444  1
  Au  Au11  1  0.250000  0.128085  0.418556  1
