# generated using pymatgen
data_Er2Pa(Co3As2)3
_symmetry_space_group_name_H-M   'P 1'
_cell_length_a   3.81751200
_cell_length_b   10.85806400
_cell_length_c   12.59609800
_cell_angle_alpha   90.00000000
_cell_angle_beta   90.00000000
_cell_angle_gamma   90.00000000
_symmetry_Int_Tables_number   1
_chemical_formula_structural   Er2Pa(Co3As2)3
_chemical_formula_sum   'Er4 Pa2 Co18 As12'
_cell_volume   522.11820819
_cell_formula_units_Z   2
loop_
 _symmetry_equiv_pos_site_id
 _symmetry_equiv_pos_as_xyz
  1  'x, y, z'
loop_
 _atom_site_type_symbol
 _atom_site_label
 _atom_site_symmetry_multiplicity
 _atom_site_fract_x
 _atom_site_fract_y
 _atom_site_fract_z
 _atom_site_occupancy
  Er  Er0  1  0.500000  0.815015  0.206221  1
  Er  Er1  1  0.500000  0.184985  0.206221  1
  Er  Er2  1  0.000000  0.684985  0.793779  1
  Er  Er3  1  0.000000  0.315015  0.793779  1
  Pa  Pa4  1  0.000000  0.500000  0.530659  1
  Pa  Pa5  1  0.500000  0.000000  0.469341  1
  Co  Co6  1  0.500000  0.500000  0.153274  1
  Co  Co7  1  0.000000  0.000000  0.846726  1
  Co  Co8  1  0.500000  0.500000  0.692861  1
  Co  Co9  1  0.000000  0.000000  0.307139  1
  Co  Co10  1  0.000000  0.500000  0.982064  1
  Co  Co11  1  0.500000  0.000000  0.017936  1
  Co  Co12  1  0.500000  0.333973  0.993754  1
  Co  Co13  1  0.500000  0.666027  0.993754  1
  Co  Co14  1  0.000000  0.166027  0.006246  1
  Co  Co15  1  0.000000  0.833973  0.006246  1
  Co  Co16  1  0.500000  0.304673  0.431208  1
  Co  Co17  1  0.500000  0.695327  0.431208  1
  Co  Co18  1  0.000000  0.195327  0.568792  1
  Co  Co19  1  0.000000  0.804673  0.568792  1
  Co  Co20  1  0.500000  0.881761  0.710477  1
  Co  Co21  1  0.500000  0.118239  0.710477  1
  Co  Co22  1  0.000000  0.618239  0.289523  1
  Co  Co23  1  0.000000  0.381761  0.289523  1
  As  As24  1  0.500000  0.500000  0.874573  1
  As  As25  1  0.000000  0.000000  0.125427  1
  As  As26  1  0.500000  0.500000  0.344781  1
  As  As27  1  0.000000  0.000000  0.655219  1
  As  As28  1  0.500000  0.306488  0.617128  1
  As  As29  1  0.500000  0.693512  0.617128  1
  As  As30  1  0.000000  0.193512  0.382872  1
  As  As31  1  0.000000  0.806488  0.382872  1
  As  As32  1  0.500000  0.847476  0.892587  1
  As  As33  1  0.500000  0.152524  0.892587  1
  As  As34  1  0.000000  0.652524  0.107413  1
  As  As35  1  0.000000  0.347476  0.107413  1
