# generated using pymatgen
data_YTm4ThCoNi
_symmetry_space_group_name_H-M   'P 1'
_cell_length_a   6.26455200
_cell_length_b   6.86393700
_cell_length_c   9.41594400
_cell_angle_alpha   90.00000000
_cell_angle_beta   90.00000000
_cell_angle_gamma   90.00000000
_symmetry_Int_Tables_number   1
_chemical_formula_structural   YTm4ThCoNi
_chemical_formula_sum   'Y2 Tm8 Th2 Co2 Ni2'
_cell_volume   404.88079233
_cell_formula_units_Z   2
loop_
 _symmetry_equiv_pos_site_id
 _symmetry_equiv_pos_as_xyz
  1  'x, y, z'
loop_
 _atom_site_type_symbol
 _atom_site_label
 _atom_site_symmetry_multiplicity
 _atom_site_fract_x
 _atom_site_fract_y
 _atom_site_fract_z
 _atom_site_occupancy
  Y  Y0  1  0.140929  0.468386  0.750000  1
  Y  Y1  1  0.359071  0.968386  0.750000  1
  Tm  Tm2  1  0.328519  0.674164  0.069386  1
  Tm  Tm3  1  0.171481  0.174164  0.430614  1
  Tm  Tm4  1  0.674914  0.324382  0.568138  1
  Tm  Tm5  1  0.825086  0.824382  0.931862  1
  Tm  Tm6  1  0.674914  0.324382  0.931862  1
  Tm  Tm7  1  0.825086  0.824382  0.568138  1
  Tm  Tm8  1  0.328519  0.674164  0.430614  1
  Tm  Tm9  1  0.171481  0.174164  0.069386  1
  Th  Th10  1  0.850591  0.549827  0.250000  1
  Th  Th11  1  0.649409  0.049827  0.250000  1
  Co  Co12  1  0.037422  0.872744  0.250000  1
  Co  Co13  1  0.462578  0.372744  0.250000  1
  Ni  Ni14  1  0.936685  0.111951  0.750000  1
  Ni  Ni15  1  0.563315  0.611951  0.750000  1
