# generated using pymatgen
data_Pr16MgIn2HgIr4
_symmetry_space_group_name_H-M   'P 1'
_cell_length_a   10.03620953
_cell_length_b   10.06034463
_cell_length_c   10.06034467
_cell_angle_alpha   60.08726652
_cell_angle_beta   60.06324905
_cell_angle_gamma   60.06325256
_symmetry_Int_Tables_number   1
_chemical_formula_structural   Pr16MgIn2HgIr4
_chemical_formula_sum   'Pr16 Mg1 In2 Hg1 Ir4'
_cell_volume   719.41772470
_cell_formula_units_Z   1
loop_
 _symmetry_equiv_pos_site_id
 _symmetry_equiv_pos_as_xyz
  1  'x, y, z'
loop_
 _atom_site_type_symbol
 _atom_site_label
 _atom_site_symmetry_multiplicity
 _atom_site_fract_x
 _atom_site_fract_y
 _atom_site_fract_z
 _atom_site_occupancy
  Pr  Pr0  1  0.349394  0.346617  0.346617  1
  Pr  Pr1  1  0.349389  0.348050  0.955799  1
  Pr  Pr2  1  0.349389  0.955799  0.348050  1
  Pr  Pr3  1  0.952777  0.349657  0.349657  1
  Pr  Pr4  1  0.806862  0.191890  0.191890  1
  Pr  Pr5  1  0.185283  0.810862  0.810862  1
  Pr  Pr6  1  0.189051  0.810069  0.189543  1
  Pr  Pr7  1  0.806773  0.190671  0.806203  1
  Pr  Pr8  1  0.189051  0.189543  0.810069  1
  Pr  Pr9  1  0.806773  0.806203  0.190671  1
  Pr  Pr10  1  0.942380  0.560112  0.560112  1
  Pr  Pr11  1  0.558633  0.940144  0.940144  1
  Pr  Pr12  1  0.559731  0.940684  0.560602  1
  Pr  Pr13  1  0.939209  0.557971  0.940053  1
  Pr  Pr14  1  0.559731  0.560602  0.940684  1
  Pr  Pr15  1  0.939209  0.940053  0.557971  1
  Mg  Mg16  1  0.276754  0.575239  0.575239  1
  In  In17  1  0.579845  0.581785  0.256237  1
  In  In18  1  0.579845  0.256237  0.581785  1
  Hg  Hg19  1  0.579537  0.585086  0.585086  1
  Ir  Ir20  1  0.141082  0.142335  0.142335  1
  Ir  Ir21  1  0.141760  0.142593  0.575821  1
  Ir  Ir22  1  0.141760  0.575821  0.142593  1
  Ir  Ir23  1  0.575779  0.141977  0.141977  1
