# generated using pymatgen
data_Ca3Pr(SbPt)4
_symmetry_space_group_name_H-M   'P 1'
_cell_length_a   4.65711500
_cell_length_b   7.45052130
_cell_length_c   7.99374150
_cell_angle_alpha   90.09039062
_cell_angle_beta   90.00000000
_cell_angle_gamma   90.00000000
_symmetry_Int_Tables_number   1
_chemical_formula_structural   Ca3Pr(SbPt)4
_chemical_formula_sum   'Ca3 Pr1 Sb4 Pt4'
_cell_volume   277.36597406
_cell_formula_units_Z   1
loop_
 _symmetry_equiv_pos_site_id
 _symmetry_equiv_pos_as_xyz
  1  'x, y, z'
loop_
 _atom_site_type_symbol
 _atom_site_label
 _atom_site_symmetry_multiplicity
 _atom_site_fract_x
 _atom_site_fract_y
 _atom_site_fract_z
 _atom_site_occupancy
  Ca  Ca0  1  0.250000  0.007564  0.300921  1
  Ca  Ca1  1  0.750000  0.492529  0.802497  1
  Ca  Ca2  1  0.250000  0.507731  0.198358  1
  Pr  Pr3  1  0.750000  0.993313  0.696263  1
  Sb  Sb4  1  0.750000  0.313004  0.407613  1
  Sb  Sb5  1  0.250000  0.188786  0.911848  1
  Sb  Sb6  1  0.250000  0.683567  0.590068  1
  Sb  Sb7  1  0.750000  0.813306  0.091241  1
  Pt  Pt8  1  0.250000  0.801953  0.916801  1
  Pt  Pt9  1  0.250000  0.302057  0.585398  1
  Pt  Pt10  1  0.750000  0.698971  0.415612  1
  Pt  Pt11  1  0.750000  0.197218  0.083381  1
