# generated using pymatgen
data_Tm4ReOs5Ru2
_symmetry_space_group_name_H-M   'P 1'
_cell_length_a   5.22385408
_cell_length_b   5.33475924
_cell_length_c   8.92274100
_cell_angle_alpha   90.00000000
_cell_angle_beta   90.00000000
_cell_angle_gamma   120.70483192
_symmetry_Int_Tables_number   1
_chemical_formula_structural   Tm4ReOs5Ru2
_chemical_formula_sum   'Tm4 Re1 Os5 Ru2'
_cell_volume   213.79928224
_cell_formula_units_Z   1
loop_
 _symmetry_equiv_pos_site_id
 _symmetry_equiv_pos_as_xyz
  1  'x, y, z'
loop_
 _atom_site_type_symbol
 _atom_site_label
 _atom_site_symmetry_multiplicity
 _atom_site_fract_x
 _atom_site_fract_y
 _atom_site_fract_z
 _atom_site_occupancy
  Tm  Tm0  1  0.329812  0.664907  0.433930  1
  Tm  Tm1  1  0.657798  0.328898  0.565472  1
  Tm  Tm2  1  0.657798  0.328898  0.934528  1
  Tm  Tm3  1  0.329812  0.664907  0.066070  1
  Re  Re4  1  0.680071  0.840036  0.750000  1
  Os  Os5  1  0.835068  0.169916  0.250000  1
  Os  Os6  1  0.835068  0.665152  0.250000  1
  Os  Os7  1  0.352037  0.176019  0.250000  1
  Os  Os8  1  0.179855  0.827019  0.750000  1
  Os  Os9  1  0.179855  0.352837  0.750000  1
  Ru  Ru10  1  0.981413  0.990707  0.500330  1
  Ru  Ru11  1  0.981413  0.990707  0.999670  1
