# generated using pymatgen
data_Zr6TaTi3Ga12Rh7
_symmetry_space_group_name_H-M   'P 1'
_cell_length_a   8.80458228
_cell_length_b   8.80458277
_cell_length_c   8.81157339
_cell_angle_alpha   60.02624044
_cell_angle_beta   60.02623968
_cell_angle_gamma   60.00000253
_symmetry_Int_Tables_number   1
_chemical_formula_structural   Zr6TaTi3Ga12Rh7
_chemical_formula_sum   'Zr6 Ta1 Ti3 Ga12 Rh7'
_cell_volume   483.20135653
_cell_formula_units_Z   1
loop_
 _symmetry_equiv_pos_site_id
 _symmetry_equiv_pos_as_xyz
  1  'x, y, z'
loop_
 _atom_site_type_symbol
 _atom_site_label
 _atom_site_symmetry_multiplicity
 _atom_site_fract_x
 _atom_site_fract_y
 _atom_site_fract_z
 _atom_site_occupancy
  Zr  Zr0  1  0.695205  0.695205  0.304183  1
  Zr  Zr1  1  0.305407  0.695205  0.304183  1
  Zr  Zr2  1  0.695205  0.305407  0.304183  1
  Zr  Zr3  1  0.304784  0.304784  0.695175  1
  Zr  Zr4  1  0.695257  0.304784  0.695175  1
  Zr  Zr5  1  0.304784  0.695257  0.695175  1
  Ta  Ta6  1  0.878317  0.878317  0.365049  1
  Ti  Ti7  1  0.878405  0.364853  0.878337  1
  Ti  Ti8  1  0.364853  0.878405  0.878337  1
  Ti  Ti9  1  0.878405  0.878405  0.878337  1
  Ga  Ga10  1  0.119840  0.119840  0.640479  1
  Ga  Ga11  1  0.120565  0.640283  0.118587  1
  Ga  Ga12  1  0.640283  0.120565  0.118587  1
  Ga  Ga13  1  0.120565  0.120565  0.118587  1
  Ga  Ga14  1  0.659495  0.659495  0.021513  1
  Ga  Ga15  1  0.657792  0.023546  0.660869  1
  Ga  Ga16  1  0.023546  0.657792  0.660869  1
  Ga  Ga17  1  0.657792  0.657792  0.660869  1
  Ga  Ga18  1  0.340956  0.340956  0.977135  1
  Ga  Ga19  1  0.340743  0.977648  0.340867  1
  Ga  Ga20  1  0.977648  0.340743  0.340867  1
  Ga  Ga21  1  0.340743  0.340743  0.340867  1
  Rh  Rh22  1  0.999985  0.999985  0.000045  1
  Rh  Rh23  1  0.997103  0.997103  0.502623  1
  Rh  Rh24  1  0.503171  0.997103  0.502623  1
  Rh  Rh25  1  0.997103  0.503171  0.502623  1
  Rh  Rh26  1  0.502455  0.502455  0.997952  1
  Rh  Rh27  1  0.997138  0.502455  0.997952  1
  Rh  Rh28  1  0.502455  0.997138  0.997952  1
