# generated using pymatgen
data_LiLa6(P3Rh5)4
_symmetry_space_group_name_H-M   'P 1'
_cell_length_a   13.67130100
_cell_length_b   13.67130078
_cell_length_c   3.96910700
_cell_angle_alpha   90.00000000
_cell_angle_beta   90.00000000
_cell_angle_gamma   119.99999812
_symmetry_Int_Tables_number   1
_chemical_formula_structural   LiLa6(P3Rh5)4
_chemical_formula_sum   'Li1 La6 P12 Rh20'
_cell_volume   642.45561650
_cell_formula_units_Z   1
loop_
 _symmetry_equiv_pos_site_id
 _symmetry_equiv_pos_as_xyz
  1  'x, y, z'
loop_
 _atom_site_type_symbol
 _atom_site_label
 _atom_site_symmetry_multiplicity
 _atom_site_fract_x
 _atom_site_fract_y
 _atom_site_fract_z
 _atom_site_occupancy
  Li  Li0  1  0.000000  0.000000  0.000000  1
  La  La1  1  0.530062  0.718289  0.250336  1
  La  La2  1  0.281711  0.811774  0.250336  1
  La  La3  1  0.188226  0.469938  0.250336  1
  La  La4  1  0.469938  0.281711  0.749664  1
  La  La5  1  0.718289  0.188226  0.749664  1
  La  La6  1  0.811774  0.530062  0.749664  1
  P  P7  1  0.521049  0.132724  0.249987  1
  P  P8  1  0.867276  0.388327  0.249987  1
  P  P9  1  0.611673  0.478951  0.249987  1
  P  P10  1  0.950443  0.726698  0.249114  1
  P  P11  1  0.273302  0.223745  0.249114  1
  P  P12  1  0.776255  0.049557  0.249114  1
  P  P13  1  0.388327  0.521049  0.750013  1
  P  P14  1  0.478951  0.867276  0.750013  1
  P  P15  1  0.132724  0.611673  0.750013  1
  P  P16  1  0.726698  0.776255  0.750886  1
  P  P17  1  0.223745  0.950443  0.750886  1
  P  P18  1  0.049557  0.273302  0.750886  1
  Rh  Rh19  1  0.333333  0.666667  0.750625  1
  Rh  Rh20  1  0.924435  0.252753  0.249152  1
  Rh  Rh21  1  0.747247  0.671681  0.249152  1
  Rh  Rh22  1  0.328319  0.075565  0.249152  1
  Rh  Rh23  1  0.441450  0.025551  0.749722  1
  Rh  Rh24  1  0.974449  0.415900  0.749722  1
  Rh  Rh25  1  0.584100  0.558550  0.749722  1
  Rh  Rh26  1  0.666667  0.333333  0.249375  1
  Rh  Rh27  1  0.095587  0.203020  0.250614  1
  Rh  Rh28  1  0.796980  0.892567  0.250614  1
  Rh  Rh29  1  0.107433  0.904413  0.250614  1
  Rh  Rh30  1  0.025551  0.584100  0.250278  1
  Rh  Rh31  1  0.415900  0.441450  0.250278  1
  Rh  Rh32  1  0.558550  0.974449  0.250278  1
  Rh  Rh33  1  0.671681  0.924435  0.750848  1
  Rh  Rh34  1  0.075565  0.747247  0.750848  1
  Rh  Rh35  1  0.252753  0.328319  0.750848  1
  Rh  Rh36  1  0.904413  0.796980  0.749386  1
  Rh  Rh37  1  0.203020  0.107433  0.749386  1
  Rh  Rh38  1  0.892567  0.095587  0.749386  1
