# generated using pymatgen
data_Hf3Sc3Zn23C
_symmetry_space_group_name_H-M   'P 1'
_cell_length_a   8.70346507
_cell_length_b   8.71481434
_cell_length_c   8.73644200
_cell_angle_alpha   59.83186387
_cell_angle_beta   59.96065844
_cell_angle_gamma   60.20746671
_symmetry_Int_Tables_number   1
_chemical_formula_structural   Hf3Sc3Zn23C
_chemical_formula_sum   'Hf3 Sc3 Zn23 C1'
_cell_volume   468.55464090
_cell_formula_units_Z   1
loop_
 _symmetry_equiv_pos_site_id
 _symmetry_equiv_pos_as_xyz
  1  'x, y, z'
loop_
 _atom_site_type_symbol
 _atom_site_label
 _atom_site_symmetry_multiplicity
 _atom_site_fract_x
 _atom_site_fract_y
 _atom_site_fract_z
 _atom_site_occupancy
  Hf  Hf0  1  0.686630  0.313370  0.686630  1
  Hf  Hf1  1  0.318062  0.315463  0.684537  1
  Hf  Hf2  1  0.684537  0.681938  0.318062  1
  Sc  Sc3  1  0.690399  0.309601  0.311005  1
  Sc  Sc4  1  0.311005  0.688995  0.690399  1
  Sc  Sc5  1  0.313785  0.686215  0.313785  1
  Zn  Zn6  1  0.121036  0.121513  0.120258  1
  Zn  Zn7  1  0.878071  0.880029  0.878428  1
  Zn  Zn8  1  0.119971  0.121929  0.636530  1
  Zn  Zn9  1  0.120258  0.637195  0.121036  1
  Zn  Zn10  1  0.878487  0.878964  0.362805  1
  Zn  Zn11  1  0.878428  0.363470  0.878071  1
  Zn  Zn12  1  0.636530  0.121572  0.119971  1
  Zn  Zn13  1  0.362805  0.879742  0.878487  1
  Zn  Zn14  1  0.500586  0.000531  0.999469  1
  Zn  Zn15  1  0.999469  0.499414  0.500586  1
  Zn  Zn16  1  0.999911  0.500089  0.999911  1
  Zn  Zn17  1  0.499911  0.000089  0.499911  1
  Zn  Zn18  1  0.999012  0.000988  0.500681  1
  Zn  Zn19  1  0.500681  0.499319  0.999012  1
  Zn  Zn20  1  0.331772  0.331732  0.332545  1
  Zn  Zn21  1  0.668082  0.668069  0.667353  1
  Zn  Zn22  1  0.331931  0.331918  0.003506  1
  Zn  Zn23  1  0.332545  0.003953  0.331772  1
  Zn  Zn24  1  0.668268  0.668228  0.996047  1
  Zn  Zn25  1  0.667353  0.996494  0.668082  1
  Zn  Zn26  1  0.003506  0.332647  0.331931  1
  Zn  Zn27  1  0.996047  0.667455  0.668268  1
  Zn  Zn28  1  0.999851  0.000149  0.999851  1
  C  C29  1  0.501069  0.498931  0.501069  1
