# generated using pymatgen
data_Rb4Ta2PdSe8
_symmetry_space_group_name_H-M   'P 1'
_cell_length_a   14.30793500
_cell_length_b   7.90275244
_cell_length_c   10.20023000
_cell_angle_alpha   83.36489198
_cell_angle_beta   90.00000000
_cell_angle_gamma   90.00000000
_symmetry_Int_Tables_number   1
_chemical_formula_structural   Rb4Ta2PdSe8
_chemical_formula_sum   'Rb8 Ta4 Pd2 Se16'
_cell_volume   1145.63606441
_cell_formula_units_Z   2
loop_
 _symmetry_equiv_pos_site_id
 _symmetry_equiv_pos_as_xyz
  1  'x, y, z'
loop_
 _atom_site_type_symbol
 _atom_site_label
 _atom_site_symmetry_multiplicity
 _atom_site_fract_x
 _atom_site_fract_y
 _atom_site_fract_z
 _atom_site_occupancy
  Rb  Rb0  1  0.131432  0.825239  0.671171  1
  Rb  Rb1  1  0.631432  0.174761  0.828829  1
  Rb  Rb2  1  0.868568  0.174761  0.328829  1
  Rb  Rb3  1  0.368568  0.825239  0.171171  1
  Rb  Rb4  1  0.352145  0.278831  0.539549  1
  Rb  Rb5  1  0.852145  0.721169  0.960451  1
  Rb  Rb6  1  0.647855  0.721169  0.460451  1
  Rb  Rb7  1  0.147855  0.278831  0.039549  1
  Ta  Ta8  1  0.425763  0.749738  0.766063  1
  Ta  Ta9  1  0.925763  0.250262  0.733937  1
  Ta  Ta10  1  0.574237  0.250262  0.233937  1
  Ta  Ta11  1  0.074237  0.749738  0.266063  1
  Pd  Pd12  1  0.000000  0.500000  0.500000  1
  Pd  Pd13  1  0.500000  0.500000  0.000000  1
  Se  Se14  1  0.089314  0.305351  0.670356  1
  Se  Se15  1  0.589314  0.694649  0.829644  1
  Se  Se16  1  0.910686  0.694649  0.329644  1
  Se  Se17  1  0.410686  0.305351  0.170356  1
  Se  Se18  1  0.400851  0.750698  0.534171  1
  Se  Se19  1  0.900851  0.249302  0.965829  1
  Se  Se20  1  0.599149  0.249302  0.465829  1
  Se  Se21  1  0.099149  0.750698  0.034171  1
  Se  Se22  1  0.157120  0.513534  0.388720  1
  Se  Se23  1  0.657120  0.486466  0.111280  1
  Se  Se24  1  0.842880  0.486466  0.611280  1
  Se  Se25  1  0.342880  0.513534  0.888720  1
  Se  Se26  1  0.371740  0.012633  0.834823  1
  Se  Se27  1  0.871740  0.987367  0.665177  1
  Se  Se28  1  0.628260  0.987367  0.165177  1
  Se  Se29  1  0.128260  0.012633  0.334823  1
