# generated using pymatgen
data_Dy6Ti5Al11Ir7
_symmetry_space_group_name_H-M   'P 1'
_cell_length_a   9.02344526
_cell_length_b   9.02344632
_cell_length_c   8.98883524
_cell_angle_alpha   59.87254109
_cell_angle_beta   59.87254012
_cell_angle_gamma   60.00000416
_symmetry_Int_Tables_number   1
_chemical_formula_structural   Dy6Ti5Al11Ir7
_chemical_formula_sum   'Dy6 Ti5 Al11 Ir7'
_cell_volume   516.52801539
_cell_formula_units_Z   1
loop_
 _symmetry_equiv_pos_site_id
 _symmetry_equiv_pos_as_xyz
  1  'x, y, z'
loop_
 _atom_site_type_symbol
 _atom_site_label
 _atom_site_symmetry_multiplicity
 _atom_site_fract_x
 _atom_site_fract_y
 _atom_site_fract_z
 _atom_site_occupancy
  Dy  Dy0  1  0.704259  0.704259  0.297951  1
  Dy  Dy1  1  0.293532  0.704259  0.297951  1
  Dy  Dy2  1  0.704259  0.293532  0.297951  1
  Dy  Dy3  1  0.298828  0.298828  0.704385  1
  Dy  Dy4  1  0.697958  0.298828  0.704385  1
  Dy  Dy5  1  0.298828  0.697958  0.704385  1
  Ti  Ti6  1  0.880804  0.880804  0.357591  1
  Ti  Ti7  1  0.878580  0.360410  0.882431  1
  Ti  Ti8  1  0.360410  0.878580  0.882431  1
  Ti  Ti9  1  0.878580  0.878580  0.882431  1
  Ti  Ti10  1  0.123274  0.123274  0.630176  1
  Al  Al11  1  0.118100  0.644483  0.119315  1
  Al  Al12  1  0.644483  0.118100  0.119315  1
  Al  Al13  1  0.118100  0.118100  0.119315  1
  Al  Al14  1  0.668727  0.668727  0.993818  1
  Al  Al15  1  0.669722  0.991424  0.669131  1
  Al  Al16  1  0.991424  0.669722  0.669131  1
  Al  Al17  1  0.669722  0.669722  0.669131  1
  Al  Al18  1  0.329135  0.329135  0.012595  1
  Al  Al19  1  0.329796  0.013163  0.327245  1
  Al  Al20  1  0.013163  0.329796  0.327245  1
  Al  Al21  1  0.329796  0.329796  0.327245  1
  Ir  Ir22  1  0.004332  0.004332  0.987005  1
  Ir  Ir23  1  0.998712  0.998712  0.504782  1
  Ir  Ir24  1  0.497795  0.998712  0.504782  1
  Ir  Ir25  1  0.998712  0.497795  0.504782  1
  Ir  Ir26  1  0.500242  0.500242  0.001032  1
  Ir  Ir27  1  0.998485  0.500242  0.001032  1
  Ir  Ir28  1  0.500242  0.998485  0.001032  1
