# generated using pymatgen
data_Be8Os3W
_symmetry_space_group_name_H-M   'P 1'
_cell_length_a   4.38833700
_cell_length_b   4.38833560
_cell_length_c   7.13373500
_cell_angle_alpha   90.00000000
_cell_angle_beta   90.00000000
_cell_angle_gamma   120.00000298
_symmetry_Int_Tables_number   1
_chemical_formula_structural   Be8Os3W
_chemical_formula_sum   'Be8 Os3 W1'
_cell_volume   118.97272149
_cell_formula_units_Z   1
loop_
 _symmetry_equiv_pos_site_id
 _symmetry_equiv_pos_as_xyz
  1  'x, y, z'
loop_
 _atom_site_type_symbol
 _atom_site_label
 _atom_site_symmetry_multiplicity
 _atom_site_fract_x
 _atom_site_fract_y
 _atom_site_fract_z
 _atom_site_occupancy
  Be  Be0  1  0.000000  0.000000  0.502384  1
  Be  Be1  1  0.000000  0.000000  0.998963  1
  Be  Be2  1  0.830417  0.169583  0.256331  1
  Be  Be3  1  0.830417  0.660835  0.256331  1
  Be  Be4  1  0.339165  0.169583  0.256331  1
  Be  Be5  1  0.168500  0.831500  0.743801  1
  Be  Be6  1  0.168500  0.337000  0.743801  1
  Be  Be7  1  0.663000  0.831500  0.743801  1
  Os  Os8  1  0.333333  0.666667  0.427530  1
  Os  Os9  1  0.666667  0.333333  0.560450  1
  Os  Os10  1  0.666667  0.333333  0.948192  1
  W  W11  1  0.333333  0.666667  0.062085  1
