# generated using pymatgen
data_V5Tc3Se16
_symmetry_space_group_name_H-M   'P 1'
_cell_length_a   6.59623300
_cell_length_b   6.60337151
_cell_length_c   13.83530900
_cell_angle_alpha   90.00007651
_cell_angle_beta   90.00075803
_cell_angle_gamma   119.96283361
_symmetry_Int_Tables_number   1
_chemical_formula_structural   V5Tc3Se16
_chemical_formula_sum   'V5 Tc3 Se16'
_cell_volume   522.08803675
_cell_formula_units_Z   1
loop_
 _symmetry_equiv_pos_site_id
 _symmetry_equiv_pos_as_xyz
  1  'x, y, z'
loop_
 _atom_site_type_symbol
 _atom_site_label
 _atom_site_symmetry_multiplicity
 _atom_site_fract_x
 _atom_site_fract_y
 _atom_site_fract_z
 _atom_site_occupancy
  V  V0  1  0.494733  0.989486  0.750000  1
  V  V1  1  0.999995  0.499830  0.250000  1
  V  V2  1  0.499923  0.499837  0.249998  1
  V  V3  1  0.494329  0.505206  0.750001  1
  V  V4  1  0.010825  0.505155  0.750001  1
  Tc  Tc5  1  0.001298  0.002518  0.249999  1
  Tc  Tc6  1  0.000349  0.000535  0.750000  1
  Tc  Tc7  1  0.501161  0.002246  0.250000  1
  Se  Se8  1  0.668350  0.336670  0.132739  1
  Se  Se9  1  0.333412  0.666772  0.631133  1
  Se  Se10  1  0.333425  0.666784  0.868870  1
  Se  Se11  1  0.668360  0.336676  0.367262  1
  Se  Se12  1  0.168422  0.336844  0.132716  1
  Se  Se13  1  0.830694  0.661773  0.634928  1
  Se  Se14  1  0.664162  0.828331  0.133147  1
  Se  Se15  1  0.164172  0.828318  0.133149  1
  Se  Se16  1  0.830682  0.169284  0.634802  1
  Se  Se17  1  0.338816  0.169579  0.634875  1
  Se  Se18  1  0.830699  0.661776  0.865074  1
  Se  Se19  1  0.830689  0.169290  0.865199  1
  Se  Se20  1  0.338824  0.169584  0.865125  1
  Se  Se21  1  0.664168  0.828335  0.366853  1
  Se  Se22  1  0.164177  0.828321  0.366850  1
  Se  Se23  1  0.168435  0.336848  0.367281  1
