# generated using pymatgen
data_LaY4Hf3(Ni4As3)4
_symmetry_space_group_name_H-M   'P 1'
_cell_length_a   12.79973300
_cell_length_b   12.79973244
_cell_length_c   3.96061800
_cell_angle_alpha   90.00000000
_cell_angle_beta   90.00000000
_cell_angle_gamma   120.00000404
_symmetry_Int_Tables_number   1
_chemical_formula_structural   LaY4Hf3(Ni4As3)4
_chemical_formula_sum   'La1 Y4 Hf3 Ni16 As12'
_cell_volume   561.94702021
_cell_formula_units_Z   1
loop_
 _symmetry_equiv_pos_site_id
 _symmetry_equiv_pos_as_xyz
  1  'x, y, z'
loop_
 _atom_site_type_symbol
 _atom_site_label
 _atom_site_symmetry_multiplicity
 _atom_site_fract_x
 _atom_site_fract_y
 _atom_site_fract_z
 _atom_site_occupancy
  La  La0  1  0.333333  0.666667  0.000000  1
  Y  Y1  1  0.185168  0.186182  0.500000  1
  Y  Y2  1  0.813818  0.998986  0.500000  1
  Y  Y3  1  0.001014  0.814832  0.500000  1
  Y  Y4  1  0.666667  0.333333  0.000000  1
  Hf  Hf5  1  0.567292  0.564939  0.000000  1
  Hf  Hf6  1  0.435061  0.002354  0.000000  1
  Hf  Hf7  1  0.997646  0.432708  0.000000  1
  Ni  Ni8  1  0.726267  0.722006  0.500000  1
  Ni  Ni9  1  0.277994  0.004261  0.500000  1
  Ni  Ni10  1  0.995739  0.273733  0.500000  1
  Ni  Ni11  1  0.180284  0.373217  0.000000  1
  Ni  Ni12  1  0.626783  0.807068  0.000000  1
  Ni  Ni13  1  0.192932  0.819716  0.000000  1
  Ni  Ni14  1  0.807007  0.622820  0.000000  1
  Ni  Ni15  1  0.815814  0.192993  0.000000  1
  Ni  Ni16  1  0.377180  0.184186  0.000000  1
  Ni  Ni17  1  0.365750  0.482547  0.500000  1
  Ni  Ni18  1  0.517453  0.883205  0.500000  1
  Ni  Ni19  1  0.116795  0.634250  0.500000  1
  Ni  Ni20  1  0.879124  0.514555  0.500000  1
  Ni  Ni21  1  0.635433  0.120876  0.500000  1
  Ni  Ni22  1  0.485445  0.364567  0.500000  1
  Ni  Ni23  1  0.000000  0.000000  0.000000  1
  As  As24  1  0.823593  0.821949  0.000000  1
  As  As25  1  0.178051  0.001643  0.000000  1
  As  As26  1  0.998357  0.176407  0.000000  1
  As  As27  1  0.167922  0.472675  0.500000  1
  As  As28  1  0.527325  0.695248  0.500000  1
  As  As29  1  0.304752  0.832078  0.500000  1
  As  As30  1  0.694731  0.520830  0.500000  1
  As  As31  1  0.826100  0.305269  0.500000  1
  As  As32  1  0.479170  0.173900  0.500000  1
  As  As33  1  0.357568  0.358675  0.000000  1
  As  As34  1  0.641325  0.998893  0.000000  1
  As  As35  1  0.001107  0.642432  0.000000  1
