# generated using pymatgen
data_Tb4GaB4Ir9
_symmetry_space_group_name_H-M   'P 1'
_cell_length_a   10.83274611
_cell_length_b   10.83274531
_cell_length_c   10.83274666
_cell_angle_alpha   29.54905374
_cell_angle_beta   29.54905209
_cell_angle_gamma   29.54905652
_symmetry_Int_Tables_number   1
_chemical_formula_structural   Tb4GaB4Ir9
_chemical_formula_sum   'Tb4 Ga1 B4 Ir9'
_cell_volume   273.68120277
_cell_formula_units_Z   1
loop_
 _symmetry_equiv_pos_site_id
 _symmetry_equiv_pos_as_xyz
  1  'x, y, z'
loop_
 _atom_site_type_symbol
 _atom_site_label
 _atom_site_symmetry_multiplicity
 _atom_site_fract_x
 _atom_site_fract_y
 _atom_site_fract_z
 _atom_site_occupancy
  Tb  Tb0  1  0.150016  0.150016  0.150016  1
  Tb  Tb1  1  0.950251  0.950251  0.950251  1
  Tb  Tb2  1  0.849984  0.849984  0.849984  1
  Tb  Tb3  1  0.049749  0.049749  0.049749  1
  Ga  Ga4  1  0.500000  0.500000  0.500000  1
  B  B5  1  0.616003  0.616003  0.616003  1
  B  B6  1  0.717752  0.717752  0.717752  1
  B  B7  1  0.383997  0.383997  0.383997  1
  B  B8  1  0.282248  0.282248  0.282248  1
  Ir  Ir9  1  0.402255  0.902423  0.402255  1
  Ir  Ir10  1  0.902423  0.402255  0.402255  1
  Ir  Ir11  1  0.500000  0.500000  0.000000  1
  Ir  Ir12  1  0.500000  0.000000  0.500000  1
  Ir  Ir13  1  0.000000  0.500000  0.500000  1
  Ir  Ir14  1  0.597745  0.097577  0.597745  1
  Ir  Ir15  1  0.597745  0.597745  0.097577  1
  Ir  Ir16  1  0.097577  0.597745  0.597745  1
  Ir  Ir17  1  0.402255  0.402255  0.902423  1
