# generated using pymatgen
data_LiCe3As5
_symmetry_space_group_name_H-M   'P 1'
_cell_length_a   8.76398900
_cell_length_b   8.76398952
_cell_length_c   5.76248800
_cell_angle_alpha   90.00000000
_cell_angle_beta   90.00000000
_cell_angle_gamma   119.99999427
_symmetry_Int_Tables_number   1
_chemical_formula_structural   LiCe3As5
_chemical_formula_sum   'Li2 Ce6 As10'
_cell_volume   383.30489378
_cell_formula_units_Z   2
loop_
 _symmetry_equiv_pos_site_id
 _symmetry_equiv_pos_as_xyz
  1  'x, y, z'
loop_
 _atom_site_type_symbol
 _atom_site_label
 _atom_site_symmetry_multiplicity
 _atom_site_fract_x
 _atom_site_fract_y
 _atom_site_fract_z
 _atom_site_occupancy
  Li  Li0  1  0.000000  0.000000  0.000000  1
  Li  Li1  1  0.000000  0.000000  0.500000  1
  Ce  Ce2  1  0.624898  0.000000  0.250000  1
  Ce  Ce3  1  0.375102  0.000000  0.750000  1
  Ce  Ce4  1  0.000000  0.624898  0.250000  1
  Ce  Ce5  1  0.000000  0.375102  0.750000  1
  Ce  Ce6  1  0.375102  0.375102  0.250000  1
  Ce  Ce7  1  0.624898  0.624898  0.750000  1
  As  As8  1  0.265945  0.000000  0.250000  1
  As  As9  1  0.734055  0.000000  0.750000  1
  As  As10  1  0.000000  0.265945  0.250000  1
  As  As11  1  0.000000  0.734055  0.750000  1
  As  As12  1  0.734055  0.734055  0.250000  1
  As  As13  1  0.265945  0.265945  0.750000  1
  As  As14  1  0.333333  0.666667  0.000000  1
  As  As15  1  0.666667  0.333333  0.000000  1
  As  As16  1  0.666667  0.333333  0.500000  1
  As  As17  1  0.333333  0.666667  0.500000  1
