# generated using pymatgen
data_Yb2HoEr(Pt2O7)2
_symmetry_space_group_name_H-M   'P 1'
_cell_length_a   7.22772167
_cell_length_b   7.24712288
_cell_length_c   7.24712248
_cell_angle_alpha   60.09245845
_cell_angle_beta   60.11473295
_cell_angle_gamma   60.11471889
_symmetry_Int_Tables_number   1
_chemical_formula_structural   Yb2HoEr(Pt2O7)2
_chemical_formula_sum   'Yb2 Ho1 Er1 Pt4 O14'
_cell_volume   269.07427204
_cell_formula_units_Z   1
loop_
 _symmetry_equiv_pos_site_id
 _symmetry_equiv_pos_as_xyz
  1  'x, y, z'
loop_
 _atom_site_type_symbol
 _atom_site_label
 _atom_site_symmetry_multiplicity
 _atom_site_fract_x
 _atom_site_fract_y
 _atom_site_fract_z
 _atom_site_occupancy
  Yb  Yb0  1  0.625000  0.625000  0.125000  1
  Yb  Yb1  1  0.625000  0.125000  0.625000  1
  Ho  Ho2  1  0.125000  0.625000  0.625000  1
  Er  Er3  1  0.625000  0.625000  0.625000  1
  Pt  Pt4  1  0.625000  0.125000  0.125000  1
  Pt  Pt5  1  0.125000  0.125000  0.125000  1
  Pt  Pt6  1  0.125000  0.625000  0.125000  1
  Pt  Pt7  1  0.125000  0.125000  0.625000  1
  O  O8  1  0.036429  0.462904  0.462904  1
  O  O9  1  0.789617  0.788673  0.217571  1
  O  O10  1  0.790749  0.209307  0.209307  1
  O  O11  1  0.755106  0.744073  0.744073  1
  O  O12  1  0.045494  0.461057  0.033254  1
  O  O13  1  0.460383  0.032429  0.461327  1
  O  O14  1  0.045494  0.033254  0.461057  1
  O  O15  1  0.494894  0.505927  0.505927  1
  O  O16  1  0.204506  0.216746  0.788943  1
  O  O17  1  0.204506  0.788943  0.216746  1
  O  O18  1  0.789617  0.217571  0.788673  1
  O  O19  1  0.459251  0.040693  0.040693  1
  O  O20  1  0.460383  0.461327  0.032429  1
  O  O21  1  0.213571  0.787096  0.787096  1
