# generated using pymatgen
data_Li4Sm3Er(Si2Ge)2
_symmetry_space_group_name_H-M   'P 1'
_cell_length_a   9.40646678
_cell_length_b   9.40646711
_cell_length_c   6.78798000
_cell_angle_alpha   90.00000000
_cell_angle_beta   90.00000000
_cell_angle_gamma   153.47662922
_symmetry_Int_Tables_number   1
_chemical_formula_structural   Li4Sm3Er(Si2Ge)2
_chemical_formula_sum   'Li4 Sm3 Er1 Si4 Ge2'
_cell_volume   268.21074979
_cell_formula_units_Z   1
loop_
 _symmetry_equiv_pos_site_id
 _symmetry_equiv_pos_as_xyz
  1  'x, y, z'
loop_
 _atom_site_type_symbol
 _atom_site_label
 _atom_site_symmetry_multiplicity
 _atom_site_fract_x
 _atom_site_fract_y
 _atom_site_fract_z
 _atom_site_occupancy
  Li  Li0  1  0.810369  0.189631  0.559313  1
  Li  Li1  1  0.188726  0.811274  0.441977  1
  Li  Li2  1  0.188726  0.811274  0.058023  1
  Li  Li3  1  0.810369  0.189631  0.940687  1
  Sm  Sm4  1  0.552593  0.447407  0.250000  1
  Sm  Sm5  1  0.448604  0.551396  0.750000  1
  Sm  Sm6  1  0.345314  0.654686  0.250000  1
  Er  Er7  1  0.653780  0.346220  0.750000  1
  Si  Si8  1  0.942114  0.057886  0.073803  1
  Si  Si9  1  0.059748  0.940252  0.925086  1
  Si  Si10  1  0.059748  0.940252  0.574914  1
  Si  Si11  1  0.942114  0.057886  0.426197  1
  Ge  Ge12  1  0.719422  0.280578  0.250000  1
  Ge  Ge13  1  0.278375  0.721625  0.750000  1
