# generated using pymatgen
data_YErPdPtO7
_symmetry_space_group_name_H-M   'P 1'
_cell_length_a   7.24428789
_cell_length_b   7.25591246
_cell_length_c   7.24428800
_cell_angle_alpha   59.94689615
_cell_angle_beta   59.85008704
_cell_angle_gamma   59.94689977
_symmetry_Int_Tables_number   1
_chemical_formula_structural   YErPdPtO7
_chemical_formula_sum   'Y2 Er2 Pd2 Pt2 O14'
_cell_volume   268.73592574
_cell_formula_units_Z   2
loop_
 _symmetry_equiv_pos_site_id
 _symmetry_equiv_pos_as_xyz
  1  'x, y, z'
loop_
 _atom_site_type_symbol
 _atom_site_label
 _atom_site_symmetry_multiplicity
 _atom_site_fract_x
 _atom_site_fract_y
 _atom_site_fract_z
 _atom_site_occupancy
  Y  Y0  1  0.625000  0.625000  0.125000  1
  Y  Y1  1  0.125000  0.625000  0.625000  1
  Er  Er2  1  0.625000  0.625000  0.625000  1
  Er  Er3  1  0.625000  0.125000  0.625000  1
  Pd  Pd4  1  0.125000  0.125000  0.125000  1
  Pd  Pd5  1  0.125000  0.625000  0.125000  1
  Pt  Pt6  1  0.625000  0.125000  0.125000  1
  Pt  Pt7  1  0.125000  0.125000  0.625000  1
  O  O8  1  0.031994  0.464702  0.467324  1
  O  O9  1  0.782676  0.785298  0.218006  1
  O  O10  1  0.782676  0.214020  0.218006  1
  O  O11  1  0.747248  0.752752  0.747248  1
  O  O12  1  0.034995  0.465005  0.034995  1
  O  O13  1  0.467199  0.032801  0.467199  1
  O  O14  1  0.031994  0.035980  0.467324  1
  O  O15  1  0.502752  0.497248  0.502752  1
  O  O16  1  0.218006  0.214020  0.782676  1
  O  O17  1  0.215005  0.784995  0.215005  1
  O  O18  1  0.782801  0.217199  0.782801  1
  O  O19  1  0.467324  0.035980  0.031994  1
  O  O20  1  0.467324  0.464702  0.031994  1
  O  O21  1  0.218006  0.785298  0.782676  1
