# generated using pymatgen
data_Er2TmSi2GeRu2
_symmetry_space_group_name_H-M   'P 1'
_cell_length_a   5.70670956
_cell_length_b   5.70670942
_cell_length_c   13.79249032
_cell_angle_alpha   90.04673208
_cell_angle_beta   89.95326830
_cell_angle_gamma   137.30867136
_symmetry_Int_Tables_number   1
_chemical_formula_structural   Er2TmSi2GeRu2
_chemical_formula_sum   'Er4 Tm2 Si4 Ge2 Ru4'
_cell_volume   304.56133626
_cell_formula_units_Z   2
loop_
 _symmetry_equiv_pos_site_id
 _symmetry_equiv_pos_as_xyz
  1  'x, y, z'
loop_
 _atom_site_type_symbol
 _atom_site_label
 _atom_site_symmetry_multiplicity
 _atom_site_fract_x
 _atom_site_fract_y
 _atom_site_fract_z
 _atom_site_occupancy
  Er  Er0  1  0.925196  0.074804  0.387342  1
  Er  Er1  1  0.074804  0.925196  0.612658  1
  Er  Er2  1  0.645544  0.354456  0.249822  1
  Er  Er3  1  0.354456  0.645544  0.750178  1
  Tm  Tm4  1  0.925087  0.074913  0.112247  1
  Tm  Tm5  1  0.074913  0.925087  0.887753  1
  Si  Si6  1  0.616192  0.383808  0.461297  1
  Si  Si7  1  0.383808  0.616192  0.538703  1
  Si  Si8  1  0.615916  0.384084  0.038542  1
  Si  Si9  1  0.384084  0.615916  0.961458  1
  Ge  Ge10  1  0.339183  0.660817  0.249732  1
  Ge  Ge11  1  0.660817  0.339183  0.750268  1
  Ru  Ru12  1  0.788614  0.211386  0.920308  1
  Ru  Ru13  1  0.211386  0.788614  0.079692  1
  Ru  Ru14  1  0.788333  0.211667  0.579804  1
  Ru  Ru15  1  0.211667  0.788333  0.420196  1
