# generated using pymatgen
data_Y8Si12NiPt3
_symmetry_space_group_name_H-M   'P 1'
_cell_length_a   8.10545900
_cell_length_b   8.10545703
_cell_length_c   8.17852700
_cell_angle_alpha   90.00000000
_cell_angle_beta   90.00000000
_cell_angle_gamma   119.99999578
_symmetry_Int_Tables_number   1
_chemical_formula_structural   Y8Si12NiPt3
_chemical_formula_sum   'Y8 Si12 Ni1 Pt3'
_cell_volume   465.32979720
_cell_formula_units_Z   1
loop_
 _symmetry_equiv_pos_site_id
 _symmetry_equiv_pos_as_xyz
  1  'x, y, z'
loop_
 _atom_site_type_symbol
 _atom_site_label
 _atom_site_symmetry_multiplicity
 _atom_site_fract_x
 _atom_site_fract_y
 _atom_site_fract_z
 _atom_site_occupancy
  Y  Y0  1  0.498568  0.997136  0.248019  1
  Y  Y1  1  0.498775  0.997549  0.752052  1
  Y  Y2  1  0.002864  0.501432  0.248019  1
  Y  Y3  1  0.002451  0.501225  0.752052  1
  Y  Y4  1  0.498568  0.501432  0.248019  1
  Y  Y5  1  0.498775  0.501225  0.752052  1
  Y  Y6  1  0.000000  0.000000  0.248172  1
  Y  Y7  1  0.000000  0.000000  0.751920  1
  Si  Si8  1  0.172110  0.344219  0.000508  1
  Si  Si9  1  0.835693  0.671386  0.999544  1
  Si  Si10  1  0.655781  0.827890  0.000508  1
  Si  Si11  1  0.834082  0.668166  0.499303  1
  Si  Si12  1  0.328614  0.164307  0.999544  1
  Si  Si13  1  0.165254  0.330509  0.500792  1
  Si  Si14  1  0.172110  0.827890  0.000508  1
  Si  Si15  1  0.331834  0.165918  0.499303  1
  Si  Si16  1  0.835693  0.164307  0.999544  1
  Si  Si17  1  0.669491  0.834746  0.500792  1
  Si  Si18  1  0.834082  0.165918  0.499303  1
  Si  Si19  1  0.165254  0.834746  0.500792  1
  Ni  Ni20  1  0.333333  0.666667  0.998946  1
  Pt  Pt21  1  0.666667  0.333333  0.999783  1
  Pt  Pt22  1  0.666667  0.333333  0.499842  1
  Pt  Pt23  1  0.333333  0.666667  0.500680  1
