# generated using pymatgen
data_Er10Si5Bi
_symmetry_space_group_name_H-M   'P 1'
_cell_length_a   8.49778215
_cell_length_b   8.49778055
_cell_length_c   6.29011700
_cell_angle_alpha   90.00000000
_cell_angle_beta   90.00000000
_cell_angle_gamma   120.28288505
_symmetry_Int_Tables_number   1
_chemical_formula_structural   Er10Si5Bi
_chemical_formula_sum   'Er10 Si5 Bi1'
_cell_volume   392.24319392
_cell_formula_units_Z   1
loop_
 _symmetry_equiv_pos_site_id
 _symmetry_equiv_pos_as_xyz
  1  'x, y, z'
loop_
 _atom_site_type_symbol
 _atom_site_label
 _atom_site_symmetry_multiplicity
 _atom_site_fract_x
 _atom_site_fract_y
 _atom_site_fract_z
 _atom_site_occupancy
  Er  Er0  1  0.677022  0.330756  0.505069  1
  Er  Er1  1  0.330756  0.677022  0.505069  1
  Er  Er2  1  0.330756  0.677022  0.994931  1
  Er  Er3  1  0.677022  0.330756  0.994931  1
  Er  Er4  1  0.768581  0.768581  0.250000  1
  Er  Er5  1  0.239137  0.984283  0.250000  1
  Er  Er6  1  0.984283  0.239137  0.250000  1
  Er  Er7  1  0.239397  0.239397  0.750000  1
  Er  Er8  1  0.755567  0.998602  0.750000  1
  Er  Er9  1  0.998602  0.755567  0.750000  1
  Si  Si10  1  0.603835  0.998654  0.250000  1
  Si  Si11  1  0.998654  0.603835  0.250000  1
  Si  Si12  1  0.607029  0.607029  0.750000  1
  Si  Si13  1  0.393473  0.002672  0.750000  1
  Si  Si14  1  0.002672  0.393473  0.750000  1
  Bi  Bi15  1  0.393215  0.393215  0.250000  1
