# generated using pymatgen
data_Th2Al20Fe3Rh
_symmetry_space_group_name_H-M   'P 1'
_cell_length_a   6.81759317
_cell_length_b   6.82363874
_cell_length_c   9.09906873
_cell_angle_alpha   89.97410460
_cell_angle_beta   90.11727172
_cell_angle_gamma   97.68225627
_symmetry_Int_Tables_number   1
_chemical_formula_structural   Th2Al20Fe3Rh
_chemical_formula_sum   'Th2 Al20 Fe3 Rh1'
_cell_volume   419.49577547
_cell_formula_units_Z   1
loop_
 _symmetry_equiv_pos_site_id
 _symmetry_equiv_pos_as_xyz
  1  'x, y, z'
loop_
 _atom_site_type_symbol
 _atom_site_label
 _atom_site_symmetry_multiplicity
 _atom_site_fract_x
 _atom_site_fract_y
 _atom_site_fract_z
 _atom_site_occupancy
  Th  Th0  1  0.872950  0.122901  0.752092  1
  Th  Th1  1  0.127050  0.877099  0.247908  1
  Al  Al2  1  0.517901  0.777164  0.750452  1
  Al  Al3  1  0.482099  0.222836  0.249548  1
  Al  Al4  1  0.591126  0.864955  0.248838  1
  Al  Al5  1  0.773368  0.774469  0.000810  1
  Al  Al6  1  0.163736  0.844194  0.601999  1
  Al  Al7  1  0.226632  0.225531  0.999190  1
  Al  Al8  1  0.137465  0.406953  0.245497  1
  Al  Al9  1  0.623442  0.375620  0.952137  1
  Al  Al10  1  0.839261  0.160952  0.100071  1
  Al  Al11  1  0.381300  0.626656  0.449772  1
  Al  Al12  1  0.160739  0.839048  0.899929  1
  Al  Al13  1  0.224432  0.480415  0.755491  1
  Al  Al14  1  0.376558  0.624380  0.047863  1
  Al  Al15  1  0.836264  0.155806  0.398001  1
  Al  Al16  1  0.618700  0.373344  0.550228  1
  Al  Al17  1  0.408874  0.135045  0.751162  1
  Al  Al18  1  0.775568  0.519585  0.244509  1
  Al  Al19  1  0.770206  0.777949  0.501673  1
  Al  Al20  1  0.229794  0.222051  0.498327  1
  Al  Al21  1  0.862535  0.593047  0.754503  1
  Fe  Fe22  1  0.000000  0.500000  0.000000  1
  Fe  Fe23  1  0.500000  0.000000  0.000000  1
  Fe  Fe24  1  0.500000  0.000000  0.500000  1
  Rh  Rh25  1  0.000000  0.500000  0.500000  1
