# generated using pymatgen
data_Sm8Er5Sc7Si15Pt
_symmetry_space_group_name_H-M   'P 1'
_cell_length_a   7.24193512
_cell_length_b   7.65589571
_cell_length_c   14.35945560
_cell_angle_alpha   90.09749678
_cell_angle_beta   90.18393166
_cell_angle_gamma   90.19232546
_symmetry_Int_Tables_number   1
_chemical_formula_structural   Sm8Er5Sc7Si15Pt
_chemical_formula_sum   'Sm8 Er5 Sc7 Si15 Pt1'
_cell_volume   796.12872108
_cell_formula_units_Z   1
loop_
 _symmetry_equiv_pos_site_id
 _symmetry_equiv_pos_as_xyz
  1  'x, y, z'
loop_
 _atom_site_type_symbol
 _atom_site_label
 _atom_site_symmetry_multiplicity
 _atom_site_fract_x
 _atom_site_fract_y
 _atom_site_fract_z
 _atom_site_occupancy
  Sm  Sm0  1  0.015505  0.179973  0.094446  1
  Sm  Sm1  1  0.988441  0.822069  0.906534  1
  Sm  Sm2  1  0.484725  0.678807  0.905066  1
  Sm  Sm3  1  0.984953  0.820163  0.599883  1
  Sm  Sm4  1  0.514378  0.321062  0.093337  1
  Sm  Sm5  1  0.018155  0.181400  0.399780  1
  Sm  Sm6  1  0.516782  0.320648  0.401285  1
  Sm  Sm7  1  0.483861  0.678973  0.599591  1
  Er  Er8  1  0.314515  0.173023  0.629107  1
  Er  Er9  1  0.677512  0.825881  0.372056  1
  Er  Er10  1  0.177858  0.677373  0.372849  1
  Er  Er11  1  0.676000  0.826278  0.122500  1
  Er  Er12  1  0.825938  0.320621  0.628594  1
  Sc  Sc13  1  0.156032  0.509226  0.754791  1
  Sc  Sc14  1  0.843653  0.491835  0.246657  1
  Sc  Sc15  1  0.342175  0.009620  0.245978  1
  Sc  Sc16  1  0.661097  0.995861  0.754397  1
  Sc  Sc17  1  0.316851  0.173260  0.874531  1
  Sc  Sc18  1  0.827923  0.324206  0.874491  1
  Sc  Sc19  1  0.176865  0.676401  0.123959  1
  Si  Si20  1  0.980868  0.889434  0.245800  1
  Si  Si21  1  0.474291  0.605507  0.245089  1
  Si  Si22  1  0.523611  0.390477  0.756346  1
  Si  Si23  1  0.283033  0.869164  0.753886  1
  Si  Si24  1  0.716510  0.133154  0.247353  1
  Si  Si25  1  0.217387  0.371798  0.246315  1
  Si  Si26  1  0.777569  0.624020  0.754152  1
  Si  Si27  1  0.153337  0.469415  0.539627  1
  Si  Si28  1  0.847930  0.533294  0.461045  1
  Si  Si29  1  0.349994  0.967472  0.460981  1
  Si  Si30  1  0.852813  0.530974  0.037438  1
  Si  Si31  1  0.651016  0.031246  0.540298  1
  Si  Si32  1  0.155455  0.466779  0.961330  1
  Si  Si33  1  0.650941  0.037626  0.956640  1
  Si  Si34  1  0.343173  0.966879  0.036569  1
  Pt  Pt35  1  0.018853  0.106082  0.757297  1
