# generated using pymatgen
data_Sr2HoLu(Si4N7)2
_symmetry_space_group_name_H-M   'P 1'
_cell_length_a   6.03217100
_cell_length_b   6.03217270
_cell_length_c   9.83551300
_cell_angle_alpha   90.00000000
_cell_angle_beta   90.00000000
_cell_angle_gamma   119.99999616
_symmetry_Int_Tables_number   1
_chemical_formula_structural   Sr2HoLu(Si4N7)2
_chemical_formula_sum   'Sr2 Ho1 Lu1 Si8 N14'
_cell_volume   309.93817855
_cell_formula_units_Z   1
loop_
 _symmetry_equiv_pos_site_id
 _symmetry_equiv_pos_as_xyz
  1  'x, y, z'
loop_
 _atom_site_type_symbol
 _atom_site_label
 _atom_site_symmetry_multiplicity
 _atom_site_fract_x
 _atom_site_fract_y
 _atom_site_fract_z
 _atom_site_occupancy
  Sr  Sr0  1  0.666667  0.333333  0.582085  1
  Sr  Sr1  1  0.333333  0.666667  0.078982  1
  Ho  Ho2  1  0.333333  0.666667  0.450215  1
  Lu  Lu3  1  0.666667  0.333333  0.950840  1
  Si  Si4  1  0.173802  0.347604  0.761428  1
  Si  Si5  1  0.825922  0.174078  0.258725  1
  Si  Si6  1  0.348155  0.174078  0.258725  1
  Si  Si7  1  0.652396  0.826198  0.761428  1
  Si  Si8  1  0.173802  0.826198  0.761428  1
  Si  Si9  1  0.825922  0.651845  0.258725  1
  Si  Si10  1  0.000000  0.000000  0.026325  1
  Si  Si11  1  0.000000  0.000000  0.527612  1
  N  N12  1  0.000000  0.000000  0.836235  1
  N  N13  1  0.000000  0.000000  0.335277  1
  N  N14  1  0.845498  0.690998  0.084678  1
  N  N15  1  0.153747  0.846253  0.587698  1
  N  N16  1  0.692508  0.846253  0.587698  1
  N  N17  1  0.309002  0.154502  0.084678  1
  N  N18  1  0.845498  0.154502  0.084678  1
  N  N19  1  0.153747  0.307492  0.587698  1
  N  N20  1  0.489844  0.510156  0.815059  1
  N  N21  1  0.978141  0.489070  0.311770  1
  N  N22  1  0.510930  0.021859  0.311770  1
  N  N23  1  0.489844  0.979688  0.815059  1
  N  N24  1  0.510930  0.489070  0.311770  1
  N  N25  1  0.020312  0.510156  0.815059  1
