# generated using pymatgen
data_DyTaB6W
_symmetry_space_group_name_H-M   'P 1'
_cell_length_a   3.54245000
_cell_length_b   8.92217500
_cell_length_c   11.26929000
_cell_angle_alpha   90.00000000
_cell_angle_beta   90.00000000
_cell_angle_gamma   90.00000000
_symmetry_Int_Tables_number   1
_chemical_formula_structural   DyTaB6W
_chemical_formula_sum   'Dy4 Ta4 B24 W4'
_cell_volume   356.18122349
_cell_formula_units_Z   4
loop_
 _symmetry_equiv_pos_site_id
 _symmetry_equiv_pos_as_xyz
  1  'x, y, z'
loop_
 _atom_site_type_symbol
 _atom_site_label
 _atom_site_symmetry_multiplicity
 _atom_site_fract_x
 _atom_site_fract_y
 _atom_site_fract_z
 _atom_site_occupancy
  Dy  Dy0  1  0.000000  0.320786  0.413741  1
  Dy  Dy1  1  0.000000  0.679214  0.586259  1
  Dy  Dy2  1  0.000000  0.820786  0.086259  1
  Dy  Dy3  1  0.000000  0.179214  0.913741  1
  Ta  Ta4  1  0.000000  0.946023  0.373946  1
  Ta  Ta5  1  0.000000  0.053977  0.626054  1
  Ta  Ta6  1  0.000000  0.446023  0.126054  1
  Ta  Ta7  1  0.000000  0.553977  0.873946  1
  B  B8  1  0.500000  0.553568  0.433837  1
  B  B9  1  0.500000  0.446432  0.566163  1
  B  B10  1  0.500000  0.053568  0.066163  1
  B  B11  1  0.500000  0.946432  0.933837  1
  B  B12  1  0.500000  0.756593  0.419286  1
  B  B13  1  0.500000  0.243407  0.580714  1
  B  B14  1  0.500000  0.256593  0.080714  1
  B  B15  1  0.500000  0.743407  0.919286  1
  B  B16  1  0.500000  0.798104  0.264008  1
  B  B17  1  0.500000  0.201896  0.735992  1
  B  B18  1  0.500000  0.298104  0.235992  1
  B  B19  1  0.500000  0.701896  0.764008  1
  B  B20  1  0.500000  0.629366  0.180488  1
  B  B21  1  0.500000  0.370634  0.819512  1
  B  B22  1  0.500000  0.129366  0.319512  1
  B  B23  1  0.500000  0.870634  0.680488  1
  B  B24  1  0.500000  0.979991  0.214612  1
  B  B25  1  0.500000  0.020009  0.785388  1
  B  B26  1  0.500000  0.479991  0.285388  1
  B  B27  1  0.500000  0.520009  0.714612  1
  B  B28  1  0.500000  0.597655  0.025960  1
  B  B29  1  0.500000  0.402345  0.974040  1
  B  B30  1  0.500000  0.097655  0.474040  1
  B  B31  1  0.500000  0.902345  0.525960  1
  W  W32  1  0.000000  0.642885  0.316431  1
  W  W33  1  0.000000  0.357115  0.683569  1
  W  W34  1  0.000000  0.142885  0.183569  1
  W  W35  1  0.000000  0.857115  0.816431  1
