# generated using pymatgen
data_Cs4Dy3Si4SbSe16
_symmetry_space_group_name_H-M   'P 1'
_cell_length_a   7.15828590
_cell_length_b   9.92069008
_cell_length_c   13.42172458
_cell_angle_alpha   71.35136250
_cell_angle_beta   89.80161716
_cell_angle_gamma   90.39318345
_symmetry_Int_Tables_number   1
_chemical_formula_structural   Cs4Dy3Si4SbSe16
_chemical_formula_sum   'Cs4 Dy3 Si4 Sb1 Se16'
_cell_volume   903.06552604
_cell_formula_units_Z   1
loop_
 _symmetry_equiv_pos_site_id
 _symmetry_equiv_pos_as_xyz
  1  'x, y, z'
loop_
 _atom_site_type_symbol
 _atom_site_label
 _atom_site_symmetry_multiplicity
 _atom_site_fract_x
 _atom_site_fract_y
 _atom_site_fract_z
 _atom_site_occupancy
  Cs  Cs0  1  0.259015  0.435508  0.386810  1
  Cs  Cs1  1  0.763207  0.559224  0.117895  1
  Cs  Cs2  1  0.749184  0.564568  0.615209  1
  Cs  Cs3  1  0.236658  0.438898  0.879511  1
  Dy  Dy4  1  0.185138  0.953551  0.367214  1
  Dy  Dy5  1  0.683684  0.047282  0.136390  1
  Dy  Dy6  1  0.812711  0.045256  0.633655  1
  Si  Si7  1  0.743278  0.160045  0.356526  1
  Si  Si8  1  0.245374  0.837901  0.147137  1
  Si  Si9  1  0.243928  0.840026  0.644725  1
  Si  Si10  1  0.757069  0.171533  0.849186  1
  Sb  Sb11  1  0.355393  0.945893  0.876574  1
  Se  Se12  1  0.020568  0.201809  0.751620  1
  Se  Se13  1  0.782379  0.929110  0.459597  1
  Se  Se14  1  0.521517  0.196697  0.728786  1
  Se  Se15  1  0.716758  0.933060  0.954657  1
  Se  Se16  1  0.761338  0.306912  0.455532  1
  Se  Se17  1  0.968840  0.811902  0.239117  1
  Se  Se18  1  0.272172  0.687778  0.049702  1
  Se  Se19  1  0.213213  0.071274  0.540103  1
  Se  Se20  1  0.733952  0.306334  0.957290  1
  Se  Se21  1  0.469873  0.800172  0.274170  1
  Se  Se22  1  0.007552  0.793446  0.764456  1
  Se  Se23  1  0.244466  0.695941  0.542327  1
  Se  Se24  1  0.470661  0.188906  0.260836  1
  Se  Se25  1  0.970596  0.198287  0.228394  1
  Se  Se26  1  0.521411  0.808806  0.738980  1
  Se  Se27  1  0.290067  0.069881  0.043602  1
