# generated using pymatgen
data_Ta8Ti4Al3Ga5(IrC)4
_symmetry_space_group_name_H-M   'P 1'
_cell_length_a   8.26830487
_cell_length_b   8.26763635
_cell_length_c   8.27944900
_cell_angle_alpha   59.95801286
_cell_angle_beta   59.94842791
_cell_angle_gamma   60.09191490
_symmetry_Int_Tables_number   1
_chemical_formula_structural   Ta8Ti4Al3Ga5(IrC)4
_chemical_formula_sum   'Ta8 Ti4 Al3 Ga5 Ir4 C4'
_cell_volume   400.20009173
_cell_formula_units_Z   1
loop_
 _symmetry_equiv_pos_site_id
 _symmetry_equiv_pos_as_xyz
  1  'x, y, z'
loop_
 _atom_site_type_symbol
 _atom_site_label
 _atom_site_symmetry_multiplicity
 _atom_site_fract_x
 _atom_site_fract_y
 _atom_site_fract_z
 _atom_site_occupancy
  Ta  Ta0  1  0.690618  0.690509  0.310338  1
  Ta  Ta1  1  0.311221  0.309889  0.688535  1
  Ta  Ta2  1  0.560362  0.561569  0.940038  1
  Ta  Ta3  1  0.940881  0.560591  0.559194  1
  Ta  Ta4  1  0.558253  0.940184  0.941367  1
  Ta  Ta5  1  0.940706  0.939114  0.559253  1
  Ta  Ta6  1  0.690366  0.309984  0.690256  1
  Ta  Ta7  1  0.939934  0.559811  0.939982  1
  Ti  Ti8  1  0.561279  0.938893  0.561271  1
  Ti  Ti9  1  0.311668  0.688860  0.689254  1
  Ti  Ti10  1  0.687868  0.311149  0.312282  1
  Ti  Ti11  1  0.310612  0.688799  0.310673  1
  Al  Al12  1  0.914230  0.919098  0.251079  1
  Al  Al13  1  0.251085  0.916145  0.914333  1
  Al  Al14  1  0.337124  0.332761  0.332068  1
  Ga  Ga15  1  0.916445  0.912190  0.912621  1
  Ga  Ga16  1  0.989250  0.335003  0.335209  1
  Ga  Ga17  1  0.335367  0.986675  0.341567  1
  Ga  Ga18  1  0.335289  0.341021  0.989016  1
  Ga  Ga19  1  0.912794  0.258463  0.916736  1
  Ir  Ir20  1  0.128052  0.120682  0.124682  1
  Ir  Ir21  1  0.624425  0.123764  0.126750  1
  Ir  Ir22  1  0.125735  0.625968  0.128956  1
  Ir  Ir23  1  0.126760  0.128010  0.624527  1
  C  C24  1  0.622017  0.628626  0.625315  1
  C  C25  1  0.129552  0.625679  0.622531  1
  C  C26  1  0.625723  0.123729  0.622397  1
  C  C27  1  0.622385  0.622834  0.129770  1
