# generated using pymatgen
data_YbY9(PtPb3)2
_symmetry_space_group_name_H-M   'P 1'
_cell_length_a   9.23885100
_cell_length_b   9.23885154
_cell_length_c   6.84977900
_cell_angle_alpha   90.00000000
_cell_angle_beta   90.00000000
_cell_angle_gamma   120.00000166
_symmetry_Int_Tables_number   1
_chemical_formula_structural   YbY9(PtPb3)2
_chemical_formula_sum   'Yb1 Y9 Pt2 Pb6'
_cell_volume   506.34104733
_cell_formula_units_Z   1
loop_
 _symmetry_equiv_pos_site_id
 _symmetry_equiv_pos_as_xyz
  1  'x, y, z'
loop_
 _atom_site_type_symbol
 _atom_site_label
 _atom_site_symmetry_multiplicity
 _atom_site_fract_x
 _atom_site_fract_y
 _atom_site_fract_z
 _atom_site_occupancy
  Yb  Yb0  1  0.333333  0.666667  0.000000  1
  Y  Y1  1  0.246147  0.000497  0.250220  1
  Y  Y2  1  0.754350  0.000497  0.749780  1
  Y  Y3  1  0.999503  0.245650  0.250220  1
  Y  Y4  1  0.999503  0.753853  0.749780  1
  Y  Y5  1  0.754350  0.753853  0.250220  1
  Y  Y6  1  0.246147  0.245650  0.749780  1
  Y  Y7  1  0.666667  0.333333  0.000000  1
  Y  Y8  1  0.666667  0.333333  0.500000  1
  Y  Y9  1  0.333333  0.666667  0.500000  1
  Pt  Pt10  1  0.000000  0.000000  0.000000  1
  Pt  Pt11  1  0.000000  0.000000  0.500000  1
  Pb  Pb12  1  0.599470  0.000532  0.250989  1
  Pb  Pb13  1  0.401061  0.000532  0.749011  1
  Pb  Pb14  1  0.999468  0.598939  0.250989  1
  Pb  Pb15  1  0.999468  0.400530  0.749011  1
  Pb  Pb16  1  0.401061  0.400530  0.250989  1
  Pb  Pb17  1  0.599470  0.598939  0.749011  1
