# generated using pymatgen
data_Ta6Nb3CrN12
_symmetry_space_group_name_H-M   'P 1'
_cell_length_a   5.22366205
_cell_length_b   5.22349647
_cell_length_c   10.35714573
_cell_angle_alpha   90.03657315
_cell_angle_beta   90.00132487
_cell_angle_gamma   119.98548385
_symmetry_Int_Tables_number   1
_chemical_formula_structural   Ta6Nb3CrN12
_chemical_formula_sum   'Ta6 Nb3 Cr1 N12'
_cell_volume   244.77692880
_cell_formula_units_Z   1
loop_
 _symmetry_equiv_pos_site_id
 _symmetry_equiv_pos_as_xyz
  1  'x, y, z'
loop_
 _atom_site_type_symbol
 _atom_site_label
 _atom_site_symmetry_multiplicity
 _atom_site_fract_x
 _atom_site_fract_y
 _atom_site_fract_z
 _atom_site_occupancy
  Ta  Ta0  1  0.665681  0.333254  0.000384  1
  Ta  Ta1  1  0.665091  0.333403  0.500313  1
  Ta  Ta2  1  0.332212  0.666718  0.000284  1
  Ta  Ta3  1  0.676886  0.997822  0.748831  1
  Ta  Ta4  1  0.676684  0.678628  0.250807  1
  Ta  Ta5  1  0.002320  0.323913  0.250856  1
  Nb  Nb6  1  0.002060  0.677058  0.749663  1
  Nb  Nb7  1  0.322729  0.324353  0.749708  1
  Nb  Nb8  1  0.323355  0.998204  0.249917  1
  Cr  Cr9  1  0.332273  0.666705  0.499999  1
  N  N10  1  0.347762  0.353952  0.378720  1
  N  N11  1  0.654456  0.998146  0.379136  1
  N  N12  1  0.998009  0.648373  0.378608  1
  N  N13  1  0.995875  0.336370  0.880310  1
  N  N14  1  0.664637  0.000595  0.120007  1
  N  N15  1  0.659956  0.663031  0.880368  1
  N  N16  1  0.344349  0.000228  0.879608  1
  N  N17  1  0.650194  0.656005  0.620122  1
  N  N18  1  0.997926  0.345602  0.620254  1
  N  N19  1  0.996004  0.656468  0.120731  1
  N  N20  1  0.351612  0.997840  0.620701  1
  N  N21  1  0.339930  0.343331  0.120673  1
