# generated using pymatgen
data_YbCd(SnO3)2
_symmetry_space_group_name_H-M   'P 1'
_cell_length_a   6.02421553
_cell_length_b   6.02421614
_cell_length_c   6.02421619
_cell_angle_alpha   54.68413852
_cell_angle_beta   54.68413040
_cell_angle_gamma   54.68414147
_symmetry_Int_Tables_number   1
_chemical_formula_structural   YbCd(SnO3)2
_chemical_formula_sum   'Yb1 Cd1 Sn2 O6'
_cell_volume   135.44695668
_cell_formula_units_Z   1
loop_
 _symmetry_equiv_pos_site_id
 _symmetry_equiv_pos_as_xyz
  1  'x, y, z'
loop_
 _atom_site_type_symbol
 _atom_site_label
 _atom_site_symmetry_multiplicity
 _atom_site_fract_x
 _atom_site_fract_y
 _atom_site_fract_z
 _atom_site_occupancy
  Yb  Yb0  1  0.639806  0.639806  0.639806  1
  Cd  Cd1  1  0.365866  0.365866  0.365866  1
  Sn  Sn2  1  0.846602  0.846602  0.846602  1
  Sn  Sn3  1  0.154739  0.154739  0.154739  1
  O  O4  1  0.212444  0.555666  0.959184  1
  O  O5  1  0.034064  0.788922  0.442708  1
  O  O6  1  0.442708  0.034064  0.788922  1
  O  O7  1  0.555666  0.959184  0.212444  1
  O  O8  1  0.959184  0.212444  0.555666  1
  O  O9  1  0.788922  0.442708  0.034064  1
