# generated using pymatgen
data_SrPrNbCoO6
_symmetry_space_group_name_H-M   'P 1'
_cell_length_a   8.08700586
_cell_length_b   8.07675442
_cell_length_c   9.77490638
_cell_angle_alpha   66.51899411
_cell_angle_beta   66.49524921
_cell_angle_gamma   91.61588345
_symmetry_Int_Tables_number   1
_chemical_formula_structural   SrPrNbCoO6
_chemical_formula_sum   'Sr4 Pr4 Nb4 Co4 O24'
_cell_volume   523.55035453
_cell_formula_units_Z   4
loop_
 _symmetry_equiv_pos_site_id
 _symmetry_equiv_pos_as_xyz
  1  'x, y, z'
loop_
 _atom_site_type_symbol
 _atom_site_label
 _atom_site_symmetry_multiplicity
 _atom_site_fract_x
 _atom_site_fract_y
 _atom_site_fract_z
 _atom_site_occupancy
  Sr  Sr0  1  0.399730  0.859225  0.249788  1
  Sr  Sr1  1  0.899655  0.359222  0.249827  1
  Sr  Sr2  1  0.109390  0.149475  0.749858  1
  Sr  Sr3  1  0.609460  0.649511  0.749853  1
  Pr  Pr4  1  0.087073  0.644877  0.753237  1
  Pr  Pr5  1  0.587095  0.144848  0.753224  1
  Pr  Pr6  1  0.394820  0.337380  0.253173  1
  Pr  Pr7  1  0.894813  0.837369  0.253154  1
  Nb  Nb8  1  0.752609  0.246639  0.000361  1
  Nb  Nb9  1  0.252613  0.746644  0.000350  1
  Nb  Nb10  1  0.496882  0.502855  0.500340  1
  Nb  Nb11  1  0.996883  0.002855  0.500352  1
  Co  Co12  1  0.500012  0.997568  0.500966  1
  Co  Co13  1  0.747476  0.750137  0.000823  1
  Co  Co14  1  0.000026  0.497589  0.500977  1
  Co  Co15  1  0.247491  0.250141  0.000825  1
  O  O16  1  0.263564  0.990809  0.454893  1
  O  O17  1  0.763560  0.490832  0.454892  1
  O  O18  1  0.740725  0.513713  0.954998  1
  O  O19  1  0.240711  0.013664  0.954989  1
  O  O20  1  0.234774  0.527519  0.549496  1
  O  O21  1  0.734757  0.027508  0.549531  1
  O  O22  1  0.776596  0.983981  0.049877  1
  O  O23  1  0.276616  0.484012  0.049879  1
  O  O24  1  0.572815  0.767969  0.453103  1
  O  O25  1  0.072826  0.267929  0.453130  1
  O  O26  1  0.017426  0.322190  0.953239  1
  O  O27  1  0.517466  0.822154  0.953268  1
  O  O28  1  0.945692  0.737418  0.537983  1
  O  O29  1  0.445728  0.237408  0.537957  1
  O  O30  1  0.487837  0.196052  0.037384  1
  O  O31  1  0.987806  0.696075  0.037380  1
  O  O32  1  0.928010  0.899141  0.744123  1
  O  O33  1  0.428016  0.399139  0.744105  1
  O  O34  1  0.148922  0.677869  0.244136  1
  O  O35  1  0.648924  0.177893  0.244116  1
  O  O36  1  0.561240  0.584236  0.256174  1
  O  O37  1  0.061212  0.084240  0.256175  1
  O  O38  1  0.334381  0.810948  0.756047  1
  O  O39  1  0.834367  0.310963  0.756023  1
