# generated using pymatgen
data_KO2F7
_symmetry_space_group_name_H-M   'P 1'
_cell_length_a   4.09104044
_cell_length_b   5.03169215
_cell_length_c   11.83836288
_cell_angle_alpha   103.51570188
_cell_angle_beta   88.33153331
_cell_angle_gamma   125.80596563
_symmetry_Int_Tables_number   1
_chemical_formula_structural   KO2F7
_chemical_formula_sum   'K1 O2 F7'
_cell_volume   190.36290217
_cell_formula_units_Z   1
loop_
 _symmetry_equiv_pos_site_id
 _symmetry_equiv_pos_as_xyz
  1  'x, y, z'
loop_
 _atom_site_type_symbol
 _atom_site_label
 _atom_site_symmetry_multiplicity
 _atom_site_fract_x
 _atom_site_fract_y
 _atom_site_fract_z
 _atom_site_occupancy
  K  K0  1  0.051957  0.758980  0.533021  1
  O  O1  1  0.491069  0.900268  0.813351  1
  O  O2  1  0.360690  0.583615  0.163803  1
  F  F3  1  0.165028  0.275719  0.459470  1
  F  F4  1  0.440069  0.358234  0.351379  1
  F  F5  1  0.703874  0.752025  0.780149  1
  F  F6  1  0.406967  0.393902  0.062298  1
  F  F7  1  0.490134  0.890739  0.136047  1
  F  F8  1  0.803698  0.253534  0.861071  1
  F  F9  1  0.858813  0.192454  0.584179  1
