# generated using pymatgen
data_La2Yb(InIr6)3
_symmetry_space_group_name_H-M   'P 1'
_cell_length_a   8.96486317
_cell_length_b   8.96486317
_cell_length_c   5.21587000
_cell_angle_alpha   90.00000000
_cell_angle_beta   90.00000000
_cell_angle_gamma   89.73945818
_symmetry_Int_Tables_number   1
_chemical_formula_structural   La2Yb(InIr6)3
_chemical_formula_sum   'La2 Yb1 In3 Ir18'
_cell_volume   419.18873117
_cell_formula_units_Z   1
loop_
 _symmetry_equiv_pos_site_id
 _symmetry_equiv_pos_as_xyz
  1  'x, y, z'
loop_
 _atom_site_type_symbol
 _atom_site_label
 _atom_site_symmetry_multiplicity
 _atom_site_fract_x
 _atom_site_fract_y
 _atom_site_fract_z
 _atom_site_occupancy
  La  La0  1  0.499003  0.502114  0.000000  1
  La  La1  1  0.002114  0.999003  0.000000  1
  Yb  Yb2  1  0.618281  0.118281  0.000000  1
  In  In3  1  0.380124  0.880124  0.000000  1
  In  In4  1  0.120953  0.379809  0.000000  1
  In  In5  1  0.879809  0.620953  0.000000  1
  Ir  Ir6  1  0.498074  0.998074  0.500000  1
  Ir  Ir7  1  0.001755  0.501755  0.500000  1
  Ir  Ir8  1  0.703349  0.555547  0.500000  1
  Ir  Ir9  1  0.297666  0.442178  0.500000  1
  Ir  Ir10  1  0.203315  0.942852  0.500000  1
  Ir  Ir11  1  0.793198  0.059641  0.500000  1
  Ir  Ir12  1  0.442852  0.703315  0.500000  1
  Ir  Ir13  1  0.559641  0.293198  0.500000  1
  Ir  Ir14  1  0.055547  0.203349  0.500000  1
  Ir  Ir15  1  0.942178  0.797666  0.500000  1
  Ir  Ir16  1  0.822287  0.322287  0.757554  1
  Ir  Ir17  1  0.180678  0.680678  0.757632  1
  Ir  Ir18  1  0.317957  0.180148  0.756706  1
  Ir  Ir19  1  0.680148  0.817957  0.756706  1
  Ir  Ir20  1  0.180678  0.680678  0.242368  1
  Ir  Ir21  1  0.822287  0.322287  0.242446  1
  Ir  Ir22  1  0.680148  0.817957  0.243294  1
  Ir  Ir23  1  0.317957  0.180148  0.243294  1
