# generated using pymatgen
data_Al12CrTc2
_symmetry_space_group_name_H-M   'P 1'
_cell_length_a   9.13217025
_cell_length_b   9.13216930
_cell_length_c   5.14445410
_cell_angle_alpha   86.94152591
_cell_angle_beta   86.94151982
_cell_angle_gamma   146.97545250
_symmetry_Int_Tables_number   1
_chemical_formula_structural   Al12CrTc2
_chemical_formula_sum   'Al12 Cr1 Tc2'
_cell_volume   229.66348278
_cell_formula_units_Z   1
loop_
 _symmetry_equiv_pos_site_id
 _symmetry_equiv_pos_as_xyz
  1  'x, y, z'
loop_
 _atom_site_type_symbol
 _atom_site_label
 _atom_site_symmetry_multiplicity
 _atom_site_fract_x
 _atom_site_fract_y
 _atom_site_fract_z
 _atom_site_occupancy
  Al  Al0  1  0.863520  0.863520  0.502715  1
  Al  Al1  1  0.510518  0.510518  0.137624  1
  Al  Al2  1  0.259270  0.411048  0.686543  1
  Al  Al3  1  0.411048  0.259270  0.686543  1
  Al  Al4  1  0.062252  0.296851  0.211389  1
  Al  Al5  1  0.296851  0.062252  0.211389  1
  Al  Al6  1  0.941845  0.697005  0.813322  1
  Al  Al7  1  0.697005  0.941845  0.813322  1
  Al  Al8  1  0.080251  0.548223  0.590509  1
  Al  Al9  1  0.548223  0.080251  0.590509  1
  Al  Al10  1  0.229925  0.727425  0.072252  1
  Al  Al11  1  0.727425  0.229925  0.072252  1
  Cr  Cr12  1  0.016671  0.016671  0.988578  1
  Tc  Tc13  1  0.802544  0.529650  0.334527  1
  Tc  Tc14  1  0.529650  0.802544  0.334527  1
