# generated using pymatgen
data_Rb3Np2TlI12
_symmetry_space_group_name_H-M   'P 1'
_cell_length_a   8.40659169
_cell_length_b   8.25586380
_cell_length_c   14.35668500
_cell_angle_alpha   55.12524130
_cell_angle_beta   90.06667000
_cell_angle_gamma   89.65972200
_symmetry_Int_Tables_number   1
_chemical_formula_structural   Rb3Np2TlI12
_chemical_formula_sum   'Rb3 Np2 Tl1 I12'
_cell_volume   817.42886619
_cell_formula_units_Z   1
loop_
 _symmetry_equiv_pos_site_id
 _symmetry_equiv_pos_as_xyz
  1  'x, y, z'
loop_
 _atom_site_type_symbol
 _atom_site_label
 _atom_site_symmetry_multiplicity
 _atom_site_fract_x
 _atom_site_fract_y
 _atom_site_fract_z
 _atom_site_occupancy
  Rb  Rb0  1  0.440095  0.733605  0.251573  1
  Rb  Rb1  1  0.936121  0.268054  0.247900  1
  Rb  Rb2  1  0.061892  0.733322  0.752027  1
  Np  Np3  1  0.999485  0.002325  0.997895  1
  Np  Np4  1  0.499834  0.998163  0.502771  1
  Tl  Tl5  1  0.576110  0.256893  0.748260  1
  I  I6  1  0.795033  0.333935  0.961231  1
  I  I7  1  0.500755  0.181784  0.252026  1
  I  I8  1  0.496465  0.835994  0.750666  1
  I  I9  1  0.297572  0.230519  0.958183  1
  I  I10  1  0.308754  0.654191  0.547969  1
  I  I11  1  0.202184  0.227674  0.469225  1
  I  I12  1  0.199050  0.667867  0.033882  1
  I  I13  1  0.794464  0.766120  0.534169  1
  I  I14  1  0.703008  0.775898  0.029140  1
  I  I15  1  0.006067  0.819034  0.248605  1
  I  I16  1  0.983600  0.184831  0.747388  1
  I  I17  1  0.699510  0.329785  0.467090  1
