# generated using pymatgen
data_Na(HfSe2)8
_symmetry_space_group_name_H-M   'P 1'
_cell_length_a   7.53266600
_cell_length_b   7.53266490
_cell_length_c   14.54973800
_cell_angle_alpha   90.00000000
_cell_angle_beta   90.00000000
_cell_angle_gamma   119.99998726
_symmetry_Int_Tables_number   1
_chemical_formula_structural   Na(HfSe2)8
_chemical_formula_sum   'Na1 Hf8 Se16'
_cell_volume   714.96242730
_cell_formula_units_Z   1
loop_
 _symmetry_equiv_pos_site_id
 _symmetry_equiv_pos_as_xyz
  1  'x, y, z'
loop_
 _atom_site_type_symbol
 _atom_site_label
 _atom_site_symmetry_multiplicity
 _atom_site_fract_x
 _atom_site_fract_y
 _atom_site_fract_z
 _atom_site_occupancy
  Na  Na0  1  0.000000  0.000000  0.000000  1
  Hf  Hf1  1  0.501138  0.498862  0.744106  1
  Hf  Hf2  1  0.498862  0.501138  0.255894  1
  Hf  Hf3  1  0.501138  0.002274  0.744106  1
  Hf  Hf4  1  0.498862  0.997726  0.255894  1
  Hf  Hf5  1  0.997726  0.498862  0.744106  1
  Hf  Hf6  1  0.002274  0.501138  0.255894  1
  Hf  Hf7  1  0.000000  0.000000  0.739297  1
  Hf  Hf8  1  0.000000  0.000000  0.260703  1
  Se  Se9  1  0.833844  0.667689  0.147456  1
  Se  Se10  1  0.832233  0.664466  0.634547  1
  Se  Se11  1  0.833844  0.166156  0.147456  1
  Se  Se12  1  0.832233  0.167767  0.634547  1
  Se  Se13  1  0.333333  0.666667  0.145659  1
  Se  Se14  1  0.333333  0.666667  0.637466  1
  Se  Se15  1  0.332311  0.166156  0.147456  1
  Se  Se16  1  0.335534  0.167767  0.634547  1
  Se  Se17  1  0.667689  0.833844  0.852544  1
  Se  Se18  1  0.664466  0.832233  0.365453  1
  Se  Se19  1  0.666667  0.333333  0.854341  1
  Se  Se20  1  0.666667  0.333333  0.362534  1
  Se  Se21  1  0.166156  0.833844  0.852544  1
  Se  Se22  1  0.167767  0.832233  0.365453  1
  Se  Se23  1  0.166156  0.332311  0.852544  1
  Se  Se24  1  0.167767  0.335534  0.365453  1
