# generated using pymatgen
data_Y3ScPa(FeB3)2
_symmetry_space_group_name_H-M   'P 1'
_cell_length_a   5.41291088
_cell_length_b   5.41290987
_cell_length_c   7.85937812
_cell_angle_alpha   69.85727177
_cell_angle_beta   69.85726589
_cell_angle_gamma   60.00000070
_symmetry_Int_Tables_number   1
_chemical_formula_structural   Y3ScPa(FeB3)2
_chemical_formula_sum   'Y3 Sc1 Pa1 Fe2 B6'
_cell_volume   182.98172677
_cell_formula_units_Z   1
loop_
 _symmetry_equiv_pos_site_id
 _symmetry_equiv_pos_as_xyz
  1  'x, y, z'
loop_
 _atom_site_type_symbol
 _atom_site_label
 _atom_site_symmetry_multiplicity
 _atom_site_fract_x
 _atom_site_fract_y
 _atom_site_fract_z
 _atom_site_occupancy
  Y  Y0  1  0.253870  0.253870  0.238390  1
  Y  Y1  1  0.589339  0.589339  0.231984  1
  Y  Y2  1  0.411086  0.411086  0.766740  1
  Sc  Sc3  1  0.750659  0.750659  0.748023  1
  Pa  Pa4  1  0.001720  0.001720  0.994839  1
  Fe  Fe5  1  0.891365  0.891365  0.325903  1
  Fe  Fe6  1  0.108147  0.108147  0.675559  1
  B  B7  1  0.500765  0.165112  0.503094  1
  B  B8  1  0.831029  0.500765  0.503094  1
  B  B9  1  0.165112  0.831029  0.503094  1
  B  B10  1  0.165112  0.500765  0.503094  1
  B  B11  1  0.831029  0.165112  0.503094  1
  B  B12  1  0.500765  0.831029  0.503094  1
