# generated using pymatgen
data_Ni3Sb4Pt
_symmetry_space_group_name_H-M   'P 1'
_cell_length_a   4.01157000
_cell_length_b   4.01156954
_cell_length_c   10.59316900
_cell_angle_alpha   90.00000000
_cell_angle_beta   90.00000000
_cell_angle_gamma   120.00000378
_symmetry_Int_Tables_number   1
_chemical_formula_structural   Ni3Sb4Pt
_chemical_formula_sum   'Ni3 Sb4 Pt1'
_cell_volume   147.63360209
_cell_formula_units_Z   1
loop_
 _symmetry_equiv_pos_site_id
 _symmetry_equiv_pos_as_xyz
  1  'x, y, z'
loop_
 _atom_site_type_symbol
 _atom_site_label
 _atom_site_symmetry_multiplicity
 _atom_site_fract_x
 _atom_site_fract_y
 _atom_site_fract_z
 _atom_site_occupancy
  Ni  Ni0  1  0.000000  0.000000  0.000000  1
  Ni  Ni1  1  0.000000  0.000000  0.758963  1
  Ni  Ni2  1  0.000000  0.000000  0.241037  1
  Sb  Sb3  1  0.666667  0.333333  0.361291  1
  Sb  Sb4  1  0.666667  0.333333  0.879382  1
  Sb  Sb5  1  0.333333  0.666667  0.638709  1
  Sb  Sb6  1  0.333333  0.666667  0.120618  1
  Pt  Pt7  1  0.000000  0.000000  0.500000  1
