# generated using pymatgen
data_Mg4ZnCo10SiB4
_symmetry_space_group_name_H-M   'P 1'
_cell_length_a   8.79049200
_cell_length_b   8.79049200
_cell_length_c   2.76781900
_cell_angle_alpha   90.00000000
_cell_angle_beta   90.00000000
_cell_angle_gamma   90.00000000
_symmetry_Int_Tables_number   1
_chemical_formula_structural   Mg4ZnCo10SiB4
_chemical_formula_sum   'Mg4 Zn1 Co10 Si1 B4'
_cell_volume   213.87698453
_cell_formula_units_Z   1
loop_
 _symmetry_equiv_pos_site_id
 _symmetry_equiv_pos_as_xyz
  1  'x, y, z'
loop_
 _atom_site_type_symbol
 _atom_site_label
 _atom_site_symmetry_multiplicity
 _atom_site_fract_x
 _atom_site_fract_y
 _atom_site_fract_z
 _atom_site_occupancy
  Mg  Mg0  1  0.675761  0.822952  0.000000  1
  Mg  Mg1  1  0.822952  0.324239  0.000000  1
  Mg  Mg2  1  0.177048  0.675761  0.000000  1
  Mg  Mg3  1  0.324239  0.177048  0.000000  1
  Zn  Zn4  1  0.500000  0.500000  0.000000  1
  Co  Co5  1  0.500000  0.000000  0.500000  1
  Co  Co6  1  0.571478  0.276701  0.500000  1
  Co  Co7  1  0.723299  0.571478  0.500000  1
  Co  Co8  1  0.276701  0.428522  0.500000  1
  Co  Co9  1  0.213024  0.935040  0.500000  1
  Co  Co10  1  0.000000  0.500000  0.500000  1
  Co  Co11  1  0.064960  0.213024  0.500000  1
  Co  Co12  1  0.786976  0.064960  0.500000  1
  Co  Co13  1  0.935040  0.786976  0.500000  1
  Co  Co14  1  0.428522  0.723299  0.500000  1
  Si  Si15  1  0.000000  0.000000  0.000000  1
  B  B16  1  0.376286  0.877661  0.000000  1
  B  B17  1  0.122339  0.376286  0.000000  1
  B  B18  1  0.877661  0.623714  0.000000  1
  B  B19  1  0.623714  0.122339  0.000000  1
