# generated using pymatgen
data_EuDy3ReB16W3
_symmetry_space_group_name_H-M   'P 1'
_cell_length_a   3.61169900
_cell_length_b   6.03591981
_cell_length_c   11.67150194
_cell_angle_alpha   89.87786108
_cell_angle_beta   90.00000000
_cell_angle_gamma   90.00000000
_symmetry_Int_Tables_number   1
_chemical_formula_structural   EuDy3ReB16W3
_chemical_formula_sum   'Eu1 Dy3 Re1 B16 W3'
_cell_volume   254.43729493
_cell_formula_units_Z   1
loop_
 _symmetry_equiv_pos_site_id
 _symmetry_equiv_pos_as_xyz
  1  'x, y, z'
loop_
 _atom_site_type_symbol
 _atom_site_label
 _atom_site_symmetry_multiplicity
 _atom_site_fract_x
 _atom_site_fract_y
 _atom_site_fract_z
 _atom_site_occupancy
  Eu  Eu0  1  0.000000  0.627157  0.349725  1
  Dy  Dy1  1  0.000000  0.373344  0.650383  1
  Dy  Dy2  1  0.000000  0.127412  0.149165  1
  Dy  Dy3  1  0.000000  0.873971  0.850292  1
  Re  Re4  1  0.000000  0.870050  0.586377  1
  B  B5  1  0.500000  0.787373  0.185386  1
  B  B6  1  0.500000  0.211888  0.812956  1
  B  B7  1  0.500000  0.285461  0.313157  1
  B  B8  1  0.500000  0.715028  0.685444  1
  B  B9  1  0.500000  0.866758  0.031206  1
  B  B10  1  0.500000  0.133500  0.967200  1
  B  B11  1  0.500000  0.366172  0.470483  1
  B  B12  1  0.500000  0.635456  0.533715  1
  B  B13  1  0.500000  0.884352  0.454920  1
  B  B14  1  0.500000  0.111735  0.549785  1
  B  B15  1  0.500000  0.385244  0.046217  1
  B  B16  1  0.500000  0.613861  0.951704  1
  B  B17  1  0.500000  0.975850  0.306985  1
  B  B18  1  0.500000  0.022606  0.693132  1
  B  B19  1  0.500000  0.474990  0.191823  1
  B  B20  1  0.500000  0.524948  0.805926  1
  W  W21  1  0.000000  0.630690  0.083380  1
  W  W22  1  0.000000  0.370002  0.913778  1
  W  W23  1  0.000000  0.132155  0.416864  1
