# generated using pymatgen
data_DyHo7Ti12Si15Ge
_symmetry_space_group_name_H-M   'P 1'
_cell_length_a   7.05190829
_cell_length_b   7.04358322
_cell_length_c   12.94088800
_cell_angle_alpha   89.99616867
_cell_angle_beta   89.93683731
_cell_angle_gamma   89.96646553
_symmetry_Int_Tables_number   1
_chemical_formula_structural   DyHo7Ti12Si15Ge
_chemical_formula_sum   'Dy1 Ho7 Ti12 Si15 Ge1'
_cell_volume   642.78250075
_cell_formula_units_Z   1
loop_
 _symmetry_equiv_pos_site_id
 _symmetry_equiv_pos_as_xyz
  1  'x, y, z'
loop_
 _atom_site_type_symbol
 _atom_site_label
 _atom_site_symmetry_multiplicity
 _atom_site_fract_x
 _atom_site_fract_y
 _atom_site_fract_z
 _atom_site_occupancy
  Dy  Dy0  1  0.341787  0.001402  0.465663  1
  Ho  Ho1  1  0.498950  0.840274  0.716968  1
  Ho  Ho2  1  0.502301  0.159337  0.216771  1
  Ho  Ho3  1  0.840814  0.497482  0.283324  1
  Ho  Ho4  1  0.159194  0.503016  0.783754  1
  Ho  Ho5  1  0.659917  0.997002  0.967155  1
  Ho  Ho6  1  0.000226  0.342697  0.532200  1
  Ho  Ho7  1  0.997933  0.659089  0.033486  1
  Ti  Ti8  1  0.326213  0.326444  0.000172  1
  Ti  Ti9  1  0.173620  0.826235  0.250024  1
  Ti  Ti10  1  0.823180  0.174164  0.750505  1
  Ti  Ti11  1  0.673462  0.673533  0.499951  1
  Ti  Ti12  1  0.152116  0.008740  0.877491  1
  Ti  Ti13  1  0.491601  0.651313  0.126373  1
  Ti  Ti14  1  0.510246  0.349527  0.626520  1
  Ti  Ti15  1  0.652220  0.492389  0.874131  1
  Ti  Ti16  1  0.348103  0.508787  0.373468  1
  Ti  Ti17  1  0.848043  0.991809  0.376205  1
  Ti  Ti18  1  0.008586  0.151599  0.123741  1
  Ti  Ti19  1  0.988857  0.845167  0.622511  1
  Si  Si20  1  0.369315  0.702940  0.934308  1
  Si  Si21  1  0.630013  0.297476  0.434067  1
  Si  Si22  1  0.702997  0.369293  0.066176  1
  Si  Si23  1  0.297639  0.630596  0.565830  1
  Si  Si24  1  0.797316  0.869241  0.184249  1
  Si  Si25  1  0.130618  0.202574  0.315902  1
  Si  Si26  1  0.869882  0.797872  0.815878  1
  Si  Si27  1  0.291276  0.952369  0.065287  1
  Si  Si28  1  0.548037  0.790605  0.314663  1
  Si  Si29  1  0.455489  0.209471  0.816628  1
  Si  Si30  1  0.791459  0.547290  0.685420  1
  Si  Si31  1  0.208986  0.452445  0.185281  1
  Si  Si32  1  0.708591  0.047586  0.564840  1
  Si  Si33  1  0.952580  0.291075  0.935178  1
  Si  Si34  1  0.047632  0.709468  0.434699  1
  Ge  Ge35  1  0.200799  0.129692  0.681184  1
