# generated using pymatgen
data_Ti11NbSn9Au
_symmetry_space_group_name_H-M   'P 1'
_cell_length_a   9.31038741
_cell_length_b   9.31038746
_cell_length_c   5.69766802
_cell_angle_alpha   90.34138782
_cell_angle_beta   89.65860871
_cell_angle_gamma   120.28918256
_symmetry_Int_Tables_number   1
_chemical_formula_structural   Ti11NbSn9Au
_chemical_formula_sum   'Ti11 Nb1 Sn9 Au1'
_cell_volume   426.46177366
_cell_formula_units_Z   1
loop_
 _symmetry_equiv_pos_site_id
 _symmetry_equiv_pos_as_xyz
  1  'x, y, z'
loop_
 _atom_site_type_symbol
 _atom_site_label
 _atom_site_symmetry_multiplicity
 _atom_site_fract_x
 _atom_site_fract_y
 _atom_site_fract_z
 _atom_site_occupancy
  Ti  Ti0  1  0.843198  0.687666  0.755472  1
  Ti  Ti1  1  0.156739  0.843261  0.249161  1
  Ti  Ti2  1  0.687666  0.843198  0.244528  1
  Ti  Ti3  1  0.312334  0.156802  0.755472  1
  Ti  Ti4  1  0.843261  0.156739  0.750839  1
  Ti  Ti5  1  0.156802  0.312334  0.244528  1
  Ti  Ti6  1  0.500000  0.000000  0.500000  1
  Ti  Ti7  1  0.000000  0.500000  0.000000  1
  Ti  Ti8  1  0.000000  0.500000  0.500000  1
  Ti  Ti9  1  0.500000  0.000000  0.000000  1
  Ti  Ti10  1  0.500000  0.500000  0.500000  1
  Nb  Nb11  1  0.500000  0.500000  0.000000  1
  Sn  Sn12  1  0.197962  0.400329  0.745201  1
  Sn  Sn13  1  0.798988  0.201012  0.250028  1
  Sn  Sn14  1  0.400329  0.197962  0.254799  1
  Sn  Sn15  1  0.599671  0.802038  0.745201  1
  Sn  Sn16  1  0.201012  0.798988  0.749972  1
  Sn  Sn17  1  0.802038  0.599671  0.254799  1
  Sn  Sn18  1  0.667284  0.332716  0.750848  1
  Sn  Sn19  1  0.332716  0.667284  0.249152  1
  Sn  Sn20  1  0.000000  0.000000  0.000000  1
  Au  Au21  1  0.000000  0.000000  0.500000  1
