# generated using pymatgen
data_CeDy8Er(Al2Ru3)2
_symmetry_space_group_name_H-M   'P 1'
_cell_length_a   8.41381196
_cell_length_b   8.41198333
_cell_length_c   8.29299545
_cell_angle_alpha   110.11937424
_cell_angle_beta   109.20136398
_cell_angle_gamma   109.66399511
_symmetry_Int_Tables_number   1
_chemical_formula_structural   CeDy8Er(Al2Ru3)2
_chemical_formula_sum   'Ce1 Dy8 Er1 Al4 Ru6'
_cell_volume   448.60167110
_cell_formula_units_Z   1
loop_
 _symmetry_equiv_pos_site_id
 _symmetry_equiv_pos_as_xyz
  1  'x, y, z'
loop_
 _atom_site_type_symbol
 _atom_site_label
 _atom_site_symmetry_multiplicity
 _atom_site_fract_x
 _atom_site_fract_y
 _atom_site_fract_z
 _atom_site_occupancy
  Ce  Ce0  1  0.193619  0.944037  0.249981  1
  Dy  Dy1  1  0.781126  0.787649  0.785191  1
  Dy  Dy2  1  0.316534  0.566467  0.749552  1
  Dy  Dy3  1  0.754050  0.320227  0.569072  1
  Dy  Dy4  1  0.569096  0.748287  0.316691  1
  Dy  Dy5  1  0.715961  0.499452  0.997589  1
  Dy  Dy6  1  0.002223  0.717900  0.502161  1
  Dy  Dy7  1  0.502645  0.996077  0.715380  1
  Dy  Dy8  1  0.250775  0.184521  0.930818  1
  Er  Er9  1  0.930216  0.252285  0.182508  1
  Al  Al10  1  0.412256  0.413625  0.407590  1
  Al  Al11  1  0.092414  0.497388  0.005446  1
  Al  Al12  1  0.992661  0.088081  0.494822  1
  Al  Al13  1  0.506504  0.005068  0.092194  1
  Ru  Ru14  1  0.876013  0.126157  0.750526  1
  Ru  Ru15  1  0.740562  0.871100  0.118176  1
  Ru  Ru16  1  0.129934  0.763297  0.908326  1
  Ru  Ru17  1  0.252016  0.621399  0.381857  1
  Ru  Ru18  1  0.355634  0.221490  0.592322  1
  Ru  Ru19  1  0.625761  0.375493  0.249801  1
