# generated using pymatgen
data_Nd4Dy12Cd4IrRu3
_symmetry_space_group_name_H-M   'P 1'
_cell_length_a   9.74131831
_cell_length_b   9.72646555
_cell_length_c   9.72623716
_cell_angle_alpha   59.68295680
_cell_angle_beta   59.57504767
_cell_angle_gamma   59.57466545
_symmetry_Int_Tables_number   1
_chemical_formula_structural   Nd4Dy12Cd4IrRu3
_chemical_formula_sum   'Nd4 Dy12 Cd4 Ir1 Ru3'
_cell_volume   645.86814479
_cell_formula_units_Z   1
loop_
 _symmetry_equiv_pos_site_id
 _symmetry_equiv_pos_as_xyz
  1  'x, y, z'
loop_
 _atom_site_type_symbol
 _atom_site_label
 _atom_site_symmetry_multiplicity
 _atom_site_fract_x
 _atom_site_fract_y
 _atom_site_fract_z
 _atom_site_occupancy
  Nd  Nd0  1  0.562331  0.935114  0.565212  1
  Nd  Nd1  1  0.937026  0.562549  0.937598  1
  Nd  Nd2  1  0.562325  0.565223  0.935115  1
  Nd  Nd3  1  0.937020  0.937591  0.562557  1
  Dy  Dy4  1  0.351194  0.345085  0.345081  1
  Dy  Dy5  1  0.342605  0.351424  0.961492  1
  Dy  Dy6  1  0.342604  0.961491  0.351424  1
  Dy  Dy7  1  0.963409  0.343573  0.343570  1
  Dy  Dy8  1  0.814484  0.186320  0.186316  1
  Dy  Dy9  1  0.184910  0.814280  0.814284  1
  Dy  Dy10  1  0.189370  0.810304  0.188582  1
  Dy  Dy11  1  0.812447  0.189903  0.808627  1
  Dy  Dy12  1  0.189372  0.188581  0.810305  1
  Dy  Dy13  1  0.812451  0.808626  0.189903  1
  Dy  Dy14  1  0.946680  0.552938  0.552945  1
  Dy  Dy15  1  0.551196  0.947798  0.947797  1
  Cd  Cd16  1  0.580215  0.578466  0.578470  1
  Cd  Cd17  1  0.578662  0.580949  0.260891  1
  Cd  Cd18  1  0.578664  0.260887  0.580949  1
  Cd  Cd19  1  0.260930  0.578938  0.578945  1
  Ir  Ir20  1  0.577981  0.137600  0.137597  1
  Ru  Ru21  1  0.148041  0.135015  0.135024  1
  Ru  Ru22  1  0.138036  0.147108  0.580228  1
  Ru  Ru23  1  0.138045  0.580231  0.147087  1
