# generated using pymatgen
data_Ho2PaGa6Co8Cu
_symmetry_space_group_name_H-M   'P 1'
_cell_length_a   8.90454596
_cell_length_b   8.90454519
_cell_length_c   3.94294000
_cell_angle_alpha   90.00000000
_cell_angle_beta   90.00000000
_cell_angle_gamma   120.48258406
_symmetry_Int_Tables_number   1
_chemical_formula_structural   Ho2PaGa6Co8Cu
_chemical_formula_sum   'Ho2 Pa1 Ga6 Co8 Cu1'
_cell_volume   269.42743242
_cell_formula_units_Z   1
loop_
 _symmetry_equiv_pos_site_id
 _symmetry_equiv_pos_as_xyz
  1  'x, y, z'
loop_
 _atom_site_type_symbol
 _atom_site_label
 _atom_site_symmetry_multiplicity
 _atom_site_fract_x
 _atom_site_fract_y
 _atom_site_fract_z
 _atom_site_occupancy
  Ho  Ho0  1  0.669191  0.330809  0.500000  1
  Ho  Ho1  1  0.330809  0.669191  0.500000  1
  Pa  Pa2  1  0.000000  0.000000  0.000000  1
  Ga  Ga3  1  0.688611  0.688611  0.500000  1
  Ga  Ga4  1  0.323935  0.000442  0.500000  1
  Ga  Ga5  1  0.000442  0.323935  0.500000  1
  Ga  Ga6  1  0.311389  0.311389  0.500000  1
  Ga  Ga7  1  0.676065  0.999558  0.500000  1
  Ga  Ga8  1  0.999558  0.676065  0.500000  1
  Co  Co9  1  0.500000  0.000000  0.000000  1
  Co  Co10  1  0.000000  0.500000  0.000000  1
  Co  Co11  1  0.826435  0.173565  0.000000  1
  Co  Co12  1  0.830872  0.659126  0.000000  1
  Co  Co13  1  0.340874  0.169128  0.000000  1
  Co  Co14  1  0.173565  0.826435  0.000000  1
  Co  Co15  1  0.659126  0.830872  0.000000  1
  Co  Co16  1  0.169128  0.340874  0.000000  1
  Cu  Cu17  1  0.500000  0.500000  0.000000  1
