# generated using pymatgen
data_Dy10GaSi3Bi4
_symmetry_space_group_name_H-M   'P 1'
_cell_length_a   8.67139005
_cell_length_b   8.67139133
_cell_length_c   7.96354350
_cell_angle_alpha   89.83804459
_cell_angle_beta   89.83804044
_cell_angle_gamma   125.40952161
_symmetry_Int_Tables_number   1
_chemical_formula_structural   Dy10GaSi3Bi4
_chemical_formula_sum   'Dy10 Ga1 Si3 Bi4'
_cell_volume   488.03393002
_cell_formula_units_Z   1
loop_
 _symmetry_equiv_pos_site_id
 _symmetry_equiv_pos_as_xyz
  1  'x, y, z'
loop_
 _atom_site_type_symbol
 _atom_site_label
 _atom_site_symmetry_multiplicity
 _atom_site_fract_x
 _atom_site_fract_y
 _atom_site_fract_z
 _atom_site_occupancy
  Dy  Dy0  1  0.042501  0.288228  0.334674  1
  Dy  Dy1  1  0.955248  0.712056  0.666391  1
  Dy  Dy2  1  0.455522  0.209035  0.831800  1
  Dy  Dy3  1  0.791247  0.545541  0.166470  1
  Dy  Dy4  1  0.545541  0.791247  0.166470  1
  Dy  Dy5  1  0.209035  0.455522  0.831800  1
  Dy  Dy6  1  0.712056  0.955248  0.666391  1
  Dy  Dy7  1  0.288228  0.042501  0.334674  1
  Dy  Dy8  1  0.999068  0.999068  0.999088  1
  Dy  Dy9  1  0.501143  0.501143  0.501672  1
  Ga  Ga10  1  0.369533  0.369533  0.130051  1
  Si  Si11  1  0.629036  0.629036  0.871223  1
  Si  Si12  1  0.132633  0.132633  0.630952  1
  Si  Si13  1  0.868708  0.868708  0.367672  1
  Bi  Bi14  1  0.791588  0.207141  0.999888  1
  Bi  Bi15  1  0.207141  0.791588  0.999888  1
  Bi  Bi16  1  0.708643  0.293132  0.500447  1
  Bi  Bi17  1  0.293132  0.708643  0.500447  1
