# generated using pymatgen
data_K3Li2VAs3
_symmetry_space_group_name_H-M   'P 1'
_cell_length_a   10.04096120
_cell_length_b   10.04096230
_cell_length_c   15.05918700
_cell_angle_alpha   90.00000000
_cell_angle_beta   90.00000000
_cell_angle_gamma   142.93334547
_symmetry_Int_Tables_number   1
_chemical_formula_structural   K3Li2VAs3
_chemical_formula_sum   'K12 Li8 V4 As12'
_cell_volume   915.13429731
_cell_formula_units_Z   4
loop_
 _symmetry_equiv_pos_site_id
 _symmetry_equiv_pos_as_xyz
  1  'x, y, z'
loop_
 _atom_site_type_symbol
 _atom_site_label
 _atom_site_symmetry_multiplicity
 _atom_site_fract_x
 _atom_site_fract_y
 _atom_site_fract_z
 _atom_site_occupancy
  K  K0  1  0.603641  0.943766  0.828889  1
  K  K1  1  0.280282  0.280282  0.321240  1
  K  K2  1  0.219718  0.219718  0.821240  1
  K  K3  1  0.719718  0.719718  0.678760  1
  K  K4  1  0.443766  0.103641  0.671111  1
  K  K5  1  0.896359  0.556234  0.328889  1
  K  K6  1  0.056234  0.396359  0.171111  1
  K  K7  1  0.396359  0.056234  0.171111  1
  K  K8  1  0.556234  0.896359  0.328889  1
  K  K9  1  0.103641  0.443766  0.671111  1
  K  K10  1  0.943766  0.603641  0.828889  1
  K  K11  1  0.780282  0.780282  0.178760  1
  Li  Li12  1  0.082934  0.917066  0.000000  1
  Li  Li13  1  0.582934  0.417066  0.500000  1
  Li  Li14  1  0.917066  0.082934  0.000000  1
  Li  Li15  1  0.750469  0.249531  0.000000  1
  Li  Li16  1  0.749531  0.250469  0.500000  1
  Li  Li17  1  0.249531  0.750469  0.000000  1
  Li  Li18  1  0.250469  0.749531  0.500000  1
  Li  Li19  1  0.417066  0.582934  0.500000  1
  V  V20  1  0.084282  0.915718  0.500000  1
  V  V21  1  0.415718  0.584282  0.000000  1
  V  V22  1  0.915718  0.084282  0.500000  1
  V  V23  1  0.584282  0.415718  0.000000  1
  As  As24  1  0.063143  0.381538  0.409792  1
  As  As25  1  0.881538  0.563143  0.090208  1
  As  As26  1  0.436857  0.118462  0.909792  1
  As  As27  1  0.618462  0.936857  0.590208  1
  As  As28  1  0.936857  0.618462  0.590208  1
  As  As29  1  0.118462  0.436857  0.909792  1
  As  As30  1  0.563143  0.881538  0.090208  1
  As  As31  1  0.381538  0.063143  0.409792  1
  As  As32  1  0.215045  0.215045  0.585500  1
  As  As33  1  0.715045  0.715045  0.914500  1
  As  As34  1  0.284955  0.284955  0.085500  1
  As  As35  1  0.784955  0.784955  0.414500  1
