# generated using pymatgen
data_Er4MnRuC4
_symmetry_space_group_name_H-M   'P 1'
_cell_length_a   5.02802900
_cell_length_b   6.37050375
_cell_length_c   9.63898700
_cell_angle_alpha   90.54458086
_cell_angle_beta   90.00000000
_cell_angle_gamma   90.00000000
_symmetry_Int_Tables_number   1
_chemical_formula_structural   Er4MnRuC4
_chemical_formula_sum   'Er8 Mn2 Ru2 C8'
_cell_volume   308.73319474
_cell_formula_units_Z   2
loop_
 _symmetry_equiv_pos_site_id
 _symmetry_equiv_pos_as_xyz
  1  'x, y, z'
loop_
 _atom_site_type_symbol
 _atom_site_label
 _atom_site_symmetry_multiplicity
 _atom_site_fract_x
 _atom_site_fract_y
 _atom_site_fract_z
 _atom_site_occupancy
  Er  Er0  1  0.250000  0.680922  0.557700  1
  Er  Er1  1  0.750000  0.319078  0.442300  1
  Er  Er2  1  0.750000  0.819413  0.053809  1
  Er  Er3  1  0.250000  0.180587  0.946191  1
  Er  Er4  1  0.250000  0.524616  0.217162  1
  Er  Er5  1  0.750000  0.475384  0.782838  1
  Er  Er6  1  0.750000  0.973955  0.715555  1
  Er  Er7  1  0.250000  0.026045  0.284445  1
  Mn  Mn8  1  0.250000  0.726735  0.862807  1
  Mn  Mn9  1  0.750000  0.273265  0.137193  1
  Ru  Ru10  1  0.750000  0.776304  0.362025  1
  Ru  Ru11  1  0.250000  0.223696  0.637975  1
  C  C12  1  0.250000  0.469180  0.765695  1
  C  C13  1  0.750000  0.530820  0.234305  1
  C  C14  1  0.750000  0.048321  0.252903  1
  C  C15  1  0.250000  0.951679  0.747097  1
  C  C16  1  0.250000  0.814671  0.041432  1
  C  C17  1  0.750000  0.185329  0.958568  1
  C  C18  1  0.750000  0.674865  0.552227  1
  C  C19  1  0.250000  0.325135  0.447773  1
