# generated using pymatgen
data_Lu2TeO2
_symmetry_space_group_name_H-M   'P 1'
_cell_length_a   6.69823346
_cell_length_b   6.69823343
_cell_length_c   6.69823391
_cell_angle_alpha   146.55781516
_cell_angle_beta   146.55781229
_cell_angle_gamma   48.01895851
_symmetry_Int_Tables_number   1
_chemical_formula_structural   Lu2TeO2
_chemical_formula_sum   'Lu2 Te1 O2'
_cell_volume   90.89884208
_cell_formula_units_Z   1
loop_
 _symmetry_equiv_pos_site_id
 _symmetry_equiv_pos_as_xyz
  1  'x, y, z'
loop_
 _atom_site_type_symbol
 _atom_site_label
 _atom_site_symmetry_multiplicity
 _atom_site_fract_x
 _atom_site_fract_y
 _atom_site_fract_z
 _atom_site_occupancy
  Lu  Lu0  1  0.664379  0.664379  0.000000  1
  Lu  Lu1  1  0.335621  0.335621  0.000000  1
  Te  Te2  1  0.000000  0.000000  0.000000  1
  O  O3  1  0.250000  0.750000  0.500000  1
  O  O4  1  0.750000  0.250000  0.500000  1
