# generated using pymatgen
data_Ti4Cu4Si3Ge
_symmetry_space_group_name_H-M   'P 1'
_cell_length_a   3.74789200
_cell_length_b   6.21946104
_cell_length_c   7.17654310
_cell_angle_alpha   90.14766209
_cell_angle_beta   90.00000000
_cell_angle_gamma   90.00000000
_symmetry_Int_Tables_number   1
_chemical_formula_structural   Ti4Cu4Si3Ge
_chemical_formula_sum   'Ti4 Cu4 Si3 Ge1'
_cell_volume   167.28371886
_cell_formula_units_Z   1
loop_
 _symmetry_equiv_pos_site_id
 _symmetry_equiv_pos_as_xyz
  1  'x, y, z'
loop_
 _atom_site_type_symbol
 _atom_site_label
 _atom_site_symmetry_multiplicity
 _atom_site_fract_x
 _atom_site_fract_y
 _atom_site_fract_z
 _atom_site_occupancy
  Ti  Ti0  1  0.250000  0.025907  0.816953  1
  Ti  Ti1  1  0.250000  0.518432  0.679448  1
  Ti  Ti2  1  0.750000  0.981826  0.184338  1
  Ti  Ti3  1  0.750000  0.478389  0.319755  1
  Cu  Cu4  1  0.250000  0.152281  0.434105  1
  Cu  Cu5  1  0.250000  0.648814  0.072502  1
  Cu  Cu6  1  0.750000  0.851712  0.560367  1
  Cu  Cu7  1  0.750000  0.340820  0.933725  1
  Si  Si8  1  0.250000  0.765647  0.381638  1
  Si  Si9  1  0.250000  0.265969  0.119697  1
  Si  Si10  1  0.750000  0.234332  0.618175  1
  Ge  Ge11  1  0.750000  0.735871  0.879296  1
