# generated using pymatgen
data_Ho10Cd3In(HgPd)4
_symmetry_space_group_name_H-M   'P 1'
_cell_length_a   3.61755300
_cell_length_b   7.94833711
_cell_length_c   18.34109116
_cell_angle_alpha   89.82767587
_cell_angle_beta   90.00000000
_cell_angle_gamma   90.00000000
_symmetry_Int_Tables_number   1
_chemical_formula_structural   Ho10Cd3In(HgPd)4
_chemical_formula_sum   'Ho10 Cd3 In1 Hg4 Pd4'
_cell_volume   527.36874354
_cell_formula_units_Z   1
loop_
 _symmetry_equiv_pos_site_id
 _symmetry_equiv_pos_as_xyz
  1  'x, y, z'
loop_
 _atom_site_type_symbol
 _atom_site_label
 _atom_site_symmetry_multiplicity
 _atom_site_fract_x
 _atom_site_fract_y
 _atom_site_fract_z
 _atom_site_occupancy
  Ho  Ho0  1  0.000000  0.498001  0.500391  1
  Ho  Ho1  1  0.000000  0.001907  0.999476  1
  Ho  Ho2  1  0.000000  0.740553  0.282914  1
  Ho  Ho3  1  0.000000  0.260125  0.716634  1
  Ho  Ho4  1  0.000000  0.757086  0.782281  1
  Ho  Ho5  1  0.000000  0.241644  0.217472  1
  Ho  Ho6  1  0.000000  0.610889  0.083330  1
  Ho  Ho7  1  0.000000  0.389986  0.916912  1
  Ho  Ho8  1  0.000000  0.889245  0.582842  1
  Ho  Ho9  1  0.000000  0.110203  0.416578  1
  Cd  Cd10  1  0.500000  0.579046  0.648830  1
  Cd  Cd11  1  0.500000  0.422156  0.351072  1
  Cd  Cd12  1  0.500000  0.922418  0.148955  1
  In  In13  1  0.500000  0.077515  0.850289  1
  Hg  Hg14  1  0.500000  0.715942  0.933496  1
  Hg  Hg15  1  0.500000  0.284837  0.067253  1
  Hg  Hg16  1  0.500000  0.782776  0.433213  1
  Hg  Hg17  1  0.500000  0.215632  0.567385  1
  Pd  Pd18  1  0.500000  0.528817  0.196379  1
  Pd  Pd19  1  0.500000  0.471062  0.803753  1
  Pd  Pd20  1  0.500000  0.971457  0.696710  1
  Pd  Pd21  1  0.500000  0.028704  0.303836  1
