# generated using pymatgen
data_Tm2Si5Rh3
_symmetry_space_group_name_H-M   'P 1'
_cell_length_a   8.09993812
_cell_length_b   8.09993876
_cell_length_c   5.68903938
_cell_angle_alpha   70.33339657
_cell_angle_beta   70.33339015
_cell_angle_gamma   91.97159385
_symmetry_Int_Tables_number   1
_chemical_formula_structural   Tm2Si5Rh3
_chemical_formula_sum   'Tm4 Si10 Rh6'
_cell_volume   326.35475187
_cell_formula_units_Z   2
loop_
 _symmetry_equiv_pos_site_id
 _symmetry_equiv_pos_as_xyz
  1  'x, y, z'
loop_
 _atom_site_type_symbol
 _atom_site_label
 _atom_site_symmetry_multiplicity
 _atom_site_fract_x
 _atom_site_fract_y
 _atom_site_fract_z
 _atom_site_occupancy
  Tm  Tm0  1  0.864302  0.596049  0.767532  1
  Tm  Tm1  1  0.403951  0.135698  0.732468  1
  Tm  Tm2  1  0.135698  0.403951  0.232468  1
  Tm  Tm3  1  0.596049  0.864302  0.267532  1
  Si  Si4  1  0.056985  0.264398  0.839430  1
  Si  Si5  1  0.735602  0.943015  0.660570  1
  Si  Si6  1  0.943015  0.735602  0.160570  1
  Si  Si7  1  0.264398  0.056985  0.339430  1
  Si  Si8  1  0.215020  0.784980  0.750000  1
  Si  Si9  1  0.784980  0.215020  0.250000  1
  Si  Si10  1  0.505855  0.494145  0.750000  1
  Si  Si11  1  0.494145  0.505855  0.250000  1
  Si  Si12  1  0.778450  0.221550  0.750000  1
  Si  Si13  1  0.221550  0.778450  0.250000  1
  Rh  Rh14  1  0.252071  0.534544  0.617144  1
  Rh  Rh15  1  0.465456  0.747929  0.882856  1
  Rh  Rh16  1  0.747929  0.465456  0.382856  1
  Rh  Rh17  1  0.534544  0.252071  0.117144  1
  Rh  Rh18  1  0.001061  0.998939  0.750000  1
  Rh  Rh19  1  0.998939  0.001061  0.250000  1
