# generated using pymatgen
data_LiBe8Pd4Rh3
_symmetry_space_group_name_H-M   'P 1'
_cell_length_a   5.61164500
_cell_length_b   3.97078800
_cell_length_c   7.93489800
_cell_angle_alpha   90.00000000
_cell_angle_beta   90.00026993
_cell_angle_gamma   90.00000000
_symmetry_Int_Tables_number   1
_chemical_formula_structural   LiBe8Pd4Rh3
_chemical_formula_sum   'Li1 Be8 Pd4 Rh3'
_cell_volume   176.81057576
_cell_formula_units_Z   1
loop_
 _symmetry_equiv_pos_site_id
 _symmetry_equiv_pos_as_xyz
  1  'x, y, z'
loop_
 _atom_site_type_symbol
 _atom_site_label
 _atom_site_symmetry_multiplicity
 _atom_site_fract_x
 _atom_site_fract_y
 _atom_site_fract_z
 _atom_site_occupancy
  Li  Li0  1  0.250006  0.250000  0.125027  1
  Be  Be1  1  0.522032  0.749999  0.124980  1
  Be  Be2  1  0.977970  0.749999  0.124991  1
  Be  Be3  1  0.507199  0.250000  0.385345  1
  Be  Be4  1  0.992804  0.250000  0.385349  1
  Be  Be5  1  0.004630  0.749999  0.624987  1
  Be  Be6  1  0.495371  0.749999  0.624987  1
  Be  Be7  1  0.992812  0.250000  0.864683  1
  Be  Be8  1  0.507170  0.250000  0.864679  1
  Pd  Pd9  1  0.750006  0.250000  0.125005  1
  Pd  Pd10  1  0.250002  0.749999  0.359783  1
  Pd  Pd11  1  0.749998  0.250000  0.625001  1
  Pd  Pd12  1  0.249993  0.749999  0.890214  1
  Rh  Rh13  1  0.749997  0.749999  0.372223  1
  Rh  Rh14  1  0.250007  0.250000  0.625005  1
  Rh  Rh15  1  0.750000  0.749999  0.877743  1
