# generated using pymatgen
data_Zr4Be2SiP
_symmetry_space_group_name_H-M   'P 1'
_cell_length_a   3.60175700
_cell_length_b   5.24924198
_cell_length_c   7.49054528
_cell_angle_alpha   70.04001177
_cell_angle_beta   90.00000000
_cell_angle_gamma   90.00000000
_symmetry_Int_Tables_number   1
_chemical_formula_structural   Zr4Be2SiP
_chemical_formula_sum   'Zr4 Be2 Si1 P1'
_cell_volume   133.11301448
_cell_formula_units_Z   1
loop_
 _symmetry_equiv_pos_site_id
 _symmetry_equiv_pos_as_xyz
  1  'x, y, z'
loop_
 _atom_site_type_symbol
 _atom_site_label
 _atom_site_symmetry_multiplicity
 _atom_site_fract_x
 _atom_site_fract_y
 _atom_site_fract_z
 _atom_site_occupancy
  Zr  Zr0  1  0.250000  0.718511  0.071653  1
  Zr  Zr1  1  0.750000  0.283812  0.922809  1
  Zr  Zr2  1  0.250000  0.218509  0.573607  1
  Zr  Zr3  1  0.750000  0.778391  0.431323  1
  Be  Be4  1  0.250000  0.644387  0.716229  1
  Be  Be5  1  0.750000  0.358297  0.284604  1
  Si  Si6  1  0.250000  0.149589  0.215532  1
  P  P7  1  0.750000  0.848503  0.784244  1
