# generated using pymatgen
data_La8Cd2CuTc
_symmetry_space_group_name_H-M   'P 1'
_cell_length_a   10.09955522
_cell_length_b   10.09955533
_cell_length_c   10.28479400
_cell_angle_alpha   59.39139806
_cell_angle_beta   59.39139770
_cell_angle_gamma   59.45750119
_symmetry_Int_Tables_number   1
_chemical_formula_structural   La8Cd2CuTc
_chemical_formula_sum   'La16 Cd4 Cu2 Tc2'
_cell_volume   731.89554066
_cell_formula_units_Z   2
loop_
 _symmetry_equiv_pos_site_id
 _symmetry_equiv_pos_as_xyz
  1  'x, y, z'
loop_
 _atom_site_type_symbol
 _atom_site_label
 _atom_site_symmetry_multiplicity
 _atom_site_fract_x
 _atom_site_fract_y
 _atom_site_fract_z
 _atom_site_occupancy
  La  La0  1  0.596757  0.596757  0.605402  1
  La  La1  1  0.596757  0.596757  0.201085  1
  La  La2  1  0.593896  0.211075  0.597515  1
  La  La3  1  0.211075  0.593896  0.597515  1
  La  La4  1  0.068000  0.438508  0.441489  1
  La  La5  1  0.438508  0.068000  0.052004  1
  La  La6  1  0.438508  0.068000  0.441489  1
  La  La7  1  0.068000  0.438508  0.052004  1
  La  La8  1  0.439022  0.439022  0.060978  1
  La  La9  1  0.051255  0.051255  0.448745  1
  La  La10  1  0.188470  0.804179  0.815916  1
  La  La11  1  0.804179  0.188470  0.191436  1
  La  La12  1  0.804179  0.188470  0.815916  1
  La  La13  1  0.188470  0.804179  0.191436  1
  La  La14  1  0.814135  0.814135  0.185865  1
  La  La15  1  0.190771  0.190771  0.809229  1
  Cd  Cd16  1  0.828453  0.828453  0.830041  1
  Cd  Cd17  1  0.828453  0.828453  0.513056  1
  Cd  Cd18  1  0.829925  0.511648  0.829215  1
  Cd  Cd19  1  0.511648  0.829925  0.829215  1
  Cu  Cu20  1  0.398552  0.826917  0.387267  1
  Cu  Cu21  1  0.826917  0.398552  0.387267  1
  Tc  Tc22  1  0.392039  0.392039  0.381721  1
  Tc  Tc23  1  0.392039  0.392039  0.834202  1
