# generated using pymatgen
data_Tm2Pu3(SiB4)2
_symmetry_space_group_name_H-M   'P 1'
_cell_length_a   7.17434322
_cell_length_b   7.17434291
_cell_length_c   8.00152200
_cell_angle_alpha   90.00000000
_cell_angle_beta   90.00000000
_cell_angle_gamma   90.00452818
_symmetry_Int_Tables_number   1
_chemical_formula_structural   Tm2Pu3(SiB4)2
_chemical_formula_sum   'Tm4 Pu6 Si4 B16'
_cell_volume   411.84792480
_cell_formula_units_Z   2
loop_
 _symmetry_equiv_pos_site_id
 _symmetry_equiv_pos_as_xyz
  1  'x, y, z'
loop_
 _atom_site_type_symbol
 _atom_site_label
 _atom_site_symmetry_multiplicity
 _atom_site_fract_x
 _atom_site_fract_y
 _atom_site_fract_z
 _atom_site_occupancy
  Tm  Tm0  1  0.181880  0.318120  0.779267  1
  Tm  Tm1  1  0.181880  0.318120  0.220733  1
  Tm  Tm2  1  0.999519  0.998635  0.500000  1
  Tm  Tm3  1  0.501365  0.500481  0.500000  1
  Pu  Pu4  1  0.683291  0.183553  0.229707  1
  Pu  Pu5  1  0.316447  0.816709  0.770293  1
  Pu  Pu6  1  0.316447  0.816709  0.229707  1
  Pu  Pu7  1  0.816142  0.683858  0.228358  1
  Pu  Pu8  1  0.816142  0.683858  0.771642  1
  Pu  Pu9  1  0.683291  0.183553  0.770293  1
  Si  Si10  1  0.115034  0.615814  0.500000  1
  Si  Si11  1  0.884186  0.384966  0.500000  1
  Si  Si12  1  0.381791  0.118209  0.500000  1
  Si  Si13  1  0.616586  0.883414  0.500000  1
  B  B14  1  0.173847  0.038746  0.000000  1
  B  B15  1  0.825977  0.958445  0.000000  1
  B  B16  1  0.959390  0.172389  0.000000  1
  B  B17  1  0.327611  0.540610  0.000000  1
  B  B18  1  0.038998  0.824390  0.000000  1
  B  B19  1  0.675610  0.461002  0.000000  1
  B  B20  1  0.541555  0.674023  0.000000  1
  B  B21  1  0.461254  0.326153  0.000000  1
  B  B22  1  0.089381  0.589340  0.000000  1
  B  B23  1  0.910660  0.410619  0.000000  1
  B  B24  1  0.410138  0.089862  0.000000  1
  B  B25  1  0.589490  0.910510  0.000000  1
  B  B26  1  0.998906  0.997861  0.163970  1
  B  B27  1  0.998906  0.997861  0.836030  1
  B  B28  1  0.502139  0.501094  0.836030  1
  B  B29  1  0.502139  0.501094  0.163970  1
