# generated using pymatgen
data_Lu3ThCdRu
_symmetry_space_group_name_H-M   'P 1'
_cell_length_a   9.58020397
_cell_length_b   9.58020396
_cell_length_c   9.58020400
_cell_angle_alpha   59.99999986
_cell_angle_beta   59.99999989
_cell_angle_gamma   60.00000388
_symmetry_Int_Tables_number   1
_chemical_formula_structural   Lu3ThCdRu
_chemical_formula_sum   'Lu12 Th4 Cd4 Ru4'
_cell_volume   621.74067699
_cell_formula_units_Z   4
loop_
 _symmetry_equiv_pos_site_id
 _symmetry_equiv_pos_as_xyz
  1  'x, y, z'
loop_
 _atom_site_type_symbol
 _atom_site_label
 _atom_site_symmetry_multiplicity
 _atom_site_fract_x
 _atom_site_fract_y
 _atom_site_fract_z
 _atom_site_occupancy
  Lu  Lu0  1  0.813038  0.186962  0.186962  1
  Lu  Lu1  1  0.186962  0.813038  0.813038  1
  Lu  Lu2  1  0.186962  0.813038  0.186962  1
  Lu  Lu3  1  0.813038  0.186962  0.813038  1
  Lu  Lu4  1  0.186962  0.186962  0.813038  1
  Lu  Lu5  1  0.813038  0.813038  0.186962  1
  Lu  Lu6  1  0.934723  0.565277  0.565277  1
  Lu  Lu7  1  0.565277  0.934723  0.934723  1
  Lu  Lu8  1  0.565277  0.934723  0.565277  1
  Lu  Lu9  1  0.934723  0.565277  0.934723  1
  Lu  Lu10  1  0.565277  0.565277  0.934723  1
  Lu  Lu11  1  0.934723  0.934723  0.565277  1
  Th  Th12  1  0.348585  0.348585  0.348585  1
  Th  Th13  1  0.348585  0.348585  0.954244  1
  Th  Th14  1  0.348585  0.954244  0.348585  1
  Th  Th15  1  0.954244  0.348585  0.348585  1
  Cd  Cd16  1  0.583342  0.583342  0.583342  1
  Cd  Cd17  1  0.583342  0.583342  0.249973  1
  Cd  Cd18  1  0.583342  0.249973  0.583342  1
  Cd  Cd19  1  0.249973  0.583342  0.583342  1
  Ru  Ru20  1  0.142399  0.142399  0.142399  1
  Ru  Ru21  1  0.142399  0.142399  0.572801  1
  Ru  Ru22  1  0.142399  0.572801  0.142399  1
  Ru  Ru23  1  0.572801  0.142399  0.142399  1
