# generated using pymatgen
data_TbSm5Fe3(Co5P4)3
_symmetry_space_group_name_H-M   'P 1'
_cell_length_a   3.73937100
_cell_length_b   10.61465113
_cell_length_c   12.25261014
_cell_angle_alpha   90.01759509
_cell_angle_beta   90.00000000
_cell_angle_gamma   90.00000000
_symmetry_Int_Tables_number   1
_chemical_formula_structural   TbSm5Fe3(Co5P4)3
_chemical_formula_sum   'Tb1 Sm5 Fe3 Co15 P12'
_cell_volume   486.33203199
_cell_formula_units_Z   1
loop_
 _symmetry_equiv_pos_site_id
 _symmetry_equiv_pos_as_xyz
  1  'x, y, z'
loop_
 _atom_site_type_symbol
 _atom_site_label
 _atom_site_symmetry_multiplicity
 _atom_site_fract_x
 _atom_site_fract_y
 _atom_site_fract_z
 _atom_site_occupancy
  Tb  Tb0  1  0.500000  0.182739  0.204755  1
  Sm  Sm1  1  0.000000  0.499971  0.521638  1
  Sm  Sm2  1  0.500000  0.000090  0.478111  1
  Sm  Sm3  1  0.500000  0.817863  0.205019  1
  Sm  Sm4  1  0.000000  0.681091  0.795615  1
  Sm  Sm5  1  0.000000  0.318842  0.795552  1
  Fe  Fe6  1  0.500000  0.499692  0.154829  1
  Fe  Fe7  1  0.000000  0.000170  0.843731  1
  Fe  Fe8  1  0.000000  0.499348  0.989621  1
  Co  Co9  1  0.500000  0.499889  0.701916  1
  Co  Co10  1  0.000000  0.001343  0.297313  1
  Co  Co11  1  0.500000  0.000682  0.013518  1
  Co  Co12  1  0.500000  0.330653  0.995656  1
  Co  Co13  1  0.500000  0.668728  0.995087  1
  Co  Co14  1  0.000000  0.166178  0.005666  1
  Co  Co15  1  0.000000  0.834451  0.005031  1
  Co  Co16  1  0.500000  0.296256  0.429497  1
  Co  Co17  1  0.500000  0.703388  0.430333  1
  Co  Co18  1  0.000000  0.203710  0.569318  1
  Co  Co19  1  0.000000  0.796399  0.569814  1
  Co  Co20  1  0.500000  0.880272  0.709519  1
  Co  Co21  1  0.500000  0.119699  0.709398  1
  Co  Co22  1  0.000000  0.619643  0.290126  1
  Co  Co23  1  0.000000  0.379079  0.289408  1
  P  P24  1  0.500000  0.499760  0.887157  1
  P  P25  1  0.000000  0.001278  0.116270  1
  P  P26  1  0.500000  0.500039  0.338899  1
  P  P27  1  0.000000  0.999971  0.659838  1
  P  P28  1  0.500000  0.307503  0.614826  1
  P  P29  1  0.500000  0.692360  0.615129  1
  P  P30  1  0.000000  0.192348  0.383322  1
  P  P31  1  0.000000  0.807570  0.384894  1
  P  P32  1  0.500000  0.848642  0.894188  1
  P  P33  1  0.500000  0.151548  0.893960  1
  P  P34  1  0.000000  0.652114  0.105114  1
  P  P35  1  0.000000  0.346690  0.105930  1
