# generated using pymatgen
data_Y17Tm3(SnPb)8
_symmetry_space_group_name_H-M   'P 1'
_cell_length_a   8.10046900
_cell_length_b   8.17188014
_cell_length_c   15.50753800
_cell_angle_alpha   90.00000000
_cell_angle_beta   90.00000000
_cell_angle_gamma   90.05025024
_symmetry_Int_Tables_number   1
_chemical_formula_structural   Y17Tm3(SnPb)8
_chemical_formula_sum   'Y17 Tm3 Sn8 Pb8'
_cell_volume   1026.53754853
_cell_formula_units_Z   1
loop_
 _symmetry_equiv_pos_site_id
 _symmetry_equiv_pos_as_xyz
  1  'x, y, z'
loop_
 _atom_site_type_symbol
 _atom_site_label
 _atom_site_symmetry_multiplicity
 _atom_site_fract_x
 _atom_site_fract_y
 _atom_site_fract_z
 _atom_site_occupancy
  Y  Y0  1  0.379895  0.839568  0.877450  1
  Y  Y1  1  0.879562  0.660787  0.622889  1
  Y  Y2  1  0.620429  0.160544  0.377309  1
  Y  Y3  1  0.120246  0.339364  0.123175  1
  Y  Y4  1  0.620429  0.160544  0.122691  1
  Y  Y5  1  0.120246  0.339364  0.376825  1
  Y  Y6  1  0.379895  0.839568  0.622550  1
  Y  Y7  1  0.879562  0.660787  0.877111  1
  Y  Y8  1  0.536891  0.324362  0.896621  1
  Y  Y9  1  0.036880  0.175093  0.603555  1
  Y  Y10  1  0.463097  0.675540  0.396226  1
  Y  Y11  1  0.962879  0.824744  0.103763  1
  Y  Y12  1  0.463097  0.675540  0.103774  1
  Y  Y13  1  0.962879  0.824744  0.396237  1
  Y  Y14  1  0.536891  0.324362  0.603379  1
  Y  Y15  1  0.036880  0.175093  0.896445  1
  Y  Y16  1  0.210380  0.503322  0.750000  1
  Tm  Tm17  1  0.710596  0.995782  0.750000  1
  Tm  Tm18  1  0.789520  0.496441  0.250000  1
  Tm  Tm19  1  0.289582  0.003839  0.250000  1
  Sn  Sn20  1  0.576072  0.623237  0.750000  1
  Sn  Sn21  1  0.075582  0.877644  0.750000  1
  Sn  Sn22  1  0.424936  0.377195  0.250000  1
  Sn  Sn23  1  0.924316  0.122756  0.250000  1
  Sn  Sn24  1  0.345150  0.147757  0.750000  1
  Sn  Sn25  1  0.843574  0.350188  0.750000  1
  Sn  Sn26  1  0.655396  0.850934  0.250000  1
  Sn  Sn27  1  0.155472  0.649479  0.250000  1
  Pb  Pb28  1  0.280564  0.032396  0.042146  1
  Pb  Pb29  1  0.781054  0.468163  0.457808  1
  Pb  Pb30  1  0.719337  0.967709  0.542071  1
  Pb  Pb31  1  0.218879  0.532442  0.958483  1
  Pb  Pb32  1  0.719337  0.967709  0.957929  1
  Pb  Pb33  1  0.218879  0.532442  0.541517  1
  Pb  Pb34  1  0.280564  0.032396  0.457854  1
  Pb  Pb35  1  0.781054  0.468163  0.042192  1
