# generated using pymatgen
data_LaCu4AgO8
_symmetry_space_group_name_H-M   'P 1'
_cell_length_a   6.33388737
_cell_length_b   6.33388732
_cell_length_c   6.33388711
_cell_angle_alpha   124.28806606
_cell_angle_beta   124.28807163
_cell_angle_gamma   82.72059623
_symmetry_Int_Tables_number   1
_chemical_formula_structural   LaCu4AgO8
_chemical_formula_sum   'La1 Cu4 Ag1 O8'
_cell_volume   166.55633553
_cell_formula_units_Z   1
loop_
 _symmetry_equiv_pos_site_id
 _symmetry_equiv_pos_as_xyz
  1  'x, y, z'
loop_
 _atom_site_type_symbol
 _atom_site_label
 _atom_site_symmetry_multiplicity
 _atom_site_fract_x
 _atom_site_fract_y
 _atom_site_fract_z
 _atom_site_occupancy
  La  La0  1  0.750000  0.250000  0.500000  1
  Cu  Cu1  1  0.371643  0.627153  0.247804  1
  Cu  Cu2  1  0.379350  0.123840  0.752196  1
  Cu  Cu3  1  0.372847  0.620650  0.744490  1
  Cu  Cu4  1  0.876160  0.628357  0.255510  1
  Ag  Ag5  1  0.000000  0.000000  0.000000  1
  O  O6  1  0.719902  0.312525  0.133750  1
  O  O7  1  0.178775  0.586152  0.866250  1
  O  O8  1  0.033340  0.940780  0.370585  1
  O  O9  1  0.570195  0.662755  0.629415  1
  O  O10  1  0.059220  0.429805  0.092560  1
  O  O11  1  0.337245  0.966660  0.907440  1
  O  O12  1  0.413848  0.280098  0.592623  1
  O  O13  1  0.687475  0.821225  0.407377  1
