# generated using pymatgen
data_TaCo4Tc3B4
_symmetry_space_group_name_H-M   'P 1'
_cell_length_a   3.24813400
_cell_length_b   5.73186683
_cell_length_c   6.60184108
_cell_angle_alpha   90.83895330
_cell_angle_beta   90.00000000
_cell_angle_gamma   90.00000000
_symmetry_Int_Tables_number   1
_chemical_formula_structural   TaCo4Tc3B4
_chemical_formula_sum   'Ta1 Co4 Tc3 B4'
_cell_volume   122.89905303
_cell_formula_units_Z   1
loop_
 _symmetry_equiv_pos_site_id
 _symmetry_equiv_pos_as_xyz
  1  'x, y, z'
loop_
 _atom_site_type_symbol
 _atom_site_label
 _atom_site_symmetry_multiplicity
 _atom_site_fract_x
 _atom_site_fract_y
 _atom_site_fract_z
 _atom_site_occupancy
  Ta  Ta0  1  0.750000  0.972904  0.174752  1
  Co  Co1  1  0.750000  0.853571  0.555411  1
  Co  Co2  1  0.250000  0.143875  0.447125  1
  Co  Co3  1  0.750000  0.355315  0.942965  1
  Co  Co4  1  0.250000  0.647207  0.052313  1
  Tc  Tc5  1  0.250000  0.528521  0.673876  1
  Tc  Tc6  1  0.750000  0.471787  0.326351  1
  Tc  Tc7  1  0.250000  0.027963  0.827502  1
  B  B8  1  0.250000  0.762702  0.383755  1
  B  B9  1  0.750000  0.228740  0.625801  1
  B  B10  1  0.250000  0.281986  0.123142  1
  B  B11  1  0.750000  0.725428  0.867007  1
