# generated using pymatgen
data_Tm6Th2MgCo2Hg
_symmetry_space_group_name_H-M   'P 1'
_cell_length_a   9.47025446
_cell_length_b   9.47025524
_cell_length_c   9.48438200
_cell_angle_alpha   59.95064975
_cell_angle_beta   59.95064700
_cell_angle_gamma   60.14704485
_symmetry_Int_Tables_number   1
_chemical_formula_structural   Tm6Th2MgCo2Hg
_chemical_formula_sum   'Tm12 Th4 Mg2 Co4 Hg2'
_cell_volume   601.68971570
_cell_formula_units_Z   2
loop_
 _symmetry_equiv_pos_site_id
 _symmetry_equiv_pos_as_xyz
  1  'x, y, z'
loop_
 _atom_site_type_symbol
 _atom_site_label
 _atom_site_symmetry_multiplicity
 _atom_site_fract_x
 _atom_site_fract_y
 _atom_site_fract_z
 _atom_site_occupancy
  Tm  Tm0  1  0.813722  0.185057  0.186849  1
  Tm  Tm1  1  0.185057  0.813722  0.814373  1
  Tm  Tm2  1  0.185057  0.813722  0.186849  1
  Tm  Tm3  1  0.813722  0.185057  0.814373  1
  Tm  Tm4  1  0.186609  0.186609  0.813391  1
  Tm  Tm5  1  0.812716  0.812716  0.187284  1
  Tm  Tm6  1  0.934556  0.564489  0.564823  1
  Tm  Tm7  1  0.564489  0.934556  0.936132  1
  Tm  Tm8  1  0.564489  0.934556  0.564823  1
  Tm  Tm9  1  0.934556  0.564489  0.936132  1
  Tm  Tm10  1  0.564046  0.564046  0.935954  1
  Tm  Tm11  1  0.934665  0.934665  0.565335  1
  Th  Th12  1  0.345499  0.345499  0.346892  1
  Th  Th13  1  0.345499  0.345499  0.962110  1
  Th  Th14  1  0.348092  0.958574  0.346667  1
  Th  Th15  1  0.958574  0.348092  0.346667  1
  Mg  Mg16  1  0.580340  0.266486  0.576587  1
  Mg  Mg17  1  0.266486  0.580340  0.576587  1
  Co  Co18  1  0.143200  0.143200  0.145200  1
  Co  Co19  1  0.143200  0.143200  0.568401  1
  Co  Co20  1  0.142908  0.566101  0.145496  1
  Co  Co21  1  0.566101  0.142908  0.145496  1
  Hg  Hg22  1  0.583209  0.583209  0.589449  1
  Hg  Hg23  1  0.583209  0.583209  0.244133  1
