# generated using pymatgen
data_Nb8Si6BHW2
_symmetry_space_group_name_H-M   'P 1'
_cell_length_a   7.56860500
_cell_length_b   7.56860508
_cell_length_c   5.27444900
_cell_angle_alpha   90.00000000
_cell_angle_beta   90.00000000
_cell_angle_gamma   120.00000404
_symmetry_Int_Tables_number   1
_chemical_formula_structural   Nb8Si6BHW2
_chemical_formula_sum   'Nb8 Si6 B1 H1 W2'
_cell_volume   261.66124073
_cell_formula_units_Z   1
loop_
 _symmetry_equiv_pos_site_id
 _symmetry_equiv_pos_as_xyz
  1  'x, y, z'
loop_
 _atom_site_type_symbol
 _atom_site_label
 _atom_site_symmetry_multiplicity
 _atom_site_fract_x
 _atom_site_fract_y
 _atom_site_fract_z
 _atom_site_occupancy
  Nb  Nb0  1  0.333333  0.666667  0.000000  1
  Nb  Nb1  1  0.666667  0.333333  0.000000  1
  Nb  Nb2  1  0.754267  0.754267  0.250256  1
  Nb  Nb3  1  0.245733  0.000000  0.250256  1
  Nb  Nb4  1  0.000000  0.245733  0.250256  1
  Nb  Nb5  1  0.245733  0.245733  0.749744  1
  Nb  Nb6  1  0.754267  0.000000  0.749744  1
  Nb  Nb7  1  0.000000  0.754267  0.749744  1
  Si  Si8  1  0.400574  0.400574  0.263479  1
  Si  Si9  1  0.599426  0.000000  0.263479  1
  Si  Si10  1  0.000000  0.599426  0.263479  1
  Si  Si11  1  0.599426  0.599426  0.736521  1
  Si  Si12  1  0.400574  0.000000  0.736521  1
  Si  Si13  1  0.000000  0.400574  0.736521  1
  B  B14  1  0.000000  0.000000  0.000000  1
  H  H15  1  0.000000  0.000000  0.500000  1
  W  W16  1  0.666667  0.333333  0.500000  1
  W  W17  1  0.333333  0.666667  0.500000  1
