# generated using pymatgen
data_K4TbUSe6
_symmetry_space_group_name_H-M   'P 1'
_cell_length_a   7.53942442
_cell_length_b   7.53942430
_cell_length_c   8.05245044
_cell_angle_alpha   80.86577903
_cell_angle_beta   80.86577583
_cell_angle_gamma   120.01125420
_symmetry_Int_Tables_number   1
_chemical_formula_structural   K4TbUSe6
_chemical_formula_sum   'K4 Tb1 U1 Se6'
_cell_volume   375.84158550
_cell_formula_units_Z   1
loop_
 _symmetry_equiv_pos_site_id
 _symmetry_equiv_pos_as_xyz
  1  'x, y, z'
loop_
 _atom_site_type_symbol
 _atom_site_label
 _atom_site_symmetry_multiplicity
 _atom_site_fract_x
 _atom_site_fract_y
 _atom_site_fract_z
 _atom_site_occupancy
  K  K0  1  0.344790  0.655210  0.500000  1
  K  K1  1  0.654965  0.345035  0.500000  1
  K  K2  1  0.000262  0.999738  0.500000  1
  K  K3  1  0.499977  0.500023  0.000000  1
  Tb  Tb4  1  0.167825  0.832175  0.000000  1
  U  U5  1  0.832184  0.167816  0.000000  1
  Se  Se6  1  0.795671  0.807433  0.206354  1
  Se  Se7  1  0.440914  0.062100  0.209906  1
  Se  Se8  1  0.049264  0.416319  0.209007  1
  Se  Se9  1  0.583681  0.950736  0.790993  1
  Se  Se10  1  0.937900  0.559086  0.790094  1
  Se  Se11  1  0.192567  0.204329  0.793646  1
