# generated using pymatgen
data_ZrBeNb4Sn3
_symmetry_space_group_name_H-M   'P 1'
_cell_length_a   8.33394711
_cell_length_b   8.30736737
_cell_length_c   5.60459000
_cell_angle_alpha   90.00000000
_cell_angle_beta   90.00000000
_cell_angle_gamma   119.89456077
_symmetry_Int_Tables_number   1
_chemical_formula_structural   ZrBeNb4Sn3
_chemical_formula_sum   'Zr2 Be2 Nb8 Sn6'
_cell_volume   336.39465234
_cell_formula_units_Z   2
loop_
 _symmetry_equiv_pos_site_id
 _symmetry_equiv_pos_as_xyz
  1  'x, y, z'
loop_
 _atom_site_type_symbol
 _atom_site_label
 _atom_site_symmetry_multiplicity
 _atom_site_fract_x
 _atom_site_fract_y
 _atom_site_fract_z
 _atom_site_occupancy
  Zr  Zr0  1  0.749280  0.747861  0.250000  1
  Zr  Zr1  1  0.749280  0.001418  0.750000  1
  Be  Be2  1  0.009758  0.004879  0.000000  1
  Be  Be3  1  0.009758  0.004879  0.500000  1
  Nb  Nb4  1  0.334005  0.667003  0.000000  1
  Nb  Nb5  1  0.666706  0.333352  0.500000  1
  Nb  Nb6  1  0.666706  0.333352  0.000000  1
  Nb  Nb7  1  0.334005  0.667003  0.500000  1
  Nb  Nb8  1  0.250049  0.996982  0.250000  1
  Nb  Nb9  1  0.250049  0.253067  0.750000  1
  Nb  Nb10  1  0.997310  0.751800  0.750000  1
  Nb  Nb11  1  0.997310  0.245511  0.250000  1
  Sn  Sn12  1  0.604148  0.001218  0.250000  1
  Sn  Sn13  1  0.604148  0.602930  0.750000  1
  Sn  Sn14  1  0.001708  0.397751  0.750000  1
  Sn  Sn15  1  0.001708  0.603957  0.250000  1
  Sn  Sn16  1  0.387035  0.387138  0.250000  1
  Sn  Sn17  1  0.387035  0.999898  0.750000  1
