# generated using pymatgen
data_NaTb2Y4RhI12
_symmetry_space_group_name_H-M   'P 1'
_cell_length_a   9.76883297
_cell_length_b   9.78460177
_cell_length_c   9.85514420
_cell_angle_alpha   107.22978488
_cell_angle_beta   106.75499383
_cell_angle_gamma   106.63654206
_symmetry_Int_Tables_number   1
_chemical_formula_structural   NaTb2Y4RhI12
_chemical_formula_sum   'Na1 Tb2 Y4 Rh1 I12'
_cell_volume   787.17018263
_cell_formula_units_Z   1
loop_
 _symmetry_equiv_pos_site_id
 _symmetry_equiv_pos_as_xyz
  1  'x, y, z'
loop_
 _atom_site_type_symbol
 _atom_site_label
 _atom_site_symmetry_multiplicity
 _atom_site_fract_x
 _atom_site_fract_y
 _atom_site_fract_z
 _atom_site_occupancy
  Na  Na0  1  0.499989  0.499981  0.500044  1
  Tb  Tb1  1  0.027914  0.300476  0.097328  1
  Tb  Tb2  1  0.298677  0.098618  0.027470  1
  Y  Y3  1  0.897130  0.972296  0.688192  1
  Y  Y4  1  0.971993  0.699162  0.902731  1
  Y  Y5  1  0.700944  0.901165  0.972238  1
  Y  Y6  1  0.102470  0.027424  0.311426  1
  Rh  Rh7  1  0.000818  0.000901  0.000125  1
  I  I8  1  0.549143  0.858395  0.629684  1
  I  I9  1  0.859973  0.628844  0.552123  1
  I  I10  1  0.627151  0.549399  0.857805  1
  I  I11  1  0.450715  0.141511  0.370691  1
  I  I12  1  0.140381  0.371037  0.448785  1
  I  I13  1  0.373255  0.451385  0.142526  1
  I  I14  1  0.680775  0.223246  0.074440  1
  I  I15  1  0.225012  0.074397  0.679826  1
  I  I16  1  0.073922  0.679121  0.223111  1
  I  I17  1  0.319212  0.775752  0.925304  1
  I  I18  1  0.774604  0.925405  0.319769  1
  I  I19  1  0.925923  0.321484  0.776383  1
