# generated using pymatgen
data_Y5(In2Pt)2
_symmetry_space_group_name_H-M   'P 1'
_cell_length_a   3.64483400
_cell_length_b   8.19588400
_cell_length_c   18.32675800
_cell_angle_alpha   90.00000000
_cell_angle_beta   90.00000000
_cell_angle_gamma   90.00000000
_symmetry_Int_Tables_number   1
_chemical_formula_structural   Y5(In2Pt)2
_chemical_formula_sum   'Y10 In8 Pt4'
_cell_volume   547.46858295
_cell_formula_units_Z   2
loop_
 _symmetry_equiv_pos_site_id
 _symmetry_equiv_pos_as_xyz
  1  'x, y, z'
loop_
 _atom_site_type_symbol
 _atom_site_label
 _atom_site_symmetry_multiplicity
 _atom_site_fract_x
 _atom_site_fract_y
 _atom_site_fract_z
 _atom_site_occupancy
  Y  Y0  1  0.000000  0.117234  0.414810  1
  Y  Y1  1  0.000000  0.882766  0.585190  1
  Y  Y2  1  0.000000  0.382766  0.914810  1
  Y  Y3  1  0.000000  0.617234  0.085190  1
  Y  Y4  1  0.000000  0.241552  0.219540  1
  Y  Y5  1  0.000000  0.758448  0.780460  1
  Y  Y6  1  0.000000  0.258448  0.719540  1
  Y  Y7  1  0.000000  0.741552  0.280460  1
  Y  Y8  1  0.000000  0.000000  0.000000  1
  Y  Y9  1  0.000000  0.500000  0.500000  1
  In  In10  1  0.500000  0.423889  0.350924  1
  In  In11  1  0.500000  0.576111  0.649076  1
  In  In12  1  0.500000  0.076111  0.850924  1
  In  In13  1  0.500000  0.923889  0.149076  1
  In  In14  1  0.500000  0.292774  0.066682  1
  In  In15  1  0.500000  0.707226  0.933318  1
  In  In16  1  0.500000  0.207226  0.566682  1
  In  In17  1  0.500000  0.792774  0.433318  1
  Pt  Pt18  1  0.500000  0.022960  0.303337  1
  Pt  Pt19  1  0.500000  0.977040  0.696663  1
  Pt  Pt20  1  0.500000  0.477040  0.803337  1
  Pt  Pt21  1  0.500000  0.522960  0.196663  1
