# generated using pymatgen
data_HoTmLu14(Ga3Co)2
_symmetry_space_group_name_H-M   'P 1'
_cell_length_a   9.80374700
_cell_length_b   9.80374556
_cell_length_c   6.79271100
_cell_angle_alpha   90.00000000
_cell_angle_beta   90.00000000
_cell_angle_gamma   120.00000824
_symmetry_Int_Tables_number   1
_chemical_formula_structural   HoTmLu14(Ga3Co)2
_chemical_formula_sum   'Ho1 Tm1 Lu14 Ga6 Co2'
_cell_volume   565.40267600
_cell_formula_units_Z   1
loop_
 _symmetry_equiv_pos_site_id
 _symmetry_equiv_pos_as_xyz
  1  'x, y, z'
loop_
 _atom_site_type_symbol
 _atom_site_label
 _atom_site_symmetry_multiplicity
 _atom_site_fract_x
 _atom_site_fract_y
 _atom_site_fract_z
 _atom_site_occupancy
  Ho  Ho0  1  0.000000  0.000000  0.268440  1
  Tm  Tm1  1  0.000000  0.000000  0.768098  1
  Lu  Lu2  1  0.173919  0.826081  0.989599  1
  Lu  Lu3  1  0.347842  0.173921  0.489984  1
  Lu  Lu4  1  0.826079  0.652158  0.489984  1
  Lu  Lu5  1  0.173919  0.347838  0.989599  1
  Lu  Lu6  1  0.652162  0.826081  0.989599  1
  Lu  Lu7  1  0.826079  0.173921  0.489984  1
  Lu  Lu8  1  0.333333  0.666667  0.671802  1
  Lu  Lu9  1  0.666667  0.333333  0.171641  1
  Lu  Lu10  1  0.464062  0.535938  0.292247  1
  Lu  Lu11  1  0.928124  0.464063  0.792279  1
  Lu  Lu12  1  0.535937  0.071876  0.792279  1
  Lu  Lu13  1  0.464062  0.928123  0.292247  1
  Lu  Lu14  1  0.071877  0.535938  0.292247  1
  Lu  Lu15  1  0.535937  0.464063  0.792279  1
  Ga  Ga16  1  0.163513  0.836487  0.539810  1
  Ga  Ga17  1  0.327063  0.163532  0.039427  1
  Ga  Ga18  1  0.836468  0.672937  0.039427  1
  Ga  Ga19  1  0.163513  0.327024  0.539810  1
  Ga  Ga20  1  0.672976  0.836487  0.539810  1
  Ga  Ga21  1  0.836468  0.163532  0.039427  1
  Co  Co22  1  0.333333  0.666667  0.057134  1
  Co  Co23  1  0.666667  0.333333  0.556860  1
