# generated using pymatgen
data_Er6Ti4Al12Ru5Rh2
_symmetry_space_group_name_H-M   'P 1'
_cell_length_a   8.95963851
_cell_length_b   8.97286223
_cell_length_c   8.97286241
_cell_angle_alpha   59.90199562
_cell_angle_beta   60.04396863
_cell_angle_gamma   60.04396937
_symmetry_Int_Tables_number   1
_chemical_formula_structural   Er6Ti4Al12Ru5Rh2
_chemical_formula_sum   'Er6 Ti4 Al12 Ru5 Rh2'
_cell_volume   510.03817201
_cell_formula_units_Z   1
loop_
 _symmetry_equiv_pos_site_id
 _symmetry_equiv_pos_as_xyz
  1  'x, y, z'
loop_
 _atom_site_type_symbol
 _atom_site_label
 _atom_site_symmetry_multiplicity
 _atom_site_fract_x
 _atom_site_fract_y
 _atom_site_fract_z
 _atom_site_occupancy
  Er  Er0  1  0.703989  0.292148  0.292148  1
  Er  Er1  1  0.705316  0.294865  0.708640  1
  Er  Er2  1  0.705316  0.708640  0.294865  1
  Er  Er3  1  0.295906  0.708083  0.708083  1
  Er  Er4  1  0.295853  0.704344  0.292042  1
  Er  Er5  1  0.295853  0.292042  0.704344  1
  Ti  Ti6  1  0.643137  0.118626  0.118626  1
  Ti  Ti7  1  0.119565  0.643263  0.120427  1
  Ti  Ti8  1  0.119565  0.120427  0.643263  1
  Ti  Ti9  1  0.121437  0.117476  0.117476  1
  Al  Al10  1  0.357145  0.881422  0.881422  1
  Al  Al11  1  0.881536  0.356822  0.880350  1
  Al  Al12  1  0.881536  0.880350  0.356822  1
  Al  Al13  1  0.880114  0.881566  0.881566  1
  Al  Al14  1  0.008096  0.330390  0.330390  1
  Al  Al15  1  0.329012  0.010644  0.329857  1
  Al  Al16  1  0.329012  0.329857  0.010644  1
  Al  Al17  1  0.328374  0.329163  0.329163  1
  Al  Al18  1  0.995003  0.668089  0.668089  1
  Al  Al19  1  0.669212  0.991805  0.669809  1
  Al  Al20  1  0.669212  0.669809  0.991805  1
  Al  Al21  1  0.670902  0.670077  0.670077  1
  Ru  Ru22  1  0.000081  0.000010  0.000010  1
  Ru  Ru23  1  0.497399  0.001253  0.001253  1
  Ru  Ru24  1  0.498042  0.001161  0.499386  1
  Ru  Ru25  1  0.498042  0.499386  0.001161  1
  Ru  Ru26  1  0.000873  0.498760  0.498760  1
  Rh  Rh27  1  0.000234  0.499174  0.000346  1
  Rh  Rh28  1  0.000234  0.000346  0.499174  1
