# generated using pymatgen
data_Eu6Ta(MnC4)3
_symmetry_space_group_name_H-M   'P 1'
_cell_length_a   8.33271400
_cell_length_b   8.33271386
_cell_length_c   5.26415600
_cell_angle_alpha   90.00000000
_cell_angle_beta   90.00000000
_cell_angle_gamma   119.99999155
_symmetry_Int_Tables_number   1
_chemical_formula_structural   Eu6Ta(MnC4)3
_chemical_formula_sum   'Eu6 Ta1 Mn3 C12'
_cell_volume   316.54274504
_cell_formula_units_Z   1
loop_
 _symmetry_equiv_pos_site_id
 _symmetry_equiv_pos_as_xyz
  1  'x, y, z'
loop_
 _atom_site_type_symbol
 _atom_site_label
 _atom_site_symmetry_multiplicity
 _atom_site_fract_x
 _atom_site_fract_y
 _atom_site_fract_z
 _atom_site_occupancy
  Eu  Eu0  1  0.604930  0.683141  0.747224  1
  Eu  Eu1  1  0.921789  0.604930  0.252776  1
  Eu  Eu2  1  0.683141  0.078211  0.252776  1
  Eu  Eu3  1  0.316859  0.921789  0.747224  1
  Eu  Eu4  1  0.078211  0.395070  0.747224  1
  Eu  Eu5  1  0.395070  0.316859  0.252776  1
  Ta  Ta6  1  0.000000  0.000000  0.500000  1
  Mn  Mn7  1  0.000000  0.000000  0.000000  1
  Mn  Mn8  1  0.666667  0.333333  0.756927  1
  Mn  Mn9  1  0.333333  0.666667  0.243073  1
  C  C10  1  0.949507  0.763582  0.749561  1
  C  C11  1  0.185925  0.949507  0.250439  1
  C  C12  1  0.763582  0.814075  0.250439  1
  C  C13  1  0.236418  0.185925  0.749561  1
  C  C14  1  0.814075  0.050493  0.749561  1
  C  C15  1  0.050493  0.236418  0.250439  1
  C  C16  1  0.851284  0.574768  0.758787  1
  C  C17  1  0.276513  0.851284  0.241213  1
  C  C18  1  0.574768  0.723487  0.241213  1
  C  C19  1  0.425232  0.276513  0.758787  1
  C  C20  1  0.148716  0.425232  0.241213  1
  C  C21  1  0.723487  0.148716  0.758787  1
