# generated using pymatgen
data_PrSmCCl
_symmetry_space_group_name_H-M   'P 1'
_cell_length_a   3.76459100
_cell_length_b   3.76459223
_cell_length_c   14.34856900
_cell_angle_alpha   90.00000000
_cell_angle_beta   90.00000000
_cell_angle_gamma   120.00001552
_symmetry_Int_Tables_number   1
_chemical_formula_structural   PrSmCCl
_chemical_formula_sum   'Pr2 Sm2 C2 Cl2'
_cell_volume   176.10630135
_cell_formula_units_Z   2
loop_
 _symmetry_equiv_pos_site_id
 _symmetry_equiv_pos_as_xyz
  1  'x, y, z'
loop_
 _atom_site_type_symbol
 _atom_site_label
 _atom_site_symmetry_multiplicity
 _atom_site_fract_x
 _atom_site_fract_y
 _atom_site_fract_z
 _atom_site_occupancy
  Pr  Pr0  1  0.666667  0.333333  0.904591  1
  Pr  Pr1  1  0.333333  0.666667  0.404591  1
  Sm  Sm2  1  0.333333  0.666667  0.095485  1
  Sm  Sm3  1  0.666667  0.333333  0.595485  1
  C  C4  1  0.000000  0.000000  0.004922  1
  C  C5  1  0.000000  0.000000  0.504922  1
  Cl  Cl6  1  0.666667  0.333333  0.245002  1
  Cl  Cl7  1  0.333333  0.666667  0.745002  1
