# generated using pymatgen
data_Dy2Si2NiRh3
_symmetry_space_group_name_H-M   'P 1'
_cell_length_a   8.85056507
_cell_length_b   8.85056590
_cell_length_c   4.05106100
_cell_angle_alpha   90.00000000
_cell_angle_beta   90.00000000
_cell_angle_gamma   153.76125172
_symmetry_Int_Tables_number   1
_chemical_formula_structural   Dy2Si2NiRh3
_chemical_formula_sum   'Dy2 Si2 Ni1 Rh3'
_cell_volume   140.29547687
_cell_formula_units_Z   1
loop_
 _symmetry_equiv_pos_site_id
 _symmetry_equiv_pos_as_xyz
  1  'x, y, z'
loop_
 _atom_site_type_symbol
 _atom_site_label
 _atom_site_symmetry_multiplicity
 _atom_site_fract_x
 _atom_site_fract_y
 _atom_site_fract_z
 _atom_site_occupancy
  Dy  Dy0  1  0.098370  0.901630  0.750000  1
  Dy  Dy1  1  0.902294  0.097706  0.250000  1
  Si  Si2  1  0.324062  0.675938  0.750000  1
  Si  Si3  1  0.673702  0.326298  0.250000  1
  Ni  Ni4  1  0.543925  0.456075  0.250000  1
  Rh  Rh5  1  0.459914  0.540086  0.750000  1
  Rh  Rh6  1  0.248937  0.751063  0.250000  1
  Rh  Rh7  1  0.748797  0.251203  0.750000  1
