# generated using pymatgen
data_Ho5ReRuC7
_symmetry_space_group_name_H-M   'P 1'
_cell_length_a   8.22293153
_cell_length_b   8.22293144
_cell_length_c   3.45568900
_cell_angle_alpha   90.00000000
_cell_angle_beta   90.00000000
_cell_angle_gamma   122.17361184
_symmetry_Int_Tables_number   1
_chemical_formula_structural   Ho5ReRuC7
_chemical_formula_sum   'Ho5 Re1 Ru1 C7'
_cell_volume   197.78046876
_cell_formula_units_Z   1
loop_
 _symmetry_equiv_pos_site_id
 _symmetry_equiv_pos_as_xyz
  1  'x, y, z'
loop_
 _atom_site_type_symbol
 _atom_site_label
 _atom_site_symmetry_multiplicity
 _atom_site_fract_x
 _atom_site_fract_y
 _atom_site_fract_z
 _atom_site_occupancy
  Ho  Ho0  1  0.500770  0.499230  0.000000  1
  Ho  Ho1  1  0.075183  0.336015  0.500000  1
  Ho  Ho2  1  0.921724  0.660986  0.500000  1
  Ho  Ho3  1  0.663985  0.924817  0.500000  1
  Ho  Ho4  1  0.339014  0.078276  0.500000  1
  Re  Re5  1  0.285820  0.714180  0.000000  1
  Ru  Ru6  1  0.712852  0.287148  0.000000  1
  C  C7  1  0.628812  0.371188  0.500000  1
  C  C8  1  0.374233  0.625767  0.500000  1
  C  C9  1  0.999175  0.000825  0.000000  1
  C  C10  1  0.170457  0.170864  0.000000  1
  C  C11  1  0.829136  0.829543  0.000000  1
  C  C12  1  0.001726  0.502887  0.000000  1
  C  C13  1  0.497113  0.998274  0.000000  1
