# generated using pymatgen
data_YbSc2(PaBi2)5
_symmetry_space_group_name_H-M   'P 1'
_cell_length_a   9.56094907
_cell_length_b   9.56297450
_cell_length_c   6.43507200
_cell_angle_alpha   90.00000000
_cell_angle_beta   90.00000000
_cell_angle_gamma   120.00700971
_symmetry_Int_Tables_number   1
_chemical_formula_structural   YbSc2(PaBi2)5
_chemical_formula_sum   'Yb1 Sc2 Pa5 Bi10'
_cell_volume   509.50372598
_cell_formula_units_Z   1
loop_
 _symmetry_equiv_pos_site_id
 _symmetry_equiv_pos_as_xyz
  1  'x, y, z'
loop_
 _atom_site_type_symbol
 _atom_site_label
 _atom_site_symmetry_multiplicity
 _atom_site_fract_x
 _atom_site_fract_y
 _atom_site_fract_z
 _atom_site_occupancy
  Yb  Yb0  1  0.000000  0.618825  0.250000  1
  Sc  Sc1  1  0.000000  0.998727  0.002621  1
  Sc  Sc2  1  0.000000  0.998727  0.497379  1
  Pa  Pa3  1  0.390760  0.389878  0.250000  1
  Pa  Pa4  1  0.386109  0.997591  0.750000  1
  Pa  Pa5  1  0.613891  0.611481  0.750000  1
  Pa  Pa6  1  0.609240  0.999118  0.250000  1
  Pa  Pa7  1  0.000000  0.387535  0.750000  1
  Bi  Bi8  1  0.000000  0.269083  0.250000  1
  Bi  Bi9  1  0.333471  0.664935  0.500971  1
  Bi  Bi10  1  0.666529  0.331462  0.999029  1
  Bi  Bi11  1  0.333471  0.664935  0.999029  1
  Bi  Bi12  1  0.268294  0.267793  0.750000  1
  Bi  Bi13  1  0.731706  0.999498  0.750000  1
  Bi  Bi14  1  0.000000  0.733592  0.750000  1
  Bi  Bi15  1  0.729105  0.732231  0.250000  1
  Bi  Bi16  1  0.270895  0.003127  0.250000  1
  Bi  Bi17  1  0.666529  0.331462  0.500971  1
