# generated using pymatgen
data_Eu5Np(MoO7)2
_symmetry_space_group_name_H-M   'P 1'
_cell_length_a   6.77037433
_cell_length_b   6.48736146
_cell_length_c   7.62005200
_cell_angle_alpha   90.00000000
_cell_angle_beta   90.00000000
_cell_angle_gamma   109.79991569
_symmetry_Int_Tables_number   1
_chemical_formula_structural   Eu5Np(MoO7)2
_chemical_formula_sum   'Eu5 Np1 Mo2 O14'
_cell_volume   314.90063357
_cell_formula_units_Z   1
loop_
 _symmetry_equiv_pos_site_id
 _symmetry_equiv_pos_as_xyz
  1  'x, y, z'
loop_
 _atom_site_type_symbol
 _atom_site_label
 _atom_site_symmetry_multiplicity
 _atom_site_fract_x
 _atom_site_fract_y
 _atom_site_fract_z
 _atom_site_occupancy
  Eu  Eu0  1  0.944511  0.479714  0.750000  1
  Eu  Eu1  1  0.519715  0.062595  0.250000  1
  Eu  Eu2  1  0.477775  0.937208  0.750000  1
  Eu  Eu3  1  0.000142  0.999313  0.990125  1
  Eu  Eu4  1  0.000142  0.999313  0.509875  1
  Np  Np5  1  0.039674  0.517728  0.250000  1
  Mo  Mo6  1  0.499112  0.500447  0.001839  1
  Mo  Mo7  1  0.499112  0.500447  0.498161  1
  O  O8  1  0.428926  0.435136  0.250000  1
  O  O9  1  0.564543  0.563837  0.750000  1
  O  O10  1  0.908245  0.194290  0.250000  1
  O  O11  1  0.106475  0.838900  0.750000  1
  O  O12  1  0.148928  0.852751  0.250000  1
  O  O13  1  0.844154  0.114190  0.750000  1
  O  O14  1  0.828431  0.556783  0.044643  1
  O  O15  1  0.177505  0.443763  0.977968  1
  O  O16  1  0.177505  0.443763  0.522032  1
  O  O17  1  0.561768  0.809242  0.464720  1
  O  O18  1  0.828431  0.556783  0.455357  1
  O  O19  1  0.441569  0.192278  0.533049  1
  O  O20  1  0.441569  0.192278  0.966951  1
  O  O21  1  0.561768  0.809242  0.035280  1
