# generated using pymatgen
data_YHo3(Ga5Co3)2
_symmetry_space_group_name_H-M   'P 1'
_cell_length_a   5.51386213
_cell_length_b   8.31707833
_cell_length_c   8.31960606
_cell_angle_alpha   96.51856713
_cell_angle_beta   109.38160622
_cell_angle_gamma   109.38822714
_symmetry_Int_Tables_number   1
_chemical_formula_structural   YHo3(Ga5Co3)2
_chemical_formula_sum   'Y1 Ho3 Ga10 Co6'
_cell_volume   328.59660839
_cell_formula_units_Z   1
loop_
 _symmetry_equiv_pos_site_id
 _symmetry_equiv_pos_as_xyz
  1  'x, y, z'
loop_
 _atom_site_type_symbol
 _atom_site_label
 _atom_site_symmetry_multiplicity
 _atom_site_fract_x
 _atom_site_fract_y
 _atom_site_fract_z
 _atom_site_occupancy
  Y  Y0  1  0.777128  0.419984  0.131768  1
  Ho  Ho1  1  0.722398  0.868000  0.579434  1
  Ho  Ho2  1  0.222410  0.579545  0.867890  1
  Ho  Ho3  1  0.277582  0.132016  0.420514  1
  Ga  Ga4  1  0.818779  0.736419  0.903253  1
  Ga  Ga5  1  0.681054  0.096151  0.263825  1
  Ga  Ga6  1  0.180971  0.263289  0.096560  1
  Ga  Ga7  1  0.318775  0.903306  0.736381  1
  Ga  Ga8  1  0.749935  0.203948  0.795466  1
  Ga  Ga9  1  0.250164  0.796072  0.204194  1
  Ga  Ga10  1  0.750091  0.500544  0.499993  1
  Ga  Ga11  1  0.250441  0.499795  0.500732  1
  Ga  Ga12  1  0.750106  0.795544  0.204737  1
  Ga  Ga13  1  0.249489  0.204501  0.794920  1
  Co  Co14  1  0.585675  0.435168  0.734191  1
  Co  Co15  1  0.914029  0.265368  0.564700  1
  Co  Co16  1  0.414577  0.565242  0.265771  1
  Co  Co17  1  0.086496  0.735254  0.435756  1
  Co  Co18  1  0.749889  0.999925  0.999948  1
  Co  Co19  1  0.250010  0.999928  0.999968  1
