# generated using pymatgen
data_Dy2Y(Al3Co)4
_symmetry_space_group_name_H-M   'P 1'
_cell_length_a   8.65494403
_cell_length_b   8.65494357
_cell_length_c   9.31013600
_cell_angle_alpha   90.00000000
_cell_angle_beta   90.00000000
_cell_angle_gamma   120.00956559
_symmetry_Int_Tables_number   1
_chemical_formula_structural   Dy2Y(Al3Co)4
_chemical_formula_sum   'Dy4 Y2 Al24 Co8'
_cell_volume   603.91148905
_cell_formula_units_Z   2
loop_
 _symmetry_equiv_pos_site_id
 _symmetry_equiv_pos_as_xyz
  1  'x, y, z'
loop_
 _atom_site_type_symbol
 _atom_site_label
 _atom_site_symmetry_multiplicity
 _atom_site_fract_x
 _atom_site_fract_y
 _atom_site_fract_z
 _atom_site_occupancy
  Dy  Dy0  1  0.193840  0.387628  0.250000  1
  Dy  Dy1  1  0.806160  0.612372  0.750000  1
  Dy  Dy2  1  0.612372  0.806160  0.250000  1
  Dy  Dy3  1  0.387628  0.193840  0.750000  1
  Y  Y4  1  0.193850  0.806150  0.250000  1
  Y  Y5  1  0.806150  0.193850  0.750000  1
  Al  Al6  1  0.333349  0.666651  0.020274  1
  Al  Al7  1  0.666651  0.333349  0.979726  1
  Al  Al8  1  0.666651  0.333349  0.520274  1
  Al  Al9  1  0.333349  0.666651  0.479726  1
  Al  Al10  1  0.163195  0.326341  0.574542  1
  Al  Al11  1  0.836805  0.673659  0.425458  1
  Al  Al12  1  0.673659  0.836805  0.574542  1
  Al  Al13  1  0.836805  0.673659  0.074542  1
  Al  Al14  1  0.326341  0.163195  0.425458  1
  Al  Al15  1  0.163195  0.326341  0.925458  1
  Al  Al16  1  0.163160  0.836840  0.574602  1
  Al  Al17  1  0.326341  0.163195  0.074542  1
  Al  Al18  1  0.836840  0.163160  0.425398  1
  Al  Al19  1  0.673659  0.836805  0.925458  1
  Al  Al20  1  0.836840  0.163160  0.074602  1
  Al  Al21  1  0.163160  0.836840  0.925398  1
  Al  Al22  1  0.559952  0.119859  0.250000  1
  Al  Al23  1  0.440048  0.880141  0.750000  1
  Al  Al24  1  0.880141  0.440048  0.250000  1
  Al  Al25  1  0.119859  0.559952  0.750000  1
  Al  Al26  1  0.559914  0.440086  0.250000  1
  Al  Al27  1  0.440086  0.559914  0.750000  1
  Al  Al28  1  0.999936  0.000064  0.250000  1
  Al  Al29  1  0.000064  0.999936  0.750000  1
  Co  Co30  1  0.500000  0.000000  0.000000  1
  Co  Co31  1  0.000000  0.500000  0.000000  1
  Co  Co32  1  0.500000  0.000000  0.500000  1
  Co  Co33  1  0.500000  0.500000  0.000000  1
  Co  Co34  1  0.000000  0.500000  0.500000  1
  Co  Co35  1  0.500000  0.500000  0.500000  1
  Co  Co36  1  0.000000  0.000000  0.000000  1
  Co  Co37  1  0.000000  0.000000  0.500000  1
