# generated using pymatgen
data_Tb7LuBePd24
_symmetry_space_group_name_H-M   'P 1'
_cell_length_a   8.33807766
_cell_length_b   8.33807732
_cell_length_c   8.33807700
_cell_angle_alpha   89.93939264
_cell_angle_beta   90.06060736
_cell_angle_gamma   90.06060959
_symmetry_Int_Tables_number   1
_chemical_formula_structural   Tb7LuBePd24
_chemical_formula_sum   'Tb7 Lu1 Be1 Pd24'
_cell_volume   579.69162645
_cell_formula_units_Z   1
loop_
 _symmetry_equiv_pos_site_id
 _symmetry_equiv_pos_as_xyz
  1  'x, y, z'
loop_
 _atom_site_type_symbol
 _atom_site_label
 _atom_site_symmetry_multiplicity
 _atom_site_fract_x
 _atom_site_fract_y
 _atom_site_fract_z
 _atom_site_occupancy
  Tb  Tb0  1  0.250377  0.250917  0.250917  1
  Tb  Tb1  1  0.749327  0.749488  0.749488  1
  Tb  Tb2  1  0.749083  0.749623  0.250917  1
  Tb  Tb3  1  0.749083  0.250917  0.749623  1
  Tb  Tb4  1  0.250512  0.250673  0.749488  1
  Tb  Tb5  1  0.250512  0.749488  0.250673  1
  Tb  Tb6  1  0.251210  0.748790  0.748790  1
  Lu  Lu7  1  0.748675  0.251325  0.251325  1
  Be  Be8  1  0.001259  0.998741  0.998741  1
  Pd  Pd9  1  0.253650  0.499585  0.000128  1
  Pd  Pd10  1  0.746169  0.498528  0.002177  1
  Pd  Pd11  1  0.997823  0.253831  0.498528  1
  Pd  Pd12  1  0.501472  0.253831  0.002177  1
  Pd  Pd13  1  0.999872  0.746350  0.499585  1
  Pd  Pd14  1  0.500415  0.746350  0.000128  1
  Pd  Pd15  1  0.501472  0.002177  0.253831  1
  Pd  Pd16  1  0.253650  0.000128  0.499585  1
  Pd  Pd17  1  0.500415  0.000128  0.746350  1
  Pd  Pd18  1  0.746169  0.002177  0.498528  1
  Pd  Pd19  1  0.997823  0.498528  0.253831  1
  Pd  Pd20  1  0.999872  0.499585  0.746350  1
  Pd  Pd21  1  0.250554  0.499773  0.499773  1
  Pd  Pd22  1  0.748844  0.498752  0.498752  1
  Pd  Pd23  1  0.501248  0.251156  0.498752  1
  Pd  Pd24  1  0.500227  0.749446  0.499773  1
  Pd  Pd25  1  0.501248  0.498752  0.251156  1
  Pd  Pd26  1  0.500227  0.499773  0.749446  1
  Pd  Pd27  1  0.269366  0.999744  0.999744  1
  Pd  Pd28  1  0.733016  0.002040  0.002040  1
  Pd  Pd29  1  0.997960  0.266984  0.002040  1
  Pd  Pd30  1  0.000256  0.730634  0.999744  1
  Pd  Pd31  1  0.997960  0.002040  0.266984  1
  Pd  Pd32  1  0.000256  0.999744  0.730634  1
