# generated using pymatgen
data_Sc4FeCo3P4
_symmetry_space_group_name_H-M   'P 1'
_cell_length_a   3.76233300
_cell_length_b   6.25871124
_cell_length_c   6.99807127
_cell_angle_alpha   89.96823237
_cell_angle_beta   90.00000000
_cell_angle_gamma   90.00000000
_symmetry_Int_Tables_number   1
_chemical_formula_structural   Sc4FeCo3P4
_chemical_formula_sum   'Sc4 Fe1 Co3 P4'
_cell_volume   164.78604902
_cell_formula_units_Z   1
loop_
 _symmetry_equiv_pos_site_id
 _symmetry_equiv_pos_as_xyz
  1  'x, y, z'
loop_
 _atom_site_type_symbol
 _atom_site_label
 _atom_site_symmetry_multiplicity
 _atom_site_fract_x
 _atom_site_fract_y
 _atom_site_fract_z
 _atom_site_occupancy
  Sc  Sc0  1  0.250000  0.017544  0.817067  1
  Sc  Sc1  1  0.250000  0.515103  0.686893  1
  Sc  Sc2  1  0.750000  0.984256  0.183760  1
  Sc  Sc3  1  0.750000  0.482699  0.312674  1
  Fe  Fe4  1  0.250000  0.149530  0.439782  1
  Co  Co5  1  0.250000  0.647511  0.061936  1
  Co  Co6  1  0.750000  0.850439  0.561271  1
  Co  Co7  1  0.750000  0.352236  0.935644  1
  P  P8  1  0.250000  0.280187  0.117439  1
  P  P9  1  0.250000  0.783647  0.385203  1
  P  P10  1  0.750000  0.720533  0.885320  1
  P  P11  1  0.750000  0.216315  0.613013  1
