# generated using pymatgen
data_Rb2GdHo5F20
_symmetry_space_group_name_H-M   'P 1'
_cell_length_a   8.27823777
_cell_length_b   8.27825937
_cell_length_c   8.25746000
_cell_angle_alpha   60.08290911
_cell_angle_beta   60.08285164
_cell_angle_gamma   59.83392680
_symmetry_Int_Tables_number   1
_chemical_formula_structural   Rb2GdHo5F20
_chemical_formula_sum   'Rb2 Gd1 Ho5 F20'
_cell_volume   400.13074601
_cell_formula_units_Z   1
loop_
 _symmetry_equiv_pos_site_id
 _symmetry_equiv_pos_as_xyz
  1  'x, y, z'
loop_
 _atom_site_type_symbol
 _atom_site_label
 _atom_site_symmetry_multiplicity
 _atom_site_fract_x
 _atom_site_fract_y
 _atom_site_fract_z
 _atom_site_occupancy
  Rb  Rb0  1  0.249843  0.249842  0.250157  1
  Rb  Rb1  1  0.749843  0.749842  0.750157  1
  Gd  Gd2  1  0.759304  0.759304  0.240696  1
  Ho  Ho3  1  0.759360  0.239903  0.240640  1
  Ho  Ho4  1  0.239906  0.759359  0.760094  1
  Ho  Ho5  1  0.239905  0.759359  0.240641  1
  Ho  Ho6  1  0.759359  0.239905  0.760095  1
  Ho  Ho7  1  0.240282  0.240282  0.759718  1
  F  F8  1  0.830686  0.495851  0.504148  1
  F  F9  1  0.171145  0.499991  0.500011  1
  F  F10  1  0.495852  0.830685  0.169314  1
  F  F11  1  0.499989  0.171146  0.828855  1
  F  F12  1  0.495849  0.830686  0.504151  1
  F  F13  1  0.171146  0.499991  0.828854  1
  F  F14  1  0.499991  0.171145  0.500009  1
  F  F15  1  0.830687  0.495849  0.169313  1
  F  F16  1  0.499963  0.499964  0.828613  1
  F  F17  1  0.499962  0.499963  0.171461  1
  F  F18  1  0.171387  0.828540  0.500037  1
  F  F19  1  0.828539  0.171386  0.500038  1
  F  F20  1  0.110526  0.110528  0.110097  1
  F  F21  1  0.891222  0.891226  0.884993  1
  F  F22  1  0.110527  0.110526  0.668851  1
  F  F23  1  0.115007  0.667441  0.108778  1
  F  F24  1  0.891228  0.891224  0.332556  1
  F  F25  1  0.889903  0.331151  0.889474  1
  F  F26  1  0.667444  0.115008  0.108772  1
  F  F27  1  0.331149  0.889904  0.889473  1
