# generated using pymatgen
data_Dy3HoB16Ir3Rh
_symmetry_space_group_name_H-M   'P 1'
_cell_length_a   3.57314700
_cell_length_b   5.97392916
_cell_length_c   11.58487809
_cell_angle_alpha   89.95723210
_cell_angle_beta   90.00000000
_cell_angle_gamma   90.00000000
_symmetry_Int_Tables_number   1
_chemical_formula_structural   Dy3HoB16Ir3Rh
_chemical_formula_sum   'Dy3 Ho1 B16 Ir3 Rh1'
_cell_volume   247.28757688
_cell_formula_units_Z   1
loop_
 _symmetry_equiv_pos_site_id
 _symmetry_equiv_pos_as_xyz
  1  'x, y, z'
loop_
 _atom_site_type_symbol
 _atom_site_label
 _atom_site_symmetry_multiplicity
 _atom_site_fract_x
 _atom_site_fract_y
 _atom_site_fract_z
 _atom_site_occupancy
  Dy  Dy0  1  0.500000  0.369193  0.148171  1
  Dy  Dy1  1  0.500000  0.630702  0.852154  1
  Dy  Dy2  1  0.500000  0.130978  0.648658  1
  Ho  Ho3  1  0.500000  0.868932  0.350748  1
  B  B4  1  0.000000  0.112337  0.046266  1
  B  B5  1  0.000000  0.887725  0.953163  1
  B  B6  1  0.000000  0.387752  0.546585  1
  B  B7  1  0.000000  0.612504  0.453235  1
  B  B8  1  0.000000  0.136177  0.469474  1
  B  B9  1  0.000000  0.863829  0.530119  1
  B  B10  1  0.000000  0.363797  0.969773  1
  B  B11  1  0.000000  0.636467  0.030224  1
  B  B12  1  0.000000  0.023336  0.192804  1
  B  B13  1  0.000000  0.976830  0.807221  1
  B  B14  1  0.000000  0.475213  0.692465  1
  B  B15  1  0.000000  0.525496  0.307278  1
  B  B16  1  0.000000  0.209104  0.312121  1
  B  B17  1  0.000000  0.790797  0.687814  1
  B  B18  1  0.000000  0.289654  0.812351  1
  B  B19  1  0.000000  0.710560  0.187735  1
  Ir  Ir20  1  0.500000  0.356415  0.403897  1
  Ir  Ir21  1  0.500000  0.644045  0.596737  1
  Ir  Ir22  1  0.500000  0.141017  0.904592  1
  Rh  Rh23  1  0.500000  0.857142  0.096412  1
