# generated using pymatgen
data_HoEr5(SiIr)4
_symmetry_space_group_name_H-M   'P 1'
_cell_length_a   5.53450122
_cell_length_b   5.53450046
_cell_length_c   13.18068936
_cell_angle_alpha   89.97513072
_cell_angle_beta   90.02486822
_cell_angle_gamma   136.81315455
_symmetry_Int_Tables_number   1
_chemical_formula_structural   HoEr5(SiIr)4
_chemical_formula_sum   'Ho1 Er5 Si4 Ir4'
_cell_volume   276.30715222
_cell_formula_units_Z   1
loop_
 _symmetry_equiv_pos_site_id
 _symmetry_equiv_pos_as_xyz
  1  'x, y, z'
loop_
 _atom_site_type_symbol
 _atom_site_label
 _atom_site_symmetry_multiplicity
 _atom_site_fract_x
 _atom_site_fract_y
 _atom_site_fract_z
 _atom_site_occupancy
  Ho  Ho0  1  0.774103  0.225897  0.604336  1
  Er  Er1  1  0.517802  0.482198  0.250002  1
  Er  Er2  1  0.225975  0.774025  0.395506  1
  Er  Er3  1  0.774068  0.225932  0.895629  1
  Er  Er4  1  0.482255  0.517745  0.750105  1
  Er  Er5  1  0.225965  0.774035  0.104424  1
  Si  Si6  1  0.062022  0.937978  0.590316  1
  Si  Si7  1  0.061970  0.938030  0.909646  1
  Si  Si8  1  0.938134  0.061866  0.409477  1
  Si  Si9  1  0.937995  0.062005  0.090399  1
  Ir  Ir10  1  0.811049  0.188951  0.250014  1
  Ir  Ir11  1  0.188788  0.811212  0.750242  1
  Ir  Ir12  1  0.499955  0.500045  0.000041  1
  Ir  Ir13  1  0.499921  0.500079  0.499862  1
