# generated using pymatgen
data_Tb7Sm(Dy3Pb4)4
_symmetry_space_group_name_H-M   'P 1'
_cell_length_a   8.21159903
_cell_length_b   8.29428403
_cell_length_c   15.64786500
_cell_angle_alpha   89.97763925
_cell_angle_beta   89.95080918
_cell_angle_gamma   90.01767874
_symmetry_Int_Tables_number   1
_chemical_formula_structural   Tb7Sm(Dy3Pb4)4
_chemical_formula_sum   'Tb7 Sm1 Dy12 Pb16'
_cell_volume   1065.76514895
_cell_formula_units_Z   1
loop_
 _symmetry_equiv_pos_site_id
 _symmetry_equiv_pos_as_xyz
  1  'x, y, z'
loop_
 _atom_site_type_symbol
 _atom_site_label
 _atom_site_symmetry_multiplicity
 _atom_site_fract_x
 _atom_site_fract_y
 _atom_site_fract_z
 _atom_site_occupancy
  Tb  Tb0  1  0.034235  0.176811  0.599872  1
  Tb  Tb1  1  0.465777  0.676883  0.399972  1
  Tb  Tb2  1  0.965935  0.823010  0.100013  1
  Tb  Tb3  1  0.465877  0.677043  0.100116  1
  Tb  Tb4  1  0.965761  0.823148  0.399982  1
  Tb  Tb5  1  0.534293  0.323057  0.600102  1
  Tb  Tb6  1  0.034160  0.176724  0.899993  1
  Sm  Sm7  1  0.533729  0.322776  0.900290  1
  Dy  Dy8  1  0.376402  0.840822  0.879344  1
  Dy  Dy9  1  0.876583  0.659092  0.620617  1
  Dy  Dy10  1  0.623450  0.159070  0.379314  1
  Dy  Dy11  1  0.123669  0.341060  0.120729  1
  Dy  Dy12  1  0.623700  0.158879  0.120903  1
  Dy  Dy13  1  0.123428  0.340991  0.379324  1
  Dy  Dy14  1  0.376546  0.840858  0.620536  1
  Dy  Dy15  1  0.876656  0.659281  0.879328  1
  Dy  Dy16  1  0.208122  0.504305  0.749789  1
  Dy  Dy17  1  0.708509  0.995783  0.749856  1
  Dy  Dy18  1  0.791646  0.495934  0.250026  1
  Dy  Dy19  1  0.291599  0.004039  0.250021  1
  Pb  Pb20  1  0.282279  0.033838  0.042731  1
  Pb  Pb21  1  0.782194  0.466187  0.457282  1
  Pb  Pb22  1  0.717796  0.966201  0.542633  1
  Pb  Pb23  1  0.216557  0.534720  0.957511  1
  Pb  Pb24  1  0.718240  0.965435  0.957464  1
  Pb  Pb25  1  0.217854  0.533761  0.542664  1
  Pb  Pb26  1  0.282200  0.033810  0.457219  1
  Pb  Pb27  1  0.783166  0.466905  0.043332  1
  Pb  Pb28  1  0.571961  0.626810  0.749926  1
  Pb  Pb29  1  0.071887  0.873633  0.749979  1
  Pb  Pb30  1  0.428068  0.373611  0.250003  1
  Pb  Pb31  1  0.928125  0.126303  0.249977  1
  Pb  Pb32  1  0.344220  0.151310  0.749350  1
  Pb  Pb33  1  0.845485  0.347888  0.749790  1
  Pb  Pb34  1  0.654945  0.847892  0.250006  1
  Pb  Pb35  1  0.154943  0.652131  0.250005  1
