# generated using pymatgen
data_Tb7Y5(BCl3)4
_symmetry_space_group_name_H-M   'P 1'
_cell_length_a   9.49232692
_cell_length_b   9.49079784
_cell_length_c   9.49244883
_cell_angle_alpha   109.51807147
_cell_angle_beta   109.49870062
_cell_angle_gamma   109.39428737
_symmetry_Int_Tables_number   1
_chemical_formula_structural   Tb7Y5(BCl3)4
_chemical_formula_sum   'Tb7 Y5 B4 Cl12'
_cell_volume   658.33249370
_cell_formula_units_Z   1
loop_
 _symmetry_equiv_pos_site_id
 _symmetry_equiv_pos_as_xyz
  1  'x, y, z'
loop_
 _atom_site_type_symbol
 _atom_site_label
 _atom_site_symmetry_multiplicity
 _atom_site_fract_x
 _atom_site_fract_y
 _atom_site_fract_z
 _atom_site_occupancy
  Tb  Tb0  1  0.470285  0.485060  0.234918  1
  Tb  Tb1  1  0.750124  0.235249  0.264949  1
  Tb  Tb2  1  0.749915  0.014832  0.485106  1
  Tb  Tb3  1  0.235312  0.470317  0.485108  1
  Tb  Tb4  1  0.264689  0.749876  0.234978  1
  Tb  Tb5  1  0.029956  0.264875  0.014849  1
  Tb  Tb6  1  0.014968  0.029694  0.265019  1
  Y  Y7  1  0.484621  0.750140  0.015331  1
  Y  Y8  1  0.484800  0.234653  0.469415  1
  Y  Y9  1  0.015259  0.484884  0.749968  1
  Y  Y10  1  0.265215  0.015208  0.030328  1
  Y  Y11  1  0.234906  0.265220  0.749998  1
  B  B12  1  0.250049  0.249958  0.249981  1
  B  B13  1  0.500000  0.999971  0.249921  1
  B  B14  1  0.000043  0.250036  0.500075  1
  B  B15  1  0.250052  0.500040  0.999890  1
  Cl  Cl16  1  0.249907  0.755641  0.745401  1
  Cl  Cl17  1  0.510507  0.505037  0.755330  1
  Cl  Cl18  1  0.989612  0.744330  0.993888  1
  Cl  Cl19  1  0.744353  0.250435  0.754767  1
  Cl  Cl20  1  0.995640  0.989558  0.745218  1
  Cl  Cl21  1  0.250429  0.995657  0.506059  1
  Cl  Cl22  1  0.755685  0.510443  0.506111  1
  Cl  Cl23  1  0.504389  0.249583  0.993884  1
  Cl  Cl24  1  0.755140  0.744671  0.249651  1
  Cl  Cl25  1  0.744101  0.993971  0.989259  1
  Cl  Cl26  1  0.994686  0.505333  0.249987  1
  Cl  Cl27  1  0.505356  0.755326  0.510612  1
