# generated using pymatgen
data_TbTm11ZnGaCo4
_symmetry_space_group_name_H-M   'P 1'
_cell_length_a   8.17291212
_cell_length_b   8.17291299
_cell_length_c   8.17269977
_cell_angle_alpha   111.84218766
_cell_angle_beta   110.15361140
_cell_angle_gamma   106.46497584
_symmetry_Int_Tables_number   1
_chemical_formula_structural   TbTm11ZnGaCo4
_chemical_formula_sum   'Tb1 Tm11 Zn1 Ga1 Co4'
_cell_volume   419.27554829
_cell_formula_units_Z   1
loop_
 _symmetry_equiv_pos_site_id
 _symmetry_equiv_pos_as_xyz
  1  'x, y, z'
loop_
 _atom_site_type_symbol
 _atom_site_label
 _atom_site_symmetry_multiplicity
 _atom_site_fract_x
 _atom_site_fract_y
 _atom_site_fract_z
 _atom_site_occupancy
  Tb  Tb0  1  0.819516  0.781619  0.601136  1
  Tm  Tm1  1  0.042278  0.737561  0.303187  1
  Tm  Tm2  1  0.958522  0.264276  0.696108  1
  Tm  Tm3  1  0.565625  0.260911  0.303187  1
  Tm  Tm4  1  0.431833  0.737585  0.696108  1
  Tm  Tm5  1  0.673040  0.863444  0.187928  1
  Tm  Tm6  1  0.324484  0.514888  0.187928  1
  Tm  Tm7  1  0.327346  0.137519  0.811171  1
  Tm  Tm8  1  0.673652  0.483825  0.811171  1
  Tm  Tm9  1  0.180656  0.219305  0.399961  1
  Tm  Tm10  1  0.819114  0.220240  0.039353  1
  Tm  Tm11  1  0.182021  0.780174  0.962195  1
  Zn  Zn12  1  0.000568  0.498266  0.498834  1
  Ga  Ga13  1  0.499969  0.999830  0.499799  1
  Co  Co14  1  0.660688  0.498553  0.159242  1
  Co  Co15  1  0.338553  0.499291  0.837844  1
  Co  Co16  1  0.884907  0.885196  0.002424  1
  Co  Co17  1  0.117228  0.117517  0.002424  1
