# generated using pymatgen
data_SmNbN2
_symmetry_space_group_name_H-M   'P 1'
_cell_length_a   3.35409300
_cell_length_b   5.76777200
_cell_length_c   11.05212000
_cell_angle_alpha   90.00000000
_cell_angle_beta   90.00000000
_cell_angle_gamma   90.00000000
_symmetry_Int_Tables_number   1
_chemical_formula_structural   SmNbN2
_chemical_formula_sum   'Sm4 Nb4 N8'
_cell_volume   213.81037555
_cell_formula_units_Z   4
loop_
 _symmetry_equiv_pos_site_id
 _symmetry_equiv_pos_as_xyz
  1  'x, y, z'
loop_
 _atom_site_type_symbol
 _atom_site_label
 _atom_site_symmetry_multiplicity
 _atom_site_fract_x
 _atom_site_fract_y
 _atom_site_fract_z
 _atom_site_occupancy
  Sm  Sm0  1  0.250000  0.585934  0.860922  1
  Sm  Sm1  1  0.750000  0.414066  0.139078  1
  Sm  Sm2  1  0.750000  0.914066  0.360922  1
  Sm  Sm3  1  0.250000  0.085934  0.639078  1
  Nb  Nb4  1  0.250000  0.916696  0.107746  1
  Nb  Nb5  1  0.750000  0.083304  0.892254  1
  Nb  Nb6  1  0.750000  0.583304  0.607746  1
  Nb  Nb7  1  0.250000  0.416696  0.392254  1
  N  N8  1  0.250000  0.661441  0.246497  1
  N  N9  1  0.750000  0.338559  0.753503  1
  N  N10  1  0.750000  0.838559  0.746497  1
  N  N11  1  0.250000  0.161441  0.253503  1
  N  N12  1  0.250000  0.736300  0.510522  1
  N  N13  1  0.750000  0.263700  0.489478  1
  N  N14  1  0.750000  0.763700  0.010522  1
  N  N15  1  0.250000  0.236300  0.989478  1
