# generated using pymatgen
data_Lu15Pa(CdCo)4
_symmetry_space_group_name_H-M   'P 1'
_cell_length_a   9.27886492
_cell_length_b   9.36550884
_cell_length_c   9.27886600
_cell_angle_alpha   60.30556757
_cell_angle_beta   60.00000327
_cell_angle_gamma   60.30556447
_symmetry_Int_Tables_number   1
_chemical_formula_structural   Lu15Pa(CdCo)4
_chemical_formula_sum   'Lu15 Pa1 Cd4 Co4'
_cell_volume   572.79158114
_cell_formula_units_Z   1
loop_
 _symmetry_equiv_pos_site_id
 _symmetry_equiv_pos_as_xyz
  1  'x, y, z'
loop_
 _atom_site_type_symbol
 _atom_site_label
 _atom_site_symmetry_multiplicity
 _atom_site_fract_x
 _atom_site_fract_y
 _atom_site_fract_z
 _atom_site_occupancy
  Lu  Lu0  1  0.686252  0.315490  0.686252  1
  Lu  Lu1  1  0.686252  0.315490  0.312004  1
  Lu  Lu2  1  0.938643  0.560893  0.561821  1
  Lu  Lu3  1  0.543958  0.150413  0.152814  1
  Lu  Lu4  1  0.152814  0.150413  0.543958  1
  Lu  Lu5  1  0.938036  0.934873  0.563546  1
  Lu  Lu6  1  0.311127  0.691767  0.311127  1
  Lu  Lu7  1  0.563546  0.934873  0.938036  1
  Lu  Lu8  1  0.563546  0.934873  0.563546  1
  Lu  Lu9  1  0.685979  0.691767  0.311127  1
  Lu  Lu10  1  0.561821  0.560893  0.938643  1
  Lu  Lu11  1  0.938643  0.560893  0.938643  1
  Lu  Lu12  1  0.311127  0.691767  0.685979  1
  Lu  Lu13  1  0.152814  0.150413  0.152814  1
  Lu  Lu14  1  0.312004  0.315490  0.686252  1
  Pa  Pa15  1  0.164154  0.507537  0.164154  1
  Cd  Cd16  1  0.920897  0.237308  0.920897  1
  Cd  Cd17  1  0.920109  0.914127  0.920109  1
  Cd  Cd18  1  0.920109  0.914127  0.245655  1
  Cd  Cd19  1  0.245655  0.914127  0.920109  1
  Co  Co20  1  0.345483  0.375152  0.933885  1
  Co  Co21  1  0.357663  0.927011  0.357663  1
  Co  Co22  1  0.933885  0.375152  0.345483  1
  Co  Co23  1  0.345483  0.375152  0.345483  1
