# generated using pymatgen
data_Dy13Ho3In4(IrRh)2
_symmetry_space_group_name_H-M   'P 1'
_cell_length_a   9.67160708
_cell_length_b   9.65275669
_cell_length_c   9.65505716
_cell_angle_alpha   59.88918398
_cell_angle_beta   59.94328082
_cell_angle_gamma   59.93538062
_symmetry_Int_Tables_number   1
_chemical_formula_structural   Dy13Ho3In4(IrRh)2
_chemical_formula_sum   'Dy13 Ho3 In4 Ir2 Rh2'
_cell_volume   636.24827150
_cell_formula_units_Z   1
loop_
 _symmetry_equiv_pos_site_id
 _symmetry_equiv_pos_as_xyz
  1  'x, y, z'
loop_
 _atom_site_type_symbol
 _atom_site_label
 _atom_site_symmetry_multiplicity
 _atom_site_fract_x
 _atom_site_fract_y
 _atom_site_fract_z
 _atom_site_occupancy
  Dy  Dy0  1  0.938284  0.939302  0.560846  1
  Dy  Dy1  1  0.150650  0.149567  0.549132  1
  Dy  Dy2  1  0.561568  0.939302  0.560846  1
  Dy  Dy3  1  0.151225  0.150338  0.150699  1
  Dy  Dy4  1  0.309889  0.311339  0.689301  1
  Dy  Dy5  1  0.940074  0.560118  0.559735  1
  Dy  Dy6  1  0.561287  0.560920  0.939762  1
  Dy  Dy7  1  0.562494  0.937173  0.937838  1
  Dy  Dy8  1  0.938031  0.560920  0.939762  1
  Dy  Dy9  1  0.150470  0.549446  0.149612  1
  Dy  Dy10  1  0.310709  0.689519  0.689063  1
  Dy  Dy11  1  0.689471  0.311339  0.689301  1
  Dy  Dy12  1  0.547738  0.150338  0.150699  1
  Ho  Ho13  1  0.689375  0.310874  0.310375  1
  Ho  Ho14  1  0.689288  0.689370  0.311144  1
  Ho  Ho15  1  0.310198  0.689370  0.311144  1
  In  In16  1  0.916912  0.917361  0.248814  1
  In  In17  1  0.249027  0.917151  0.917270  1
  In  In18  1  0.916901  0.248760  0.917437  1
  In  In19  1  0.916552  0.917151  0.917270  1
  Ir  Ir20  1  0.358220  0.358408  0.357937  1
  Ir  Ir21  1  0.925436  0.358408  0.357937  1
  Rh  Rh22  1  0.357950  0.358362  0.925739  1
  Rh  Rh23  1  0.358250  0.925165  0.358335  1
