# generated using pymatgen
data_Li4Dy3LuPt4
_symmetry_space_group_name_H-M   'P 1'
_cell_length_a   4.01629100
_cell_length_b   6.99815578
_cell_length_c   8.35180530
_cell_angle_alpha   89.75167022
_cell_angle_beta   90.00000000
_cell_angle_gamma   90.00000000
_symmetry_Int_Tables_number   1
_chemical_formula_structural   Li4Dy3LuPt4
_chemical_formula_sum   'Li4 Dy3 Lu1 Pt4'
_cell_volume   234.73889732
_cell_formula_units_Z   1
loop_
 _symmetry_equiv_pos_site_id
 _symmetry_equiv_pos_as_xyz
  1  'x, y, z'
loop_
 _atom_site_type_symbol
 _atom_site_label
 _atom_site_symmetry_multiplicity
 _atom_site_fract_x
 _atom_site_fract_y
 _atom_site_fract_z
 _atom_site_occupancy
  Li  Li0  1  0.250000  0.633773  0.559499  1
  Li  Li1  1  0.750000  0.366958  0.439067  1
  Li  Li2  1  0.750000  0.869651  0.061308  1
  Li  Li3  1  0.250000  0.130797  0.940917  1
  Dy  Dy4  1  0.250000  0.539910  0.183825  1
  Dy  Dy5  1  0.750000  0.458609  0.818035  1
  Dy  Dy6  1  0.750000  0.959610  0.679891  1
  Lu  Lu7  1  0.250000  0.040824  0.319079  1
  Pt  Pt8  1  0.250000  0.747880  0.879135  1
  Pt  Pt9  1  0.750000  0.247344  0.124611  1
  Pt  Pt10  1  0.750000  0.756461  0.376772  1
  Pt  Pt11  1  0.250000  0.248184  0.617861  1
