# generated using pymatgen
data_Dy7Lu3(PaGa10)2
_symmetry_space_group_name_H-M   'P 1'
_cell_length_a   6.11723104
_cell_length_b   9.61173775
_cell_length_c   11.46702905
_cell_angle_alpha   89.99383696
_cell_angle_beta   89.99134600
_cell_angle_gamma   90.02710572
_symmetry_Int_Tables_number   1
_chemical_formula_structural   Dy7Lu3(PaGa10)2
_chemical_formula_sum   'Dy7 Lu3 Pa2 Ga20'
_cell_volume   674.22934832
_cell_formula_units_Z   1
loop_
 _symmetry_equiv_pos_site_id
 _symmetry_equiv_pos_as_xyz
  1  'x, y, z'
loop_
 _atom_site_type_symbol
 _atom_site_label
 _atom_site_symmetry_multiplicity
 _atom_site_fract_x
 _atom_site_fract_y
 _atom_site_fract_z
 _atom_site_occupancy
  Dy  Dy0  1  0.353363  0.251934  0.425339  1
  Dy  Dy1  1  0.111932  0.009148  0.648883  1
  Dy  Dy2  1  0.387849  0.490815  0.148442  1
  Dy  Dy3  1  0.111585  0.489961  0.648862  1
  Dy  Dy4  1  0.388182  0.010210  0.148475  1
  Dy  Dy5  1  0.888561  0.990435  0.351461  1
  Dy  Dy6  1  0.611232  0.509503  0.851528  1
  Lu  Lu7  1  0.851783  0.749279  0.074521  1
  Lu  Lu8  1  0.648321  0.750711  0.574452  1
  Lu  Lu9  1  0.147152  0.247914  0.924996  1
  Pa  Pa10  1  0.886420  0.511341  0.353807  1
  Pa  Pa11  1  0.613242  0.988809  0.853771  1
  Ga  Ga12  1  0.871711  0.053148  0.089941  1
  Ga  Ga13  1  0.628758  0.447057  0.590225  1
  Ga  Ga14  1  0.127660  0.551332  0.907978  1
  Ga  Ga15  1  0.372176  0.947721  0.407797  1
  Ga  Ga16  1  0.124371  0.947292  0.909092  1
  Ga  Ga17  1  0.375505  0.553692  0.408956  1
  Ga  Ga18  1  0.872252  0.447076  0.091063  1
  Ga  Ga19  1  0.628071  0.052714  0.591320  1
  Ga  Ga20  1  0.171461  0.749710  0.254668  1
  Ga  Ga21  1  0.328667  0.750271  0.754665  1
  Ga  Ga22  1  0.826122  0.248867  0.746573  1
  Ga  Ga23  1  0.675098  0.251128  0.245805  1
  Ga  Ga24  1  0.376786  0.750957  0.002257  1
  Ga  Ga25  1  0.123038  0.749028  0.502307  1
  Ga  Ga26  1  0.623407  0.248811  0.994570  1
  Ga  Ga27  1  0.875643  0.251180  0.494776  1
  Ga  Ga28  1  0.602919  0.750073  0.299409  1
  Ga  Ga29  1  0.897270  0.749909  0.799445  1
  Ga  Ga30  1  0.400618  0.247601  0.702863  1
  Ga  Ga31  1  0.098845  0.252372  0.201751  1
