# generated using pymatgen
data_PrEu3(SiPd2)4
_symmetry_space_group_name_H-M   'P 1'
_cell_length_a   5.70099226
_cell_length_b   6.98993900
_cell_length_c   7.67432555
_cell_angle_alpha   90.00000000
_cell_angle_beta   90.09772410
_cell_angle_gamma   90.00000000
_symmetry_Int_Tables_number   1
_chemical_formula_structural   PrEu3(SiPd2)4
_chemical_formula_sum   'Pr1 Eu3 Si4 Pd8'
_cell_volume   305.81826758
_cell_formula_units_Z   1
loop_
 _symmetry_equiv_pos_site_id
 _symmetry_equiv_pos_as_xyz
  1  'x, y, z'
loop_
 _atom_site_type_symbol
 _atom_site_label
 _atom_site_symmetry_multiplicity
 _atom_site_fract_x
 _atom_site_fract_y
 _atom_site_fract_z
 _atom_site_occupancy
  Pr  Pr0  1  0.858917  0.250000  0.469198  1
  Eu  Eu1  1  0.362891  0.750000  0.030123  1
  Eu  Eu2  1  0.139665  0.750000  0.530326  1
  Eu  Eu3  1  0.637164  0.250000  0.970585  1
  Si  Si4  1  0.644722  0.750000  0.373348  1
  Si  Si5  1  0.857441  0.750000  0.873748  1
  Si  Si6  1  0.356370  0.250000  0.628006  1
  Si  Si7  1  0.143197  0.250000  0.124598  1
  Pd  Pd8  1  0.905837  0.553391  0.170892  1
  Pd  Pd9  1  0.597598  0.946021  0.668711  1
  Pd  Pd10  1  0.093062  0.053831  0.830105  1
  Pd  Pd11  1  0.403320  0.445936  0.330325  1
  Pd  Pd12  1  0.093062  0.446169  0.830105  1
  Pd  Pd13  1  0.403320  0.054064  0.330325  1
  Pd  Pd14  1  0.905837  0.946609  0.170892  1
  Pd  Pd15  1  0.597598  0.553979  0.668711  1
