# generated using pymatgen
data_Sm5Ho(Sn3Hg2)2
_symmetry_space_group_name_H-M   'P 1'
_cell_length_a   6.51198481
_cell_length_b   6.51198479
_cell_length_c   10.30749400
_cell_angle_alpha   90.00000000
_cell_angle_beta   90.00000000
_cell_angle_gamma   102.93779098
_symmetry_Int_Tables_number   1
_chemical_formula_structural   Sm5Ho(Sn3Hg2)2
_chemical_formula_sum   'Sm5 Ho1 Sn6 Hg4'
_cell_volume   426.00272104
_cell_formula_units_Z   1
loop_
 _symmetry_equiv_pos_site_id
 _symmetry_equiv_pos_as_xyz
  1  'x, y, z'
loop_
 _atom_site_type_symbol
 _atom_site_label
 _atom_site_symmetry_multiplicity
 _atom_site_fract_x
 _atom_site_fract_y
 _atom_site_fract_z
 _atom_site_occupancy
  Sm  Sm0  1  0.377842  0.377842  0.750000  1
  Sm  Sm1  1  0.795286  0.205518  0.000522  1
  Sm  Sm2  1  0.205518  0.795286  0.000522  1
  Sm  Sm3  1  0.205518  0.795286  0.499478  1
  Sm  Sm4  1  0.795286  0.205518  0.499478  1
  Ho  Ho5  1  0.624091  0.624091  0.250000  1
  Sn  Sn6  1  0.062432  0.493802  0.250000  1
  Sn  Sn7  1  0.934594  0.507480  0.750000  1
  Sn  Sn8  1  0.493802  0.062432  0.250000  1
  Sn  Sn9  1  0.507480  0.934594  0.750000  1
  Sn  Sn10  1  0.010947  0.010947  0.250000  1
  Sn  Sn11  1  0.986586  0.986586  0.750000  1
  Hg  Hg12  1  0.313060  0.313060  0.042053  1
  Hg  Hg13  1  0.687250  0.687250  0.962202  1
  Hg  Hg14  1  0.687250  0.687250  0.537798  1
  Hg  Hg15  1  0.313060  0.313060  0.457947  1
