# generated using pymatgen
data_Th4Cd2CoPd3
_symmetry_space_group_name_H-M   'P 1'
_cell_length_a   7.87936805
_cell_length_b   7.87936805
_cell_length_c   3.77333600
_cell_angle_alpha   90.00000000
_cell_angle_beta   90.00000000
_cell_angle_gamma   89.61249457
_symmetry_Int_Tables_number   1
_chemical_formula_structural   Th4Cd2CoPd3
_chemical_formula_sum   'Th4 Cd2 Co1 Pd3'
_cell_volume   234.26009806
_cell_formula_units_Z   1
loop_
 _symmetry_equiv_pos_site_id
 _symmetry_equiv_pos_as_xyz
  1  'x, y, z'
loop_
 _atom_site_type_symbol
 _atom_site_label
 _atom_site_symmetry_multiplicity
 _atom_site_fract_x
 _atom_site_fract_y
 _atom_site_fract_z
 _atom_site_occupancy
  Th  Th0  1  0.323818  0.845559  0.500000  1
  Th  Th1  1  0.831863  0.668137  0.500000  1
  Th  Th2  1  0.189807  0.310193  0.500000  1
  Th  Th3  1  0.654441  0.176182  0.500000  1
  Cd  Cd4  1  0.996928  0.001641  0.000000  1
  Cd  Cd5  1  0.498359  0.503072  0.000000  1
  Co  Co6  1  0.372732  0.127268  0.000000  1
  Pd  Pd7  1  0.872512  0.368632  0.000000  1
  Pd  Pd8  1  0.131368  0.627488  0.000000  1
  Pd  Pd9  1  0.628172  0.871828  0.000000  1
