# generated using pymatgen
data_Ca5Yb(TmSb3)2
_symmetry_space_group_name_H-M   'P 1'
_cell_length_a   8.17881673
_cell_length_b   8.16133343
_cell_length_c   8.09988275
_cell_angle_alpha   109.46350531
_cell_angle_beta   109.55392678
_cell_angle_gamma   109.76627621
_symmetry_Int_Tables_number   1
_chemical_formula_structural   Ca5Yb(TmSb3)2
_chemical_formula_sum   'Ca5 Yb1 Tm2 Sb6'
_cell_volume   414.29215610
_cell_formula_units_Z   1
loop_
 _symmetry_equiv_pos_site_id
 _symmetry_equiv_pos_as_xyz
  1  'x, y, z'
loop_
 _atom_site_type_symbol
 _atom_site_label
 _atom_site_symmetry_multiplicity
 _atom_site_fract_x
 _atom_site_fract_y
 _atom_site_fract_z
 _atom_site_occupancy
  Ca  Ca0  1  0.003975  0.355507  0.499250  1
  Ca  Ca1  1  0.351685  0.494378  0.996231  1
  Ca  Ca2  1  0.004504  0.856181  0.500571  1
  Ca  Ca3  1  0.855616  0.498393  0.003863  1
  Ca  Ca4  1  0.499096  0.003922  0.858565  1
  Yb  Yb5  1  0.140562  0.145433  0.141497  1
  Tm  Tm6  1  0.498823  0.000152  0.353628  1
  Tm  Tm7  1  0.645314  0.646372  0.646304  1
  Sb  Sb8  1  0.863203  0.113186  0.737290  1
  Sb  Sb9  1  0.383801  0.253537  0.619712  1
  Sb  Sb10  1  0.121737  0.751831  0.880240  1
  Sb  Sb11  1  0.741938  0.871731  0.119973  1
  Sb  Sb12  1  0.264003  0.633344  0.379896  1
  Sb  Sb13  1  0.625741  0.376030  0.262979  1
