# generated using pymatgen
data_Zr3Ta2Nb3(Co4P3)4
_symmetry_space_group_name_H-M   'P 1'
_cell_length_a   11.95764802
_cell_length_b   11.96800638
_cell_length_c   3.64787000
_cell_angle_alpha   90.00000000
_cell_angle_beta   90.00000000
_cell_angle_gamma   119.97772245
_symmetry_Int_Tables_number   1
_chemical_formula_structural   Zr3Ta2Nb3(Co4P3)4
_chemical_formula_sum   'Zr3 Ta2 Nb3 Co16 P12'
_cell_volume   452.20463575
_cell_formula_units_Z   1
loop_
 _symmetry_equiv_pos_site_id
 _symmetry_equiv_pos_as_xyz
  1  'x, y, z'
loop_
 _atom_site_type_symbol
 _atom_site_label
 _atom_site_symmetry_multiplicity
 _atom_site_fract_x
 _atom_site_fract_y
 _atom_site_fract_z
 _atom_site_occupancy
  Zr  Zr0  1  0.822857  0.000122  0.500000  1
  Zr  Zr1  1  0.333737  0.666960  0.000000  1
  Zr  Zr2  1  0.666852  0.333424  0.000000  1
  Ta  Ta3  1  0.445394  0.999990  0.000000  1
  Ta  Ta4  1  0.000270  0.446878  0.000000  1
  Nb  Nb5  1  0.999850  0.821377  0.500000  1
  Nb  Nb6  1  0.178670  0.178952  0.500000  1
  Nb  Nb7  1  0.552577  0.552256  0.000000  1
  Co  Co8  1  0.274100  0.000129  0.500000  1
  Co  Co9  1  0.001830  0.277062  0.500000  1
  Co  Co10  1  0.725621  0.723764  0.500000  1
  Co  Co11  1  0.627738  0.806499  0.000000  1
  Co  Co12  1  0.191714  0.821746  0.000000  1
  Co  Co13  1  0.178947  0.370635  0.000000  1
  Co  Co14  1  0.369980  0.178224  0.000000  1
  Co  Co15  1  0.808897  0.629337  0.000000  1
  Co  Co16  1  0.821816  0.194089  0.000000  1
  Co  Co17  1  0.515218  0.871951  0.500000  1
  Co  Co18  1  0.127664  0.644620  0.500000  1
  Co  Co19  1  0.354498  0.483334  0.500000  1
  Co  Co20  1  0.482552  0.354023  0.500000  1
  Co  Co21  1  0.872211  0.516187  0.500000  1
  Co  Co22  1  0.643503  0.128355  0.500000  1
  Co  Co23  1  0.001705  0.999837  0.000000  1
  P  P24  1  0.174860  0.000018  0.000000  1
  P  P25  1  0.001827  0.175387  0.000000  1
  P  P26  1  0.825919  0.824166  0.000000  1
  P  P27  1  0.520596  0.689683  0.500000  1
  P  P28  1  0.309925  0.830408  0.500000  1
  P  P29  1  0.169841  0.480857  0.500000  1
  P  P30  1  0.479576  0.169401  0.500000  1
  P  P31  1  0.689248  0.519370  0.500000  1
  P  P32  1  0.830747  0.310378  0.500000  1
  P  P33  1  0.647868  0.999966  0.000000  1
  P  P34  1  0.000191  0.649555  0.000000  1
  P  P35  1  0.351201  0.351062  0.000000  1
