# generated using pymatgen
data_La2Nd4TaMoO14
_symmetry_space_group_name_H-M   'P 1'
_cell_length_a   6.69088787
_cell_length_b   6.69088792
_cell_length_c   7.78753633
_cell_angle_alpha   89.79211018
_cell_angle_beta   90.20789612
_cell_angle_gamma   109.26476821
_symmetry_Int_Tables_number   1
_chemical_formula_structural   La2Nd4TaMoO14
_chemical_formula_sum   'La2 Nd4 Ta1 Mo1 O14'
_cell_volume   329.10701019
_cell_formula_units_Z   1
loop_
 _symmetry_equiv_pos_site_id
 _symmetry_equiv_pos_as_xyz
  1  'x, y, z'
loop_
 _atom_site_type_symbol
 _atom_site_label
 _atom_site_symmetry_multiplicity
 _atom_site_fract_x
 _atom_site_fract_y
 _atom_site_fract_z
 _atom_site_occupancy
  La  La0  1  0.500000  0.500000  0.500000  1
  La  La1  1  0.500000  0.500000  0.000000  1
  Nd  Nd2  1  0.999745  0.535700  0.248918  1
  Nd  Nd3  1  0.000255  0.464300  0.751082  1
  Nd  Nd4  1  0.535700  0.999745  0.751082  1
  Nd  Nd5  1  0.464300  0.000255  0.248918  1
  Ta  Ta6  1  0.000000  0.000000  0.000000  1
  Mo  Mo7  1  0.000000  0.000000  0.500000  1
  O  O8  1  0.939618  0.060382  0.751337  1
  O  O9  1  0.060382  0.939618  0.248663  1
  O  O10  1  0.364012  0.635988  0.250250  1
  O  O11  1  0.635988  0.364012  0.749750  1
  O  O12  1  0.368908  0.631092  0.749839  1
  O  O13  1  0.631092  0.368908  0.250161  1
  O  O14  1  0.312736  0.066936  0.970060  1
  O  O15  1  0.687717  0.931055  0.472108  1
  O  O16  1  0.312283  0.068945  0.527892  1
  O  O17  1  0.687264  0.933064  0.029940  1
  O  O18  1  0.068945  0.312283  0.472108  1
  O  O19  1  0.933064  0.687264  0.970060  1
  O  O20  1  0.931055  0.687717  0.527892  1
  O  O21  1  0.066936  0.312736  0.029940  1
