# generated using pymatgen
data_Tb5Yb3(LuRu2)2
_symmetry_space_group_name_H-M   'P 1'
_cell_length_a   6.41282190
_cell_length_b   7.21492579
_cell_length_c   8.47784975
_cell_angle_alpha   96.74699650
_cell_angle_beta   111.74278201
_cell_angle_gamma   89.79636010
_symmetry_Int_Tables_number   1
_chemical_formula_structural   Tb5Yb3(LuRu2)2
_chemical_formula_sum   'Tb5 Yb3 Lu2 Ru4'
_cell_volume   361.48401458
_cell_formula_units_Z   1
loop_
 _symmetry_equiv_pos_site_id
 _symmetry_equiv_pos_as_xyz
  1  'x, y, z'
loop_
 _atom_site_type_symbol
 _atom_site_label
 _atom_site_symmetry_multiplicity
 _atom_site_fract_x
 _atom_site_fract_y
 _atom_site_fract_z
 _atom_site_occupancy
  Tb  Tb0  1  0.295398  0.583702  0.820656  1
  Tb  Tb1  1  0.296669  0.316826  0.431432  1
  Tb  Tb2  1  0.704720  0.685643  0.568700  1
  Tb  Tb3  1  0.869004  0.187300  0.567333  1
  Tb  Tb4  1  0.136764  0.812788  0.432255  1
  Yb  Yb5  1  0.519176  0.082872  0.819079  1
  Yb  Yb6  1  0.478026  0.920482  0.184688  1
  Yb  Yb7  1  0.706033  0.418116  0.183191  1
  Lu  Lu8  1  0.066164  0.249091  0.000314  1
  Lu  Lu9  1  0.928581  0.750679  0.001063  1
  Ru  Ru10  1  0.310587  0.567886  0.212754  1
  Ru  Ru11  1  0.680924  0.430647  0.774335  1
  Ru  Ru12  1  0.091188  0.923721  0.776091  1
  Ru  Ru13  1  0.916765  0.070248  0.228109  1
