# generated using pymatgen
data_Zn19Fe7
_symmetry_space_group_name_H-M   'P 1'
_cell_length_a   7.78294646
_cell_length_b   7.78294643
_cell_length_c   7.78294649
_cell_angle_alpha   109.35042796
_cell_angle_beta   109.35043098
_cell_angle_gamma   109.35041694
_symmetry_Int_Tables_number   1
_chemical_formula_structural   Zn19Fe7
_chemical_formula_sum   'Zn19 Fe7'
_cell_volume   364.53350625
_cell_formula_units_Z   1
loop_
 _symmetry_equiv_pos_site_id
 _symmetry_equiv_pos_as_xyz
  1  'x, y, z'
loop_
 _atom_site_type_symbol
 _atom_site_label
 _atom_site_symmetry_multiplicity
 _atom_site_fract_x
 _atom_site_fract_y
 _atom_site_fract_z
 _atom_site_occupancy
  Zn  Zn0  1  0.797175  0.797175  0.797175  1
  Zn  Zn1  1  0.393391  0.642500  0.642500  1
  Zn  Zn2  1  0.605320  0.250287  0.250287  1
  Zn  Zn3  1  0.998266  0.357412  0.752844  1
  Zn  Zn4  1  0.642500  0.642500  0.393391  1
  Zn  Zn5  1  0.998266  0.752844  0.357412  1
  Zn  Zn6  1  0.250287  0.250287  0.605320  1
  Zn  Zn7  1  0.357412  0.752844  0.998266  1
  Zn  Zn8  1  0.752844  0.357412  0.998266  1
  Zn  Zn9  1  0.642500  0.393391  0.642500  1
  Zn  Zn10  1  0.752844  0.998266  0.357412  1
  Zn  Zn11  1  0.357412  0.998266  0.752844  1
  Zn  Zn12  1  0.250287  0.605320  0.250287  1
  Zn  Zn13  1  0.644366  0.644366  0.003167  1
  Zn  Zn14  1  0.352557  0.352557  0.997500  1
  Zn  Zn15  1  0.644366  0.003167  0.644366  1
  Zn  Zn16  1  0.352557  0.997500  0.352557  1
  Zn  Zn17  1  0.003167  0.644366  0.644366  1
  Zn  Zn18  1  0.997500  0.352557  0.352557  1
  Fe  Fe19  1  0.202684  0.998405  0.998405  1
  Fe  Fe20  1  0.998405  0.202684  0.998405  1
  Fe  Fe21  1  0.998405  0.998405  0.202684  1
  Fe  Fe22  1  0.316711  0.316711  0.316711  1
  Fe  Fe23  1  0.677159  0.006809  0.006809  1
  Fe  Fe24  1  0.006809  0.677159  0.006809  1
  Fe  Fe25  1  0.006809  0.006809  0.677159  1
