# generated using pymatgen
data_Pa2MnAl20Cr3
_symmetry_space_group_name_H-M   'P 1'
_cell_length_a   6.83189791
_cell_length_b   6.82451352
_cell_length_c   9.10555400
_cell_angle_alpha   89.99492067
_cell_angle_beta   90.09254518
_cell_angle_gamma   97.52381316
_symmetry_Int_Tables_number   1
_chemical_formula_structural   Pa2MnAl20Cr3
_chemical_formula_sum   'Pa2 Mn1 Al20 Cr3'
_cell_volume   420.88518171
_cell_formula_units_Z   1
loop_
 _symmetry_equiv_pos_site_id
 _symmetry_equiv_pos_as_xyz
  1  'x, y, z'
loop_
 _atom_site_type_symbol
 _atom_site_label
 _atom_site_symmetry_multiplicity
 _atom_site_fract_x
 _atom_site_fract_y
 _atom_site_fract_z
 _atom_site_occupancy
  Pa  Pa0  1  0.868862  0.127853  0.748262  1
  Pa  Pa1  1  0.131138  0.872147  0.251738  1
  Mn  Mn2  1  0.000000  0.500000  0.000000  1
  Al  Al3  1  0.522608  0.783306  0.750688  1
  Al  Al4  1  0.785529  0.523046  0.249313  1
  Al  Al5  1  0.477392  0.216694  0.249312  1
  Al  Al6  1  0.214471  0.476954  0.750687  1
  Al  Al7  1  0.627030  0.374863  0.956565  1
  Al  Al8  1  0.372970  0.625137  0.043435  1
  Al  Al9  1  0.626055  0.374919  0.543697  1
  Al  Al10  1  0.373945  0.625081  0.456303  1
  Al  Al11  1  0.408278  0.136386  0.750546  1
  Al  Al12  1  0.134963  0.408225  0.248894  1
  Al  Al13  1  0.591722  0.863614  0.249454  1
  Al  Al14  1  0.865037  0.591775  0.751106  1
  Al  Al15  1  0.843904  0.156226  0.400763  1
  Al  Al16  1  0.156096  0.843774  0.599237  1
  Al  Al17  1  0.845849  0.156334  0.097717  1
  Al  Al18  1  0.154151  0.843666  0.902283  1
  Al  Al19  1  0.774445  0.771847  0.000529  1
  Al  Al20  1  0.772809  0.771989  0.499920  1
  Al  Al21  1  0.225555  0.228153  0.999471  1
  Al  Al22  1  0.227191  0.228011  0.500080  1
  Cr  Cr23  1  0.500000  0.000000  0.000000  1
  Cr  Cr24  1  0.500000  0.000000  0.500000  1
  Cr  Cr25  1  0.000000  0.500000  0.500000  1
