# generated using pymatgen
data_DyEr2TmSb10
_symmetry_space_group_name_H-M   'P 1'
_cell_length_a   4.20894700
_cell_length_b   13.17788278
_cell_length_c   14.60444782
_cell_angle_alpha   78.36664173
_cell_angle_beta   90.00000000
_cell_angle_gamma   90.00000000
_symmetry_Int_Tables_number   1
_chemical_formula_structural   DyEr2TmSb10
_chemical_formula_sum   'Dy2 Er4 Tm2 Sb20'
_cell_volume   793.39610165
_cell_formula_units_Z   2
loop_
 _symmetry_equiv_pos_site_id
 _symmetry_equiv_pos_as_xyz
  1  'x, y, z'
loop_
 _atom_site_type_symbol
 _atom_site_label
 _atom_site_symmetry_multiplicity
 _atom_site_fract_x
 _atom_site_fract_y
 _atom_site_fract_z
 _atom_site_occupancy
  Dy  Dy0  1  0.250000  0.953343  0.359195  1
  Dy  Dy1  1  0.750000  0.046657  0.640805  1
  Er  Er2  1  0.250000  0.661789  0.855887  1
  Er  Er3  1  0.750000  0.338211  0.144113  1
  Er  Er4  1  0.250000  0.668587  0.576348  1
  Er  Er5  1  0.750000  0.331413  0.423652  1
  Tm  Tm6  1  0.250000  0.395075  0.770493  1
  Tm  Tm7  1  0.750000  0.604925  0.229507  1
  Sb  Sb8  1  0.250000  0.144418  0.778720  1
  Sb  Sb9  1  0.750000  0.855582  0.221280  1
  Sb  Sb10  1  0.250000  0.144482  0.482346  1
  Sb  Sb11  1  0.750000  0.855518  0.517654  1
  Sb  Sb12  1  0.250000  0.153065  0.171220  1
  Sb  Sb13  1  0.750000  0.846935  0.828780  1
  Sb  Sb14  1  0.250000  0.420595  0.975086  1
  Sb  Sb15  1  0.750000  0.579405  0.024914  1
  Sb  Sb16  1  0.750000  0.029026  0.909105  1
  Sb  Sb17  1  0.250000  0.970974  0.090895  1
  Sb  Sb18  1  0.750000  0.140095  0.322266  1
  Sb  Sb19  1  0.250000  0.859905  0.677734  1
  Sb  Sb20  1  0.750000  0.279382  0.936845  1
  Sb  Sb21  1  0.250000  0.720618  0.063155  1
  Sb  Sb22  1  0.750000  0.285714  0.652958  1
  Sb  Sb23  1  0.250000  0.714286  0.347042  1
  Sb  Sb24  1  0.750000  0.575829  0.734373  1
  Sb  Sb25  1  0.250000  0.424171  0.265627  1
  Sb  Sb26  1  0.750000  0.572329  0.447192  1
  Sb  Sb27  1  0.250000  0.427671  0.552808  1
