# generated using pymatgen
data_ScNiSnH
_symmetry_space_group_name_H-M   'P 1'
_cell_length_a   4.07641600
_cell_length_b   6.86830900
_cell_length_c   8.03869400
_cell_angle_alpha   90.00000000
_cell_angle_beta   90.00000000
_cell_angle_gamma   90.00000000
_symmetry_Int_Tables_number   1
_chemical_formula_structural   ScNiSnH
_chemical_formula_sum   'Sc4 Ni4 Sn4 H4'
_cell_volume   225.06803549
_cell_formula_units_Z   4
loop_
 _symmetry_equiv_pos_site_id
 _symmetry_equiv_pos_as_xyz
  1  'x, y, z'
loop_
 _atom_site_type_symbol
 _atom_site_label
 _atom_site_symmetry_multiplicity
 _atom_site_fract_x
 _atom_site_fract_y
 _atom_site_fract_z
 _atom_site_occupancy
  Sc  Sc0  1  0.750000  0.516292  0.818282  1
  Sc  Sc1  1  0.250000  0.483708  0.181718  1
  Sc  Sc2  1  0.250000  0.983708  0.318282  1
  Sc  Sc3  1  0.750000  0.016292  0.681718  1
  Ni  Ni4  1  0.750000  0.267834  0.386061  1
  Ni  Ni5  1  0.250000  0.732166  0.613939  1
  Ni  Ni6  1  0.250000  0.232166  0.886061  1
  Ni  Ni7  1  0.750000  0.767834  0.113939  1
  Sn  Sn8  1  0.750000  0.157233  0.072782  1
  Sn  Sn9  1  0.250000  0.842767  0.927218  1
  Sn  Sn10  1  0.250000  0.342767  0.572782  1
  Sn  Sn11  1  0.750000  0.657233  0.427218  1
  H  H12  1  0.250000  0.957979  0.575057  1
  H  H13  1  0.750000  0.042021  0.424943  1
  H  H14  1  0.750000  0.542021  0.075057  1
  H  H15  1  0.250000  0.457979  0.924943  1
