# generated using pymatgen
data_Nd5Ir2Ru
_symmetry_space_group_name_H-M   'P 1'
_cell_length_a   11.20851600
_cell_length_b   11.20851600
_cell_length_c   6.62781400
_cell_angle_alpha   90.00000000
_cell_angle_beta   90.00000000
_cell_angle_gamma   90.00000000
_symmetry_Int_Tables_number   1
_chemical_formula_structural   Nd5Ir2Ru
_chemical_formula_sum   'Nd20 Ir8 Ru4'
_cell_volume   832.65778002
_cell_formula_units_Z   4
loop_
 _symmetry_equiv_pos_site_id
 _symmetry_equiv_pos_as_xyz
  1  'x, y, z'
loop_
 _atom_site_type_symbol
 _atom_site_label
 _atom_site_symmetry_multiplicity
 _atom_site_fract_x
 _atom_site_fract_y
 _atom_site_fract_z
 _atom_site_occupancy
  Nd  Nd0  1  0.088652  0.293706  0.116842  1
  Nd  Nd1  1  0.793706  0.411348  0.116842  1
  Nd  Nd2  1  0.206294  0.588652  0.116842  1
  Nd  Nd3  1  0.911348  0.706294  0.116842  1
  Nd  Nd4  1  0.411348  0.793706  0.383158  1
  Nd  Nd5  1  0.588652  0.206294  0.383158  1
  Nd  Nd6  1  0.293706  0.088652  0.383158  1
  Nd  Nd7  1  0.706294  0.911348  0.383158  1
  Nd  Nd8  1  0.411348  0.206294  0.883158  1
  Nd  Nd9  1  0.706294  0.088652  0.883158  1
  Nd  Nd10  1  0.293706  0.911348  0.883158  1
  Nd  Nd11  1  0.588652  0.793706  0.883158  1
  Nd  Nd12  1  0.088652  0.706294  0.616842  1
  Nd  Nd13  1  0.911348  0.293706  0.616842  1
  Nd  Nd14  1  0.206294  0.411348  0.616842  1
  Nd  Nd15  1  0.793706  0.588652  0.616842  1
  Nd  Nd16  1  0.000000  0.000000  0.000000  1
  Nd  Nd17  1  0.500000  0.500000  0.000000  1
  Nd  Nd18  1  0.500000  0.500000  0.500000  1
  Nd  Nd19  1  0.000000  0.000000  0.500000  1
  Ir  Ir20  1  0.152853  0.847147  0.250000  1
  Ir  Ir21  1  0.347147  0.347147  0.250000  1
  Ir  Ir22  1  0.652853  0.652853  0.250000  1
  Ir  Ir23  1  0.847147  0.152853  0.250000  1
  Ir  Ir24  1  0.347147  0.652853  0.750000  1
  Ir  Ir25  1  0.152853  0.152853  0.750000  1
  Ir  Ir26  1  0.847147  0.847147  0.750000  1
  Ir  Ir27  1  0.652853  0.347147  0.750000  1
  Ru  Ru28  1  0.000000  0.500000  0.379520  1
  Ru  Ru29  1  0.500000  0.000000  0.120480  1
  Ru  Ru30  1  0.500000  0.000000  0.620480  1
  Ru  Ru31  1  0.000000  0.500000  0.879520  1
