# generated using pymatgen
data_Hf6Si3Tc5Ge3Os
_symmetry_space_group_name_H-M   'P 1'
_cell_length_a   7.79695356
_cell_length_b   7.80050772
_cell_length_c   7.79663397
_cell_angle_alpha   126.58159860
_cell_angle_beta   128.34099173
_cell_angle_gamma   77.49637398
_symmetry_Int_Tables_number   1
_chemical_formula_structural   Hf6Si3Tc5Ge3Os
_chemical_formula_sum   'Hf6 Si3 Tc5 Ge3 Os1'
_cell_volume   289.68892516
_cell_formula_units_Z   1
loop_
 _symmetry_equiv_pos_site_id
 _symmetry_equiv_pos_as_xyz
  1  'x, y, z'
loop_
 _atom_site_type_symbol
 _atom_site_label
 _atom_site_symmetry_multiplicity
 _atom_site_fract_x
 _atom_site_fract_y
 _atom_site_fract_z
 _atom_site_occupancy
  Hf  Hf0  1  0.546281  0.098144  0.048027  1
  Hf  Hf1  1  0.449441  0.494849  0.544096  1
  Hf  Hf2  1  0.951279  0.494765  0.044811  1
  Hf  Hf3  1  0.049595  0.097070  0.551326  1
  Hf  Hf4  1  0.752722  0.898495  0.647198  1
  Hf  Hf5  1  0.250814  0.897970  0.145823  1
  Si  Si6  1  0.166788  0.163825  0.997891  1
  Si  Si7  1  0.748694  0.497898  0.246154  1
  Si  Si8  1  0.251194  0.497342  0.749214  1
  Tc  Tc9  1  0.125014  0.750587  0.626126  1
  Tc  Tc10  1  0.874787  0.495618  0.620324  1
  Tc  Tc11  1  0.625233  0.748322  0.122641  1
  Tc  Tc12  1  0.372033  0.491778  0.120198  1
  Tc  Tc13  1  0.500118  0.244736  0.744606  1
  Ge  Ge14  1  0.334192  0.830528  0.497302  1
  Ge  Ge15  1  0.666099  0.163573  0.496478  1
  Ge  Ge16  1  0.832714  0.830474  0.996808  1
  Os  Os17  1  0.003003  0.248029  0.244979  1
