# generated using pymatgen
data_Er3Tm5Al3Si8Ge
_symmetry_space_group_name_H-M   'P 1'
_cell_length_a   5.53128584
_cell_length_b   5.53128702
_cell_length_c   19.35494848
_cell_angle_alpha   81.83321504
_cell_angle_beta   81.83321265
_cell_angle_gamma   42.66491184
_symmetry_Int_Tables_number   1
_chemical_formula_structural   Er3Tm5Al3Si8Ge
_chemical_formula_sum   'Er3 Tm5 Al3 Si8 Ge1'
_cell_volume   396.62303377
_cell_formula_units_Z   1
loop_
 _symmetry_equiv_pos_site_id
 _symmetry_equiv_pos_as_xyz
  1  'x, y, z'
loop_
 _atom_site_type_symbol
 _atom_site_label
 _atom_site_symmetry_multiplicity
 _atom_site_fract_x
 _atom_site_fract_y
 _atom_site_fract_z
 _atom_site_occupancy
  Er  Er0  1  0.022552  0.022552  0.820158  1
  Er  Er1  1  0.299504  0.299504  0.071254  1
  Er  Er2  1  0.540209  0.540209  0.324271  1
  Tm  Tm3  1  0.459848  0.459848  0.675997  1
  Tm  Tm4  1  0.700296  0.700296  0.928389  1
  Tm  Tm5  1  0.977956  0.977956  0.179707  1
  Tm  Tm6  1  0.218553  0.218553  0.428406  1
  Tm  Tm7  1  0.781341  0.781341  0.571890  1
  Al  Al8  1  0.258354  0.258354  0.252895  1
  Al  Al9  1  0.499873  0.499873  0.500159  1
  Al  Al10  1  0.741982  0.741982  0.746982  1
  Si  Si11  1  0.169767  0.169767  0.675749  1
  Si  Si12  1  0.412973  0.412973  0.922505  1
  Si  Si13  1  0.691287  0.691287  0.180361  1
  Si  Si14  1  0.929503  0.929503  0.428585  1
  Si  Si15  1  0.069997  0.069997  0.571766  1
  Si  Si16  1  0.308945  0.308945  0.819549  1
  Si  Si17  1  0.586648  0.586648  0.077312  1
  Si  Si18  1  0.830237  0.830237  0.324258  1
  Ge  Ge19  1  0.000175  0.000175  0.999809  1
