# generated using pymatgen
data_Dy8C3SBr6
_symmetry_space_group_name_H-M   'P 1'
_cell_length_a   3.75252600
_cell_length_b   10.94741158
_cell_length_c   20.58159401
_cell_angle_alpha   91.84706711
_cell_angle_beta   90.00000000
_cell_angle_gamma   90.00000000
_symmetry_Int_Tables_number   1
_chemical_formula_structural   Dy8C3SBr6
_chemical_formula_sum   'Dy16 C6 S2 Br12'
_cell_volume   845.06176779
_cell_formula_units_Z   2
loop_
 _symmetry_equiv_pos_site_id
 _symmetry_equiv_pos_as_xyz
  1  'x, y, z'
loop_
 _atom_site_type_symbol
 _atom_site_label
 _atom_site_symmetry_multiplicity
 _atom_site_fract_x
 _atom_site_fract_y
 _atom_site_fract_z
 _atom_site_occupancy
  Dy  Dy0  1  0.250000  0.873391  0.578306  1
  Dy  Dy1  1  0.750000  0.126609  0.421694  1
  Dy  Dy2  1  0.750000  0.640529  0.081127  1
  Dy  Dy3  1  0.250000  0.359471  0.918873  1
  Dy  Dy4  1  0.250000  0.886827  0.739482  1
  Dy  Dy5  1  0.750000  0.113173  0.260518  1
  Dy  Dy6  1  0.750000  0.653811  0.240950  1
  Dy  Dy7  1  0.250000  0.346189  0.759050  1
  Dy  Dy8  1  0.250000  0.871477  0.169087  1
  Dy  Dy9  1  0.750000  0.128523  0.830913  1
  Dy  Dy10  1  0.750000  0.650250  0.658186  1
  Dy  Dy11  1  0.250000  0.349750  0.341814  1
  Dy  Dy12  1  0.250000  0.895755  0.330358  1
  Dy  Dy13  1  0.750000  0.104245  0.669642  1
  Dy  Dy14  1  0.750000  0.582839  0.839456  1
  Dy  Dy15  1  0.250000  0.417161  0.160544  1
  C  C16  1  0.750000  0.883854  0.251296  1
  C  C17  1  0.250000  0.116146  0.748704  1
  C  C18  1  0.250000  0.638052  0.155659  1
  C  C19  1  0.750000  0.361948  0.844341  1
  C  C20  1  0.750000  0.871336  0.653461  1
  C  C21  1  0.250000  0.128664  0.346539  1
  S  S22  1  0.250000  0.615842  0.749267  1
  S  S23  1  0.750000  0.384158  0.250733  1
  Br  Br24  1  0.250000  0.617159  0.551182  1
  Br  Br25  1  0.750000  0.382841  0.448818  1
  Br  Br26  1  0.750000  0.888508  0.056674  1
  Br  Br27  1  0.250000  0.111492  0.943326  1
  Br  Br28  1  0.250000  0.623286  0.953927  1
  Br  Br29  1  0.750000  0.376714  0.046073  1
  Br  Br30  1  0.750000  0.870410  0.452820  1
  Br  Br31  1  0.250000  0.129590  0.547180  1
  Br  Br32  1  0.250000  0.631524  0.352960  1
  Br  Br33  1  0.750000  0.368476  0.647040  1
  Br  Br34  1  0.750000  0.860934  0.851524  1
  Br  Br35  1  0.250000  0.139066  0.148476  1
