# generated using pymatgen
data_TbHf7Ti8(Si4Mo)4
_symmetry_space_group_name_H-M   'P 1'
_cell_length_a   6.79667419
_cell_length_b   6.79849491
_cell_length_c   12.50279411
_cell_angle_alpha   89.95368739
_cell_angle_beta   89.99777446
_cell_angle_gamma   89.96717973
_symmetry_Int_Tables_number   1
_chemical_formula_structural   TbHf7Ti8(Si4Mo)4
_chemical_formula_sum   'Tb1 Hf7 Ti8 Si16 Mo4'
_cell_volume   577.71825999
_cell_formula_units_Z   1
loop_
 _symmetry_equiv_pos_site_id
 _symmetry_equiv_pos_as_xyz
  1  'x, y, z'
loop_
 _atom_site_type_symbol
 _atom_site_label
 _atom_site_symmetry_multiplicity
 _atom_site_fract_x
 _atom_site_fract_y
 _atom_site_fract_z
 _atom_site_occupancy
  Tb  Tb0  1  0.998029  0.660847  0.030169  1
  Hf  Hf1  1  0.340216  0.999642  0.470752  1
  Hf  Hf2  1  0.500272  0.840780  0.719131  1
  Hf  Hf3  1  0.498586  0.159864  0.222632  1
  Hf  Hf4  1  0.840397  0.501055  0.280856  1
  Hf  Hf5  1  0.160277  0.498828  0.778743  1
  Hf  Hf6  1  0.656914  0.002716  0.969256  1
  Hf  Hf7  1  0.999585  0.340913  0.529448  1
  Ti  Ti8  1  0.154870  0.002822  0.870803  1
  Ti  Ti9  1  0.497170  0.651267  0.124203  1
  Ti  Ti10  1  0.502971  0.348525  0.622633  1
  Ti  Ti11  1  0.651621  0.493641  0.874718  1
  Ti  Ti12  1  0.348384  0.503232  0.378355  1
  Ti  Ti13  1  0.848166  0.997678  0.374519  1
  Ti  Ti14  1  0.004506  0.152160  0.128174  1
  Ti  Ti15  1  0.996615  0.848814  0.625600  1
  Si  Si16  1  0.206539  0.134591  0.676193  1
  Si  Si17  1  0.370711  0.707061  0.925399  1
  Si  Si18  1  0.634067  0.293455  0.426992  1
  Si  Si19  1  0.702815  0.361297  0.072813  1
  Si  Si20  1  0.292661  0.634116  0.573459  1
  Si  Si21  1  0.789217  0.870189  0.180809  1
  Si  Si22  1  0.134371  0.207050  0.324354  1
  Si  Si23  1  0.863949  0.796014  0.819085  1
  Si  Si24  1  0.298406  0.957892  0.065260  1
  Si  Si25  1  0.543359  0.795557  0.316103  1
  Si  Si26  1  0.455265  0.204459  0.813513  1
  Si  Si27  1  0.795663  0.544514  0.684394  1
  Si  Si28  1  0.207083  0.453497  0.187484  1
  Si  Si29  1  0.704161  0.045044  0.564762  1
  Si  Si30  1  0.955227  0.289091  0.933839  1
  Si  Si31  1  0.044688  0.704898  0.435299  1
  Mo  Mo32  1  0.331687  0.326395  0.999661  1
  Mo  Mo33  1  0.171446  0.831304  0.252110  1
  Mo  Mo34  1  0.829261  0.170077  0.748322  1
  Mo  Mo35  1  0.670842  0.670717  0.500160  1
