# generated using pymatgen
data_Hf6ZnSi(As2Ru3)2
_symmetry_space_group_name_H-M   'P 1'
_cell_length_a   7.65760690
_cell_length_b   7.66331440
_cell_length_c   7.65760655
_cell_angle_alpha   128.25866850
_cell_angle_beta   120.24397001
_cell_angle_gamma   82.91939621
_symmetry_Int_Tables_number   1
_chemical_formula_structural   Hf6ZnSi(As2Ru3)2
_chemical_formula_sum   'Hf6 Zn1 Si1 As4 Ru6'
_cell_volume   292.80578306
_cell_formula_units_Z   1
loop_
 _symmetry_equiv_pos_site_id
 _symmetry_equiv_pos_as_xyz
  1  'x, y, z'
loop_
 _atom_site_type_symbol
 _atom_site_label
 _atom_site_symmetry_multiplicity
 _atom_site_fract_x
 _atom_site_fract_y
 _atom_site_fract_z
 _atom_site_occupancy
  Hf  Hf0  1  0.467266  0.695876  0.728610  1
  Hf  Hf1  1  0.525965  0.255676  0.229711  1
  Hf  Hf2  1  0.747945  0.835532  0.587587  1
  Hf  Hf3  1  0.249215  0.835936  0.086720  1
  Hf  Hf4  1  0.059714  0.256283  0.696569  1
  Hf  Hf5  1  0.950574  0.655894  0.205320  1
  Zn  Zn6  1  0.278647  0.267704  0.489058  1
  Si  Si7  1  0.728282  0.234268  0.005986  1
  As  As8  1  0.328260  0.585494  0.249173  1
  As  As9  1  0.671097  0.920574  0.259972  1
  As  As10  1  0.160602  0.920574  0.749477  1
  As  As11  1  0.836321  0.585494  0.757234  1
  Ru  Ru12  1  0.503158  0.494517  0.000649  1
  Ru  Ru13  1  0.993869  0.494517  0.491361  1
  Ru  Ru14  1  0.081571  0.252100  0.088513  1
  Ru  Ru15  1  0.887138  0.008529  0.141743  1
  Ru  Ru16  1  0.366786  0.008529  0.621392  1
  Ru  Ru17  1  0.663587  0.252100  0.670529  1
