# generated using pymatgen
data_Dy3Y2(TcO6)2
_symmetry_space_group_name_H-M   'P 1'
_cell_length_a   6.83697877
_cell_length_b   6.83697785
_cell_length_c   7.54456101
_cell_angle_alpha   73.75370617
_cell_angle_beta   73.75371009
_cell_angle_gamma   49.00591220
_symmetry_Int_Tables_number   1
_chemical_formula_structural   Dy3Y2(TcO6)2
_chemical_formula_sum   'Dy3 Y2 Tc2 O12'
_cell_volume   253.29018116
_cell_formula_units_Z   1
loop_
 _symmetry_equiv_pos_site_id
 _symmetry_equiv_pos_as_xyz
  1  'x, y, z'
loop_
 _atom_site_type_symbol
 _atom_site_label
 _atom_site_symmetry_multiplicity
 _atom_site_fract_x
 _atom_site_fract_y
 _atom_site_fract_z
 _atom_site_occupancy
  Dy  Dy0  1  0.184374  0.184374  0.175891  1
  Dy  Dy1  1  0.804612  0.804612  0.357603  1
  Dy  Dy2  1  0.815617  0.815617  0.824113  1
  Y  Y3  1  0.195360  0.195360  0.642314  1
  Y  Y4  1  0.499975  0.499975  0.500004  1
  Tc  Tc5  1  0.713926  0.285982  0.000078  1
  Tc  Tc6  1  0.285982  0.713926  0.000078  1
  O  O7  1  0.413921  0.915050  0.916058  1
  O  O8  1  0.915050  0.413921  0.916058  1
  O  O9  1  0.905993  0.402393  0.425629  1
  O  O10  1  0.402393  0.905993  0.425629  1
  O  O11  1  0.501802  0.501802  0.203579  1
  O  O12  1  0.998799  0.998799  0.177856  1
  O  O13  1  0.001017  0.001017  0.822321  1
  O  O14  1  0.498193  0.498193  0.796440  1
  O  O15  1  0.084701  0.586268  0.084206  1
  O  O16  1  0.586268  0.084701  0.084206  1
  O  O17  1  0.093410  0.598608  0.573969  1
  O  O18  1  0.598608  0.093410  0.573969  1
