# generated using pymatgen
data_NaZr2CuS5
_symmetry_space_group_name_H-M   'P 1'
_cell_length_a   3.70084600
_cell_length_b   6.92599244
_cell_length_c   15.80577600
_cell_angle_alpha   90.00000000
_cell_angle_beta   90.00000000
_cell_angle_gamma   74.50401742
_symmetry_Int_Tables_number   1
_chemical_formula_structural   NaZr2CuS5
_chemical_formula_sum   'Na2 Zr4 Cu2 S10'
_cell_volume   390.40719233
_cell_formula_units_Z   2
loop_
 _symmetry_equiv_pos_site_id
 _symmetry_equiv_pos_as_xyz
  1  'x, y, z'
loop_
 _atom_site_type_symbol
 _atom_site_label
 _atom_site_symmetry_multiplicity
 _atom_site_fract_x
 _atom_site_fract_y
 _atom_site_fract_z
 _atom_site_occupancy
  Na  Na0  1  0.961836  0.076327  0.250000  1
  Na  Na1  1  0.038163  0.923673  0.750000  1
  Zr  Zr2  1  0.209060  0.581879  0.097877  1
  Zr  Zr3  1  0.209060  0.581879  0.402123  1
  Zr  Zr4  1  0.790939  0.418121  0.597877  1
  Zr  Zr5  1  0.790939  0.418121  0.902123  1
  Cu  Cu6  1  0.681047  0.637903  0.250000  1
  Cu  Cu7  1  0.318951  0.362097  0.750000  1
  S  S8  1  0.837912  0.324175  0.059520  1
  S  S9  1  0.580807  0.838383  0.132320  1
  S  S10  1  0.289639  0.420721  0.250000  1
  S  S11  1  0.580807  0.838383  0.367680  1
  S  S12  1  0.837912  0.324175  0.440480  1
  S  S13  1  0.162087  0.675825  0.559520  1
  S  S14  1  0.419192  0.161617  0.632320  1
  S  S15  1  0.710360  0.579279  0.750000  1
  S  S16  1  0.419192  0.161617  0.867680  1
  S  S17  1  0.162087  0.675825  0.940480  1
