# generated using pymatgen
data_Cs4LiAgAs2
_symmetry_space_group_name_H-M   'P 1'
_cell_length_a   7.05159481
_cell_length_b   7.05159490
_cell_length_c   6.44639198
_cell_angle_alpha   90.09119675
_cell_angle_beta   90.09117485
_cell_angle_gamma   106.68511546
_symmetry_Int_Tables_number   1
_chemical_formula_structural   Cs4LiAgAs2
_chemical_formula_sum   'Cs4 Li1 Ag1 As2'
_cell_volume   307.04974165
_cell_formula_units_Z   1
loop_
 _symmetry_equiv_pos_site_id
 _symmetry_equiv_pos_as_xyz
  1  'x, y, z'
loop_
 _atom_site_type_symbol
 _atom_site_label
 _atom_site_symmetry_multiplicity
 _atom_site_fract_x
 _atom_site_fract_y
 _atom_site_fract_z
 _atom_site_occupancy
  Cs  Cs0  1  0.971137  0.310075  0.753375  1
  Cs  Cs1  1  0.310075  0.971137  0.753375  1
  Cs  Cs2  1  0.028863  0.689925  0.246625  1
  Cs  Cs3  1  0.689925  0.028863  0.246625  1
  Li  Li4  1  0.500000  0.500000  0.500000  1
  Ag  Ag5  1  0.500000  0.500000  0.000000  1
  As  As6  1  0.734926  0.734926  0.744969  1
  As  As7  1  0.265074  0.265074  0.255031  1
