# generated using pymatgen
data_Ca2GdTm5(B6Os)4
_symmetry_space_group_name_H-M   'P 1'
_cell_length_a   3.62888800
_cell_length_b   9.12222344
_cell_length_c   11.53625329
_cell_angle_alpha   89.80826774
_cell_angle_beta   90.00000000
_cell_angle_gamma   90.00000000
_symmetry_Int_Tables_number   1
_chemical_formula_structural   Ca2GdTm5(B6Os)4
_chemical_formula_sum   'Ca2 Gd1 Tm5 B24 Os4'
_cell_volume   381.88853621
_cell_formula_units_Z   1
loop_
 _symmetry_equiv_pos_site_id
 _symmetry_equiv_pos_as_xyz
  1  'x, y, z'
loop_
 _atom_site_type_symbol
 _atom_site_label
 _atom_site_symmetry_multiplicity
 _atom_site_fract_x
 _atom_site_fract_y
 _atom_site_fract_z
 _atom_site_occupancy
  Ca  Ca0  1  0.000000  0.323274  0.414737  1
  Ca  Ca1  1  0.000000  0.676644  0.585397  1
  Gd  Gd2  1  0.000000  0.821892  0.086197  1
  Tm  Tm3  1  0.000000  0.178455  0.913686  1
  Tm  Tm4  1  0.000000  0.942424  0.370227  1
  Tm  Tm5  1  0.000000  0.057828  0.629894  1
  Tm  Tm6  1  0.000000  0.442623  0.129520  1
  Tm  Tm7  1  0.000000  0.556713  0.870221  1
  B  B8  1  0.500000  0.554068  0.432009  1
  B  B9  1  0.500000  0.445703  0.568237  1
  B  B10  1  0.500000  0.054456  0.066301  1
  B  B11  1  0.500000  0.947131  0.932818  1
  B  B12  1  0.500000  0.748875  0.417215  1
  B  B13  1  0.500000  0.251094  0.583094  1
  B  B14  1  0.500000  0.248942  0.080389  1
  B  B15  1  0.500000  0.751170  0.918217  1
  B  B16  1  0.500000  0.791350  0.264916  1
  B  B17  1  0.500000  0.208043  0.736228  1
  B  B18  1  0.500000  0.290454  0.233343  1
  B  B19  1  0.500000  0.709751  0.766339  1
  B  B20  1  0.500000  0.630540  0.184946  1
  B  B21  1  0.500000  0.368421  0.815842  1
  B  B22  1  0.500000  0.130137  0.313448  1
  B  B23  1  0.500000  0.870265  0.686522  1
  B  B24  1  0.500000  0.983461  0.211823  1
  B  B25  1  0.500000  0.018102  0.788528  1
  B  B26  1  0.500000  0.483325  0.287153  1
  B  B27  1  0.500000  0.516288  0.713006  1
  B  B28  1  0.500000  0.601225  0.027786  1
  B  B29  1  0.500000  0.396664  0.971638  1
  B  B30  1  0.500000  0.098161  0.472970  1
  B  B31  1  0.500000  0.901987  0.527174  1
  Os  Os32  1  0.000000  0.640173  0.317878  1
  Os  Os33  1  0.000000  0.359267  0.682714  1
  Os  Os34  1  0.000000  0.137362  0.177426  1
  Os  Os35  1  0.000000  0.863732  0.822160  1
