# generated using pymatgen
data_Pr12Ru2I17
_symmetry_space_group_name_H-M   'P 1'
_cell_length_a   10.11660101
_cell_length_b   12.13251599
_cell_length_c   12.17627027
_cell_angle_alpha   93.55889164
_cell_angle_beta   104.68096657
_cell_angle_gamma   114.47248482
_symmetry_Int_Tables_number   1
_chemical_formula_structural   Pr12Ru2I17
_chemical_formula_sum   'Pr12 Ru2 I17'
_cell_volume   1291.93245835
_cell_formula_units_Z   1
loop_
 _symmetry_equiv_pos_site_id
 _symmetry_equiv_pos_as_xyz
  1  'x, y, z'
loop_
 _atom_site_type_symbol
 _atom_site_label
 _atom_site_symmetry_multiplicity
 _atom_site_fract_x
 _atom_site_fract_y
 _atom_site_fract_z
 _atom_site_occupancy
  Pr  Pr0  1  0.059964  0.513339  0.324091  1
  Pr  Pr1  1  0.989431  0.812076  0.580662  1
  Pr  Pr2  1  0.645211  0.240241  0.283690  1
  Pr  Pr3  1  0.010569  0.187924  0.419338  1
  Pr  Pr4  1  0.223901  0.668874  0.990982  1
  Pr  Pr5  1  0.262129  0.988850  0.893637  1
  Pr  Pr6  1  0.354789  0.759759  0.716310  1
  Pr  Pr7  1  0.940036  0.486661  0.675909  1
  Pr  Pr8  1  0.737871  0.011150  0.106363  1
  Pr  Pr9  1  0.151172  0.287884  0.151798  1
  Pr  Pr10  1  0.776099  0.331126  0.009018  1
  Pr  Pr11  1  0.848828  0.712116  0.848202  1
  Ru  Ru12  1  0.103961  0.738247  0.785436  1
  Ru  Ru13  1  0.896039  0.261753  0.214564  1
  I  I14  1  0.784731  0.529044  0.417491  1
  I  I15  1  0.640394  0.418661  0.757983  1
  I  I16  1  0.842344  0.894322  0.323689  1
  I  I17  1  0.325042  0.212062  0.369882  1
  I  I18  1  0.157656  0.105678  0.676311  1
  I  I19  1  0.588516  0.053061  0.842823  1
  I  I20  1  0.753208  0.181997  0.537092  1
  I  I21  1  0.548269  0.706629  0.952674  1
  I  I22  1  0.359606  0.581339  0.242017  1
  I  I23  1  0.215269  0.470956  0.582509  1
  I  I24  1  0.055571  0.367234  0.896713  1
  I  I25  1  0.451731  0.293371  0.047326  1
  I  I26  1  0.000000  0.000000  0.000000  1
  I  I27  1  0.246792  0.818003  0.462908  1
  I  I28  1  0.411484  0.946939  0.157177  1
  I  I29  1  0.674958  0.787938  0.630118  1
  I  I30  1  0.944429  0.632766  0.103287  1
