# generated using pymatgen
data_Ba8Li3Si12Ag
_symmetry_space_group_name_H-M   'P 1'
_cell_length_a   12.39940230
_cell_length_b   10.73288618
_cell_length_c   8.76375928
_cell_angle_alpha   78.26621855
_cell_angle_beta   57.92340776
_cell_angle_gamma   43.78725481
_symmetry_Int_Tables_number   1
_chemical_formula_structural   Ba8Li3Si12Ag
_chemical_formula_sum   'Ba8 Li3 Si12 Ag1'
_cell_volume   650.82456597
_cell_formula_units_Z   1
loop_
 _symmetry_equiv_pos_site_id
 _symmetry_equiv_pos_as_xyz
  1  'x, y, z'
loop_
 _atom_site_type_symbol
 _atom_site_label
 _atom_site_symmetry_multiplicity
 _atom_site_fract_x
 _atom_site_fract_y
 _atom_site_fract_z
 _atom_site_occupancy
  Ba  Ba0  1  0.124942  0.126340  0.375916  1
  Ba  Ba1  1  0.874728  0.876352  0.123704  1
  Ba  Ba2  1  0.123761  0.125223  0.874675  1
  Ba  Ba3  1  0.375887  0.372744  0.124983  1
  Ba  Ba4  1  0.625102  0.625029  0.374723  1
  Ba  Ba5  1  0.374695  0.375131  0.625158  1
  Ba  Ba6  1  0.626252  0.624283  0.874223  1
  Ba  Ba7  1  0.874306  0.875251  0.626160  1
  Li  Li8  1  0.082698  0.417303  0.082635  1
  Li  Li9  1  0.167416  0.832617  0.167357  1
  Li  Li10  1  0.417374  0.082592  0.417445  1
  Si  Si11  1  0.337808  0.655158  0.820581  1
  Si  Si12  1  0.188708  0.819612  0.653494  1
  Si  Si13  1  0.820594  0.186511  0.337802  1
  Si  Si14  1  0.653587  0.338218  0.188644  1
  Si  Si15  1  0.911017  0.594355  0.430898  1
  Si  Si16  1  0.063925  0.431192  0.594107  1
  Si  Si17  1  0.430938  0.063637  0.910967  1
  Si  Si18  1  0.908062  0.592037  0.907917  1
  Si  Si19  1  0.657741  0.342128  0.657841  1
  Si  Si20  1  0.341385  0.658467  0.341562  1
  Si  Si21  1  0.592067  0.908035  0.591968  1
  Si  Si22  1  0.594048  0.910777  0.063964  1
  Ag  Ag23  1  0.832956  0.167005  0.833276  1
