# generated using pymatgen
data_Rb5Ti(MoH9)3
_symmetry_space_group_name_H-M   'P 1'
_cell_length_a   9.76814322
_cell_length_b   9.33024918
_cell_length_c   5.36685900
_cell_angle_alpha   90.00000000
_cell_angle_beta   90.00000000
_cell_angle_gamma   118.52784671
_symmetry_Int_Tables_number   1
_chemical_formula_structural   Rb5Ti(MoH9)3
_chemical_formula_sum   'Rb5 Ti1 Mo3 H27'
_cell_volume   429.74346505
_cell_formula_units_Z   1
loop_
 _symmetry_equiv_pos_site_id
 _symmetry_equiv_pos_as_xyz
  1  'x, y, z'
loop_
 _atom_site_type_symbol
 _atom_site_label
 _atom_site_symmetry_multiplicity
 _atom_site_fract_x
 _atom_site_fract_y
 _atom_site_fract_z
 _atom_site_occupancy
  Rb  Rb0  1  0.729678  0.753999  0.500000  1
  Rb  Rb1  1  0.270322  0.024321  0.500000  1
  Rb  Rb2  1  0.000000  0.629715  0.000000  1
  Rb  Rb3  1  0.435185  0.386808  0.000000  1
  Rb  Rb4  1  0.564815  0.951623  0.000000  1
  Ti  Ti5  1  0.000000  0.272724  0.500000  1
  Mo  Mo6  1  0.725047  0.321908  0.500000  1
  Mo  Mo7  1  0.274953  0.596862  0.500000  1
  Mo  Mo8  1  0.000000  0.072839  0.000000  1
  H  H9  1  0.888261  0.348578  0.695012  1
  H  H10  1  0.713875  0.405019  0.776791  1
  H  H11  1  0.574539  0.186164  0.691996  1
  H  H12  1  0.111739  0.460318  0.304988  1
  H  H13  1  0.574539  0.186164  0.308004  1
  H  H14  1  0.888261  0.348578  0.304988  1
  H  H15  1  0.713875  0.405019  0.223209  1
  H  H16  1  0.286125  0.691144  0.776791  1
  H  H17  1  0.425461  0.611626  0.691996  1
  H  H18  1  0.177108  0.073626  0.000000  1
  H  H19  1  0.822892  0.896518  0.000000  1
  H  H20  1  0.000000  0.262439  0.000000  1
  H  H21  1  0.880492  0.076909  0.249217  1
  H  H22  1  0.119508  0.196417  0.750783  1
  H  H23  1  0.000000  0.930692  0.786438  1
  H  H24  1  0.000000  0.930692  0.213562  1
  H  H25  1  0.119508  0.196417  0.249217  1
  H  H26  1  0.880492  0.076909  0.750783  1
  H  H27  1  0.164796  0.697841  0.500000  1
  H  H28  1  0.423653  0.801274  0.500000  1
  H  H29  1  0.237572  0.385337  0.500000  1
  H  H30  1  0.576347  0.377622  0.500000  1
  H  H31  1  0.835204  0.533045  0.500000  1
  H  H32  1  0.762428  0.147765  0.500000  1
  H  H33  1  0.111739  0.460318  0.695012  1
  H  H34  1  0.286125  0.691144  0.223209  1
  H  H35  1  0.425461  0.611626  0.308004  1
