# generated using pymatgen
data_Sr4ErPa5O18
_symmetry_space_group_name_H-M   'P 1'
_cell_length_a   6.93165872
_cell_length_b   7.86588594
_cell_length_c   8.82479766
_cell_angle_alpha   101.79904620
_cell_angle_beta   98.02646276
_cell_angle_gamma   106.99836832
_symmetry_Int_Tables_number   1
_chemical_formula_structural   Sr4ErPa5O18
_chemical_formula_sum   'Sr4 Er1 Pa5 O18'
_cell_volume   440.07928096
_cell_formula_units_Z   1
loop_
 _symmetry_equiv_pos_site_id
 _symmetry_equiv_pos_as_xyz
  1  'x, y, z'
loop_
 _atom_site_type_symbol
 _atom_site_label
 _atom_site_symmetry_multiplicity
 _atom_site_fract_x
 _atom_site_fract_y
 _atom_site_fract_z
 _atom_site_occupancy
  Sr  Sr0  1  0.807126  0.111246  0.595486  1
  Sr  Sr1  1  0.591671  0.690279  0.191902  1
  Sr  Sr2  1  0.408329  0.309721  0.808098  1
  Sr  Sr3  1  0.192874  0.888754  0.404514  1
  Er  Er4  1  0.000000  0.500000  0.000000  1
  Pa  Pa5  1  0.000000  0.000000  0.000000  1
  Pa  Pa6  1  0.791960  0.582919  0.584234  1
  Pa  Pa7  1  0.632074  0.194462  0.198382  1
  Pa  Pa8  1  0.367926  0.805538  0.801618  1
  Pa  Pa9  1  0.208040  0.417081  0.415766  1
  O  O10  1  0.817663  0.787485  0.464531  1
  O  O11  1  0.989597  0.202441  0.201482  1
  O  O12  1  0.696159  0.397548  0.072020  1
  O  O13  1  0.460134  0.003185  0.683901  1
  O  O14  1  0.857697  0.345520  0.434288  1
  O  O15  1  0.504078  0.396778  0.346858  1
  O  O16  1  0.217488  0.578304  0.250279  1
  O  O17  1  0.976203  0.786767  0.118862  1
  O  O18  1  0.660281  0.935182  0.992484  1
  O  O19  1  0.339719  0.064818  0.007516  1
  O  O20  1  0.023797  0.213233  0.881138  1
  O  O21  1  0.782512  0.421696  0.749721  1
  O  O22  1  0.495922  0.603222  0.653142  1
  O  O23  1  0.142303  0.654480  0.565712  1
  O  O24  1  0.539866  0.996815  0.316099  1
  O  O25  1  0.303841  0.602452  0.927980  1
  O  O26  1  0.010403  0.797559  0.798518  1
  O  O27  1  0.182337  0.212515  0.535469  1
