# generated using pymatgen
data_MgMn3(AuO2)4
_symmetry_space_group_name_H-M   'P 1'
_cell_length_a   5.30752630
_cell_length_b   6.38596097
_cell_length_c   7.03852400
_cell_angle_alpha   66.55437571
_cell_angle_beta   75.48293325
_cell_angle_gamma   93.15177166
_symmetry_Int_Tables_number   1
_chemical_formula_structural   MgMn3(AuO2)4
_chemical_formula_sum   'Mg1 Mn3 Au4 O8'
_cell_volume   208.63792045
_cell_formula_units_Z   1
loop_
 _symmetry_equiv_pos_site_id
 _symmetry_equiv_pos_as_xyz
  1  'x, y, z'
loop_
 _atom_site_type_symbol
 _atom_site_label
 _atom_site_symmetry_multiplicity
 _atom_site_fract_x
 _atom_site_fract_y
 _atom_site_fract_z
 _atom_site_occupancy
  Mg  Mg0  1  0.499983  0.749851  0.000030  1
  Mn  Mn1  1  0.998702  0.504091  0.997538  1
  Mn  Mn2  1  0.499969  0.250017  0.000090  1
  Mn  Mn3  1  0.001352  0.995973  0.002448  1
  Au  Au4  1  0.008358  0.000254  0.500960  1
  Au  Au5  1  0.991681  0.499763  0.498998  1
  Au  Au6  1  0.500010  0.750014  0.499990  1
  Au  Au7  1  0.500030  0.250026  0.499993  1
  O  O8  1  0.897953  0.843548  0.832604  1
  O  O9  1  0.881715  0.341368  0.833915  1
  O  O10  1  0.376997  0.576350  0.833672  1
  O  O11  1  0.386707  0.084849  0.837955  1
  O  O12  1  0.118309  0.158653  0.166029  1
  O  O13  1  0.102031  0.656444  0.167358  1
  O  O14  1  0.622954  0.923631  0.166352  1
  O  O15  1  0.613252  0.415167  0.162066  1
