# generated using pymatgen
data_Tb3CoSn3Au2
_symmetry_space_group_name_H-M   'P 1'
_cell_length_a   7.59417200
_cell_length_b   7.59417261
_cell_length_c   4.02981100
_cell_angle_alpha   90.00000000
_cell_angle_beta   90.00000000
_cell_angle_gamma   120.00000605
_symmetry_Int_Tables_number   1
_chemical_formula_structural   Tb3CoSn3Au2
_chemical_formula_sum   'Tb3 Co1 Sn3 Au2'
_cell_volume   201.26866991
_cell_formula_units_Z   1
loop_
 _symmetry_equiv_pos_site_id
 _symmetry_equiv_pos_as_xyz
  1  'x, y, z'
loop_
 _atom_site_type_symbol
 _atom_site_label
 _atom_site_symmetry_multiplicity
 _atom_site_fract_x
 _atom_site_fract_y
 _atom_site_fract_z
 _atom_site_occupancy
  Tb  Tb0  1  0.396013  0.396013  0.500000  1
  Tb  Tb1  1  0.603987  0.000000  0.500000  1
  Tb  Tb2  1  0.000000  0.603987  0.500000  1
  Co  Co3  1  0.000000  0.000000  0.500000  1
  Sn  Sn4  1  0.758280  0.758280  0.000000  1
  Sn  Sn5  1  0.241720  0.000000  0.000000  1
  Sn  Sn6  1  0.000000  0.241720  0.000000  1
  Au  Au7  1  0.666667  0.333333  0.000000  1
  Au  Au8  1  0.333333  0.666667  0.000000  1
