# generated using pymatgen
data_CaTbNpO6
_symmetry_space_group_name_H-M   'P 1'
_cell_length_a   5.52223400
_cell_length_b   7.86085137
_cell_length_c   11.90239500
_cell_angle_alpha   73.88977549
_cell_angle_beta   90.00000000
_cell_angle_gamma   90.00000000
_symmetry_Int_Tables_number   1
_chemical_formula_structural   CaTbNpO6
_chemical_formula_sum   'Ca4 Tb4 Np4 O24'
_cell_volume   496.38648012
_cell_formula_units_Z   4
loop_
 _symmetry_equiv_pos_site_id
 _symmetry_equiv_pos_as_xyz
  1  'x, y, z'
loop_
 _atom_site_type_symbol
 _atom_site_label
 _atom_site_symmetry_multiplicity
 _atom_site_fract_x
 _atom_site_fract_y
 _atom_site_fract_z
 _atom_site_occupancy
  Ca  Ca0  1  0.188285  0.794048  0.578806  1
  Ca  Ca1  1  0.811715  0.794048  0.078806  1
  Ca  Ca2  1  0.188285  0.205952  0.921194  1
  Ca  Ca3  1  0.811715  0.205952  0.421194  1
  Tb  Tb4  1  0.743593  0.000000  0.750000  1
  Tb  Tb5  1  0.256407  0.000000  0.250000  1
  Tb  Tb6  1  0.691877  0.500000  0.750000  1
  Tb  Tb7  1  0.308123  0.500000  0.250000  1
  Np  Np8  1  0.254577  0.725274  0.884305  1
  Np  Np9  1  0.745423  0.725274  0.384305  1
  Np  Np10  1  0.254577  0.274726  0.615695  1
  Np  Np11  1  0.745423  0.274726  0.115695  1
  O  O12  1  0.051783  0.940052  0.890194  1
  O  O13  1  0.542002  0.851754  0.927870  1
  O  O14  1  0.948217  0.940052  0.390194  1
  O  O15  1  0.454537  0.795904  0.729860  1
  O  O16  1  0.457998  0.851754  0.427870  1
  O  O17  1  0.964378  0.708416  0.772246  1
  O  O18  1  0.545463  0.795904  0.229860  1
  O  O19  1  0.855886  0.630075  0.550511  1
  O  O20  1  0.384928  0.489986  0.884816  1
  O  O21  1  0.035622  0.708416  0.272246  1
  O  O22  1  0.384928  0.510014  0.615184  1
  O  O23  1  0.855886  0.369925  0.949489  1
  O  O24  1  0.144114  0.630075  0.050511  1
  O  O25  1  0.615072  0.489986  0.384816  1
  O  O26  1  0.964378  0.291584  0.727754  1
  O  O27  1  0.615072  0.510014  0.115184  1
  O  O28  1  0.144114  0.369925  0.449489  1
  O  O29  1  0.454537  0.204096  0.770140  1
  O  O30  1  0.035622  0.291584  0.227754  1
  O  O31  1  0.542002  0.148246  0.572130  1
  O  O32  1  0.545463  0.204096  0.270140  1
  O  O33  1  0.051783  0.059948  0.609806  1
  O  O34  1  0.457998  0.148246  0.072130  1
  O  O35  1  0.948217  0.059948  0.109806  1
