# generated using pymatgen
data_Np4Ga12Pd
_symmetry_space_group_name_H-M   'P 1'
_cell_length_a   7.49434155
_cell_length_b   7.48775904
_cell_length_c   7.49106428
_cell_angle_alpha   109.51123768
_cell_angle_beta   109.44684651
_cell_angle_gamma   109.42897197
_symmetry_Int_Tables_number   1
_chemical_formula_structural   Np4Ga12Pd
_chemical_formula_sum   'Np4 Ga12 Pd1'
_cell_volume   323.70492577
_cell_formula_units_Z   1
loop_
 _symmetry_equiv_pos_site_id
 _symmetry_equiv_pos_as_xyz
  1  'x, y, z'
loop_
 _atom_site_type_symbol
 _atom_site_label
 _atom_site_symmetry_multiplicity
 _atom_site_fract_x
 _atom_site_fract_y
 _atom_site_fract_z
 _atom_site_occupancy
  Np  Np0  1  0.499999  0.000000  0.000000  1
  Np  Np1  1  0.000000  0.499999  0.000000  1
  Np  Np2  1  0.000000  0.000000  0.499999  1
  Np  Np3  1  0.499999  0.499999  0.499999  1
  Ga  Ga4  1  0.294580  0.294600  0.000006  1
  Ga  Ga5  1  0.705419  0.705399  0.999994  1
  Ga  Ga6  1  0.750026  0.500046  0.250007  1
  Ga  Ga7  1  0.499999  0.750000  0.250000  1
  Ga  Ga8  1  0.294580  0.999979  0.294574  1
  Ga  Ga9  1  0.000000  0.294596  0.294584  1
  Ga  Ga10  1  0.750026  0.249980  0.500019  1
  Ga  Ga11  1  0.249974  0.750020  0.499981  1
  Ga  Ga12  1  0.705419  0.000021  0.705425  1
  Ga  Ga13  1  0.000000  0.705403  0.705415  1
  Ga  Ga14  1  0.500001  0.250000  0.750000  1
  Ga  Ga15  1  0.249974  0.499954  0.749993  1
  Pd  Pd16  1  0.000000  0.000000  0.000000  1
