# generated using pymatgen
data_ErTm7Lu12(CoSb2)4
_symmetry_space_group_name_H-M   'P 1'
_cell_length_a   7.69403507
_cell_length_b   8.68330400
_cell_length_c   11.96891611
_cell_angle_alpha   90.00000000
_cell_angle_beta   90.01520393
_cell_angle_gamma   90.00000000
_symmetry_Int_Tables_number   1
_chemical_formula_structural   ErTm7Lu12(CoSb2)4
_chemical_formula_sum   'Er1 Tm7 Lu12 Co4 Sb8'
_cell_volume   799.63901362
_cell_formula_units_Z   1
loop_
 _symmetry_equiv_pos_site_id
 _symmetry_equiv_pos_as_xyz
  1  'x, y, z'
loop_
 _atom_site_type_symbol
 _atom_site_label
 _atom_site_symmetry_multiplicity
 _atom_site_fract_x
 _atom_site_fract_y
 _atom_site_fract_z
 _atom_site_occupancy
  Er  Er0  1  0.877300  0.750000  0.808351  1
  Tm  Tm1  1  0.157072  0.750000  0.204320  1
  Tm  Tm2  1  0.343064  0.750000  0.704254  1
  Tm  Tm3  1  0.449753  0.750000  0.998040  1
  Tm  Tm4  1  0.050297  0.750000  0.498052  1
  Tm  Tm5  1  0.622142  0.750000  0.308860  1
  Tm  Tm6  1  0.122082  0.250000  0.191230  1
  Tm  Tm7  1  0.378005  0.250000  0.691151  1
  Lu  Lu8  1  0.657210  0.250000  0.296017  1
  Lu  Lu9  1  0.842823  0.250000  0.795973  1
  Lu  Lu10  1  0.949137  0.250000  0.501914  1
  Lu  Lu11  1  0.550766  0.250000  0.002022  1
  Lu  Lu12  1  0.824415  0.962925  0.065525  1
  Lu  Lu13  1  0.324653  0.037882  0.434519  1
  Lu  Lu14  1  0.175515  0.461725  0.934643  1
  Lu  Lu15  1  0.675599  0.537206  0.565272  1
  Lu  Lu16  1  0.175515  0.038275  0.934643  1
  Lu  Lu17  1  0.675599  0.962794  0.565272  1
  Lu  Lu18  1  0.824415  0.537075  0.065525  1
  Lu  Lu19  1  0.324653  0.462118  0.434519  1
  Co  Co20  1  0.431408  0.750000  0.490834  1
  Co  Co21  1  0.931177  0.250000  0.008958  1
  Co  Co22  1  0.568803  0.250000  0.508831  1
  Co  Co23  1  0.068738  0.750000  0.991000  1
  Sb  Sb24  1  0.931201  0.992004  0.327745  1
  Sb  Sb25  1  0.431889  0.009052  0.172383  1
  Sb  Sb26  1  0.068421  0.490719  0.672283  1
  Sb  Sb27  1  0.568417  0.507780  0.827725  1
  Sb  Sb28  1  0.068421  0.009281  0.672283  1
  Sb  Sb29  1  0.568417  0.992220  0.827725  1
  Sb  Sb30  1  0.931201  0.507996  0.327745  1
  Sb  Sb31  1  0.431889  0.490948  0.172383  1
