# generated using pymatgen
data_Dy2Y4NiCl10
_symmetry_space_group_name_H-M   'P 1'
_cell_length_a   7.11481306
_cell_length_b   8.78300045
_cell_length_c   8.92749100
_cell_angle_alpha   108.73193110
_cell_angle_beta   96.56624999
_cell_angle_gamma   105.55146339
_symmetry_Int_Tables_number   1
_chemical_formula_structural   Dy2Y4NiCl10
_chemical_formula_sum   'Dy2 Y4 Ni1 Cl10'
_cell_volume   496.54554420
_cell_formula_units_Z   1
loop_
 _symmetry_equiv_pos_site_id
 _symmetry_equiv_pos_as_xyz
  1  'x, y, z'
loop_
 _atom_site_type_symbol
 _atom_site_label
 _atom_site_symmetry_multiplicity
 _atom_site_fract_x
 _atom_site_fract_y
 _atom_site_fract_z
 _atom_site_occupancy
  Dy  Dy0  1  0.857873  0.136982  0.185236  1
  Dy  Dy1  1  0.142127  0.863018  0.814764  1
  Y  Y2  1  0.533141  0.695890  0.899575  1
  Y  Y3  1  0.466859  0.304110  0.100425  1
  Y  Y4  1  0.634629  0.053838  0.755664  1
  Y  Y5  1  0.365371  0.946162  0.244336  1
  Ni  Ni6  1  0.500000  0.000000  0.000000  1
  Cl  Cl7  1  0.738425  0.078780  0.451625  1
  Cl  Cl8  1  0.261575  0.921220  0.548375  1
  Cl  Cl9  1  0.952709  0.825294  0.076348  1
  Cl  Cl10  1  0.047291  0.174706  0.923652  1
  Cl  Cl11  1  0.278580  0.247927  0.341883  1
  Cl  Cl12  1  0.721420  0.752073  0.658117  1
  Cl  Cl13  1  0.589523  0.373018  0.836817  1
  Cl  Cl14  1  0.410477  0.626982  0.163183  1
  Cl  Cl15  1  0.843979  0.451313  0.274528  1
  Cl  Cl16  1  0.156021  0.548687  0.725472  1
