# generated using pymatgen
data_SrLiSm3Al17Pd6
_symmetry_space_group_name_H-M   'P 1'
_cell_length_a   7.68240015
_cell_length_b   7.68039164
_cell_length_c   9.59525400
_cell_angle_alpha   90.00000000
_cell_angle_beta   90.00000000
_cell_angle_gamma   119.25466033
_symmetry_Int_Tables_number   1
_chemical_formula_structural   SrLiSm3Al17Pd6
_chemical_formula_sum   'Sr1 Li1 Sm3 Al17 Pd6'
_cell_volume   493.94708787
_cell_formula_units_Z   1
loop_
 _symmetry_equiv_pos_site_id
 _symmetry_equiv_pos_as_xyz
  1  'x, y, z'
loop_
 _atom_site_type_symbol
 _atom_site_label
 _atom_site_symmetry_multiplicity
 _atom_site_fract_x
 _atom_site_fract_y
 _atom_site_fract_z
 _atom_site_occupancy
  Sr  Sr0  1  0.008840  0.328965  0.750000  1
  Li  Li1  1  0.129507  0.128740  0.250000  1
  Sm  Sm2  1  0.995073  0.662685  0.250000  1
  Sm  Sm3  1  0.666172  0.996595  0.250000  1
  Sm  Sm4  1  0.327485  0.006651  0.750000  1
  Al  Al5  1  0.864784  0.860078  0.750000  1
  Al  Al6  1  0.003406  0.328785  0.082211  1
  Al  Al7  1  0.997816  0.665655  0.928057  1
  Al  Al8  1  0.997816  0.665655  0.571943  1
  Al  Al9  1  0.328591  0.001824  0.417785  1
  Al  Al10  1  0.003406  0.328785  0.417789  1
  Al  Al11  1  0.663825  0.997692  0.572114  1
  Al  Al12  1  0.663825  0.997692  0.927886  1
  Al  Al13  1  0.328591  0.001824  0.082215  1
  Al  Al14  1  0.337816  0.336582  0.536286  1
  Al  Al15  1  0.671434  0.671420  0.438546  1
  Al  Al16  1  0.671434  0.671420  0.061454  1
  Al  Al17  1  0.337816  0.336582  0.963714  1
  Al  Al18  1  0.341385  0.542927  0.250000  1
  Al  Al19  1  0.650542  0.451207  0.750000  1
  Al  Al20  1  0.540089  0.340942  0.250000  1
  Al  Al21  1  0.458275  0.665539  0.750000  1
  Pd  Pd22  1  0.674736  0.330745  0.002212  1
  Pd  Pd23  1  0.331677  0.676298  0.001662  1
  Pd  Pd24  1  0.331677  0.676298  0.498338  1
  Pd  Pd25  1  0.674736  0.330745  0.497788  1
  Pd  Pd26  1  0.999624  0.998834  0.995272  1
  Pd  Pd27  1  0.999624  0.998834  0.504728  1
