# generated using pymatgen
data_Yb4PaIr2
_symmetry_space_group_name_H-M   'P 1'
_cell_length_a   6.61040815
_cell_length_b   7.25586312
_cell_length_c   8.73084554
_cell_angle_alpha   97.73117445
_cell_angle_beta   112.24490139
_cell_angle_gamma   89.99999162
_symmetry_Int_Tables_number   1
_chemical_formula_structural   Yb4PaIr2
_chemical_formula_sum   'Yb8 Pa2 Ir4'
_cell_volume   383.48522778
_cell_formula_units_Z   2
loop_
 _symmetry_equiv_pos_site_id
 _symmetry_equiv_pos_as_xyz
  1  'x, y, z'
loop_
 _atom_site_type_symbol
 _atom_site_label
 _atom_site_symmetry_multiplicity
 _atom_site_fract_x
 _atom_site_fract_y
 _atom_site_fract_z
 _atom_site_occupancy
  Yb  Yb0  1  0.977593  0.921295  0.174599  1
  Yb  Yb1  1  0.802993  0.578705  0.825401  1
  Yb  Yb2  1  0.022407  0.078705  0.825401  1
  Yb  Yb3  1  0.197007  0.421295  0.174599  1
  Yb  Yb4  1  0.640800  0.816974  0.435466  1
  Yb  Yb5  1  0.205334  0.683026  0.564534  1
  Yb  Yb6  1  0.359200  0.183026  0.564534  1
  Yb  Yb7  1  0.794666  0.316974  0.435466  1
  Pa  Pa8  1  0.429919  0.750000  0.000000  1
  Pa  Pa9  1  0.570081  0.250000  0.000000  1
  Ir  Ir10  1  0.779008  0.562489  0.189783  1
  Ir  Ir11  1  0.589224  0.937511  0.810217  1
  Ir  Ir12  1  0.220993  0.437511  0.810217  1
  Ir  Ir13  1  0.410776  0.062489  0.189783  1
