# generated using pymatgen
data_SmY5Cd23P
_symmetry_space_group_name_H-M   'P 1'
_cell_length_a   9.96121231
_cell_length_b   9.94082310
_cell_length_c   9.94082195
_cell_angle_alpha   60.13574041
_cell_angle_beta   59.93213400
_cell_angle_gamma   59.93212929
_symmetry_Int_Tables_number   1
_chemical_formula_structural   SmY5Cd23P
_chemical_formula_sum   'Sm1 Y5 Cd23 P1'
_cell_volume   696.04639765
_cell_formula_units_Z   1
loop_
 _symmetry_equiv_pos_site_id
 _symmetry_equiv_pos_as_xyz
  1  'x, y, z'
loop_
 _atom_site_type_symbol
 _atom_site_label
 _atom_site_symmetry_multiplicity
 _atom_site_fract_x
 _atom_site_fract_y
 _atom_site_fract_z
 _atom_site_occupancy
  Sm  Sm0  1  0.200155  0.799845  0.799845  1
  Y  Y1  1  0.802867  0.803204  0.197133  1
  Y  Y2  1  0.196796  0.803204  0.197133  1
  Y  Y3  1  0.801608  0.198392  0.198392  1
  Y  Y4  1  0.196796  0.197133  0.803204  1
  Y  Y5  1  0.802867  0.197133  0.803204  1
  Cd  Cd6  1  0.836298  0.836922  0.490482  1
  Cd  Cd7  1  0.836298  0.490482  0.836922  1
  Cd  Cd8  1  0.492548  0.836159  0.836159  1
  Cd  Cd9  1  0.835133  0.836159  0.836159  1
  Cd  Cd10  1  0.163841  0.164867  0.507452  1
  Cd  Cd11  1  0.163841  0.507452  0.164867  1
  Cd  Cd12  1  0.509518  0.163702  0.163702  1
  Cd  Cd13  1  0.163078  0.163702  0.163702  1
  Cd  Cd14  1  0.621024  0.621265  0.136688  1
  Cd  Cd15  1  0.621024  0.136688  0.621265  1
  Cd  Cd16  1  0.135517  0.620692  0.620692  1
  Cd  Cd17  1  0.623100  0.620692  0.620692  1
  Cd  Cd18  1  0.379308  0.376900  0.864483  1
  Cd  Cd19  1  0.379308  0.864483  0.376900  1
  Cd  Cd20  1  0.863312  0.378976  0.378976  1
  Cd  Cd21  1  0.378735  0.378976  0.378976  1
  Cd  Cd22  1  0.999768  0.000232  0.499870  1
  Cd  Cd23  1  0.500130  0.000232  0.499870  1
  Cd  Cd24  1  0.999565  0.500435  0.500435  1
  Cd  Cd25  1  0.500130  0.499870  0.000232  1
  Cd  Cd26  1  0.999768  0.499870  0.000232  1
  Cd  Cd27  1  0.499565  0.000435  0.000435  1
  Cd  Cd28  1  0.499491  0.500509  0.500509  1
  P  P29  1  0.998615  0.001385  0.001385  1
