# generated using pymatgen
data_U2CuRh5
_symmetry_space_group_name_H-M   'P 1'
_cell_length_a   4.05983200
_cell_length_b   5.64974600
_cell_length_c   11.28392500
_cell_angle_alpha   90.00000000
_cell_angle_beta   90.00000000
_cell_angle_gamma   90.00000000
_symmetry_Int_Tables_number   1
_chemical_formula_structural   U2CuRh5
_chemical_formula_sum   'U4 Cu2 Rh10'
_cell_volume   258.81960892
_cell_formula_units_Z   2
loop_
 _symmetry_equiv_pos_site_id
 _symmetry_equiv_pos_as_xyz
  1  'x, y, z'
loop_
 _atom_site_type_symbol
 _atom_site_label
 _atom_site_symmetry_multiplicity
 _atom_site_fract_x
 _atom_site_fract_y
 _atom_site_fract_z
 _atom_site_occupancy
  U  U0  1  0.500000  0.230650  0.628899  1
  U  U1  1  0.500000  0.769350  0.371101  1
  U  U2  1  0.500000  0.730650  0.871101  1
  U  U3  1  0.500000  0.269350  0.128899  1
  Cu  Cu4  1  0.000000  0.500000  0.500000  1
  Cu  Cu5  1  0.000000  0.000000  0.000000  1
  Rh  Rh6  1  0.500000  0.227399  0.882824  1
  Rh  Rh7  1  0.500000  0.772601  0.117176  1
  Rh  Rh8  1  0.500000  0.727399  0.617176  1
  Rh  Rh9  1  0.500000  0.272601  0.382824  1
  Rh  Rh10  1  0.000000  0.472021  0.744630  1
  Rh  Rh11  1  0.000000  0.527979  0.255370  1
  Rh  Rh12  1  0.000000  0.000000  0.500000  1
  Rh  Rh13  1  0.000000  0.500000  0.000000  1
  Rh  Rh14  1  0.000000  0.027979  0.244630  1
  Rh  Rh15  1  0.000000  0.972021  0.755370  1
