# generated using pymatgen
data_Lu13Th3Zn4Fe3Ni
_symmetry_space_group_name_H-M   'P 1'
_cell_length_a   9.22929257
_cell_length_b   9.24542924
_cell_length_c   9.24542900
_cell_angle_alpha   59.99999727
_cell_angle_beta   59.94214317
_cell_angle_gamma   59.94214862
_symmetry_Int_Tables_number   1
_chemical_formula_structural   Lu13Th3Zn4Fe3Ni
_chemical_formula_sum   'Lu13 Th3 Zn4 Fe3 Ni1'
_cell_volume   557.34899745
_cell_formula_units_Z   1
loop_
 _symmetry_equiv_pos_site_id
 _symmetry_equiv_pos_as_xyz
  1  'x, y, z'
loop_
 _atom_site_type_symbol
 _atom_site_label
 _atom_site_symmetry_multiplicity
 _atom_site_fract_x
 _atom_site_fract_y
 _atom_site_fract_z
 _atom_site_occupancy
  Lu  Lu0  1  0.944366  0.351878  0.351878  1
  Lu  Lu1  1  0.816070  0.189770  0.189770  1
  Lu  Lu2  1  0.186154  0.813127  0.813127  1
  Lu  Lu3  1  0.186154  0.813127  0.187591  1
  Lu  Lu4  1  0.816070  0.189770  0.804390  1
  Lu  Lu5  1  0.186154  0.187591  0.813127  1
  Lu  Lu6  1  0.816070  0.804390  0.189770  1
  Lu  Lu7  1  0.933034  0.564581  0.564581  1
  Lu  Lu8  1  0.561989  0.935404  0.935404  1
  Lu  Lu9  1  0.561989  0.935404  0.567204  1
  Lu  Lu10  1  0.933034  0.564581  0.937804  1
  Lu  Lu11  1  0.561989  0.567204  0.935404  1
  Lu  Lu12  1  0.933034  0.937804  0.564581  1
  Th  Th13  1  0.342852  0.352770  0.352770  1
  Th  Th14  1  0.342852  0.352770  0.951607  1
  Th  Th15  1  0.342852  0.951607  0.352770  1
  Zn  Zn16  1  0.580502  0.577824  0.577824  1
  Zn  Zn17  1  0.580502  0.577824  0.263849  1
  Zn  Zn18  1  0.580502  0.263849  0.577824  1
  Zn  Zn19  1  0.258464  0.580512  0.580512  1
  Fe  Fe20  1  0.150400  0.141426  0.141426  1
  Fe  Fe21  1  0.150400  0.141426  0.566749  1
  Fe  Fe22  1  0.150400  0.566749  0.141426  1
  Ni  Ni23  1  0.584163  0.138612  0.138612  1
