# generated using pymatgen
data_CaPtCl6
_symmetry_space_group_name_H-M   'P 1'
_cell_length_a   6.65205066
_cell_length_b   6.65205718
_cell_length_c   6.55358700
_cell_angle_alpha   89.97426863
_cell_angle_beta   89.97447764
_cell_angle_gamma   119.99355320
_symmetry_Int_Tables_number   1
_chemical_formula_structural   CaPtCl6
_chemical_formula_sum   'Ca1 Pt1 Cl6'
_cell_volume   251.15929648
_cell_formula_units_Z   1
loop_
 _symmetry_equiv_pos_site_id
 _symmetry_equiv_pos_as_xyz
  1  'x, y, z'
loop_
 _atom_site_type_symbol
 _atom_site_label
 _atom_site_symmetry_multiplicity
 _atom_site_fract_x
 _atom_site_fract_y
 _atom_site_fract_z
 _atom_site_occupancy
  Ca  Ca0  1  0.666693  0.333306  0.999998  1
  Pt  Pt1  1  0.333333  0.666667  0.000000  1
  Cl  Cl2  1  0.619468  0.666900  0.211853  1
  Cl  Cl3  1  0.047317  0.380297  0.211979  1
  Cl  Cl4  1  0.332766  0.952377  0.211878  1
  Cl  Cl5  1  0.619704  0.952685  0.788020  1
  Cl  Cl6  1  0.047623  0.667237  0.788124  1
  Cl  Cl7  1  0.333098  0.380533  0.788146  1
