# generated using pymatgen
data_Tb3Lu2InBi2
_symmetry_space_group_name_H-M   'P 1'
_cell_length_a   9.05418932
_cell_length_b   9.05281061
_cell_length_c   6.49784500
_cell_angle_alpha   90.00000000
_cell_angle_beta   90.00000000
_cell_angle_gamma   119.99496956
_symmetry_Int_Tables_number   1
_chemical_formula_structural   Tb3Lu2InBi2
_chemical_formula_sum   'Tb6 Lu4 In2 Bi4'
_cell_volume   461.26977399
_cell_formula_units_Z   2
loop_
 _symmetry_equiv_pos_site_id
 _symmetry_equiv_pos_as_xyz
  1  'x, y, z'
loop_
 _atom_site_type_symbol
 _atom_site_label
 _atom_site_symmetry_multiplicity
 _atom_site_fract_x
 _atom_site_fract_y
 _atom_site_fract_z
 _atom_site_occupancy
  Tb  Tb0  1  0.755268  0.764105  0.750000  1
  Tb  Tb1  1  0.244732  0.008837  0.750000  1
  Tb  Tb2  1  0.000000  0.236317  0.750000  1
  Tb  Tb3  1  0.239981  0.238065  0.250000  1
  Tb  Tb4  1  0.760019  0.998085  0.250000  1
  Tb  Tb5  1  0.000000  0.760209  0.250000  1
  Lu  Lu6  1  0.660305  0.328474  0.996499  1
  Lu  Lu7  1  0.339695  0.668169  0.996499  1
  Lu  Lu8  1  0.339695  0.668169  0.503501  1
  Lu  Lu9  1  0.660305  0.328474  0.503501  1
  In  In10  1  0.395566  0.397167  0.750000  1
  In  In11  1  0.604434  0.001601  0.750000  1
  Bi  Bi12  1  0.000000  0.608047  0.750000  1
  Bi  Bi13  1  0.605726  0.602677  0.250000  1
  Bi  Bi14  1  0.394274  0.996952  0.250000  1
  Bi  Bi15  1  0.000000  0.394650  0.250000  1
