# generated using pymatgen
data_Nd2TmLu(AsPt)4
_symmetry_space_group_name_H-M   'P 1'
_cell_length_a   4.28184500
_cell_length_b   4.28184614
_cell_length_c   15.85612800
_cell_angle_alpha   90.00000000
_cell_angle_beta   90.00000000
_cell_angle_gamma   120.00001434
_symmetry_Int_Tables_number   1
_chemical_formula_structural   Nd2TmLu(AsPt)4
_chemical_formula_sum   'Nd2 Tm1 Lu1 As4 Pt4'
_cell_volume   251.76172881
_cell_formula_units_Z   1
loop_
 _symmetry_equiv_pos_site_id
 _symmetry_equiv_pos_as_xyz
  1  'x, y, z'
loop_
 _atom_site_type_symbol
 _atom_site_label
 _atom_site_symmetry_multiplicity
 _atom_site_fract_x
 _atom_site_fract_y
 _atom_site_fract_z
 _atom_site_occupancy
  Nd  Nd0  1  0.000000  0.000000  0.500824  1
  Nd  Nd1  1  0.000000  0.000000  0.999176  1
  Tm  Tm2  1  0.000000  0.000000  0.250000  1
  Lu  Lu3  1  0.000000  0.000000  0.750000  1
  As  As4  1  0.333333  0.666667  0.880288  1
  As  As5  1  0.666667  0.333333  0.119164  1
  As  As6  1  0.666667  0.333333  0.380836  1
  As  As7  1  0.333333  0.666667  0.619712  1
  Pt  Pt8  1  0.333333  0.666667  0.355992  1
  Pt  Pt9  1  0.666667  0.333333  0.646261  1
  Pt  Pt10  1  0.666667  0.333333  0.853739  1
  Pt  Pt11  1  0.333333  0.666667  0.144008  1
