# generated using pymatgen
data_Y3Lu5(CdIr)2
_symmetry_space_group_name_H-M   'P 1'
_cell_length_a   9.52413264
_cell_length_b   9.52413209
_cell_length_c   9.52413200
_cell_angle_alpha   60.00000031
_cell_angle_beta   60.00000222
_cell_angle_gamma   59.99999556
_symmetry_Int_Tables_number   1
_chemical_formula_structural   Y3Lu5(CdIr)2
_chemical_formula_sum   'Y6 Lu10 Cd4 Ir4'
_cell_volume   610.88751141
_cell_formula_units_Z   2
loop_
 _symmetry_equiv_pos_site_id
 _symmetry_equiv_pos_as_xyz
  1  'x, y, z'
loop_
 _atom_site_type_symbol
 _atom_site_label
 _atom_site_symmetry_multiplicity
 _atom_site_fract_x
 _atom_site_fract_y
 _atom_site_fract_z
 _atom_site_occupancy
  Y  Y0  1  0.940184  0.559816  0.559816  1
  Y  Y1  1  0.559816  0.940184  0.940184  1
  Y  Y2  1  0.559816  0.940184  0.559816  1
  Y  Y3  1  0.940184  0.559816  0.940184  1
  Y  Y4  1  0.559816  0.559816  0.940184  1
  Y  Y5  1  0.940184  0.940184  0.559816  1
  Lu  Lu6  1  0.348367  0.348367  0.348367  1
  Lu  Lu7  1  0.348367  0.348367  0.954900  1
  Lu  Lu8  1  0.348367  0.954900  0.348367  1
  Lu  Lu9  1  0.954900  0.348367  0.348367  1
  Lu  Lu10  1  0.811778  0.188222  0.188222  1
  Lu  Lu11  1  0.188222  0.811778  0.811778  1
  Lu  Lu12  1  0.188222  0.811778  0.188222  1
  Lu  Lu13  1  0.811778  0.188222  0.811778  1
  Lu  Lu14  1  0.188222  0.188222  0.811778  1
  Lu  Lu15  1  0.811778  0.811778  0.188222  1
  Cd  Cd16  1  0.580086  0.580086  0.580086  1
  Cd  Cd17  1  0.580086  0.580086  0.259743  1
  Cd  Cd18  1  0.580086  0.259743  0.580086  1
  Cd  Cd19  1  0.259743  0.580086  0.580086  1
  Ir  Ir20  1  0.141762  0.141762  0.141762  1
  Ir  Ir21  1  0.141762  0.141762  0.574715  1
  Ir  Ir22  1  0.141762  0.574715  0.141762  1
  Ir  Ir23  1  0.574715  0.141762  0.141762  1
