# generated using pymatgen
data_La9Nd7(YIr3)4
_symmetry_space_group_name_H-M   'P 1'
_cell_length_a   11.32388676
_cell_length_b   11.30123528
_cell_length_c   6.53786850
_cell_angle_alpha   89.96962066
_cell_angle_beta   89.80750613
_cell_angle_gamma   89.90508573
_symmetry_Int_Tables_number   1
_chemical_formula_structural   La9Nd7(YIr3)4
_chemical_formula_sum   'La9 Nd7 Y4 Ir12'
_cell_volume   836.67060079
_cell_formula_units_Z   1
loop_
 _symmetry_equiv_pos_site_id
 _symmetry_equiv_pos_as_xyz
  1  'x, y, z'
loop_
 _atom_site_type_symbol
 _atom_site_label
 _atom_site_symmetry_multiplicity
 _atom_site_fract_x
 _atom_site_fract_y
 _atom_site_fract_z
 _atom_site_occupancy
  La  La0  1  0.287396  0.089395  0.383785  1
  La  La1  1  0.287117  0.909784  0.884153  1
  La  La2  1  0.712761  0.089777  0.884758  1
  La  La3  1  0.712691  0.910252  0.384724  1
  La  La4  1  0.589865  0.787441  0.884316  1
  La  La5  1  0.590280  0.212673  0.384951  1
  La  La6  1  0.410231  0.787166  0.384074  1
  La  La7  1  0.410965  0.212047  0.885465  1
  La  La8  1  0.210079  0.413289  0.614712  1
  Nd  Nd9  1  0.209662  0.587242  0.115296  1
  Nd  Nd10  1  0.790424  0.414290  0.114251  1
  Nd  Nd11  1  0.790604  0.586013  0.614840  1
  Nd  Nd12  1  0.914644  0.709524  0.115115  1
  Nd  Nd13  1  0.912528  0.289771  0.614739  1
  Nd  Nd14  1  0.085477  0.710932  0.615325  1
  Nd  Nd15  1  0.084478  0.289818  0.114691  1
  Y  Y16  1  0.999536  0.999977  0.500784  1
  Y  Y17  1  0.999926  0.000011  0.000669  1
  Y  Y18  1  0.500211  0.499871  0.002324  1
  Y  Y19  1  0.501406  0.500743  0.501431  1
  Ir  Ir20  1  0.849802  0.149960  0.248781  1
  Ir  Ir21  1  0.850080  0.849529  0.749297  1
  Ir  Ir22  1  0.149893  0.149572  0.748576  1
  Ir  Ir23  1  0.149847  0.849874  0.248704  1
  Ir  Ir24  1  0.650103  0.349934  0.749306  1
  Ir  Ir25  1  0.650316  0.650132  0.248787  1
  Ir  Ir26  1  0.349178  0.350154  0.250173  1
  Ir  Ir27  1  0.350361  0.650875  0.749659  1
  Ir  Ir28  1  0.499947  0.000241  0.121385  1
  Ir  Ir29  1  0.500186  0.999736  0.621307  1
  Ir  Ir30  1  0.000434  0.499705  0.881292  1
  Ir  Ir31  1  0.999575  0.500272  0.382328  1
