# generated using pymatgen
data_Rb3Dy(TaS4)2
_symmetry_space_group_name_H-M   'P 1'
_cell_length_a   9.36022063
_cell_length_b   10.54819797
_cell_length_c   11.33547019
_cell_angle_alpha   107.38217708
_cell_angle_beta   103.02161275
_cell_angle_gamma   113.76816686
_symmetry_Int_Tables_number   1
_chemical_formula_structural   Rb3Dy(TaS4)2
_chemical_formula_sum   'Rb6 Dy2 Ta4 S16'
_cell_volume   897.64772699
_cell_formula_units_Z   2
loop_
 _symmetry_equiv_pos_site_id
 _symmetry_equiv_pos_as_xyz
  1  'x, y, z'
loop_
 _atom_site_type_symbol
 _atom_site_label
 _atom_site_symmetry_multiplicity
 _atom_site_fract_x
 _atom_site_fract_y
 _atom_site_fract_z
 _atom_site_occupancy
  Rb  Rb0  1  0.000000  0.500000  0.000000  1
  Rb  Rb1  1  0.500000  0.500000  0.000000  1
  Rb  Rb2  1  0.259815  0.009818  0.019637  1
  Rb  Rb3  1  0.486119  0.736096  0.472154  1
  Rb  Rb4  1  0.513880  0.263902  0.527846  1
  Rb  Rb5  1  0.740185  0.990182  0.980362  1
  Dy  Dy6  1  0.994922  0.244948  0.489849  1
  Dy  Dy7  1  0.005079  0.755052  0.510151  1
  Ta  Ta8  1  0.758367  0.353350  0.260583  1
  Ta  Ta9  1  0.002288  0.907241  0.260599  1
  Ta  Ta10  1  0.997712  0.092760  0.739402  1
  Ta  Ta11  1  0.241632  0.646650  0.739417  1
  S  S12  1  0.652284  0.273628  0.034982  1
  S  S13  1  0.882721  0.761455  0.034989  1
  S  S14  1  0.126240  0.163526  0.303570  1
  S  S15  1  0.677364  0.140020  0.303547  1
  S  S16  1  0.046255  0.494114  0.353927  1
  S  S17  1  0.807821  0.859815  0.354033  1
  S  S18  1  0.196395  0.853494  0.362337  1
  S  S19  1  0.666004  0.508790  0.362343  1
  S  S20  1  0.333995  0.491209  0.637656  1
  S  S21  1  0.803604  0.146506  0.637662  1
  S  S22  1  0.192179  0.140184  0.645967  1
  S  S23  1  0.953744  0.505885  0.646073  1
  S  S24  1  0.322635  0.859979  0.696452  1
  S  S25  1  0.873760  0.836473  0.696429  1
  S  S26  1  0.117280  0.238545  0.965012  1
  S  S27  1  0.347715  0.726372  0.965019  1
