# generated using pymatgen
data_Tb3Dy(Ho4Bi3)4
_symmetry_space_group_name_H-M   'P 1'
_cell_length_a   8.24864301
_cell_length_b   9.49937300
_cell_length_c   12.02369602
_cell_angle_alpha   90.00000000
_cell_angle_beta   89.99327384
_cell_angle_gamma   90.00000000
_symmetry_Int_Tables_number   1
_chemical_formula_structural   Tb3Dy(Ho4Bi3)4
_chemical_formula_sum   'Tb3 Dy1 Ho16 Bi12'
_cell_volume   942.13998193
_cell_formula_units_Z   1
loop_
 _symmetry_equiv_pos_site_id
 _symmetry_equiv_pos_as_xyz
  1  'x, y, z'
loop_
 _atom_site_type_symbol
 _atom_site_label
 _atom_site_symmetry_multiplicity
 _atom_site_fract_x
 _atom_site_fract_y
 _atom_site_fract_z
 _atom_site_occupancy
  Tb  Tb0  1  0.312726  0.250000  0.218728  1
  Tb  Tb1  1  0.812729  0.250000  0.281257  1
  Tb  Tb2  1  0.687341  0.750000  0.781281  1
  Dy  Dy3  1  0.187367  0.750000  0.718555  1
  Ho  Ho4  1  0.352528  0.750000  0.215842  1
  Ho  Ho5  1  0.852582  0.750000  0.284111  1
  Ho  Ho6  1  0.647456  0.250000  0.784141  1
  Ho  Ho7  1  0.147407  0.250000  0.715924  1
  Ho  Ho8  1  0.692608  0.564377  0.058768  1
  Ho  Ho9  1  0.192667  0.935623  0.441255  1
  Ho  Ho10  1  0.307358  0.064395  0.941178  1
  Ho  Ho11  1  0.807302  0.435601  0.558804  1
  Ho  Ho12  1  0.307358  0.435605  0.941178  1
  Ho  Ho13  1  0.807302  0.064399  0.558804  1
  Ho  Ho14  1  0.692608  0.935623  0.058768  1
  Ho  Ho15  1  0.192667  0.564377  0.441255  1
  Ho  Ho16  1  0.475391  0.250000  0.488436  1
  Ho  Ho17  1  0.975449  0.250000  0.011590  1
  Ho  Ho18  1  0.524532  0.750000  0.511690  1
  Ho  Ho19  1  0.024618  0.750000  0.988324  1
  Bi  Bi20  1  0.406618  0.750000  0.957615  1
  Bi  Bi21  1  0.907094  0.750000  0.542503  1
  Bi  Bi22  1  0.593240  0.250000  0.042266  1
  Bi  Bi23  1  0.093189  0.250000  0.457729  1
  Bi  Bi24  1  0.565103  0.994876  0.325695  1
  Bi  Bi25  1  0.065072  0.505106  0.174334  1
  Bi  Bi26  1  0.434668  0.495103  0.674369  1
  Bi  Bi27  1  0.935089  0.004953  0.825601  1
  Bi  Bi28  1  0.434668  0.004897  0.674369  1
  Bi  Bi29  1  0.935089  0.495047  0.825601  1
  Bi  Bi30  1  0.565103  0.505124  0.325695  1
  Bi  Bi31  1  0.065072  0.994894  0.174334  1
