# generated using pymatgen
data_Ho20Cd6FeRu
_symmetry_space_group_name_H-M   'P 1'
_cell_length_a   9.51793500
_cell_length_b   9.51793482
_cell_length_c   9.79494800
_cell_angle_alpha   90.00000000
_cell_angle_beta   90.00000000
_cell_angle_gamma   120.00000412
_symmetry_Int_Tables_number   1
_chemical_formula_structural   Ho20Cd6FeRu
_chemical_formula_sum   'Ho20 Cd6 Fe1 Ru1'
_cell_volume   768.45459031
_cell_formula_units_Z   1
loop_
 _symmetry_equiv_pos_site_id
 _symmetry_equiv_pos_as_xyz
  1  'x, y, z'
loop_
 _atom_site_type_symbol
 _atom_site_label
 _atom_site_symmetry_multiplicity
 _atom_site_fract_x
 _atom_site_fract_y
 _atom_site_fract_z
 _atom_site_occupancy
  Ho  Ho0  1  0.000000  0.000000  0.499902  1
  Ho  Ho1  1  0.000000  0.000000  0.000098  1
  Ho  Ho2  1  0.212318  0.787682  0.437049  1
  Ho  Ho3  1  0.212318  0.424637  0.437049  1
  Ho  Ho4  1  0.575363  0.787682  0.437049  1
  Ho  Ho5  1  0.790225  0.209775  0.559462  1
  Ho  Ho6  1  0.790225  0.580450  0.559462  1
  Ho  Ho7  1  0.419550  0.209775  0.559462  1
  Ho  Ho8  1  0.790225  0.209775  0.940538  1
  Ho  Ho9  1  0.790225  0.580450  0.940538  1
  Ho  Ho10  1  0.419550  0.209775  0.940538  1
  Ho  Ho11  1  0.212318  0.787682  0.062951  1
  Ho  Ho12  1  0.212318  0.424637  0.062951  1
  Ho  Ho13  1  0.575363  0.787682  0.062951  1
  Ho  Ho14  1  0.540169  0.459831  0.250000  1
  Ho  Ho15  1  0.540169  0.080337  0.250000  1
  Ho  Ho16  1  0.919663  0.459831  0.250000  1
  Ho  Ho17  1  0.458810  0.541190  0.750000  1
  Ho  Ho18  1  0.458810  0.917620  0.750000  1
  Ho  Ho19  1  0.082380  0.541190  0.750000  1
  Cd  Cd20  1  0.885852  0.114148  0.250000  1
  Cd  Cd21  1  0.885852  0.771707  0.250000  1
  Cd  Cd22  1  0.228293  0.114148  0.250000  1
  Cd  Cd23  1  0.114277  0.885723  0.750000  1
  Cd  Cd24  1  0.114277  0.228552  0.750000  1
  Cd  Cd25  1  0.771448  0.885723  0.750000  1
  Fe  Fe26  1  0.333333  0.666667  0.250000  1
  Ru  Ru27  1  0.666667  0.333333  0.750000  1
