# generated using pymatgen
data_Nd4SeBr6
_symmetry_space_group_name_H-M   'P 1'
_cell_length_a   4.25641200
_cell_length_b   13.78996200
_cell_length_c   14.35556900
_cell_angle_alpha   90.00000000
_cell_angle_beta   90.00000000
_cell_angle_gamma   90.00000000
_symmetry_Int_Tables_number   1
_chemical_formula_structural   Nd4SeBr6
_chemical_formula_sum   'Nd8 Se2 Br12'
_cell_volume   842.61102890
_cell_formula_units_Z   2
loop_
 _symmetry_equiv_pos_site_id
 _symmetry_equiv_pos_as_xyz
  1  'x, y, z'
loop_
 _atom_site_type_symbol
 _atom_site_label
 _atom_site_symmetry_multiplicity
 _atom_site_fract_x
 _atom_site_fract_y
 _atom_site_fract_z
 _atom_site_occupancy
  Nd  Nd0  1  0.000000  0.109117  0.083781  1
  Nd  Nd1  1  0.000000  0.890883  0.916219  1
  Nd  Nd2  1  0.000000  0.609117  0.416219  1
  Nd  Nd3  1  0.000000  0.390883  0.583781  1
  Nd  Nd4  1  0.500000  0.127826  0.847627  1
  Nd  Nd5  1  0.500000  0.872174  0.152373  1
  Nd  Nd6  1  0.500000  0.627826  0.652373  1
  Nd  Nd7  1  0.500000  0.372174  0.347627  1
  Se  Se8  1  0.500000  0.000000  0.000000  1
  Se  Se9  1  0.500000  0.500000  0.500000  1
  Br  Br10  1  0.500000  0.262917  0.678378  1
  Br  Br11  1  0.500000  0.737083  0.321622  1
  Br  Br12  1  0.500000  0.762917  0.821622  1
  Br  Br13  1  0.500000  0.237083  0.178378  1
  Br  Br14  1  0.000000  0.256942  0.927430  1
  Br  Br15  1  0.000000  0.743058  0.072570  1
  Br  Br16  1  0.000000  0.482198  0.244015  1
  Br  Br17  1  0.000000  0.517802  0.755985  1
  Br  Br18  1  0.000000  0.982198  0.255985  1
  Br  Br19  1  0.000000  0.017802  0.744015  1
  Br  Br20  1  0.000000  0.243058  0.427430  1
  Br  Br21  1  0.000000  0.756942  0.572570  1
