# generated using pymatgen
data_Tb3Nd3Th2(CdIr)2
_symmetry_space_group_name_H-M   'P 1'
_cell_length_a   9.86638744
_cell_length_b   9.86638798
_cell_length_c   9.86638700
_cell_angle_alpha   59.99999993
_cell_angle_beta   59.99999811
_cell_angle_gamma   59.99999862
_symmetry_Int_Tables_number   1
_chemical_formula_structural   Tb3Nd3Th2(CdIr)2
_chemical_formula_sum   'Tb6 Nd6 Th4 Cd4 Ir4'
_cell_volume   679.14028445
_cell_formula_units_Z   2
loop_
 _symmetry_equiv_pos_site_id
 _symmetry_equiv_pos_as_xyz
  1  'x, y, z'
loop_
 _atom_site_type_symbol
 _atom_site_label
 _atom_site_symmetry_multiplicity
 _atom_site_fract_x
 _atom_site_fract_y
 _atom_site_fract_z
 _atom_site_occupancy
  Tb  Tb0  1  0.813343  0.186657  0.186657  1
  Tb  Tb1  1  0.186657  0.813343  0.813343  1
  Tb  Tb2  1  0.186657  0.813343  0.186657  1
  Tb  Tb3  1  0.813343  0.186657  0.813343  1
  Tb  Tb4  1  0.186657  0.186657  0.813343  1
  Tb  Tb5  1  0.813343  0.813343  0.186657  1
  Nd  Nd6  1  0.938594  0.561406  0.561406  1
  Nd  Nd7  1  0.561406  0.938594  0.938594  1
  Nd  Nd8  1  0.561406  0.938594  0.561406  1
  Nd  Nd9  1  0.938594  0.561406  0.938594  1
  Nd  Nd10  1  0.561406  0.561406  0.938594  1
  Nd  Nd11  1  0.938594  0.938594  0.561406  1
  Th  Th12  1  0.348263  0.348263  0.348263  1
  Th  Th13  1  0.348263  0.348263  0.955213  1
  Th  Th14  1  0.348263  0.955213  0.348263  1
  Th  Th15  1  0.955213  0.348263  0.348263  1
  Cd  Cd16  1  0.579963  0.579963  0.579963  1
  Cd  Cd17  1  0.579963  0.579963  0.260110  1
  Cd  Cd18  1  0.579963  0.260110  0.579963  1
  Cd  Cd19  1  0.260110  0.579963  0.579963  1
  Ir  Ir20  1  0.143961  0.143961  0.143961  1
  Ir  Ir21  1  0.143961  0.143961  0.568114  1
  Ir  Ir22  1  0.143961  0.568114  0.143961  1
  Ir  Ir23  1  0.568114  0.143961  0.143961  1
