# generated using pymatgen
data_Sc3(Zn2Au)2
_symmetry_space_group_name_H-M   'P 1'
_cell_length_a   7.34032000
_cell_length_b   7.34031999
_cell_length_c   3.51300800
_cell_angle_alpha   90.00000000
_cell_angle_beta   90.00000000
_cell_angle_gamma   120.00000907
_symmetry_Int_Tables_number   1
_chemical_formula_structural   Sc3(Zn2Au)2
_chemical_formula_sum   'Sc3 Zn4 Au2'
_cell_volume   163.92293322
_cell_formula_units_Z   1
loop_
 _symmetry_equiv_pos_site_id
 _symmetry_equiv_pos_as_xyz
  1  'x, y, z'
loop_
 _atom_site_type_symbol
 _atom_site_label
 _atom_site_symmetry_multiplicity
 _atom_site_fract_x
 _atom_site_fract_y
 _atom_site_fract_z
 _atom_site_occupancy
  Sc  Sc0  1  0.595388  0.000000  0.000000  1
  Sc  Sc1  1  0.000000  0.595388  0.000000  1
  Sc  Sc2  1  0.404612  0.404612  0.000000  1
  Zn  Zn3  1  0.258430  0.000000  0.500000  1
  Zn  Zn4  1  0.000000  0.258430  0.500000  1
  Zn  Zn5  1  0.741570  0.741570  0.500000  1
  Zn  Zn6  1  0.000000  0.000000  0.000000  1
  Au  Au7  1  0.333333  0.666667  0.500000  1
  Au  Au8  1  0.666667  0.333333  0.500000  1
