# generated using pymatgen
data_BaSr5(VH9)3
_symmetry_space_group_name_H-M   'P 1'
_cell_length_a   8.86731700
_cell_length_b   8.93748308
_cell_length_c   5.18616400
_cell_angle_alpha   90.00000000
_cell_angle_beta   90.00000000
_cell_angle_gamma   119.74064790
_symmetry_Int_Tables_number   1
_chemical_formula_structural   BaSr5(VH9)3
_chemical_formula_sum   'Ba1 Sr5 V3 H27'
_cell_volume   356.87276818
_cell_formula_units_Z   1
loop_
 _symmetry_equiv_pos_site_id
 _symmetry_equiv_pos_as_xyz
  1  'x, y, z'
loop_
 _atom_site_type_symbol
 _atom_site_label
 _atom_site_symmetry_multiplicity
 _atom_site_fract_x
 _atom_site_fract_y
 _atom_site_fract_z
 _atom_site_occupancy
  Ba  Ba0  1  0.595262  0.000000  0.000000  1
  Sr  Sr1  1  0.001510  0.265906  0.500000  1
  Sr  Sr2  1  0.735604  0.734094  0.500000  1
  Sr  Sr3  1  0.267346  0.000000  0.500000  1
  Sr  Sr4  1  0.000077  0.595106  0.000000  1
  Sr  Sr5  1  0.404971  0.404894  0.000000  1
  V  V6  1  0.667704  0.340368  0.500000  1
  V  V7  1  0.327335  0.659632  0.500000  1
  V  V8  1  0.005943  0.000000  0.000000  1
  H  H9  1  0.796795  0.323438  0.742103  1
  H  H10  1  0.684758  0.480714  0.747052  1
  H  H11  1  0.521241  0.217547  0.741638  1
  H  H12  1  0.204043  0.519286  0.252948  1
  H  H13  1  0.521241  0.217547  0.258362  1
  H  H14  1  0.796795  0.323438  0.257897  1
  H  H15  1  0.684758  0.480714  0.252948  1
  H  H16  1  0.303693  0.782453  0.741638  1
  H  H17  1  0.473356  0.676562  0.742103  1
  H  H18  1  0.199908  0.000000  0.000000  1
  H  H19  1  0.808407  0.812099  0.000000  1
  H  H20  1  0.996308  0.187901  0.000000  1
  H  H21  1  0.871512  0.000000  0.238743  1
  H  H22  1  0.146358  0.142498  0.772018  1
  H  H23  1  0.003860  0.857502  0.772018  1
  H  H24  1  0.003860  0.857502  0.227982  1
  H  H25  1  0.146358  0.142498  0.227982  1
  H  H26  1  0.871512  0.000000  0.761257  1
  H  H27  1  0.126365  0.635803  0.500000  1
  H  H28  1  0.506257  0.859788  0.500000  1
  H  H29  1  0.343612  0.478487  0.500000  1
  H  H30  1  0.490562  0.364197  0.500000  1
  H  H31  1  0.865125  0.521513  0.500000  1
  H  H32  1  0.646469  0.140212  0.500000  1
  H  H33  1  0.204043  0.519286  0.747052  1
  H  H34  1  0.303693  0.782453  0.258362  1
  H  H35  1  0.473356  0.676562  0.257897  1
