# generated using pymatgen
data_Ta6MnCr(B3Ru2)2
_symmetry_space_group_name_H-M   'P 1'
_cell_length_a   3.12127300
_cell_length_b   6.35765700
_cell_length_c   10.83100500
_cell_angle_alpha   90.00000000
_cell_angle_beta   90.00000000
_cell_angle_gamma   90.00000000
_symmetry_Int_Tables_number   1
_chemical_formula_structural   Ta6MnCr(B3Ru2)2
_chemical_formula_sum   'Ta6 Mn1 Cr1 B6 Ru4'
_cell_volume   214.93028058
_cell_formula_units_Z   1
loop_
 _symmetry_equiv_pos_site_id
 _symmetry_equiv_pos_as_xyz
  1  'x, y, z'
loop_
 _atom_site_type_symbol
 _atom_site_label
 _atom_site_symmetry_multiplicity
 _atom_site_fract_x
 _atom_site_fract_y
 _atom_site_fract_z
 _atom_site_occupancy
  Ta  Ta0  1  0.000000  0.224530  0.951256  1
  Ta  Ta1  1  0.000000  0.775154  0.049095  1
  Ta  Ta2  1  0.000000  0.224530  0.548744  1
  Ta  Ta3  1  0.000000  0.775154  0.450905  1
  Ta  Ta4  1  0.000000  0.138144  0.250000  1
  Ta  Ta5  1  0.000000  0.862488  0.750000  1
  Mn  Mn6  1  0.500000  0.199888  0.750000  1
  Cr  Cr7  1  0.500000  0.802132  0.250000  1
  B  B8  1  0.500000  0.048178  0.085969  1
  B  B9  1  0.500000  0.952332  0.913453  1
  B  B10  1  0.500000  0.048178  0.414031  1
  B  B11  1  0.500000  0.952332  0.586547  1
  B  B12  1  0.000000  0.562474  0.250000  1
  B  B13  1  0.000000  0.437284  0.750000  1
  Ru  Ru14  1  0.500000  0.425748  0.123342  1
  Ru  Ru15  1  0.500000  0.572854  0.875419  1
  Ru  Ru16  1  0.500000  0.425748  0.376658  1
  Ru  Ru17  1  0.500000  0.572854  0.624581  1
