# generated using pymatgen
data_Sr3Yb(ZnSb2)2
_symmetry_space_group_name_H-M   'P 1'
_cell_length_a   9.07529366
_cell_length_b   9.07529406
_cell_length_c   7.50116400
_cell_angle_alpha   89.89700346
_cell_angle_beta   90.10299654
_cell_angle_gamma   150.10670937
_symmetry_Int_Tables_number   1
_chemical_formula_structural   Sr3Yb(ZnSb2)2
_chemical_formula_sum   'Sr3 Yb1 Zn2 Sb4'
_cell_volume   307.90399923
_cell_formula_units_Z   1
loop_
 _symmetry_equiv_pos_site_id
 _symmetry_equiv_pos_as_xyz
  1  'x, y, z'
loop_
 _atom_site_type_symbol
 _atom_site_label
 _atom_site_symmetry_multiplicity
 _atom_site_fract_x
 _atom_site_fract_y
 _atom_site_fract_z
 _atom_site_occupancy
  Sr  Sr0  1  0.705006  0.294994  0.925287  1
  Sr  Sr1  1  0.294168  0.705832  0.423985  1
  Sr  Sr2  1  0.480307  0.519693  0.723232  1
  Yb  Yb3  1  0.517402  0.482598  0.222680  1
  Zn  Zn4  1  0.090553  0.909447  0.569020  1
  Zn  Zn5  1  0.912799  0.087201  0.067148  1
  Sb  Sb6  1  0.066972  0.933028  0.949689  1
  Sb  Sb7  1  0.662512  0.337488  0.471465  1
  Sb  Sb8  1  0.334966  0.665034  0.982714  1
  Sb  Sb9  1  0.935316  0.064684  0.433497  1
