# generated using pymatgen
data_Pr3Sc2(Al5Ru2)2
_symmetry_space_group_name_H-M   'P 1'
_cell_length_a   9.08567200
_cell_length_b   9.08567084
_cell_length_c   9.76136800
_cell_angle_alpha   90.00000000
_cell_angle_beta   90.00000000
_cell_angle_gamma   119.99999694
_symmetry_Int_Tables_number   1
_chemical_formula_structural   Pr3Sc2(Al5Ru2)2
_chemical_formula_sum   'Pr6 Sc4 Al20 Ru8'
_cell_volume   697.83923633
_cell_formula_units_Z   2
loop_
 _symmetry_equiv_pos_site_id
 _symmetry_equiv_pos_as_xyz
  1  'x, y, z'
loop_
 _atom_site_type_symbol
 _atom_site_label
 _atom_site_symmetry_multiplicity
 _atom_site_fract_x
 _atom_site_fract_y
 _atom_site_fract_z
 _atom_site_occupancy
  Pr  Pr0  1  0.186269  0.372536  0.250000  1
  Pr  Pr1  1  0.813731  0.627464  0.750000  1
  Pr  Pr2  1  0.627464  0.813731  0.250000  1
  Pr  Pr3  1  0.372536  0.186269  0.750000  1
  Pr  Pr4  1  0.186269  0.813731  0.250000  1
  Pr  Pr5  1  0.813731  0.186269  0.750000  1
  Sc  Sc6  1  0.333333  0.666667  0.006230  1
  Sc  Sc7  1  0.666667  0.333333  0.993770  1
  Sc  Sc8  1  0.666667  0.333333  0.506230  1
  Sc  Sc9  1  0.333333  0.666667  0.493770  1
  Al  Al10  1  0.158302  0.316603  0.574241  1
  Al  Al11  1  0.841698  0.683397  0.425759  1
  Al  Al12  1  0.683397  0.841698  0.574241  1
  Al  Al13  1  0.841698  0.683397  0.074241  1
  Al  Al14  1  0.316603  0.158302  0.425759  1
  Al  Al15  1  0.158302  0.316603  0.925759  1
  Al  Al16  1  0.158302  0.841698  0.574241  1
  Al  Al17  1  0.316603  0.158302  0.074241  1
  Al  Al18  1  0.841698  0.158302  0.425759  1
  Al  Al19  1  0.683397  0.841698  0.925759  1
  Al  Al20  1  0.841698  0.158302  0.074241  1
  Al  Al21  1  0.158302  0.841698  0.925759  1
  Al  Al22  1  0.560457  0.120913  0.250000  1
  Al  Al23  1  0.439543  0.879087  0.750000  1
  Al  Al24  1  0.879087  0.439543  0.250000  1
  Al  Al25  1  0.120913  0.560457  0.750000  1
  Al  Al26  1  0.560457  0.439543  0.250000  1
  Al  Al27  1  0.439543  0.560457  0.750000  1
  Al  Al28  1  0.000000  0.000000  0.250000  1
  Al  Al29  1  0.000000  0.000000  0.750000  1
  Ru  Ru30  1  0.500000  0.000000  0.000000  1
  Ru  Ru31  1  0.000000  0.500000  0.000000  1
  Ru  Ru32  1  0.500000  0.000000  0.500000  1
  Ru  Ru33  1  0.500000  0.500000  0.000000  1
  Ru  Ru34  1  0.000000  0.500000  0.500000  1
  Ru  Ru35  1  0.500000  0.500000  0.500000  1
  Ru  Ru36  1  0.000000  0.000000  0.000000  1
  Ru  Ru37  1  0.000000  0.000000  0.500000  1
