# generated using pymatgen
data_TbY3(CuP2)4
_symmetry_space_group_name_H-M   'P 1'
_cell_length_a   3.71447000
_cell_length_b   3.77519001
_cell_length_c   19.51029600
_cell_angle_alpha   90.00393082
_cell_angle_beta   90.00000000
_cell_angle_gamma   90.00000000
_symmetry_Int_Tables_number   1
_chemical_formula_structural   TbY3(CuP2)4
_chemical_formula_sum   'Tb1 Y3 Cu4 P8'
_cell_volume   273.58956404
_cell_formula_units_Z   1
loop_
 _symmetry_equiv_pos_site_id
 _symmetry_equiv_pos_as_xyz
  1  'x, y, z'
loop_
 _atom_site_type_symbol
 _atom_site_label
 _atom_site_symmetry_multiplicity
 _atom_site_fract_x
 _atom_site_fract_y
 _atom_site_fract_z
 _atom_site_occupancy
  Tb  Tb0  1  0.750000  0.217143  0.117481  1
  Y  Y1  1  0.250000  0.717891  0.382332  1
  Y  Y2  1  0.250000  0.782436  0.882553  1
  Y  Y3  1  0.750000  0.282155  0.617596  1
  Cu  Cu4  1  0.250000  0.218566  0.249750  1
  Cu  Cu5  1  0.750000  0.781697  0.750335  1
  Cu  Cu6  1  0.250000  0.281824  0.749861  1
  Cu  Cu7  1  0.750000  0.718630  0.250286  1
  P  P8  1  0.750000  0.807258  0.501921  1
  P  P9  1  0.750000  0.694414  0.001648  1
  P  P10  1  0.250000  0.193030  0.497869  1
  P  P11  1  0.250000  0.305010  0.997947  1
  P  P12  1  0.250000  0.718006  0.172571  1
  P  P13  1  0.750000  0.218579  0.327666  1
  P  P14  1  0.750000  0.281743  0.827930  1
  P  P15  1  0.250000  0.781617  0.672255  1
