# generated using pymatgen
data_NaCdSn(P3Pd10)2
_symmetry_space_group_name_H-M   'P 1'
_cell_length_a   8.62213842
_cell_length_b   8.62198827
_cell_length_c   8.62258500
_cell_angle_alpha   59.99891063
_cell_angle_beta   59.99834005
_cell_angle_gamma   60.00316234
_symmetry_Int_Tables_number   1
_chemical_formula_structural   NaCdSn(P3Pd10)2
_chemical_formula_sum   'Na1 Cd1 Sn1 P6 Pd20'
_cell_volume   453.25881458
_cell_formula_units_Z   1
loop_
 _symmetry_equiv_pos_site_id
 _symmetry_equiv_pos_as_xyz
  1  'x, y, z'
loop_
 _atom_site_type_symbol
 _atom_site_label
 _atom_site_symmetry_multiplicity
 _atom_site_fract_x
 _atom_site_fract_y
 _atom_site_fract_z
 _atom_site_occupancy
  Na  Na0  1  0.999993  0.000003  0.000002  1
  Cd  Cd1  1  0.750000  0.750002  0.749997  1
  Sn  Sn2  1  0.250008  0.249977  0.250025  1
  P  P3  1  0.736477  0.736501  0.263519  1
  P  P4  1  0.263509  0.263502  0.736481  1
  P  P5  1  0.263572  0.736449  0.736418  1
  P  P6  1  0.736438  0.263568  0.736426  1
  P  P7  1  0.263577  0.736426  0.263580  1
  P  P8  1  0.736429  0.263561  0.263572  1
  Pd  Pd9  1  0.615516  0.615525  0.615460  1
  Pd  Pd10  1  0.381131  0.856531  0.381166  1
  Pd  Pd11  1  0.655840  0.344938  0.999615  1
  Pd  Pd12  1  0.999623  0.344976  0.655810  1
  Pd  Pd13  1  0.655812  0.999590  0.999624  1
  Pd  Pd14  1  0.615514  0.615516  0.153509  1
  Pd  Pd15  1  0.999624  0.999613  0.655828  1
  Pd  Pd16  1  0.999613  0.344978  0.999589  1
  Pd  Pd17  1  0.655807  0.999589  0.344988  1
  Pd  Pd18  1  0.344976  0.999611  0.999587  1
  Pd  Pd19  1  0.999586  0.655825  0.999612  1
  Pd  Pd20  1  0.344985  0.999614  0.655806  1
  Pd  Pd21  1  0.999585  0.655825  0.344981  1
  Pd  Pd22  1  0.344938  0.655854  0.999604  1
  Pd  Pd23  1  0.153505  0.615468  0.615509  1
  Pd  Pd24  1  0.381162  0.381173  0.381128  1
  Pd  Pd25  1  0.856538  0.381130  0.381172  1
  Pd  Pd26  1  0.381171  0.381165  0.856539  1
  Pd  Pd27  1  0.615470  0.153492  0.615516  1
  Pd  Pd28  1  0.999608  0.999605  0.344944  1
