# generated using pymatgen
data_MnNb2NiP2
_symmetry_space_group_name_H-M   'P 1'
_cell_length_a   3.61840800
_cell_length_b   6.18915061
_cell_length_c   7.03905424
_cell_angle_alpha   89.47304829
_cell_angle_beta   90.00000000
_cell_angle_gamma   90.00000000
_symmetry_Int_Tables_number   1
_chemical_formula_structural   MnNb2NiP2
_chemical_formula_sum   'Mn2 Nb4 Ni2 P4'
_cell_volume   157.63205213
_cell_formula_units_Z   2
loop_
 _symmetry_equiv_pos_site_id
 _symmetry_equiv_pos_as_xyz
  1  'x, y, z'
loop_
 _atom_site_type_symbol
 _atom_site_label
 _atom_site_symmetry_multiplicity
 _atom_site_fract_x
 _atom_site_fract_y
 _atom_site_fract_z
 _atom_site_occupancy
  Mn  Mn0  1  0.750000  0.357315  0.940135  1
  Mn  Mn1  1  0.250000  0.642685  0.059865  1
  Nb  Nb2  1  0.250000  0.518717  0.679685  1
  Nb  Nb3  1  0.750000  0.481283  0.320315  1
  Nb  Nb4  1  0.250000  0.025990  0.832159  1
  Nb  Nb5  1  0.750000  0.974010  0.167841  1
  Ni  Ni6  1  0.750000  0.855954  0.564940  1
  Ni  Ni7  1  0.250000  0.144046  0.435060  1
  P  P8  1  0.250000  0.279140  0.117086  1
  P  P9  1  0.750000  0.720860  0.882914  1
  P  P10  1  0.250000  0.773021  0.373165  1
  P  P11  1  0.750000  0.226979  0.626835  1
