# generated using pymatgen
data_La8Nd2IrOs3
_symmetry_space_group_name_H-M   'P 1'
_cell_length_a   9.12344885
_cell_length_b   9.09522625
_cell_length_c   7.42123606
_cell_angle_alpha   85.00678332
_cell_angle_beta   84.98080704
_cell_angle_gamma   43.48393449
_symmetry_Int_Tables_number   1
_chemical_formula_structural   La8Nd2IrOs3
_chemical_formula_sum   'La8 Nd2 Ir1 Os3'
_cell_volume   421.89803754
_cell_formula_units_Z   1
loop_
 _symmetry_equiv_pos_site_id
 _symmetry_equiv_pos_as_xyz
  1  'x, y, z'
loop_
 _atom_site_type_symbol
 _atom_site_label
 _atom_site_symmetry_multiplicity
 _atom_site_fract_x
 _atom_site_fract_y
 _atom_site_fract_z
 _atom_site_occupancy
  La  La0  1  0.020557  0.799415  0.908228  1
  La  La1  1  0.198381  0.984261  0.590849  1
  La  La2  1  0.985860  0.198258  0.090491  1
  La  La3  1  0.805339  0.014864  0.411693  1
  La  La4  1  0.356774  0.212066  0.817715  1
  La  La5  1  0.786079  0.643334  0.681469  1
  La  La6  1  0.641845  0.783921  0.181063  1
  La  La7  1  0.209281  0.361359  0.320809  1
  Nd  Nd8  1  0.570032  0.431822  0.747637  1
  Nd  Nd9  1  0.431429  0.568931  0.250049  1
  Ir  Ir10  1  0.599406  0.174607  0.077028  1
  Os  Os11  1  0.172463  0.604159  0.577372  1
  Os  Os12  1  0.396079  0.827177  0.924016  1
  Os  Os13  1  0.826474  0.395824  0.421579  1
