# generated using pymatgen
data_NdHoZn4Ru
_symmetry_space_group_name_H-M   'P 1'
_cell_length_a   7.00844600
_cell_length_b   7.00844600
_cell_length_c   5.33984300
_cell_angle_alpha   90.00000000
_cell_angle_beta   90.00000000
_cell_angle_gamma   90.00000000
_symmetry_Int_Tables_number   1
_chemical_formula_structural   NdHoZn4Ru
_chemical_formula_sum   'Nd2 Ho2 Zn8 Ru2'
_cell_volume   262.28409231
_cell_formula_units_Z   2
loop_
 _symmetry_equiv_pos_site_id
 _symmetry_equiv_pos_as_xyz
  1  'x, y, z'
loop_
 _atom_site_type_symbol
 _atom_site_label
 _atom_site_symmetry_multiplicity
 _atom_site_fract_x
 _atom_site_fract_y
 _atom_site_fract_z
 _atom_site_occupancy
  Nd  Nd0  1  0.000000  0.500000  0.772676  1
  Nd  Nd1  1  0.500000  0.000000  0.227324  1
  Ho  Ho2  1  0.000000  0.000000  0.000000  1
  Ho  Ho3  1  0.500000  0.500000  0.000000  1
  Zn  Zn4  1  0.187115  0.687115  0.292001  1
  Zn  Zn5  1  0.812885  0.687115  0.292001  1
  Zn  Zn6  1  0.812885  0.312885  0.292001  1
  Zn  Zn7  1  0.312885  0.187115  0.707999  1
  Zn  Zn8  1  0.187115  0.312885  0.292001  1
  Zn  Zn9  1  0.687115  0.187115  0.707999  1
  Zn  Zn10  1  0.687115  0.812885  0.707999  1
  Zn  Zn11  1  0.312885  0.812885  0.707999  1
  Ru  Ru12  1  0.500000  0.500000  0.500000  1
  Ru  Ru13  1  0.000000  0.000000  0.500000  1
