# generated using pymatgen
data_Nd16CdTc(HgPd)3
_symmetry_space_group_name_H-M   'P 1'
_cell_length_a   10.01632557
_cell_length_b   10.03589515
_cell_length_c   10.03589584
_cell_angle_alpha   59.39968189
_cell_angle_beta   59.42608158
_cell_angle_gamma   59.42608689
_symmetry_Int_Tables_number   1
_chemical_formula_structural   Nd16CdTc(HgPd)3
_chemical_formula_sum   'Nd16 Cd1 Tc1 Hg3 Pd3'
_cell_volume   703.89638118
_cell_formula_units_Z   1
loop_
 _symmetry_equiv_pos_site_id
 _symmetry_equiv_pos_as_xyz
  1  'x, y, z'
loop_
 _atom_site_type_symbol
 _atom_site_label
 _atom_site_symmetry_multiplicity
 _atom_site_fract_x
 _atom_site_fract_y
 _atom_site_fract_z
 _atom_site_occupancy
  Nd  Nd0  1  0.354298  0.353608  0.353608  1
  Nd  Nd1  1  0.348970  0.348513  0.948515  1
  Nd  Nd2  1  0.348970  0.948515  0.348513  1
  Nd  Nd3  1  0.946300  0.349398  0.349398  1
  Nd  Nd4  1  0.816660  0.189118  0.189118  1
  Nd  Nd5  1  0.188471  0.807687  0.807687  1
  Nd  Nd6  1  0.188168  0.817132  0.188907  1
  Nd  Nd7  1  0.806654  0.189848  0.806724  1
  Nd  Nd8  1  0.188168  0.188907  0.817132  1
  Nd  Nd9  1  0.806654  0.806724  0.189848  1
  Nd  Nd10  1  0.934269  0.564939  0.564939  1
  Nd  Nd11  1  0.556098  0.938347  0.938347  1
  Nd  Nd12  1  0.564280  0.935507  0.564796  1
  Nd  Nd13  1  0.937363  0.556619  0.938594  1
  Nd  Nd14  1  0.564280  0.564796  0.935507  1
  Nd  Nd15  1  0.937363  0.938594  0.556619  1
  Cd  Cd16  1  0.258105  0.580223  0.580223  1
  Tc  Tc17  1  0.142831  0.143029  0.143029  1
  Hg  Hg18  1  0.582244  0.584240  0.584240  1
  Hg  Hg19  1  0.582997  0.585423  0.245256  1
  Hg  Hg20  1  0.582997  0.245256  0.585423  1
  Pd  Pd21  1  0.146208  0.146334  0.571073  1
  Pd  Pd22  1  0.146208  0.571073  0.146334  1
  Pd  Pd23  1  0.571447  0.146171  0.146171  1
