# generated using pymatgen
data_K2AgCl3
_symmetry_space_group_name_H-M   'P 1'
_cell_length_a   4.42581400
_cell_length_b   9.12802500
_cell_length_c   17.66440800
_cell_angle_alpha   90.00000000
_cell_angle_beta   90.00000000
_cell_angle_gamma   90.00000000
_symmetry_Int_Tables_number   1
_chemical_formula_structural   K2AgCl3
_chemical_formula_sum   'K8 Ag4 Cl12'
_cell_volume   713.62337372
_cell_formula_units_Z   4
loop_
 _symmetry_equiv_pos_site_id
 _symmetry_equiv_pos_as_xyz
  1  'x, y, z'
loop_
 _atom_site_type_symbol
 _atom_site_label
 _atom_site_symmetry_multiplicity
 _atom_site_fract_x
 _atom_site_fract_y
 _atom_site_fract_z
 _atom_site_occupancy
  K  K0  1  0.750000  0.923290  0.713315  1
  K  K1  1  0.750000  0.256819  0.041095  1
  K  K2  1  0.750000  0.423290  0.786685  1
  K  K3  1  0.250000  0.576710  0.213315  1
  K  K4  1  0.250000  0.743181  0.958905  1
  K  K5  1  0.750000  0.756819  0.458905  1
  K  K6  1  0.250000  0.243181  0.541095  1
  K  K7  1  0.250000  0.076710  0.286685  1
  Ag  Ag8  1  0.250000  0.126346  0.866388  1
  Ag  Ag9  1  0.750000  0.373654  0.366388  1
  Ag  Ag10  1  0.750000  0.873654  0.133612  1
  Ag  Ag11  1  0.250000  0.626346  0.633612  1
  Cl  Cl12  1  0.750000  0.117648  0.429439  1
  Cl  Cl13  1  0.250000  0.186487  0.722124  1
  Cl  Cl14  1  0.250000  0.382352  0.929439  1
  Cl  Cl15  1  0.250000  0.011059  0.097999  1
  Cl  Cl16  1  0.750000  0.488941  0.597999  1
  Cl  Cl17  1  0.750000  0.313513  0.222125  1
  Cl  Cl18  1  0.250000  0.511059  0.402001  1
  Cl  Cl19  1  0.750000  0.988941  0.902001  1
  Cl  Cl20  1  0.250000  0.882352  0.570561  1
  Cl  Cl21  1  0.250000  0.686487  0.777876  1
  Cl  Cl22  1  0.750000  0.617648  0.070561  1
  Cl  Cl23  1  0.750000  0.813513  0.277876  1
