# generated using pymatgen
data_TiNb3Co2AuSe12
_symmetry_space_group_name_H-M   'P 1'
_cell_length_a   7.07092154
_cell_length_b   7.07092165
_cell_length_c   19.36776840
_cell_angle_alpha   72.45699760
_cell_angle_beta   72.45699711
_cell_angle_gamma   28.13940977
_symmetry_Int_Tables_number   1
_chemical_formula_structural   TiNb3Co2AuSe12
_chemical_formula_sum   'Ti1 Nb3 Co2 Au1 Se12'
_cell_volume   434.08197851
_cell_formula_units_Z   1
loop_
 _symmetry_equiv_pos_site_id
 _symmetry_equiv_pos_as_xyz
  1  'x, y, z'
loop_
 _atom_site_type_symbol
 _atom_site_label
 _atom_site_symmetry_multiplicity
 _atom_site_fract_x
 _atom_site_fract_y
 _atom_site_fract_z
 _atom_site_occupancy
  Ti  Ti0  1  0.742574  0.742574  0.589528  1
  Nb  Nb1  1  0.258242  0.258242  0.411608  1
  Nb  Nb2  1  0.623089  0.623089  0.844210  1
  Nb  Nb3  1  0.377218  0.377218  0.154321  1
  Co  Co4  1  0.773418  0.773418  0.280655  1
  Co  Co5  1  0.226126  0.226126  0.721277  1
  Au  Au6  1  0.999931  0.999931  0.999590  1
  Se  Se7  1  0.870133  0.870133  0.456681  1
  Se  Se8  1  0.030970  0.030970  0.121650  1
  Se  Se9  1  0.809820  0.809820  0.765117  1
  Se  Se10  1  0.396279  0.396279  0.283977  1
  Se  Se11  1  0.187171  0.187171  0.923948  1
  Se  Se12  1  0.605762  0.605762  0.714282  1
  Se  Se13  1  0.132112  0.132112  0.546411  1
  Se  Se14  1  0.811928  0.811928  0.075354  1
  Se  Se15  1  0.363998  0.363998  0.610698  1
  Se  Se16  1  0.968976  0.968976  0.877785  1
  Se  Se17  1  0.191441  0.191441  0.234874  1
  Se  Se18  1  0.630811  0.630811  0.388034  1
