# generated using pymatgen
data_Pa2TiInPd12
_symmetry_space_group_name_H-M   'P 1'
_cell_length_a   5.73044900
_cell_length_b   5.73044926
_cell_length_c   9.51352500
_cell_angle_alpha   90.00000000
_cell_angle_beta   90.00000000
_cell_angle_gamma   119.99999272
_symmetry_Int_Tables_number   1
_chemical_formula_structural   Pa2TiInPd12
_chemical_formula_sum   'Pa2 Ti1 In1 Pd12'
_cell_volume   270.55119135
_cell_formula_units_Z   1
loop_
 _symmetry_equiv_pos_site_id
 _symmetry_equiv_pos_as_xyz
  1  'x, y, z'
loop_
 _atom_site_type_symbol
 _atom_site_label
 _atom_site_symmetry_multiplicity
 _atom_site_fract_x
 _atom_site_fract_y
 _atom_site_fract_z
 _atom_site_occupancy
  Pa  Pa0  1  0.333333  0.666667  0.251929  1
  Pa  Pa1  1  0.666667  0.333333  0.748071  1
  Ti  Ti2  1  0.000000  0.000000  0.000000  1
  In  In3  1  0.000000  0.000000  0.500000  1
  Pd  Pd4  1  0.500000  0.500000  0.500000  1
  Pd  Pd5  1  0.500000  0.000000  0.500000  1
  Pd  Pd6  1  0.000000  0.500000  0.500000  1
  Pd  Pd7  1  0.500000  0.500000  0.000000  1
  Pd  Pd8  1  0.500000  0.000000  0.000000  1
  Pd  Pd9  1  0.000000  0.500000  0.000000  1
  Pd  Pd10  1  0.833085  0.666170  0.243056  1
  Pd  Pd11  1  0.333830  0.166915  0.243056  1
  Pd  Pd12  1  0.833085  0.166915  0.243056  1
  Pd  Pd13  1  0.166915  0.333830  0.756944  1
  Pd  Pd14  1  0.666170  0.833085  0.756944  1
  Pd  Pd15  1  0.166915  0.833085  0.756944  1
