# generated using pymatgen
data_Li2ScTcH6
_symmetry_space_group_name_H-M   'P 1'
_cell_length_a   4.85023126
_cell_length_b   4.85022632
_cell_length_c   4.85022300
_cell_angle_alpha   119.99999203
_cell_angle_beta   119.99998777
_cell_angle_gamma   59.99986657
_symmetry_Int_Tables_number   1
_chemical_formula_structural   Li2ScTcH6
_chemical_formula_sum   'Li2 Sc1 Tc1 H6'
_cell_volume   80.68090994
_cell_formula_units_Z   1
loop_
 _symmetry_equiv_pos_site_id
 _symmetry_equiv_pos_as_xyz
  1  'x, y, z'
loop_
 _atom_site_type_symbol
 _atom_site_label
 _atom_site_symmetry_multiplicity
 _atom_site_fract_x
 _atom_site_fract_y
 _atom_site_fract_z
 _atom_site_occupancy
  Li  Li0  1  0.500000  0.500000  0.499999  1
  Li  Li1  1  0.250001  0.250001  0.749999  1
  Sc  Sc2  1  0.750001  0.750000  0.250000  1
  Tc  Tc3  1  0.000000  0.999999  0.999999  1
  H  H4  1  0.251814  0.251814  0.251814  1
  H  H5  1  0.748186  0.251815  0.251814  1
  H  H6  1  0.251816  0.748186  0.251814  1
  H  H7  1  0.748186  0.251815  0.748185  1
  H  H8  1  0.251815  0.748186  0.748185  1
  H  H9  1  0.748186  0.748186  0.748186  1
