# generated using pymatgen
data_Th3In3CoNiAu
_symmetry_space_group_name_H-M   'P 1'
_cell_length_a   7.56406100
_cell_length_b   7.56406127
_cell_length_c   4.13333000
_cell_angle_alpha   90.00000000
_cell_angle_beta   90.00000000
_cell_angle_gamma   120.00000321
_symmetry_Int_Tables_number   1
_chemical_formula_structural   Th3In3CoNiAu
_chemical_formula_sum   'Th3 In3 Co1 Ni1 Au1'
_cell_volume   204.80509578
_cell_formula_units_Z   1
loop_
 _symmetry_equiv_pos_site_id
 _symmetry_equiv_pos_as_xyz
  1  'x, y, z'
loop_
 _atom_site_type_symbol
 _atom_site_label
 _atom_site_symmetry_multiplicity
 _atom_site_fract_x
 _atom_site_fract_y
 _atom_site_fract_z
 _atom_site_occupancy
  Th  Th0  1  0.425002  0.020489  0.500000  1
  Th  Th1  1  0.979511  0.404512  0.500000  1
  Th  Th2  1  0.595488  0.574998  0.500000  1
  In  In3  1  0.761192  0.003590  0.000000  1
  In  In4  1  0.996410  0.757602  0.000000  1
  In  In5  1  0.242398  0.238808  0.000000  1
  Co  Co6  1  0.666667  0.333333  0.000000  1
  Ni  Ni7  1  0.000000  0.000000  0.500000  1
  Au  Au8  1  0.333333  0.666667  0.000000  1
