# generated using pymatgen
data_KTb(SO4)2
_symmetry_space_group_name_H-M   'P 1'
_cell_length_a   5.25292929
_cell_length_b   5.23568266
_cell_length_c   8.30103477
_cell_angle_alpha   87.84050184
_cell_angle_beta   87.90509363
_cell_angle_gamma   63.06294493
_symmetry_Int_Tables_number   1
_chemical_formula_structural   KTb(SO4)2
_chemical_formula_sum   'K1 Tb1 S2 O8'
_cell_volume   203.33789083
_cell_formula_units_Z   1
loop_
 _symmetry_equiv_pos_site_id
 _symmetry_equiv_pos_as_xyz
  1  'x, y, z'
loop_
 _atom_site_type_symbol
 _atom_site_label
 _atom_site_symmetry_multiplicity
 _atom_site_fract_x
 _atom_site_fract_y
 _atom_site_fract_z
 _atom_site_occupancy
  K  K0  1  0.000000  0.500000  0.000000  1
  Tb  Tb1  1  0.000000  0.500000  0.500000  1
  S  S2  1  0.363465  0.861303  0.274754  1
  S  S3  1  0.636537  0.138695  0.725246  1
  O  O4  1  0.291367  0.834782  0.110628  1
  O  O5  1  0.268433  0.170201  0.313003  1
  O  O6  1  0.681112  0.702727  0.296789  1
  O  O7  1  0.226231  0.744384  0.397871  1
  O  O8  1  0.773767  0.255616  0.602129  1
  O  O9  1  0.318887  0.297274  0.703211  1
  O  O10  1  0.731568  0.829799  0.686997  1
  O  O11  1  0.708631  0.165218  0.889372  1
