# generated using pymatgen
data_CaTb5(Si3Ru)8
_symmetry_space_group_name_H-M   'P 1'
_cell_length_a   10.15266804
_cell_length_b   10.15266785
_cell_length_c   8.15614243
_cell_angle_alpha   89.87914307
_cell_angle_beta   90.12085868
_cell_angle_gamma   132.63381571
_symmetry_Int_Tables_number   1
_chemical_formula_structural   CaTb5(Si3Ru)8
_chemical_formula_sum   'Ca1 Tb5 Si24 Ru8'
_cell_volume   618.50508731
_cell_formula_units_Z   1
loop_
 _symmetry_equiv_pos_site_id
 _symmetry_equiv_pos_as_xyz
  1  'x, y, z'
loop_
 _atom_site_type_symbol
 _atom_site_label
 _atom_site_symmetry_multiplicity
 _atom_site_fract_x
 _atom_site_fract_y
 _atom_site_fract_z
 _atom_site_occupancy
  Ca  Ca0  1  0.501953  0.001953  0.750000  1
  Tb  Tb1  1  0.500205  0.500298  0.500549  1
  Tb  Tb2  1  0.000298  0.000205  0.999451  1
  Tb  Tb3  1  0.998291  0.498291  0.250000  1
  Tb  Tb4  1  0.497145  0.997145  0.250000  1
  Tb  Tb5  1  0.002853  0.502853  0.750000  1
  Si  Si6  1  0.793591  0.204061  0.500480  1
  Si  Si7  1  0.295523  0.706258  0.998745  1
  Si  Si8  1  0.206258  0.795523  0.501255  1
  Si  Si9  1  0.704061  0.293591  0.999520  1
  Si  Si10  1  0.332940  0.334153  0.833210  1
  Si  Si11  1  0.666837  0.668104  0.166768  1
  Si  Si12  1  0.168104  0.166837  0.333232  1
  Si  Si13  1  0.834153  0.832940  0.666790  1
  Si  Si14  1  0.120587  0.886577  0.727891  1
  Si  Si15  1  0.111164  0.877685  0.272275  1
  Si  Si16  1  0.611372  0.378101  0.228409  1
  Si  Si17  1  0.623573  0.389927  0.772162  1
  Si  Si18  1  0.878101  0.111372  0.271591  1
  Si  Si19  1  0.889927  0.123573  0.727838  1
  Si  Si20  1  0.386577  0.620587  0.772109  1
  Si  Si21  1  0.377685  0.611164  0.227725  1
  Si  Si22  1  0.344167  0.111229  0.502902  1
  Si  Si23  1  0.888479  0.655578  0.494411  1
  Si  Si24  1  0.388446  0.155143  0.006259  1
  Si  Si25  1  0.844189  0.611661  0.994759  1
  Si  Si26  1  0.655143  0.888446  0.493741  1
  Si  Si27  1  0.111661  0.344189  0.505241  1
  Si  Si28  1  0.611229  0.844167  0.997098  1
  Si  Si29  1  0.155578  0.388479  0.005589  1
  Ru  Ru30  1  0.670520  0.331380  0.499524  1
  Ru  Ru31  1  0.167595  0.829021  0.001705  1
  Ru  Ru32  1  0.329021  0.667595  0.498295  1
  Ru  Ru33  1  0.831380  0.170520  0.000476  1
  Ru  Ru34  1  0.126924  0.126762  0.626955  1
  Ru  Ru35  1  0.873634  0.874071  0.373165  1
  Ru  Ru36  1  0.374071  0.373634  0.126835  1
  Ru  Ru37  1  0.626762  0.626924  0.873045  1
