# generated using pymatgen
data_LaY2Ir9
_symmetry_space_group_name_H-M   'P 1'
_cell_length_a   5.36012800
_cell_length_b   5.35960888
_cell_length_c   17.50434900
_cell_angle_alpha   90.00000000
_cell_angle_beta   90.00000000
_cell_angle_gamma   119.99971028
_symmetry_Int_Tables_number   1
_chemical_formula_structural   LaY2Ir9
_chemical_formula_sum   'La2 Y4 Ir18'
_cell_volume   435.49795728
_cell_formula_units_Z   2
loop_
 _symmetry_equiv_pos_site_id
 _symmetry_equiv_pos_as_xyz
  1  'x, y, z'
loop_
 _atom_site_type_symbol
 _atom_site_label
 _atom_site_symmetry_multiplicity
 _atom_site_fract_x
 _atom_site_fract_y
 _atom_site_fract_z
 _atom_site_occupancy
  La  La0  1  0.333342  0.666685  0.750000  1
  La  La1  1  0.666658  0.333315  0.250000  1
  Y  Y2  1  0.333330  0.666673  0.959347  1
  Y  Y3  1  0.666670  0.333327  0.040653  1
  Y  Y4  1  0.666670  0.333327  0.459347  1
  Y  Y5  1  0.333330  0.666673  0.540653  1
  Ir  Ir6  1  0.166822  0.833171  0.374209  1
  Ir  Ir7  1  0.166868  0.333697  0.374175  1
  Ir  Ir8  1  0.666319  0.833133  0.374184  1
  Ir  Ir9  1  0.833178  0.166829  0.625791  1
  Ir  Ir10  1  0.833132  0.666303  0.625825  1
  Ir  Ir11  1  0.333681  0.166867  0.625816  1
  Ir  Ir12  1  0.833178  0.166829  0.874209  1
  Ir  Ir13  1  0.833132  0.666303  0.874175  1
  Ir  Ir14  1  0.333681  0.166867  0.874184  1
  Ir  Ir15  1  0.166822  0.833171  0.125791  1
  Ir  Ir16  1  0.166868  0.333697  0.125825  1
  Ir  Ir17  1  0.666319  0.833133  0.125816  1
  Ir  Ir18  1  0.333279  0.666883  0.250000  1
  Ir  Ir19  1  0.666721  0.333117  0.750000  1
  Ir  Ir20  1  0.000001  0.999861  0.250000  1
  Ir  Ir21  1  0.999999  0.000139  0.750000  1
  Ir  Ir22  1  0.000000  0.000000  0.500000  1
  Ir  Ir23  1  0.000000  0.000000  0.000000  1
