# generated using pymatgen
data_Zr2PaTaBr18
_symmetry_space_group_name_H-M   'P 1'
_cell_length_a   12.78045700
_cell_length_b   7.46985100
_cell_length_c   10.25864285
_cell_angle_alpha   75.58345681
_cell_angle_beta   90.00000000
_cell_angle_gamma   90.00000000
_symmetry_Int_Tables_number   1
_chemical_formula_structural   Zr2PaTaBr18
_chemical_formula_sum   'Zr2 Pa1 Ta1 Br18'
_cell_volume   948.53406460
_cell_formula_units_Z   1
loop_
 _symmetry_equiv_pos_site_id
 _symmetry_equiv_pos_as_xyz
  1  'x, y, z'
loop_
 _atom_site_type_symbol
 _atom_site_label
 _atom_site_symmetry_multiplicity
 _atom_site_fract_x
 _atom_site_fract_y
 _atom_site_fract_z
 _atom_site_occupancy
  Zr  Zr0  1  0.250000  0.759934  0.461569  1
  Zr  Zr1  1  0.750000  0.243560  0.527980  1
  Pa  Pa2  1  0.250000  0.645439  0.853346  1
  Ta  Ta3  1  0.750000  0.354130  0.148865  1
  Br  Br4  1  0.613472  0.438610  0.320416  1
  Br  Br5  1  0.108702  0.559776  0.668537  1
  Br  Br6  1  0.391298  0.559776  0.668537  1
  Br  Br7  1  0.886528  0.438610  0.320416  1
  Br  Br8  1  0.750000  0.674825  0.018639  1
  Br  Br9  1  0.250000  0.298466  0.001632  1
  Br  Br10  1  0.750000  0.514994  0.631581  1
  Br  Br11  1  0.250000  0.486262  0.361946  1
  Br  Br12  1  0.750000  0.031752  0.332512  1
  Br  Br13  1  0.250000  0.981606  0.656302  1
  Br  Br14  1  0.892513  0.246199  0.030239  1
  Br  Br15  1  0.403915  0.757088  0.988877  1
  Br  Br16  1  0.096085  0.757088  0.988877  1
  Br  Br17  1  0.607487  0.246199  0.030239  1
  Br  Br18  1  0.901395  0.059685  0.648089  1
  Br  Br19  1  0.402291  0.943158  0.346656  1
  Br  Br20  1  0.097709  0.943158  0.346656  1
  Br  Br21  1  0.598605  0.059685  0.648089  1
