# generated using pymatgen
data_Y16Cd4IrPd2Ru
_symmetry_space_group_name_H-M   'P 1'
_cell_length_a   9.69377072
_cell_length_b   9.69896276
_cell_length_c   9.66772700
_cell_angle_alpha   60.10647368
_cell_angle_beta   60.08883035
_cell_angle_gamma   60.34306364
_symmetry_Int_Tables_number   1
_chemical_formula_structural   Y16Cd4IrPd2Ru
_chemical_formula_sum   'Y16 Cd4 Ir1 Pd2 Ru1'
_cell_volume   645.33249879
_cell_formula_units_Z   1
loop_
 _symmetry_equiv_pos_site_id
 _symmetry_equiv_pos_as_xyz
  1  'x, y, z'
loop_
 _atom_site_type_symbol
 _atom_site_label
 _atom_site_symmetry_multiplicity
 _atom_site_fract_x
 _atom_site_fract_y
 _atom_site_fract_z
 _atom_site_occupancy
  Y  Y0  1  0.350894  0.351496  0.345293  1
  Y  Y1  1  0.350894  0.351496  0.952319  1
  Y  Y2  1  0.359106  0.940995  0.349949  1
  Y  Y3  1  0.942108  0.359068  0.349411  1
  Y  Y4  1  0.805635  0.190323  0.189726  1
  Y  Y5  1  0.189690  0.805018  0.816402  1
  Y  Y6  1  0.189690  0.805018  0.188890  1
  Y  Y7  1  0.805635  0.190323  0.814316  1
  Y  Y8  1  0.191033  0.190601  0.809183  1
  Y  Y9  1  0.813033  0.810980  0.187994  1
  Y  Y10  1  0.937334  0.566899  0.560257  1
  Y  Y11  1  0.566166  0.937146  0.935163  1
  Y  Y12  1  0.566166  0.937146  0.561526  1
  Y  Y13  1  0.937334  0.566899  0.935510  1
  Y  Y14  1  0.562472  0.564497  0.936515  1
  Y  Y15  1  0.935974  0.936161  0.563933  1
  Cd  Cd16  1  0.580872  0.581193  0.581976  1
  Cd  Cd17  1  0.580872  0.581193  0.255959  1
  Cd  Cd18  1  0.579998  0.257417  0.581293  1
  Cd  Cd19  1  0.256645  0.580277  0.581540  1
  Ir  Ir20  1  0.572586  0.140081  0.143667  1
  Pd  Pd21  1  0.142201  0.141834  0.146381  1
  Pd  Pd22  1  0.142201  0.141834  0.569582  1
  Ru  Ru23  1  0.141461  0.572102  0.143219  1
