# generated using pymatgen
data_Sr2Ca(Al3Pd2)3
_symmetry_space_group_name_H-M   'P 1'
_cell_length_a   4.28163900
_cell_length_b   9.47802188
_cell_length_c   9.48940400
_cell_angle_alpha   119.96035323
_cell_angle_beta   90.00000000
_cell_angle_gamma   90.00000000
_symmetry_Int_Tables_number   1
_chemical_formula_structural   Sr2Ca(Al3Pd2)3
_chemical_formula_sum   'Sr2 Ca1 Al9 Pd6'
_cell_volume   333.63429635
_cell_formula_units_Z   1
loop_
 _symmetry_equiv_pos_site_id
 _symmetry_equiv_pos_as_xyz
  1  'x, y, z'
loop_
 _atom_site_type_symbol
 _atom_site_label
 _atom_site_symmetry_multiplicity
 _atom_site_fract_x
 _atom_site_fract_y
 _atom_site_fract_z
 _atom_site_occupancy
  Sr  Sr0  1  0.500000  0.333311  0.666392  1
  Sr  Sr1  1  0.500000  0.666921  0.333608  1
  Ca  Ca2  1  0.000000  0.000080  0.000000  1
  Al  Al3  1  0.500000  0.300921  0.000000  1
  Al  Al4  1  0.500000  0.699181  0.699223  1
  Al  Al5  1  0.500000  0.999958  0.300777  1
  Al  Al6  1  0.500000  0.699060  0.000000  1
  Al  Al7  1  0.500000  0.300943  0.300614  1
  Al  Al8  1  0.500000  0.000329  0.699386  1
  Al  Al9  1  0.000000  0.499726  0.000000  1
  Al  Al10  1  0.000000  0.499771  0.499809  1
  Al  Al11  1  0.000000  0.999961  0.500191  1
  Pd  Pd12  1  0.000000  0.181173  0.362390  1
  Pd  Pd13  1  0.000000  0.181033  0.818690  1
  Pd  Pd14  1  0.000000  0.637578  0.818751  1
  Pd  Pd15  1  0.000000  0.818783  0.637610  1
  Pd  Pd16  1  0.000000  0.362343  0.181310  1
  Pd  Pd17  1  0.000000  0.818829  0.181249  1
