# generated using pymatgen
data_Y8InNi2Ag
_symmetry_space_group_name_H-M   'P 1'
_cell_length_a   9.56278234
_cell_length_b   9.56278178
_cell_length_c   9.55098500
_cell_angle_alpha   60.04080270
_cell_angle_beta   60.04080462
_cell_angle_gamma   59.89464327
_symmetry_Int_Tables_number   1
_chemical_formula_structural   Y8InNi2Ag
_chemical_formula_sum   'Y16 In2 Ni4 Ag2'
_cell_volume   617.47849650
_cell_formula_units_Z   2
loop_
 _symmetry_equiv_pos_site_id
 _symmetry_equiv_pos_as_xyz
  1  'x, y, z'
loop_
 _atom_site_type_symbol
 _atom_site_label
 _atom_site_symmetry_multiplicity
 _atom_site_fract_x
 _atom_site_fract_y
 _atom_site_fract_z
 _atom_site_occupancy
  Y  Y0  1  0.599168  0.599168  0.599106  1
  Y  Y1  1  0.599168  0.599168  0.202559  1
  Y  Y2  1  0.600774  0.198358  0.600435  1
  Y  Y3  1  0.198358  0.600774  0.600435  1
  Y  Y4  1  0.060940  0.439706  0.439766  1
  Y  Y5  1  0.439706  0.060940  0.059588  1
  Y  Y6  1  0.439706  0.060940  0.439766  1
  Y  Y7  1  0.060940  0.439706  0.059588  1
  Y  Y8  1  0.440867  0.440867  0.059133  1
  Y  Y9  1  0.062206  0.062206  0.437794  1
  Y  Y10  1  0.182984  0.812073  0.814612  1
  Y  Y11  1  0.812073  0.182984  0.190332  1
  Y  Y12  1  0.812073  0.182984  0.814612  1
  Y  Y13  1  0.182984  0.812073  0.190332  1
  Y  Y14  1  0.812437  0.812437  0.187563  1
  Y  Y15  1  0.186330  0.186330  0.813670  1
  In  In16  1  0.833444  0.508178  0.829188  1
  In  In17  1  0.508178  0.833444  0.829188  1
  Ni  Ni18  1  0.392847  0.392847  0.392732  1
  Ni  Ni19  1  0.392847  0.392847  0.821574  1
  Ni  Ni20  1  0.392375  0.822494  0.392566  1
  Ni  Ni21  1  0.822494  0.392375  0.392566  1
  Ag  Ag22  1  0.833551  0.833551  0.831228  1
  Ag  Ag23  1  0.833551  0.833551  0.501669  1
