# generated using pymatgen
data_AlAg3F7
_symmetry_space_group_name_H-M   'P 1'
_cell_length_a   7.57372772
_cell_length_b   7.57659317
_cell_length_c   7.57669200
_cell_angle_alpha   119.39234420
_cell_angle_beta   121.65533747
_cell_angle_gamma   89.11816775
_symmetry_Int_Tables_number   1
_chemical_formula_structural   AlAg3F7
_chemical_formula_sum   'Al2 Ag6 F14'
_cell_volume   304.77461952
_cell_formula_units_Z   2
loop_
 _symmetry_equiv_pos_site_id
 _symmetry_equiv_pos_as_xyz
  1  'x, y, z'
loop_
 _atom_site_type_symbol
 _atom_site_label
 _atom_site_symmetry_multiplicity
 _atom_site_fract_x
 _atom_site_fract_y
 _atom_site_fract_z
 _atom_site_occupancy
  Al  Al0  1  0.500000  0.500000  0.500000  1
  Al  Al1  1  0.500000  0.000000  0.000000  1
  Ag  Ag2  1  0.000000  0.500000  0.500000  1
  Ag  Ag3  1  0.500000  0.000000  0.500000  1
  Ag  Ag4  1  0.500000  0.500000  0.000000  1
  Ag  Ag5  1  0.000000  0.000000  0.000000  1
  Ag  Ag6  1  0.000000  0.500000  0.000000  1
  Ag  Ag7  1  0.000000  0.000000  0.500000  1
  F  F8  1  0.865390  0.615416  0.249961  1
  F  F9  1  0.133753  0.884086  0.249676  1
  F  F10  1  0.207964  0.879930  0.823811  1
  F  F11  1  0.443696  0.619823  0.327878  1
  F  F12  1  0.443705  0.115832  0.823884  1
  F  F13  1  0.207964  0.384144  0.328035  1
  F  F14  1  0.792036  0.615856  0.671965  1
  F  F15  1  0.556295  0.884168  0.176116  1
  F  F16  1  0.556304  0.380177  0.672122  1
  F  F17  1  0.792036  0.120070  0.176189  1
  F  F18  1  0.495042  0.249992  0.245049  1
  F  F19  1  0.134610  0.384584  0.750039  1
  F  F20  1  0.866247  0.115914  0.750324  1
  F  F21  1  0.504958  0.750008  0.754951  1
