# generated using pymatgen
data_Er8Cu(Si5W4)3
_symmetry_space_group_name_H-M   'P 1'
_cell_length_a   6.87267394
_cell_length_b   6.83940539
_cell_length_c   12.74336083
_cell_angle_alpha   90.06590635
_cell_angle_beta   90.26357308
_cell_angle_gamma   89.66642656
_symmetry_Int_Tables_number   1
_chemical_formula_structural   Er8Cu(Si5W4)3
_chemical_formula_sum   'Er8 Cu1 Si15 W12'
_cell_volume   598.98484822
_cell_formula_units_Z   1
loop_
 _symmetry_equiv_pos_site_id
 _symmetry_equiv_pos_as_xyz
  1  'x, y, z'
loop_
 _atom_site_type_symbol
 _atom_site_label
 _atom_site_symmetry_multiplicity
 _atom_site_fract_x
 _atom_site_fract_y
 _atom_site_fract_z
 _atom_site_occupancy
  Er  Er0  1  0.338837  0.999425  0.470238  1
  Er  Er1  1  0.498354  0.838012  0.719232  1
  Er  Er2  1  0.499244  0.162475  0.219240  1
  Er  Er3  1  0.837785  0.501003  0.280939  1
  Er  Er4  1  0.162704  0.499423  0.779043  1
  Er  Er5  1  0.660605  0.000474  0.968407  1
  Er  Er6  1  0.003242  0.334732  0.532152  1
  Er  Er7  1  0.001399  0.662522  0.030585  1
  Cu  Cu8  1  0.206412  0.129816  0.682525  1
  Si  Si9  1  0.372119  0.700856  0.933213  1
  Si  Si10  1  0.629039  0.299051  0.432933  1
  Si  Si11  1  0.702029  0.372210  0.066161  1
  Si  Si12  1  0.297660  0.626270  0.567455  1
  Si  Si13  1  0.798103  0.872439  0.183572  1
  Si  Si14  1  0.126548  0.201262  0.317022  1
  Si  Si15  1  0.874110  0.797519  0.817067  1
  Si  Si16  1  0.289599  0.961127  0.064520  1
  Si  Si17  1  0.538447  0.789961  0.314441  1
  Si  Si18  1  0.454823  0.210008  0.810846  1
  Si  Si19  1  0.793333  0.538740  0.686220  1
  Si  Si20  1  0.210925  0.462701  0.185147  1
  Si  Si21  1  0.709742  0.038480  0.564032  1
  Si  Si22  1  0.961279  0.291272  0.935056  1
  Si  Si23  1  0.037096  0.709245  0.437587  1
  W  W24  1  0.331478  0.331402  0.999353  1
  W  W25  1  0.168266  0.831389  0.250523  1
  W  W26  1  0.828255  0.166002  0.750675  1
  W  W27  1  0.666355  0.667183  0.500694  1
  W  W28  1  0.159362  0.001164  0.877781  1
  W  W29  1  0.502982  0.663541  0.124186  1
  W  W30  1  0.512170  0.342132  0.623113  1
  W  W31  1  0.661696  0.497934  0.875134  1
  W  W32  1  0.335007  0.501396  0.375311  1
  W  W33  1  0.836801  0.000032  0.373567  1
  W  W34  1  0.999137  0.161845  0.126111  1
  W  W35  1  0.995056  0.836959  0.625920  1
