# generated using pymatgen
data_PaNbCl10
_symmetry_space_group_name_H-M   'P 1'
_cell_length_a   8.67687677
_cell_length_b   11.22372700
_cell_length_c   8.87954298
_cell_angle_alpha   90.00000000
_cell_angle_beta   90.05215613
_cell_angle_gamma   90.00000000
_symmetry_Int_Tables_number   1
_chemical_formula_structural   PaNbCl10
_chemical_formula_sum   'Pa2 Nb2 Cl20'
_cell_volume   864.75077084
_cell_formula_units_Z   2
loop_
 _symmetry_equiv_pos_site_id
 _symmetry_equiv_pos_as_xyz
  1  'x, y, z'
loop_
 _atom_site_type_symbol
 _atom_site_label
 _atom_site_symmetry_multiplicity
 _atom_site_fract_x
 _atom_site_fract_y
 _atom_site_fract_z
 _atom_site_occupancy
  Pa  Pa0  1  0.951766  0.628340  0.149382  1
  Pa  Pa1  1  0.548235  0.128341  0.350618  1
  Nb  Nb2  1  0.447889  0.860162  0.662457  1
  Nb  Nb3  1  0.052111  0.360162  0.837543  1
  Cl  Cl4  1  0.675010  0.623936  0.068403  1
  Cl  Cl5  1  0.630246  0.122731  0.080084  1
  Cl  Cl6  1  0.956213  0.850644  0.124689  1
  Cl  Cl7  1  0.965302  0.387442  0.122375  1
  Cl  Cl8  1  0.228886  0.628951  0.229725  1
  Cl  Cl9  1  0.271113  0.128951  0.270276  1
  Cl  Cl10  1  0.534698  0.887441  0.377625  1
  Cl  Cl11  1  0.543787  0.350644  0.375311  1
  Cl  Cl12  1  0.869753  0.622730  0.419916  1
  Cl  Cl13  1  0.824990  0.123936  0.431597  1
  Cl  Cl14  1  0.202147  0.886198  0.564115  1
  Cl  Cl15  1  0.126771  0.374565  0.593183  1
  Cl  Cl16  1  0.454115  0.659454  0.632213  1
  Cl  Cl17  1  0.459035  0.096863  0.641574  1
  Cl  Cl18  1  0.709002  0.880716  0.711857  1
  Cl  Cl19  1  0.790998  0.380716  0.788142  1
  Cl  Cl20  1  0.040966  0.596864  0.858426  1
  Cl  Cl21  1  0.045884  0.159454  0.867788  1
  Cl  Cl22  1  0.373229  0.874565  0.906817  1
  Cl  Cl23  1  0.297854  0.386198  0.935885  1
