# generated using pymatgen
data_InSe23
_symmetry_space_group_name_H-M   'P 1'
_cell_length_a   5.48466520
_cell_length_b   10.08254414
_cell_length_c   15.64949600
_cell_angle_alpha   98.94882388
_cell_angle_beta   86.30809311
_cell_angle_gamma   94.29197879
_symmetry_Int_Tables_number   1
_chemical_formula_structural   InSe23
_chemical_formula_sum   'In1 Se23'
_cell_volume   851.25283311
_cell_formula_units_Z   1
loop_
 _symmetry_equiv_pos_site_id
 _symmetry_equiv_pos_as_xyz
  1  'x, y, z'
loop_
 _atom_site_type_symbol
 _atom_site_label
 _atom_site_symmetry_multiplicity
 _atom_site_fract_x
 _atom_site_fract_y
 _atom_site_fract_z
 _atom_site_occupancy
  In  In0  1  0.447913  0.195286  0.323148  1
  Se  Se1  1  0.522394  0.832827  0.403441  1
  Se  Se2  1  0.851928  0.351826  0.135111  1
  Se  Se3  1  0.754922  0.196897  0.443942  1
  Se  Se4  1  0.295079  0.775238  0.527942  1
  Se  Se5  1  0.164746  0.290694  0.025364  1
  Se  Se6  1  0.788897  0.716336  0.025357  1
  Se  Se7  1  0.174198  0.398812  0.355945  1
  Se  Se8  1  0.720501  0.639986  0.340678  1
  Se  Se9  1  0.742025  0.138882  0.178070  1
  Se  Se10  1  0.309435  0.896193  0.155689  1
  Se  Se11  1  0.774971  0.614748  0.630703  1
  Se  Se12  1  0.271857  0.349246  0.613881  1
  Se  Se13  1  0.223300  0.871439  0.869064  1
  Se  Se14  1  0.755525  0.122175  0.846912  1
  Se  Se15  1  0.092079  0.684339  0.119853  1
  Se  Se16  1  0.582502  0.818411  0.636642  1
  Se  Se17  1  0.468846  0.152441  0.559684  1
  Se  Se18  1  0.986907  0.670706  0.885864  1
  Se  Se19  1  0.992615  0.321152  0.896093  1
  Se  Se20  1  0.418193  0.513905  0.255087  1
  Se  Se21  1  0.099200  0.991597  0.286694  1
  Se  Se22  1  0.525184  0.480194  0.716728  1
  Se  Se23  1  0.036782  0.976670  0.768110  1
