# generated using pymatgen
data_Lu2Sc6Si16(Mo3W)3
_symmetry_space_group_name_H-M   'P 1'
_cell_length_a   6.60831904
_cell_length_b   6.82104127
_cell_length_c   12.70362206
_cell_angle_alpha   90.13687890
_cell_angle_beta   89.99412297
_cell_angle_gamma   89.97468024
_symmetry_Int_Tables_number   1
_chemical_formula_structural   Lu2Sc6Si16(Mo3W)3
_chemical_formula_sum   'Lu2 Sc6 Si16 Mo9 W3'
_cell_volume   572.62190848
_cell_formula_units_Z   1
loop_
 _symmetry_equiv_pos_site_id
 _symmetry_equiv_pos_as_xyz
  1  'x, y, z'
loop_
 _atom_site_type_symbol
 _atom_site_label
 _atom_site_symmetry_multiplicity
 _atom_site_fract_x
 _atom_site_fract_y
 _atom_site_fract_z
 _atom_site_occupancy
  Lu  Lu0  1  0.496311  0.331766  0.409503  1
  Lu  Lu1  1  0.996704  0.167843  0.090613  1
  Sc  Sc2  1  0.495416  0.330038  0.093421  1
  Sc  Sc3  1  0.996434  0.169033  0.406398  1
  Sc  Sc4  1  0.504506  0.670328  0.594910  1
  Sc  Sc5  1  0.004776  0.829558  0.905007  1
  Sc  Sc6  1  0.504809  0.669301  0.905781  1
  Sc  Sc7  1  0.005073  0.830632  0.594282  1
  Si  Si8  1  0.665912  0.034037  0.546581  1
  Si  Si9  1  0.165808  0.465898  0.953498  1
  Si  Si10  1  0.339758  0.960977  0.044632  1
  Si  Si11  1  0.840152  0.539339  0.454975  1
  Si  Si12  1  0.332906  0.960573  0.455814  1
  Si  Si13  1  0.833065  0.539812  0.044619  1
  Si  Si14  1  0.664088  0.036097  0.953046  1
  Si  Si15  1  0.163979  0.463863  0.546851  1
  Si  Si16  1  0.533103  0.377037  0.749898  1
  Si  Si17  1  0.032847  0.122911  0.750098  1
  Si  Si18  1  0.466685  0.624947  0.248536  1
  Si  Si19  1  0.965567  0.874146  0.251408  1
  Si  Si20  1  0.799230  0.639861  0.749789  1
  Si  Si21  1  0.299279  0.860126  0.750236  1
  Si  Si22  1  0.199183  0.362642  0.250105  1
  Si  Si23  1  0.699911  0.138281  0.249933  1
  Mo  Mo24  1  0.829965  0.335026  0.624271  1
  Mo  Mo25  1  0.329834  0.165119  0.875528  1
  Mo  Mo26  1  0.168769  0.666754  0.124267  1
  Mo  Mo27  1  0.667973  0.833770  0.375766  1
  Mo  Mo28  1  0.170984  0.665812  0.376262  1
  Mo  Mo29  1  0.670230  0.835011  0.123778  1
  Mo  Mo30  1  0.829319  0.335449  0.874849  1
  Mo  Mo31  1  0.329242  0.164713  0.625344  1
  Mo  Mo32  1  0.834092  0.495029  0.249476  1
  W  W33  1  0.664937  0.994278  0.749624  1
  W  W34  1  0.164836  0.505579  0.750415  1
  W  W35  1  0.334315  0.004413  0.250487  1
