# generated using pymatgen
data_Ho19Tm(SnPb)8
_symmetry_space_group_name_H-M   'P 1'
_cell_length_a   8.10932300
_cell_length_b   8.17892005
_cell_length_c   15.51558100
_cell_angle_alpha   90.00000000
_cell_angle_beta   90.00000000
_cell_angle_gamma   90.00656397
_symmetry_Int_Tables_number   1
_chemical_formula_structural   Ho19Tm(SnPb)8
_chemical_formula_sum   'Ho19 Tm1 Sn8 Pb8'
_cell_volume   1029.07873078
_cell_formula_units_Z   1
loop_
 _symmetry_equiv_pos_site_id
 _symmetry_equiv_pos_as_xyz
  1  'x, y, z'
loop_
 _atom_site_type_symbol
 _atom_site_label
 _atom_site_symmetry_multiplicity
 _atom_site_fract_x
 _atom_site_fract_y
 _atom_site_fract_z
 _atom_site_occupancy
  Ho  Ho0  1  0.378377  0.839546  0.877091  1
  Ho  Ho1  1  0.878420  0.660434  0.623007  1
  Ho  Ho2  1  0.621376  0.160257  0.376767  1
  Ho  Ho3  1  0.121704  0.339473  0.123241  1
  Ho  Ho4  1  0.621376  0.160257  0.123233  1
  Ho  Ho5  1  0.121704  0.339473  0.376759  1
  Ho  Ho6  1  0.378377  0.839546  0.622909  1
  Ho  Ho7  1  0.878420  0.660434  0.876993  1
  Ho  Ho8  1  0.535184  0.323607  0.897206  1
  Ho  Ho9  1  0.035163  0.176374  0.602759  1
  Ho  Ho10  1  0.464741  0.676477  0.397016  1
  Ho  Ho11  1  0.964918  0.823719  0.103008  1
  Ho  Ho12  1  0.464741  0.676477  0.102984  1
  Ho  Ho13  1  0.964918  0.823719  0.396992  1
  Ho  Ho14  1  0.535184  0.323607  0.602794  1
  Ho  Ho15  1  0.035163  0.176374  0.897241  1
  Ho  Ho16  1  0.209389  0.503735  0.750000  1
  Ho  Ho17  1  0.709389  0.996273  0.750000  1
  Ho  Ho18  1  0.790694  0.496237  0.250000  1
  Tm  Tm19  1  0.290618  0.003847  0.250000  1
  Sn  Sn20  1  0.574755  0.622415  0.750000  1
  Sn  Sn21  1  0.074933  0.877548  0.750000  1
  Sn  Sn22  1  0.424920  0.377155  0.250000  1
  Sn  Sn23  1  0.925908  0.122301  0.250000  1
  Sn  Sn24  1  0.343115  0.148689  0.750000  1
  Sn  Sn25  1  0.843171  0.351157  0.750000  1
  Sn  Sn26  1  0.656302  0.851338  0.250000  1
  Sn  Sn27  1  0.157062  0.649724  0.250000  1
  Pb  Pb28  1  0.281827  0.033422  0.042016  1
  Pb  Pb29  1  0.781830  0.466547  0.458204  1
  Pb  Pb30  1  0.718194  0.966555  0.541440  1
  Pb  Pb31  1  0.218138  0.533377  0.958567  1
  Pb  Pb32  1  0.718194  0.966555  0.958560  1
  Pb  Pb33  1  0.218138  0.533377  0.541433  1
  Pb  Pb34  1  0.281827  0.033422  0.457984  1
  Pb  Pb35  1  0.781830  0.466547  0.041796  1
