# generated using pymatgen
data_LaYCr3Re14C3
_symmetry_space_group_name_H-M   'P 1'
_cell_length_a   6.96402032
_cell_length_b   6.96402012
_cell_length_c   6.96401949
_cell_angle_alpha   82.73535133
_cell_angle_beta   82.73535507
_cell_angle_gamma   82.73533979
_symmetry_Int_Tables_number   1
_chemical_formula_structural   LaYCr3Re14C3
_chemical_formula_sum   'La1 Y1 Cr3 Re14 C3'
_cell_volume   330.23690157
_cell_formula_units_Z   1
loop_
 _symmetry_equiv_pos_site_id
 _symmetry_equiv_pos_as_xyz
  1  'x, y, z'
loop_
 _atom_site_type_symbol
 _atom_site_label
 _atom_site_symmetry_multiplicity
 _atom_site_fract_x
 _atom_site_fract_y
 _atom_site_fract_z
 _atom_site_occupancy
  La  La0  1  0.647200  0.647200  0.647200  1
  Y  Y1  1  0.349949  0.349949  0.349949  1
  Cr  Cr2  1  0.998848  0.998848  0.500429  1
  Cr  Cr3  1  0.500429  0.998848  0.998848  1
  Cr  Cr4  1  0.998848  0.500429  0.998848  1
  Re  Re5  1  0.721034  0.278143  0.000925  1
  Re  Re6  1  0.000925  0.721034  0.278143  1
  Re  Re7  1  0.278143  0.000925  0.721034  1
  Re  Re8  1  0.000925  0.278143  0.721034  1
  Re  Re9  1  0.721034  0.000925  0.278143  1
  Re  Re10  1  0.278143  0.721034  0.000925  1
  Re  Re11  1  0.343427  0.343427  0.868232  1
  Re  Re12  1  0.868232  0.343427  0.343427  1
  Re  Re13  1  0.343427  0.868232  0.343427  1
  Re  Re14  1  0.655235  0.655235  0.136682  1
  Re  Re15  1  0.136682  0.655235  0.655235  1
  Re  Re16  1  0.655235  0.136682  0.655235  1
  Re  Re17  1  0.900994  0.900994  0.900994  1
  Re  Re18  1  0.099380  0.099380  0.099380  1
  C  C19  1  0.495804  0.495804  0.010304  1
  C  C20  1  0.010304  0.495804  0.495804  1
  C  C21  1  0.495804  0.010304  0.495804  1
