# generated using pymatgen
data_Sr3LaSb3
_symmetry_space_group_name_H-M   'P 1'
_cell_length_a   8.66714440
_cell_length_b   8.59999745
_cell_length_c   8.66714370
_cell_angle_alpha   109.37354453
_cell_angle_beta   109.85206528
_cell_angle_gamma   109.50188143
_symmetry_Int_Tables_number   1
_chemical_formula_structural   Sr3LaSb3
_chemical_formula_sum   'Sr6 La2 Sb6'
_cell_volume   495.36902835
_cell_formula_units_Z   2
loop_
 _symmetry_equiv_pos_site_id
 _symmetry_equiv_pos_as_xyz
  1  'x, y, z'
loop_
 _atom_site_type_symbol
 _atom_site_label
 _atom_site_symmetry_multiplicity
 _atom_site_fract_x
 _atom_site_fract_y
 _atom_site_fract_z
 _atom_site_occupancy
  Sr  Sr0  1  0.644221  0.499750  0.999916  1
  Sr  Sr1  1  0.500166  0.000250  0.644471  1
  Sr  Sr2  1  0.999972  0.642109  0.499783  1
  Sr  Sr3  1  0.857674  0.857891  0.857863  1
  Sr  Sr4  1  0.498148  0.998334  0.137198  1
  Sr  Sr5  1  0.138865  0.501666  0.999815  1
  La  La6  1  0.998038  0.134278  0.499044  1
  La  La7  1  0.364766  0.365722  0.363760  1
  Sb  Sb8  1  0.885452  0.250000  0.135452  1
  Sb  Sb9  1  0.626535  0.750000  0.376535  1
  Sb  Sb10  1  0.246610  0.130360  0.874922  1
  Sb  Sb11  1  0.744562  0.369640  0.616250  1
  Sb  Sb12  1  0.126579  0.888988  0.257400  1
  Sb  Sb13  1  0.368412  0.611012  0.737592  1
