# generated using pymatgen
data_HoErGa2CuIr
_symmetry_space_group_name_H-M   'P 1'
_cell_length_a   4.35710700
_cell_length_b   6.86871100
_cell_length_c   7.57056800
_cell_angle_alpha   90.00000000
_cell_angle_beta   90.00000000
_cell_angle_gamma   90.00000000
_symmetry_Int_Tables_number   1
_chemical_formula_structural   HoErGa2CuIr
_chemical_formula_sum   'Ho2 Er2 Ga4 Cu2 Ir2'
_cell_volume   226.56975440
_cell_formula_units_Z   2
loop_
 _symmetry_equiv_pos_site_id
 _symmetry_equiv_pos_as_xyz
  1  'x, y, z'
loop_
 _atom_site_type_symbol
 _atom_site_label
 _atom_site_symmetry_multiplicity
 _atom_site_fract_x
 _atom_site_fract_y
 _atom_site_fract_z
 _atom_site_occupancy
  Ho  Ho0  1  0.750000  0.022328  0.688981  1
  Ho  Ho1  1  0.750000  0.522328  0.811019  1
  Er  Er2  1  0.250000  0.991326  0.295353  1
  Er  Er3  1  0.250000  0.491326  0.204647  1
  Ga  Ga4  1  0.250000  0.324136  0.580948  1
  Ga  Ga5  1  0.250000  0.824136  0.919052  1
  Ga  Ga6  1  0.750000  0.674537  0.431388  1
  Ga  Ga7  1  0.750000  0.174537  0.068612  1
  Cu  Cu8  1  0.250000  0.211604  0.901245  1
  Cu  Cu9  1  0.250000  0.711604  0.598755  1
  Ir  Ir10  1  0.750000  0.776068  0.101567  1
  Ir  Ir11  1  0.750000  0.276068  0.398433  1
