# generated using pymatgen
data_Rb12Na8Ti3VAs12
_symmetry_space_group_name_H-M   'P 1'
_cell_length_a   10.80651391
_cell_length_b   10.80651456
_cell_length_c   15.79104804
_cell_angle_alpha   90.00692410
_cell_angle_beta   90.00692036
_cell_angle_gamma   142.64517325
_symmetry_Int_Tables_number   1
_chemical_formula_structural   Rb12Na8Ti3VAs12
_chemical_formula_sum   'Rb12 Na8 Ti3 V1 As12'
_cell_volume   1118.90053169
_cell_formula_units_Z   1
loop_
 _symmetry_equiv_pos_site_id
 _symmetry_equiv_pos_as_xyz
  1  'x, y, z'
loop_
 _atom_site_type_symbol
 _atom_site_label
 _atom_site_symmetry_multiplicity
 _atom_site_fract_x
 _atom_site_fract_y
 _atom_site_fract_z
 _atom_site_occupancy
  Rb  Rb0  1  0.606576  0.944139  0.824675  1
  Rb  Rb1  1  0.276375  0.277685  0.316347  1
  Rb  Rb2  1  0.223023  0.222953  0.816017  1
  Rb  Rb3  1  0.722315  0.723625  0.683653  1
  Rb  Rb4  1  0.440370  0.107296  0.672750  1
  Rb  Rb5  1  0.892704  0.559630  0.327250  1
  Rb  Rb6  1  0.055861  0.393424  0.175325  1
  Rb  Rb7  1  0.393466  0.056143  0.175068  1
  Rb  Rb8  1  0.559961  0.892022  0.326072  1
  Rb  Rb9  1  0.107978  0.440039  0.673928  1
  Rb  Rb10  1  0.943857  0.606534  0.824932  1
  Rb  Rb11  1  0.777047  0.776977  0.183983  1
  Na  Na12  1  0.079464  0.920536  0.000000  1
  Na  Na13  1  0.578165  0.421835  0.500000  1
  Na  Na14  1  0.920481  0.079519  0.000000  1
  Na  Na15  1  0.755048  0.244952  0.000000  1
  Na  Na16  1  0.746484  0.253516  0.500000  1
  Na  Na17  1  0.245139  0.754861  0.000000  1
  Na  Na18  1  0.255987  0.744013  0.500000  1
  Na  Na19  1  0.420572  0.579428  0.500000  1
  Ti  Ti20  1  0.415354  0.584646  0.000000  1
  Ti  Ti21  1  0.917527  0.082473  0.500000  1
  Ti  Ti22  1  0.584564  0.415436  0.000000  1
  V  V23  1  0.083320  0.916680  0.500000  1
  As  As24  1  0.054984  0.362074  0.405113  1
  As  As25  1  0.861424  0.553882  0.094698  1
  As  As26  1  0.446118  0.138576  0.905302  1
  As  As27  1  0.637926  0.945016  0.594887  1
  As  As28  1  0.949479  0.648059  0.590465  1
  As  As29  1  0.138631  0.446174  0.905455  1
  As  As30  1  0.553826  0.861369  0.094545  1
  As  As31  1  0.351941  0.050521  0.409535  1
  As  As32  1  0.192241  0.188360  0.585297  1
  As  As33  1  0.690866  0.690715  0.914738  1
  As  As34  1  0.309285  0.309134  0.085262  1
  As  As35  1  0.811640  0.807759  0.414703  1
