# generated using pymatgen
data_Lu3FeCo7P6Ru
_symmetry_space_group_name_H-M   'P 1'
_cell_length_a   3.67806500
_cell_length_b   10.50300800
_cell_length_c   12.07578000
_cell_angle_alpha   90.00000000
_cell_angle_beta   90.00000000
_cell_angle_gamma   90.00000000
_symmetry_Int_Tables_number   1
_chemical_formula_structural   Lu3FeCo7P6Ru
_chemical_formula_sum   'Lu6 Fe2 Co14 P12 Ru2'
_cell_volume   466.49639138
_cell_formula_units_Z   2
loop_
 _symmetry_equiv_pos_site_id
 _symmetry_equiv_pos_as_xyz
  1  'x, y, z'
loop_
 _atom_site_type_symbol
 _atom_site_label
 _atom_site_symmetry_multiplicity
 _atom_site_fract_x
 _atom_site_fract_y
 _atom_site_fract_z
 _atom_site_occupancy
  Lu  Lu0  1  0.000000  0.500000  0.525864  1
  Lu  Lu1  1  0.500000  0.000000  0.474136  1
  Lu  Lu2  1  0.500000  0.819606  0.205492  1
  Lu  Lu3  1  0.500000  0.180394  0.205492  1
  Lu  Lu4  1  0.000000  0.680394  0.794508  1
  Lu  Lu5  1  0.000000  0.319606  0.794508  1
  Fe  Fe6  1  0.000000  0.500000  0.987862  1
  Fe  Fe7  1  0.500000  0.000000  0.012138  1
  Co  Co8  1  0.500000  0.500000  0.701760  1
  Co  Co9  1  0.000000  0.000000  0.298240  1
  Co  Co10  1  0.500000  0.331613  0.990872  1
  Co  Co11  1  0.500000  0.668387  0.990872  1
  Co  Co12  1  0.000000  0.168387  0.009128  1
  Co  Co13  1  0.000000  0.831613  0.009128  1
  Co  Co14  1  0.500000  0.296917  0.431383  1
  Co  Co15  1  0.500000  0.703083  0.431383  1
  Co  Co16  1  0.000000  0.203083  0.568617  1
  Co  Co17  1  0.000000  0.796917  0.568617  1
  Co  Co18  1  0.500000  0.877496  0.707149  1
  Co  Co19  1  0.500000  0.122504  0.707149  1
  Co  Co20  1  0.000000  0.622504  0.292851  1
  Co  Co21  1  0.000000  0.377496  0.292851  1
  P  P22  1  0.500000  0.500000  0.881997  1
  P  P23  1  0.000000  0.000000  0.118003  1
  P  P24  1  0.500000  0.500000  0.351820  1
  P  P25  1  0.000000  0.000000  0.648180  1
  P  P26  1  0.500000  0.313255  0.617397  1
  P  P27  1  0.500000  0.686745  0.617397  1
  P  P28  1  0.000000  0.186745  0.382603  1
  P  P29  1  0.000000  0.813255  0.382603  1
  P  P30  1  0.500000  0.845371  0.892722  1
  P  P31  1  0.500000  0.154629  0.892722  1
  P  P32  1  0.000000  0.654629  0.107278  1
  P  P33  1  0.000000  0.345371  0.107278  1
  Ru  Ru34  1  0.500000  0.500000  0.159112  1
  Ru  Ru35  1  0.000000  0.000000  0.840888  1
