# generated using pymatgen
data_Cs4Na2LaTlSb4
_symmetry_space_group_name_H-M   'P 1'
_cell_length_a   10.45550485
_cell_length_b   10.45550345
_cell_length_c   10.45550470
_cell_angle_alpha   136.95271951
_cell_angle_beta   61.95622534
_cell_angle_gamma   137.67652706
_symmetry_Int_Tables_number   1
_chemical_formula_structural   Cs4Na2LaTlSb4
_chemical_formula_sum   'Cs4 Na2 La1 Tl1 Sb4'
_cell_volume   519.15816099
_cell_formula_units_Z   1
loop_
 _symmetry_equiv_pos_site_id
 _symmetry_equiv_pos_as_xyz
  1  'x, y, z'
loop_
 _atom_site_type_symbol
 _atom_site_label
 _atom_site_symmetry_multiplicity
 _atom_site_fract_x
 _atom_site_fract_y
 _atom_site_fract_z
 _atom_site_occupancy
  Cs  Cs0  1  0.832709  0.241113  0.060605  1
  Cs  Cs1  1  0.667291  0.727895  0.408404  1
  Cs  Cs2  1  0.319491  0.258887  0.591596  1
  Cs  Cs3  1  0.180509  0.772105  0.939395  1
  Na  Na4  1  0.250001  0.250001  0.000000  1
  Na  Na5  1  0.750001  0.750001  0.000000  1
  La  La6  1  0.750001  0.250001  0.500000  1
  Tl  Tl7  1  0.250001  0.750001  0.500000  1
  Sb  Sb8  1  0.393861  0.760284  0.172072  1
  Sb  Sb9  1  0.106139  0.278211  0.366422  1
  Sb  Sb10  1  0.911789  0.739716  0.633578  1
  Sb  Sb11  1  0.588211  0.221789  0.827928  1
