# generated using pymatgen
data_Hf9IrRh10
_symmetry_space_group_name_H-M   'P 1'
_cell_length_a   7.01172705
_cell_length_b   7.82855445
_cell_length_c   7.82855349
_cell_angle_alpha   78.43076365
_cell_angle_beta   63.39544950
_cell_angle_gamma   63.39543788
_symmetry_Int_Tables_number   1
_chemical_formula_structural   Hf9IrRh10
_chemical_formula_sum   'Hf9 Ir1 Rh10'
_cell_volume   343.54085075
_cell_formula_units_Z   1
loop_
 _symmetry_equiv_pos_site_id
 _symmetry_equiv_pos_as_xyz
  1  'x, y, z'
loop_
 _atom_site_type_symbol
 _atom_site_label
 _atom_site_symmetry_multiplicity
 _atom_site_fract_x
 _atom_site_fract_y
 _atom_site_fract_z
 _atom_site_occupancy
  Hf  Hf0  1  0.000000  0.000000  0.000000  1
  Hf  Hf1  1  0.689352  0.405402  0.216684  1
  Hf  Hf2  1  0.311436  0.594598  0.783316  1
  Hf  Hf3  1  0.093964  0.216684  0.594598  1
  Hf  Hf4  1  0.905249  0.783316  0.405402  1
  Hf  Hf5  1  0.759244  0.652111  0.831034  1
  Hf  Hf6  1  0.242389  0.347889  0.168966  1
  Hf  Hf7  1  0.409722  0.831034  0.347889  1
  Hf  Hf8  1  0.588644  0.168966  0.652111  1
  Ir  Ir9  1  0.250000  0.500000  0.500000  1
  Rh  Rh10  1  0.500000  0.000000  0.000000  1
  Rh  Rh11  1  0.750000  0.500000  0.500000  1
  Rh  Rh12  1  0.676239  0.313562  0.896269  1
  Rh  Rh13  1  0.886071  0.686438  0.103731  1
  Rh  Rh14  1  0.989861  0.896707  0.686382  1
  Rh  Rh15  1  0.572950  0.103293  0.313618  1
  Rh  Rh16  1  0.323759  0.686382  0.103293  1
  Rh  Rh17  1  0.113432  0.313618  0.896707  1
  Rh  Rh18  1  0.010198  0.103731  0.313562  1
  Rh  Rh19  1  0.427491  0.896269  0.686438  1
