# generated using pymatgen
data_DyBeB14
_symmetry_space_group_name_H-M   'P 1'
_cell_length_a   7.20622177
_cell_length_b   7.20622180
_cell_length_c   7.20622203
_cell_angle_alpha   132.73987621
_cell_angle_beta   110.32848782
_cell_angle_gamma   88.50596680
_symmetry_Int_Tables_number   1
_chemical_formula_structural   DyBeB14
_chemical_formula_sum   'Dy2 Be2 B28'
_cell_volume   245.48493497
_cell_formula_units_Z   2
loop_
 _symmetry_equiv_pos_site_id
 _symmetry_equiv_pos_as_xyz
  1  'x, y, z'
loop_
 _atom_site_type_symbol
 _atom_site_label
 _atom_site_symmetry_multiplicity
 _atom_site_fract_x
 _atom_site_fract_y
 _atom_site_fract_z
 _atom_site_occupancy
  Dy  Dy0  1  0.607760  0.250000  0.357760  1
  Dy  Dy1  1  0.392240  0.750000  0.642240  1
  Be  Be2  1  0.000000  0.000000  0.500000  1
  Be  Be3  1  0.000000  0.500000  0.000000  1
  B  B4  1  0.631924  0.666386  0.965539  1
  B  B5  1  0.368076  0.333614  0.034461  1
  B  B6  1  0.200847  0.166386  0.034461  1
  B  B7  1  0.799153  0.833614  0.965539  1
  B  B8  1  0.790665  0.155718  0.634947  1
  B  B9  1  0.209335  0.844282  0.365053  1
  B  B10  1  0.020770  0.655718  0.365053  1
  B  B11  1  0.979230  0.344282  0.634947  1
  B  B12  1  0.924837  0.092327  0.832510  1
  B  B13  1  0.075163  0.907673  0.167490  1
  B  B14  1  0.759816  0.592327  0.167490  1
  B  B15  1  0.240184  0.407673  0.832510  1
  B  B16  1  0.398335  0.396142  0.676455  1
  B  B17  1  0.601665  0.278120  0.997807  1
  B  B18  1  0.219687  0.896142  0.997807  1
  B  B19  1  0.780313  0.778120  0.676455  1
  B  B20  1  0.601665  0.603858  0.323545  1
  B  B21  1  0.398335  0.721880  0.002193  1
  B  B22  1  0.780313  0.103858  0.002193  1
  B  B23  1  0.219687  0.221880  0.323545  1
  B  B24  1  0.032722  0.828055  0.698572  1
  B  B25  1  0.967278  0.665851  0.795333  1
  B  B26  1  0.629482  0.328055  0.795333  1
  B  B27  1  0.370518  0.165851  0.698572  1
  B  B28  1  0.967278  0.171945  0.301428  1
  B  B29  1  0.032722  0.334149  0.204667  1
  B  B30  1  0.370518  0.671945  0.204667  1
  B  B31  1  0.629482  0.834149  0.301428  1
