# generated using pymatgen
data_RbPr2Dy(SbAu)4
_symmetry_space_group_name_H-M   'P 1'
_cell_length_a   4.66623000
_cell_length_b   4.66623074
_cell_length_c   17.94335400
_cell_angle_alpha   90.00000000
_cell_angle_beta   90.00000000
_cell_angle_gamma   120.00000891
_symmetry_Int_Tables_number   1
_chemical_formula_structural   RbPr2Dy(SbAu)4
_chemical_formula_sum   'Rb1 Pr2 Dy1 Sb4 Au4'
_cell_volume   338.35030329
_cell_formula_units_Z   1
loop_
 _symmetry_equiv_pos_site_id
 _symmetry_equiv_pos_as_xyz
  1  'x, y, z'
loop_
 _atom_site_type_symbol
 _atom_site_label
 _atom_site_symmetry_multiplicity
 _atom_site_fract_x
 _atom_site_fract_y
 _atom_site_fract_z
 _atom_site_occupancy
  Rb  Rb0  1  0.000000  0.000000  0.250000  1
  Pr  Pr1  1  0.000000  0.000000  0.518350  1
  Pr  Pr2  1  0.000000  0.000000  0.981650  1
  Dy  Dy3  1  0.000000  0.000000  0.750000  1
  Sb  Sb4  1  0.333333  0.666667  0.397430  1
  Sb  Sb5  1  0.666667  0.333333  0.623761  1
  Sb  Sb6  1  0.666667  0.333333  0.876239  1
  Sb  Sb7  1  0.333333  0.666667  0.102570  1
  Au  Au8  1  0.666667  0.333333  0.422833  1
  Au  Au9  1  0.333333  0.666667  0.669725  1
  Au  Au10  1  0.333333  0.666667  0.830275  1
  Au  Au11  1  0.666667  0.333333  0.077167  1
