# generated using pymatgen
data_Tb5DyTi2(MnC6)2
_symmetry_space_group_name_H-M   'P 1'
_cell_length_a   8.24075703
_cell_length_b   8.23960933
_cell_length_c   5.04766900
_cell_angle_alpha   90.00000000
_cell_angle_beta   90.00000000
_cell_angle_gamma   119.99525819
_symmetry_Int_Tables_number   1
_chemical_formula_structural   Tb5DyTi2(MnC6)2
_chemical_formula_sum   'Tb5 Dy1 Ti2 Mn2 C12'
_cell_volume   296.83559602
_cell_formula_units_Z   1
loop_
 _symmetry_equiv_pos_site_id
 _symmetry_equiv_pos_as_xyz
  1  'x, y, z'
loop_
 _atom_site_type_symbol
 _atom_site_label
 _atom_site_symmetry_multiplicity
 _atom_site_fract_x
 _atom_site_fract_y
 _atom_site_fract_z
 _atom_site_occupancy
  Tb  Tb0  1  0.940677  0.619138  0.250000  1
  Tb  Tb1  1  0.678422  0.059216  0.250000  1
  Tb  Tb2  1  0.321612  0.940691  0.750000  1
  Tb  Tb3  1  0.059373  0.380815  0.750000  1
  Tb  Tb4  1  0.380961  0.321742  0.250000  1
  Dy  Dy5  1  0.620217  0.678986  0.750000  1
  Ti  Ti6  1  0.999923  0.999928  0.500019  1
  Ti  Ti7  1  0.999923  0.999928  0.999981  1
  Mn  Mn8  1  0.666496  0.333343  0.750000  1
  Mn  Mn9  1  0.333489  0.666638  0.250000  1
  C  C10  1  0.962644  0.761269  0.750000  1
  C  C11  1  0.201746  0.962909  0.250000  1
  C  C12  1  0.761212  0.798153  0.250000  1
  C  C13  1  0.238774  0.201712  0.750000  1
  C  C14  1  0.797762  0.036521  0.750000  1
  C  C15  1  0.037050  0.238828  0.250000  1
  C  C16  1  0.861529  0.569691  0.750000  1
  C  C17  1  0.292220  0.861815  0.250000  1
  C  C18  1  0.569676  0.707494  0.250000  1
  C  C19  1  0.430367  0.292608  0.750000  1
  C  C20  1  0.138148  0.430385  0.250000  1
  C  C21  1  0.707778  0.138191  0.750000  1
