# generated using pymatgen
data_Hf2Zr6Ta2Al12Co7
_symmetry_space_group_name_H-M   'P 1'
_cell_length_a   8.64913709
_cell_length_b   8.64954121
_cell_length_c   8.64692802
_cell_angle_alpha   60.00617056
_cell_angle_beta   60.00088789
_cell_angle_gamma   59.98633010
_symmetry_Int_Tables_number   1
_chemical_formula_structural   Hf2Zr6Ta2Al12Co7
_chemical_formula_sum   'Hf2 Zr6 Ta2 Al12 Co7'
_cell_volume   457.39453353
_cell_formula_units_Z   1
loop_
 _symmetry_equiv_pos_site_id
 _symmetry_equiv_pos_as_xyz
  1  'x, y, z'
loop_
 _atom_site_type_symbol
 _atom_site_label
 _atom_site_symmetry_multiplicity
 _atom_site_fract_x
 _atom_site_fract_y
 _atom_site_fract_z
 _atom_site_occupancy
  Hf  Hf0  1  0.646227  0.117709  0.118076  1
  Hf  Hf1  1  0.117705  0.646265  0.117990  1
  Zr  Zr2  1  0.691434  0.310652  0.309107  1
  Zr  Zr3  1  0.691514  0.310583  0.688866  1
  Zr  Zr4  1  0.687948  0.687929  0.312064  1
  Zr  Zr5  1  0.310637  0.691436  0.688810  1
  Zr  Zr6  1  0.310557  0.691496  0.309043  1
  Zr  Zr7  1  0.306252  0.306286  0.693721  1
  Ta  Ta8  1  0.119107  0.119019  0.642815  1
  Ta  Ta9  1  0.118983  0.119028  0.119033  1
  Al  Al10  1  0.363691  0.880509  0.877892  1
  Al  Al11  1  0.880501  0.363691  0.877925  1
  Al  Al12  1  0.879567  0.879605  0.364836  1
  Al  Al13  1  0.879612  0.879580  0.876015  1
  Al  Al14  1  0.991527  0.335227  0.336648  1
  Al  Al15  1  0.335270  0.991507  0.336650  1
  Al  Al16  1  0.336264  0.336222  0.989324  1
  Al  Al17  1  0.336239  0.336181  0.338223  1
  Al  Al18  1  0.004501  0.664453  0.665524  1
  Al  Al19  1  0.664421  0.004530  0.665503  1
  Al  Al20  1  0.665325  0.665334  0.003866  1
  Al  Al21  1  0.665306  0.665364  0.665468  1
  Co  Co22  1  0.006755  0.006740  0.993240  1
  Co  Co23  1  0.490930  0.003454  0.003358  1
  Co  Co24  1  0.490891  0.003453  0.502282  1
  Co  Co25  1  0.497622  0.497622  0.002369  1
  Co  Co26  1  0.003450  0.490893  0.502279  1
  Co  Co27  1  0.003456  0.490913  0.003369  1
  Co  Co28  1  0.004304  0.004314  0.495702  1
