# generated using pymatgen
data_La8Nd6IrPt5
_symmetry_space_group_name_H-M   'P 1'
_cell_length_a   6.58932452
_cell_length_b   10.26090058
_cell_length_c   10.26090118
_cell_angle_alpha   119.99485146
_cell_angle_beta   89.79157448
_cell_angle_gamma   90.20842671
_symmetry_Int_Tables_number   1
_chemical_formula_structural   La8Nd6IrPt5
_chemical_formula_sum   'La8 Nd6 Ir1 Pt5'
_cell_volume   600.84328300
_cell_formula_units_Z   1
loop_
 _symmetry_equiv_pos_site_id
 _symmetry_equiv_pos_as_xyz
  1  'x, y, z'
loop_
 _atom_site_type_symbol
 _atom_site_label
 _atom_site_symmetry_multiplicity
 _atom_site_fract_x
 _atom_site_fract_y
 _atom_site_fract_z
 _atom_site_occupancy
  La  La0  1  0.460719  0.333218  0.666782  1
  La  La1  1  0.966127  0.668848  0.331152  1
  La  La2  1  0.244121  0.128256  0.871744  1
  La  La3  1  0.242941  0.745565  0.877514  1
  La  La4  1  0.242941  0.122486  0.254435  1
  La  La5  1  0.747869  0.871469  0.128531  1
  La  La6  1  0.744234  0.256550  0.127956  1
  La  La7  1  0.744234  0.872044  0.743450  1
  Nd  Nd8  1  0.441960  0.537445  0.462555  1
  Nd  Nd9  1  0.439270  0.922786  0.458716  1
  Nd  Nd10  1  0.439270  0.541284  0.077214  1
  Nd  Nd11  1  0.941661  0.462699  0.537301  1
  Nd  Nd12  1  0.942070  0.074614  0.536526  1
  Nd  Nd13  1  0.942070  0.463474  0.925386  1
  Ir  Ir14  1  0.189529  0.811260  0.188740  1
  Pt  Pt15  1  0.191177  0.377084  0.189097  1
  Pt  Pt16  1  0.191177  0.810903  0.622916  1
  Pt  Pt17  1  0.691619  0.188972  0.811028  1
  Pt  Pt18  1  0.691504  0.621565  0.810522  1
  Pt  Pt19  1  0.691504  0.189478  0.378435  1
