# generated using pymatgen
data_Tm20Ir7Ru3Au2
_symmetry_space_group_name_H-M   'P 1'
_cell_length_a   10.80750620
_cell_length_b   10.76404801
_cell_length_c   6.35148465
_cell_angle_alpha   90.04807407
_cell_angle_beta   89.75150625
_cell_angle_gamma   89.98803573
_symmetry_Int_Tables_number   1
_chemical_formula_structural   Tm20Ir7Ru3Au2
_chemical_formula_sum   'Tm20 Ir7 Ru3 Au2'
_cell_volume   738.87696144
_cell_formula_units_Z   1
loop_
 _symmetry_equiv_pos_site_id
 _symmetry_equiv_pos_as_xyz
  1  'x, y, z'
loop_
 _atom_site_type_symbol
 _atom_site_label
 _atom_site_symmetry_multiplicity
 _atom_site_fract_x
 _atom_site_fract_y
 _atom_site_fract_z
 _atom_site_occupancy
  Tm  Tm0  1  0.293938  0.086659  0.374543  1
  Tm  Tm1  1  0.294048  0.914048  0.875230  1
  Tm  Tm2  1  0.697487  0.089622  0.867683  1
  Tm  Tm3  1  0.697468  0.909846  0.367414  1
  Tm  Tm4  1  0.577087  0.792170  0.877688  1
  Tm  Tm5  1  0.577392  0.207943  0.377495  1
  Tm  Tm6  1  0.410952  0.793178  0.377218  1
  Tm  Tm7  1  0.411409  0.206929  0.877626  1
  Tm  Tm8  1  0.209143  0.412075  0.622910  1
  Tm  Tm9  1  0.208584  0.587858  0.120392  1
  Tm  Tm10  1  0.791122  0.420406  0.121334  1
  Tm  Tm11  1  0.790604  0.579556  0.623992  1
  Tm  Tm12  1  0.917798  0.704220  0.133895  1
  Tm  Tm13  1  0.917797  0.295189  0.638112  1
  Tm  Tm14  1  0.094978  0.703721  0.623825  1
  Tm  Tm15  1  0.094874  0.296860  0.121109  1
  Tm  Tm16  1  0.008457  0.999311  0.499746  1
  Tm  Tm17  1  0.008571  0.000651  0.999509  1
  Tm  Tm18  1  0.499743  0.499471  0.999341  1
  Tm  Tm19  1  0.499568  0.500501  0.499435  1
  Ir  Ir20  1  0.152977  0.154340  0.749280  1
  Ir  Ir21  1  0.152133  0.845338  0.249046  1
  Ir  Ir22  1  0.654516  0.346785  0.748261  1
  Ir  Ir23  1  0.654758  0.652666  0.248197  1
  Ir  Ir24  1  0.347608  0.347432  0.250383  1
  Ir  Ir25  1  0.347651  0.653211  0.750346  1
  Ir  Ir26  1  0.000011  0.499308  0.378228  1
  Ru  Ru27  1  0.500330  0.999808  0.125684  1
  Ru  Ru28  1  0.500197  0.000308  0.625518  1
  Ru  Ru29  1  0.999935  0.500213  0.875995  1
  Au  Au30  1  0.844780  0.155025  0.250319  1
  Au  Au31  1  0.844085  0.845350  0.750242  1
