# generated using pymatgen
data_Ho9Tm(BiPb)3
_symmetry_space_group_name_H-M   'P 1'
_cell_length_a   9.10255500
_cell_length_b   9.10255673
_cell_length_c   6.44667700
_cell_angle_alpha   90.00000000
_cell_angle_beta   90.00000000
_cell_angle_gamma   120.00000462
_symmetry_Int_Tables_number   1
_chemical_formula_structural   Ho9Tm(BiPb)3
_chemical_formula_sum   'Ho9 Tm1 Bi3 Pb3'
_cell_volume   462.58679219
_cell_formula_units_Z   1
loop_
 _symmetry_equiv_pos_site_id
 _symmetry_equiv_pos_as_xyz
  1  'x, y, z'
loop_
 _atom_site_type_symbol
 _atom_site_label
 _atom_site_symmetry_multiplicity
 _atom_site_fract_x
 _atom_site_fract_y
 _atom_site_fract_z
 _atom_site_occupancy
  Ho  Ho0  1  0.666667  0.333333  0.002961  1
  Ho  Ho1  1  0.333333  0.666667  0.002736  1
  Ho  Ho2  1  0.333333  0.666667  0.497237  1
  Ho  Ho3  1  0.761966  0.762090  0.749840  1
  Ho  Ho4  1  0.237910  0.999876  0.749840  1
  Ho  Ho5  1  0.000124  0.238034  0.749840  1
  Ho  Ho6  1  0.238391  0.238494  0.250037  1
  Ho  Ho7  1  0.761506  0.999897  0.250037  1
  Ho  Ho8  1  0.000103  0.761609  0.250037  1
  Tm  Tm9  1  0.666667  0.333333  0.496808  1
  Bi  Bi10  1  0.393166  0.392879  0.749694  1
  Bi  Bi11  1  0.607121  0.000286  0.749694  1
  Bi  Bi12  1  0.999714  0.606834  0.749694  1
  Pb  Pb13  1  0.607760  0.607079  0.250514  1
  Pb  Pb14  1  0.392921  0.000681  0.250514  1
  Pb  Pb15  1  0.999319  0.392240  0.250514  1
