# generated using pymatgen
data_Ac3Tl3Sn2
_symmetry_space_group_name_H-M   'P 1'
_cell_length_a   7.00361303
_cell_length_b   7.00361302
_cell_length_c   11.00161400
_cell_angle_alpha   90.00000000
_cell_angle_beta   90.00000000
_cell_angle_gamma   102.45674177
_symmetry_Int_Tables_number   1
_chemical_formula_structural   Ac3Tl3Sn2
_chemical_formula_sum   'Ac6 Tl6 Sn4'
_cell_volume   526.93222795
_cell_formula_units_Z   2
loop_
 _symmetry_equiv_pos_site_id
 _symmetry_equiv_pos_as_xyz
  1  'x, y, z'
loop_
 _atom_site_type_symbol
 _atom_site_label
 _atom_site_symmetry_multiplicity
 _atom_site_fract_x
 _atom_site_fract_y
 _atom_site_fract_z
 _atom_site_occupancy
  Ac  Ac0  1  0.630715  0.630715  0.250000  1
  Ac  Ac1  1  0.369285  0.369285  0.750000  1
  Ac  Ac2  1  0.207329  0.792671  0.500000  1
  Ac  Ac3  1  0.207329  0.792671  0.000000  1
  Ac  Ac4  1  0.792671  0.207329  0.500000  1
  Ac  Ac5  1  0.792671  0.207329  0.000000  1
  Tl  Tl6  1  0.020914  0.020914  0.250000  1
  Tl  Tl7  1  0.979086  0.979086  0.750000  1
  Tl  Tl8  1  0.300564  0.300564  0.048918  1
  Tl  Tl9  1  0.699436  0.699436  0.951082  1
  Tl  Tl10  1  0.300564  0.300564  0.451082  1
  Tl  Tl11  1  0.699436  0.699436  0.548918  1
  Sn  Sn12  1  0.493594  0.080351  0.250000  1
  Sn  Sn13  1  0.919649  0.506406  0.750000  1
  Sn  Sn14  1  0.506406  0.919649  0.750000  1
  Sn  Sn15  1  0.080351  0.493594  0.250000  1
