# generated using pymatgen
data_Dy10Y7Ho3Sn16
_symmetry_space_group_name_H-M   'P 1'
_cell_length_a   8.04090661
_cell_length_b   8.18364741
_cell_length_c   15.47023811
_cell_angle_alpha   89.99803228
_cell_angle_beta   90.01483648
_cell_angle_gamma   89.98869311
_symmetry_Int_Tables_number   1
_chemical_formula_structural   Dy10Y7Ho3Sn16
_chemical_formula_sum   'Dy10 Y7 Ho3 Sn16'
_cell_volume   1018.00263555
_cell_formula_units_Z   1
loop_
 _symmetry_equiv_pos_site_id
 _symmetry_equiv_pos_as_xyz
  1  'x, y, z'
loop_
 _atom_site_type_symbol
 _atom_site_label
 _atom_site_symmetry_multiplicity
 _atom_site_fract_x
 _atom_site_fract_y
 _atom_site_fract_z
 _atom_site_occupancy
  Dy  Dy0  1  0.367524  0.836529  0.877839  1
  Dy  Dy1  1  0.867351  0.663544  0.622214  1
  Dy  Dy2  1  0.632520  0.163548  0.377842  1
  Dy  Dy3  1  0.132372  0.336486  0.122169  1
  Dy  Dy4  1  0.632362  0.163681  0.122061  1
  Dy  Dy5  1  0.132541  0.336486  0.377822  1
  Dy  Dy6  1  0.367527  0.836526  0.622218  1
  Dy  Dy7  1  0.867420  0.663558  0.877862  1
  Dy  Dy8  1  0.522214  0.320806  0.901987  1
  Dy  Dy9  1  0.198810  0.502938  0.750065  1
  Y  Y10  1  0.022096  0.179092  0.597872  1
  Y  Y11  1  0.477860  0.679118  0.402163  1
  Y  Y12  1  0.977856  0.820905  0.097842  1
  Y  Y13  1  0.477801  0.679016  0.097850  1
  Y  Y14  1  0.977867  0.820870  0.402187  1
  Y  Y15  1  0.522173  0.320894  0.597841  1
  Y  Y16  1  0.022164  0.179119  0.902151  1
  Ho  Ho17  1  0.698716  0.997091  0.750084  1
  Ho  Ho18  1  0.801219  0.496938  0.249977  1
  Ho  Ho19  1  0.301250  0.003032  0.249998  1
  Sn  Sn20  1  0.292822  0.035612  0.041921  1
  Sn  Sn21  1  0.792816  0.464462  0.458035  1
  Sn  Sn22  1  0.707171  0.964469  0.542005  1
  Sn  Sn23  1  0.207742  0.535124  0.958054  1
  Sn  Sn24  1  0.707120  0.964756  0.957946  1
  Sn  Sn25  1  0.207186  0.535585  0.541913  1
  Sn  Sn26  1  0.292824  0.035525  0.458032  1
  Sn  Sn27  1  0.792584  0.464337  0.041792  1
  Sn  Sn28  1  0.565234  0.619673  0.750073  1
  Sn  Sn29  1  0.064950  0.880421  0.750013  1
  Sn  Sn30  1  0.434973  0.380385  0.250009  1
  Sn  Sn31  1  0.934945  0.119636  0.250001  1
  Sn  Sn32  1  0.330434  0.147290  0.750094  1
  Sn  Sn33  1  0.830060  0.352495  0.750040  1
  Sn  Sn34  1  0.669765  0.852594  0.250009  1
  Sn  Sn35  1  0.169728  0.647457  0.250022  1
