# generated using pymatgen
data_DyEr3Si4(NiRu)2
_symmetry_space_group_name_H-M   'P 1'
_cell_length_a   4.21970300
_cell_length_b   6.87434415
_cell_length_c   7.16882252
_cell_angle_alpha   91.38516765
_cell_angle_beta   90.00000000
_cell_angle_gamma   90.00000000
_symmetry_Int_Tables_number   1
_chemical_formula_structural   DyEr3Si4(NiRu)2
_chemical_formula_sum   'Dy1 Er3 Si4 Ni2 Ru2'
_cell_volume   207.89021870
_cell_formula_units_Z   1
loop_
 _symmetry_equiv_pos_site_id
 _symmetry_equiv_pos_as_xyz
  1  'x, y, z'
loop_
 _atom_site_type_symbol
 _atom_site_label
 _atom_site_symmetry_multiplicity
 _atom_site_fract_x
 _atom_site_fract_y
 _atom_site_fract_z
 _atom_site_occupancy
  Dy  Dy0  1  0.250000  0.991708  0.799630  1
  Er  Er1  1  0.750000  0.008381  0.201484  1
  Er  Er2  1  0.250000  0.489516  0.684577  1
  Er  Er3  1  0.750000  0.510395  0.315286  1
  Si  Si4  1  0.250000  0.299303  0.099670  1
  Si  Si5  1  0.750000  0.700469  0.900990  1
  Si  Si6  1  0.250000  0.802976  0.398441  1
  Si  Si7  1  0.750000  0.197481  0.600532  1
  Ni  Ni8  1  0.750000  0.835678  0.574229  1
  Ni  Ni9  1  0.250000  0.164321  0.424295  1
  Ru  Ru10  1  0.750000  0.343881  0.931259  1
  Ru  Ru11  1  0.250000  0.655890  0.069607  1
