# generated using pymatgen
data_NdY5TcTe2
_symmetry_space_group_name_H-M   'P 1'
_cell_length_a   8.44856200
_cell_length_b   8.34742191
_cell_length_c   4.08921400
_cell_angle_alpha   90.00000000
_cell_angle_beta   90.00000000
_cell_angle_gamma   120.40162083
_symmetry_Int_Tables_number   1
_chemical_formula_structural   NdY5TcTe2
_chemical_formula_sum   'Nd1 Y5 Tc1 Te2'
_cell_volume   248.73321169
_cell_formula_units_Z   1
loop_
 _symmetry_equiv_pos_site_id
 _symmetry_equiv_pos_as_xyz
  1  'x, y, z'
loop_
 _atom_site_type_symbol
 _atom_site_label
 _atom_site_symmetry_multiplicity
 _atom_site_fract_x
 _atom_site_fract_y
 _atom_site_fract_z
 _atom_site_occupancy
  Nd  Nd0  1  0.595840  0.000000  0.500000  1
  Y  Y1  1  0.391196  0.392692  0.500000  1
  Y  Y2  1  0.998505  0.607308  0.500000  1
  Y  Y3  1  0.996984  0.234770  0.000000  1
  Y  Y4  1  0.762214  0.765230  0.000000  1
  Y  Y5  1  0.242621  0.000000  0.000000  1
  Tc  Tc6  1  0.016840  0.000000  0.500000  1
  Te  Te7  1  0.328315  0.660831  0.000000  1
  Te  Te8  1  0.667485  0.339169  0.000000  1
