# generated using pymatgen
data_ErTm7Os2(WC4)2
_symmetry_space_group_name_H-M   'P 1'
_cell_length_a   5.02559000
_cell_length_b   6.53216834
_cell_length_c   9.78371438
_cell_angle_alpha   89.18598252
_cell_angle_beta   90.00000000
_cell_angle_gamma   90.00000000
_symmetry_Int_Tables_number   1
_chemical_formula_structural   ErTm7Os2(WC4)2
_chemical_formula_sum   'Er1 Tm7 Os2 W2 C8'
_cell_volume   321.14736051
_cell_formula_units_Z   1
loop_
 _symmetry_equiv_pos_site_id
 _symmetry_equiv_pos_as_xyz
  1  'x, y, z'
loop_
 _atom_site_type_symbol
 _atom_site_label
 _atom_site_symmetry_multiplicity
 _atom_site_fract_x
 _atom_site_fract_y
 _atom_site_fract_z
 _atom_site_occupancy
  Er  Er0  1  0.250000  0.033737  0.283094  1
  Tm  Tm1  1  0.250000  0.676006  0.558644  1
  Tm  Tm2  1  0.750000  0.324337  0.441527  1
  Tm  Tm3  1  0.750000  0.825931  0.058938  1
  Tm  Tm4  1  0.250000  0.173841  0.940903  1
  Tm  Tm5  1  0.250000  0.540758  0.219035  1
  Tm  Tm6  1  0.750000  0.459140  0.780780  1
  Tm  Tm7  1  0.750000  0.966257  0.717579  1
  Os  Os8  1  0.750000  0.782635  0.368978  1
  Os  Os9  1  0.250000  0.217244  0.631095  1
  W  W10  1  0.250000  0.712448  0.870257  1
  W  W11  1  0.750000  0.287501  0.129432  1
  C  C12  1  0.250000  0.446193  0.758285  1
  C  C13  1  0.750000  0.553625  0.241743  1
  C  C14  1  0.750000  0.050885  0.259580  1
  C  C15  1  0.250000  0.949095  0.740160  1
  C  C16  1  0.250000  0.827194  0.056400  1
  C  C17  1  0.750000  0.172261  0.943267  1
  C  C18  1  0.750000  0.673701  0.552003  1
  C  C19  1  0.250000  0.327212  0.448301  1
