# generated using pymatgen
data_CaLa2Nd(Ir2O7)2
_symmetry_space_group_name_H-M   'P 1'
_cell_length_a   7.47765903
_cell_length_b   7.42890024
_cell_length_c   7.47307500
_cell_angle_alpha   59.81996036
_cell_angle_beta   59.97970607
_cell_angle_gamma   59.78264337
_symmetry_Int_Tables_number   1
_chemical_formula_structural   CaLa2Nd(Ir2O7)2
_chemical_formula_sum   'Ca1 La2 Nd1 Ir4 O14'
_cell_volume   292.61548860
_cell_formula_units_Z   1
loop_
 _symmetry_equiv_pos_site_id
 _symmetry_equiv_pos_as_xyz
  1  'x, y, z'
loop_
 _atom_site_type_symbol
 _atom_site_label
 _atom_site_symmetry_multiplicity
 _atom_site_fract_x
 _atom_site_fract_y
 _atom_site_fract_z
 _atom_site_occupancy
  Ca  Ca0  1  0.125000  0.625000  0.125000  1
  La  La1  1  0.125000  0.125000  0.125000  1
  La  La2  1  0.625000  0.125000  0.125000  1
  Nd  Nd3  1  0.125000  0.125000  0.625000  1
  Ir  Ir4  1  0.625000  0.625000  0.625000  1
  Ir  Ir5  1  0.125000  0.625000  0.625000  1
  Ir  Ir6  1  0.625000  0.125000  0.625000  1
  Ir  Ir7  1  0.625000  0.625000  0.125000  1
  O  O8  1  0.951375  0.544170  0.553081  1
  O  O9  1  0.295522  0.294942  0.700138  1
  O  O10  1  0.951301  0.550039  0.950280  1
  O  O11  1  0.703718  0.295576  0.296987  1
  O  O12  1  0.548381  0.550039  0.950280  1
  O  O13  1  0.540602  0.955058  0.549862  1
  O  O14  1  0.546282  0.954424  0.953013  1
  O  O15  1  0.247906  0.255266  0.248925  1
  O  O16  1  0.298625  0.705830  0.696919  1
  O  O17  1  0.709398  0.294942  0.700138  1
  O  O18  1  0.002094  0.994734  0.001075  1
  O  O19  1  0.954478  0.955058  0.549862  1
  O  O20  1  0.298699  0.699961  0.299720  1
  O  O21  1  0.701619  0.699961  0.299720  1
