# generated using pymatgen
data_Ce6Al24Ir3Os5
_symmetry_space_group_name_H-M   'P 1'
_cell_length_a   8.91693300
_cell_length_b   8.91448699
_cell_length_c   9.53776683
_cell_angle_alpha   89.65496221
_cell_angle_beta   90.00000000
_cell_angle_gamma   120.00907333
_symmetry_Int_Tables_number   1
_chemical_formula_structural   Ce6Al24Ir3Os5
_chemical_formula_sum   'Ce6 Al24 Ir3 Os5'
_cell_volume   656.50641679
_cell_formula_units_Z   1
loop_
 _symmetry_equiv_pos_site_id
 _symmetry_equiv_pos_as_xyz
  1  'x, y, z'
loop_
 _atom_site_type_symbol
 _atom_site_label
 _atom_site_symmetry_multiplicity
 _atom_site_fract_x
 _atom_site_fract_y
 _atom_site_fract_z
 _atom_site_occupancy
  Ce  Ce0  1  0.806207  0.612414  0.747444  1
  Ce  Ce1  1  0.193782  0.806363  0.250514  1
  Ce  Ce2  1  0.612582  0.806363  0.250514  1
  Ce  Ce3  1  0.387418  0.193637  0.749486  1
  Ce  Ce4  1  0.806218  0.193637  0.749486  1
  Ce  Ce5  1  0.193793  0.387586  0.252556  1
  Al  Al6  1  0.332861  0.665723  0.480599  1
  Al  Al7  1  0.666161  0.332322  0.978875  1
  Al  Al8  1  0.667139  0.334277  0.519401  1
  Al  Al9  1  0.333839  0.667678  0.021125  1
  Al  Al10  1  0.162656  0.325311  0.577593  1
  Al  Al11  1  0.674687  0.836269  0.576652  1
  Al  Al12  1  0.161582  0.836269  0.576652  1
  Al  Al13  1  0.836256  0.161381  0.076867  1
  Al  Al14  1  0.838418  0.163731  0.423348  1
  Al  Al15  1  0.837495  0.674990  0.076275  1
  Al  Al16  1  0.325125  0.161381  0.076867  1
  Al  Al17  1  0.674875  0.838619  0.923133  1
  Al  Al18  1  0.162505  0.325010  0.923725  1
  Al  Al19  1  0.837344  0.674689  0.422407  1
  Al  Al20  1  0.000035  0.000069  0.250065  1
  Al  Al21  1  0.999965  0.999931  0.749935  1
  Al  Al22  1  0.562482  0.124963  0.248890  1
  Al  Al23  1  0.437426  0.562395  0.749557  1
  Al  Al24  1  0.124969  0.562395  0.749557  1
  Al  Al25  1  0.875031  0.437605  0.250443  1
  Al  Al26  1  0.562574  0.437605  0.250443  1
  Al  Al27  1  0.437518  0.875037  0.751110  1
  Al  Al28  1  0.163744  0.838619  0.923133  1
  Al  Al29  1  0.325313  0.163731  0.423348  1
  Ir  Ir30  1  0.500000  0.000000  0.500000  1
  Ir  Ir31  1  0.500000  0.500000  0.000000  1
  Ir  Ir32  1  0.000000  0.500000  0.000000  1
  Os  Os33  1  0.000000  0.000000  0.500000  1
  Os  Os34  1  0.000000  0.000000  0.000000  1
  Os  Os35  1  0.000000  0.500000  0.500000  1
  Os  Os36  1  0.500000  0.500000  0.500000  1
  Os  Os37  1  0.500000  0.000000  0.000000  1
