# generated using pymatgen
data_Tb9Dy3ZnCo4Sn
_symmetry_space_group_name_H-M   'P 1'
_cell_length_a   8.34819301
_cell_length_b   8.34958908
_cell_length_c   8.34819408
_cell_angle_alpha   112.01736913
_cell_angle_beta   109.15346236
_cell_angle_gamma   107.27153109
_symmetry_Int_Tables_number   1
_chemical_formula_structural   Tb9Dy3ZnCo4Sn
_chemical_formula_sum   'Tb9 Dy3 Zn1 Co4 Sn1'
_cell_volume   447.20335627
_cell_formula_units_Z   1
loop_
 _symmetry_equiv_pos_site_id
 _symmetry_equiv_pos_as_xyz
  1  'x, y, z'
loop_
 _atom_site_type_symbol
 _atom_site_label
 _atom_site_symmetry_multiplicity
 _atom_site_fract_x
 _atom_site_fract_y
 _atom_site_fract_z
 _atom_site_occupancy
  Tb  Tb0  1  0.428556  0.228181  0.200238  1
  Tb  Tb1  1  0.571631  0.771775  0.800064  1
  Tb  Tb2  1  0.027941  0.228181  0.799624  1
  Tb  Tb3  1  0.971713  0.771775  0.200144  1
  Tb  Tb4  1  0.181016  0.283685  0.464978  1
  Tb  Tb5  1  0.819102  0.716207  0.535160  1
  Tb  Tb6  1  0.181047  0.716207  0.897105  1
  Tb  Tb7  1  0.818706  0.283685  0.102670  1
  Tb  Tb8  1  0.323756  0.635818  0.312062  1
  Dy  Dy9  1  0.676192  0.363783  0.687591  1
  Dy  Dy10  1  0.323819  0.011683  0.687864  1
  Dy  Dy11  1  0.676372  0.988759  0.312387  1
  Zn  Zn12  1  0.000006  0.999989  0.999982  1
  Co  Co13  1  0.346090  0.000248  0.346077  1
  Co  Co14  1  0.654171  0.000248  0.654158  1
  Co  Co15  1  0.113987  0.614086  0.500099  1
  Co  Co16  1  0.885757  0.385701  0.499944  1
  Sn  Sn17  1  0.500137  0.499991  0.999854  1
