# generated using pymatgen
data_Dy8Si13Pt3
_symmetry_space_group_name_H-M   'P 1'
_cell_length_a   8.13630100
_cell_length_b   8.13630131
_cell_length_c   8.07730400
_cell_angle_alpha   90.00000000
_cell_angle_beta   90.00000000
_cell_angle_gamma   119.99999469
_symmetry_Int_Tables_number   1
_chemical_formula_structural   Dy8Si13Pt3
_chemical_formula_sum   'Dy8 Si13 Pt3'
_cell_volume   463.07476314
_cell_formula_units_Z   1
loop_
 _symmetry_equiv_pos_site_id
 _symmetry_equiv_pos_as_xyz
  1  'x, y, z'
loop_
 _atom_site_type_symbol
 _atom_site_label
 _atom_site_symmetry_multiplicity
 _atom_site_fract_x
 _atom_site_fract_y
 _atom_site_fract_z
 _atom_site_occupancy
  Dy  Dy0  1  0.000000  0.000000  0.253491  1
  Dy  Dy1  1  0.000000  0.000000  0.747005  1
  Dy  Dy2  1  0.998355  0.499178  0.253342  1
  Dy  Dy3  1  0.500822  0.499178  0.253342  1
  Dy  Dy4  1  0.503140  0.006280  0.746290  1
  Dy  Dy5  1  0.500822  0.001645  0.253342  1
  Dy  Dy6  1  0.503140  0.496860  0.746290  1
  Dy  Dy7  1  0.993720  0.496860  0.746290  1
  Si  Si8  1  0.166355  0.332708  0.998600  1
  Si  Si9  1  0.667292  0.833645  0.998600  1
  Si  Si10  1  0.166311  0.332621  0.500666  1
  Si  Si11  1  0.330588  0.165295  0.001675  1
  Si  Si12  1  0.166355  0.833645  0.998600  1
  Si  Si13  1  0.667379  0.833689  0.500666  1
  Si  Si14  1  0.834705  0.669412  0.001675  1
  Si  Si15  1  0.331870  0.165935  0.499499  1
  Si  Si16  1  0.166311  0.833689  0.500666  1
  Si  Si17  1  0.834065  0.668130  0.499499  1
  Si  Si18  1  0.834705  0.165295  0.001675  1
  Si  Si19  1  0.834065  0.165935  0.499499  1
  Si  Si20  1  0.666667  0.333333  0.496994  1
  Pt  Pt21  1  0.333333  0.666667  0.998545  1
  Pt  Pt22  1  0.333333  0.666667  0.503296  1
  Pt  Pt23  1  0.666667  0.333333  0.000454  1
