# generated using pymatgen
data_Tb2Ti3P7Ir7Rh2
_symmetry_space_group_name_H-M   'P 1'
_cell_length_a   3.87366100
_cell_length_b   9.69064041
_cell_length_c   9.68321207
_cell_angle_alpha   119.97293624
_cell_angle_beta   89.99792918
_cell_angle_gamma   90.00119239
_symmetry_Int_Tables_number   1
_chemical_formula_structural   Tb2Ti3P7Ir7Rh2
_chemical_formula_sum   'Tb2 Ti3 P7 Ir7 Rh2'
_cell_volume   314.87815907
_cell_formula_units_Z   1
loop_
 _symmetry_equiv_pos_site_id
 _symmetry_equiv_pos_as_xyz
  1  'x, y, z'
loop_
 _atom_site_type_symbol
 _atom_site_label
 _atom_site_symmetry_multiplicity
 _atom_site_fract_x
 _atom_site_fract_y
 _atom_site_fract_z
 _atom_site_occupancy
  Tb  Tb0  1  0.261758  0.666847  0.332991  1
  Tb  Tb1  1  0.761797  0.333222  0.666425  1
  Ti  Ti2  1  0.762035  0.099967  0.877763  1
  Ti  Ti3  1  0.762032  0.122062  0.222193  1
  Ti  Ti4  1  0.762022  0.778138  0.900420  1
  P  P5  1  0.262336  0.000392  0.000340  1
  P  P6  1  0.761840  0.875632  0.588952  1
  P  P7  1  0.761838  0.410906  0.286395  1
  P  P8  1  0.761817  0.713341  0.124323  1
  P  P9  1  0.261866  0.116584  0.417014  1
  P  P10  1  0.261897  0.582433  0.699221  1
  P  P11  1  0.261874  0.300352  0.883032  1
  Ir  Ir12  1  0.261832  0.885120  0.159764  1
  Ir  Ir13  1  0.261901  0.840739  0.726388  1
  Ir  Ir14  1  0.261855  0.274721  0.114816  1
  Ir  Ir15  1  0.761911  0.610017  0.555719  1
  Ir  Ir16  1  0.261934  0.363573  0.438822  1
  Ir  Ir17  1  0.261886  0.561571  0.925468  1
  Ir  Ir18  1  0.261819  0.074365  0.635734  1
  Rh  Rh19  1  0.761893  0.443995  0.053794  1
  Rh  Rh20  1  0.761856  0.946020  0.390428  1
