# generated using pymatgen
data_La2V2As7Rh10
_symmetry_space_group_name_H-M   'P 1'
_cell_length_a   10.02583282
_cell_length_b   10.03708453
_cell_length_c   3.99335772
_cell_angle_alpha   89.93297028
_cell_angle_beta   90.01722852
_cell_angle_gamma   120.43230583
_symmetry_Int_Tables_number   1
_chemical_formula_structural   La2V2As7Rh10
_chemical_formula_sum   'La2 V2 As7 Rh10'
_cell_volume   346.48796972
_cell_formula_units_Z   1
loop_
 _symmetry_equiv_pos_site_id
 _symmetry_equiv_pos_as_xyz
  1  'x, y, z'
loop_
 _atom_site_type_symbol
 _atom_site_label
 _atom_site_symmetry_multiplicity
 _atom_site_fract_x
 _atom_site_fract_y
 _atom_site_fract_z
 _atom_site_occupancy
  La  La0  1  0.001412  0.001529  0.763128  1
  La  La1  1  0.332269  0.667714  0.262951  1
  V  V2  1  0.781519  0.552966  0.765176  1
  V  V3  1  0.446332  0.237774  0.765606  1
  As  As4  1  0.662092  0.334670  0.269790  1
  As  As5  1  0.064680  0.623369  0.762967  1
  As  As6  1  0.375190  0.444387  0.763781  1
  As  As7  1  0.551104  0.928398  0.763100  1
  As  As8  1  0.262292  0.042840  0.263344  1
  As  As9  1  0.959359  0.221211  0.263232  1
  As  As10  1  0.783160  0.741338  0.263436  1
  Rh  Rh11  1  0.777140  0.191891  0.763628  1
  Rh  Rh12  1  0.514028  0.060515  0.263120  1
  Rh  Rh13  1  0.935835  0.451129  0.262796  1
  Rh  Rh14  1  0.546714  0.492947  0.263949  1
  Rh  Rh15  1  0.107241  0.390804  0.763552  1
  Rh  Rh16  1  0.615242  0.718703  0.763624  1
  Rh  Rh17  1  0.283270  0.900369  0.762827  1
  Rh  Rh18  1  0.230453  0.270031  0.263696  1
  Rh  Rh19  1  0.731229  0.957744  0.263298  1
  Rh  Rh20  1  0.039439  0.769669  0.262937  1
