# generated using pymatgen
data_Ca4Cd3Ag11
_symmetry_space_group_name_H-M   'P 1'
_cell_length_a   5.62590559
_cell_length_b   5.66179096
_cell_length_c   14.11929525
_cell_angle_alpha   89.95098142
_cell_angle_beta   89.72492399
_cell_angle_gamma   118.80013411
_symmetry_Int_Tables_number   1
_chemical_formula_structural   Ca4Cd3Ag11
_chemical_formula_sum   'Ca4 Cd3 Ag11'
_cell_volume   394.10052162
_cell_formula_units_Z   1
loop_
 _symmetry_equiv_pos_site_id
 _symmetry_equiv_pos_as_xyz
  1  'x, y, z'
loop_
 _atom_site_type_symbol
 _atom_site_label
 _atom_site_symmetry_multiplicity
 _atom_site_fract_x
 _atom_site_fract_y
 _atom_site_fract_z
 _atom_site_occupancy
  Ca  Ca0  1  0.318699  0.316604  0.115129  1
  Ca  Ca1  1  0.678056  0.675529  0.618334  1
  Ca  Ca2  1  0.322999  0.320062  0.380121  1
  Ca  Ca3  1  0.677355  0.683802  0.883956  1
  Cd  Cd4  1  0.000318  0.664605  0.075661  1
  Cd  Cd5  1  0.010503  0.340238  0.576834  1
  Cd  Cd6  1  0.659324  0.988045  0.423610  1
  Ag  Ag7  1  0.833666  0.833285  0.249161  1
  Ag  Ag8  1  0.168828  0.167779  0.752257  1
  Ag  Ag9  1  0.830523  0.330327  0.249315  1
  Ag  Ag10  1  0.171760  0.671225  0.750324  1
  Ag  Ag11  1  0.330795  0.827545  0.249539  1
  Ag  Ag12  1  0.669156  0.171221  0.751310  1
  Ag  Ag13  1  0.338887  0.006800  0.924163  1
  Ag  Ag14  1  0.000847  0.333280  0.923489  1
  Ag  Ag15  1  0.993198  0.669176  0.423781  1
  Ag  Ag16  1  0.331582  0.007470  0.576745  1
  Ag  Ag17  1  0.663504  0.993006  0.076273  1
