# generated using pymatgen
data_Lu10Hg3Rh
_symmetry_space_group_name_H-M   'P 1'
_cell_length_a   9.44397752
_cell_length_b   9.44910655
_cell_length_c   9.44227100
_cell_angle_alpha   90.00000000
_cell_angle_beta   90.00000000
_cell_angle_gamma   120.01324491
_symmetry_Int_Tables_number   1
_chemical_formula_structural   Lu10Hg3Rh
_chemical_formula_sum   'Lu20 Hg6 Rh2'
_cell_volume   729.61676582
_cell_formula_units_Z   2
loop_
 _symmetry_equiv_pos_site_id
 _symmetry_equiv_pos_as_xyz
  1  'x, y, z'
loop_
 _atom_site_type_symbol
 _atom_site_label
 _atom_site_symmetry_multiplicity
 _atom_site_fract_x
 _atom_site_fract_y
 _atom_site_fract_z
 _atom_site_occupancy
  Lu  Lu0  1  0.000000  0.000000  0.500000  1
  Lu  Lu1  1  0.000000  0.000000  0.000000  1
  Lu  Lu2  1  0.209049  0.790922  0.440785  1
  Lu  Lu3  1  0.209061  0.418146  0.440793  1
  Lu  Lu4  1  0.581905  0.790945  0.440814  1
  Lu  Lu5  1  0.790951  0.209078  0.559215  1
  Lu  Lu6  1  0.790939  0.581854  0.559207  1
  Lu  Lu7  1  0.418095  0.209055  0.559186  1
  Lu  Lu8  1  0.790951  0.209078  0.940785  1
  Lu  Lu9  1  0.790939  0.581854  0.940793  1
  Lu  Lu10  1  0.418095  0.209055  0.940814  1
  Lu  Lu11  1  0.209049  0.790922  0.059215  1
  Lu  Lu12  1  0.209061  0.418146  0.059207  1
  Lu  Lu13  1  0.581905  0.790945  0.059186  1
  Lu  Lu14  1  0.541364  0.458542  0.250000  1
  Lu  Lu15  1  0.541385  0.082835  0.250000  1
  Lu  Lu16  1  0.917184  0.458590  0.250000  1
  Lu  Lu17  1  0.458636  0.541458  0.750000  1
  Lu  Lu18  1  0.458615  0.917165  0.750000  1
  Lu  Lu19  1  0.082816  0.541410  0.750000  1
  Hg  Hg20  1  0.881700  0.118598  0.250000  1
  Hg  Hg21  1  0.881677  0.763098  0.250000  1
  Hg  Hg22  1  0.236840  0.118420  0.250000  1
  Hg  Hg23  1  0.118300  0.881402  0.750000  1
  Hg  Hg24  1  0.118323  0.236902  0.750000  1
  Hg  Hg25  1  0.763160  0.881580  0.750000  1
  Rh  Rh26  1  0.332460  0.666067  0.250000  1
  Rh  Rh27  1  0.667540  0.333933  0.750000  1
