# generated using pymatgen
data_Gd3LuMg2Ir3
_symmetry_space_group_name_H-M   'P 1'
_cell_length_a   7.48462000
_cell_length_b   7.48870218
_cell_length_c   4.09574600
_cell_angle_alpha   90.00000000
_cell_angle_beta   90.00000000
_cell_angle_gamma   120.01804105
_symmetry_Int_Tables_number   1
_chemical_formula_structural   Gd3LuMg2Ir3
_chemical_formula_sum   'Gd3 Lu1 Mg2 Ir3'
_cell_volume   198.77464284
_cell_formula_units_Z   1
loop_
 _symmetry_equiv_pos_site_id
 _symmetry_equiv_pos_as_xyz
  1  'x, y, z'
loop_
 _atom_site_type_symbol
 _atom_site_label
 _atom_site_symmetry_multiplicity
 _atom_site_fract_x
 _atom_site_fract_y
 _atom_site_fract_z
 _atom_site_occupancy
  Gd  Gd0  1  0.569752  0.586473  0.000000  1
  Gd  Gd1  1  0.430248  0.016721  0.000000  1
  Gd  Gd2  1  0.000000  0.393800  0.000000  1
  Lu  Lu3  1  0.000000  0.753872  0.500000  1
  Mg  Mg4  1  0.249280  0.245645  0.500000  1
  Mg  Mg5  1  0.750720  0.996364  0.500000  1
  Ir  Ir6  1  0.000000  0.998647  0.000000  1
  Ir  Ir7  1  0.672676  0.340578  0.500000  1
  Ir  Ir8  1  0.327324  0.667903  0.500000  1
