# generated using pymatgen
data_Dy4Ho2WO12
_symmetry_space_group_name_H-M   'P 1'
_cell_length_a   6.48399628
_cell_length_b   6.48612991
_cell_length_c   6.48244180
_cell_angle_alpha   98.66783900
_cell_angle_beta   98.65583275
_cell_angle_gamma   98.61044531
_symmetry_Int_Tables_number   1
_chemical_formula_structural   Dy4Ho2WO12
_chemical_formula_sum   'Dy4 Ho2 W1 O12'
_cell_volume   262.26431515
_cell_formula_units_Z   1
loop_
 _symmetry_equiv_pos_site_id
 _symmetry_equiv_pos_as_xyz
  1  'x, y, z'
loop_
 _atom_site_type_symbol
 _atom_site_label
 _atom_site_symmetry_multiplicity
 _atom_site_fract_x
 _atom_site_fract_y
 _atom_site_fract_z
 _atom_site_occupancy
  Dy  Dy0  1  0.611399  0.143994  0.315803  1
  Dy  Dy1  1  0.856100  0.684036  0.388386  1
  Dy  Dy2  1  0.683746  0.388609  0.855814  1
  Dy  Dy3  1  0.387923  0.855862  0.684135  1
  Ho  Ho4  1  0.144589  0.316933  0.611322  1
  Ho  Ho5  1  0.316275  0.610911  0.144348  1
  W  W6  1  0.000726  0.000652  0.000468  1
  O  O7  1  0.589727  0.432612  0.177511  1
  O  O8  1  0.431303  0.177895  0.590752  1
  O  O9  1  0.177885  0.589208  0.431392  1
  O  O10  1  0.407158  0.567261  0.823322  1
  O  O11  1  0.566653  0.822331  0.408232  1
  O  O12  1  0.823929  0.408623  0.567838  1
  O  O13  1  0.703003  0.034776  0.924575  1
  O  O14  1  0.076908  0.297373  0.965804  1
  O  O15  1  0.966864  0.076645  0.297688  1
  O  O16  1  0.297337  0.964605  0.075549  1
  O  O17  1  0.924245  0.703250  0.034425  1
  O  O18  1  0.034231  0.924425  0.702635  1
