# generated using pymatgen
data_Ce3Nd9(ThPt3)2
_symmetry_space_group_name_H-M   'P 1'
_cell_length_a   6.49996300
_cell_length_b   10.21569138
_cell_length_c   10.21569300
_cell_angle_alpha   120.05223383
_cell_angle_beta   90.00044074
_cell_angle_gamma   89.99956055
_symmetry_Int_Tables_number   1
_chemical_formula_structural   Ce3Nd9(ThPt3)2
_chemical_formula_sum   'Ce3 Nd9 Th2 Pt6'
_cell_volume   587.14894552
_cell_formula_units_Z   1
loop_
 _symmetry_equiv_pos_site_id
 _symmetry_equiv_pos_as_xyz
  1  'x, y, z'
loop_
 _atom_site_type_symbol
 _atom_site_label
 _atom_site_symmetry_multiplicity
 _atom_site_fract_x
 _atom_site_fract_y
 _atom_site_fract_z
 _atom_site_occupancy
  Ce  Ce0  1  0.253243  0.128546  0.870981  1
  Ce  Ce1  1  0.255037  0.742455  0.870851  1
  Ce  Ce2  1  0.254168  0.129403  0.258794  1
  Nd  Nd3  1  0.750951  0.872056  0.127504  1
  Nd  Nd4  1  0.750036  0.254895  0.127088  1
  Nd  Nd5  1  0.751133  0.872085  0.743927  1
  Nd  Nd6  1  0.449001  0.538103  0.461833  1
  Nd  Nd7  1  0.449055  0.924126  0.462141  1
  Nd  Nd8  1  0.448217  0.537782  0.075993  1
  Nd  Nd9  1  0.945253  0.461152  0.539068  1
  Nd  Nd10  1  0.945309  0.078218  0.539360  1
  Nd  Nd11  1  0.945306  0.460525  0.921604  1
  Th  Th12  1  0.450749  0.333742  0.667494  1
  Th  Th13  1  0.967476  0.666727  0.333220  1
  Pt  Pt14  1  0.186444  0.812290  0.187852  1
  Pt  Pt15  1  0.185222  0.375628  0.187756  1
  Pt  Pt16  1  0.187292  0.812241  0.624452  1
  Pt  Pt17  1  0.670112  0.191061  0.808613  1
  Pt  Pt18  1  0.671124  0.617426  0.808533  1
  Pt  Pt19  1  0.670871  0.191536  0.382937  1
