# generated using pymatgen
data_Sc6Al24Fe3Ir5
_symmetry_space_group_name_H-M   'P 1'
_cell_length_a   8.62316300
_cell_length_b   8.61265647
_cell_length_c   9.28668622
_cell_angle_alpha   90.05092576
_cell_angle_beta   90.00000000
_cell_angle_gamma   120.04037352
_symmetry_Int_Tables_number   1
_chemical_formula_structural   Sc6Al24Fe3Ir5
_chemical_formula_sum   'Sc6 Al24 Fe3 Ir5'
_cell_volume   597.06012415
_cell_formula_units_Z   1
loop_
 _symmetry_equiv_pos_site_id
 _symmetry_equiv_pos_as_xyz
  1  'x, y, z'
loop_
 _atom_site_type_symbol
 _atom_site_label
 _atom_site_symmetry_multiplicity
 _atom_site_fract_x
 _atom_site_fract_y
 _atom_site_fract_z
 _atom_site_occupancy
  Sc  Sc0  1  0.806810  0.192668  0.748776  1
  Sc  Sc1  1  0.193190  0.807332  0.251224  1
  Sc  Sc2  1  0.385859  0.192668  0.748776  1
  Sc  Sc3  1  0.614141  0.807332  0.251224  1
  Sc  Sc4  1  0.806365  0.612729  0.746234  1
  Sc  Sc5  1  0.193635  0.387271  0.253766  1
  Al  Al6  1  0.666812  0.333622  0.961530  1
  Al  Al7  1  0.333188  0.666378  0.038470  1
  Al  Al8  1  0.338443  0.676886  0.463955  1
  Al  Al9  1  0.661557  0.323114  0.536045  1
  Al  Al10  1  0.834524  0.155920  0.425257  1
  Al  Al11  1  0.165476  0.844080  0.574743  1
  Al  Al12  1  0.321397  0.155920  0.425257  1
  Al  Al13  1  0.159984  0.840860  0.923429  1
  Al  Al14  1  0.678603  0.844080  0.574743  1
  Al  Al15  1  0.840016  0.159140  0.076571  1
  Al  Al16  1  0.840143  0.680285  0.424537  1
  Al  Al17  1  0.680875  0.840860  0.923429  1
  Al  Al18  1  0.159857  0.319715  0.575463  1
  Al  Al19  1  0.319125  0.159140  0.076571  1
  Al  Al20  1  0.159440  0.318880  0.924148  1
  Al  Al21  1  0.840560  0.681120  0.075852  1
  Al  Al22  1  0.438434  0.562340  0.749926  1
  Al  Al23  1  0.561566  0.437660  0.250074  1
  Al  Al24  1  0.123906  0.562340  0.749926  1
  Al  Al25  1  0.876094  0.437660  0.250074  1
  Al  Al26  1  0.442359  0.884718  0.742756  1
  Al  Al27  1  0.557641  0.115282  0.257244  1
  Al  Al28  1  0.999554  0.999108  0.749765  1
  Al  Al29  1  0.000446  0.000892  0.250235  1
  Fe  Fe30  1  0.500000  0.000000  0.500000  1
  Fe  Fe31  1  0.000000  0.000000  0.000000  1
  Fe  Fe32  1  0.000000  0.000000  0.500000  1
  Ir  Ir33  1  0.500000  0.500000  0.000000  1
  Ir  Ir34  1  0.000000  0.500000  0.000000  1
  Ir  Ir35  1  0.500000  0.500000  0.500000  1
  Ir  Ir36  1  0.500000  0.000000  0.000000  1
  Ir  Ir37  1  0.000000  0.500000  0.500000  1
