# generated using pymatgen
data_Ta10Al3Os2
_symmetry_space_group_name_H-M   'P 1'
_cell_length_a   9.90562500
_cell_length_b   9.90562500
_cell_length_c   5.20285600
_cell_angle_alpha   90.00000000
_cell_angle_beta   90.00000000
_cell_angle_gamma   90.00000000
_symmetry_Int_Tables_number   1
_chemical_formula_structural   Ta10Al3Os2
_chemical_formula_sum   'Ta20 Al6 Os4'
_cell_volume   510.51154927
_cell_formula_units_Z   2
loop_
 _symmetry_equiv_pos_site_id
 _symmetry_equiv_pos_as_xyz
  1  'x, y, z'
loop_
 _atom_site_type_symbol
 _atom_site_label
 _atom_site_symmetry_multiplicity
 _atom_site_fract_x
 _atom_site_fract_y
 _atom_site_fract_z
 _atom_site_occupancy
  Ta  Ta0  1  0.398342  0.394359  0.000000  1
  Ta  Ta1  1  0.894359  0.101658  0.500000  1
  Ta  Ta2  1  0.105641  0.898342  0.500000  1
  Ta  Ta3  1  0.601658  0.605641  0.000000  1
  Ta  Ta4  1  0.129524  0.462945  0.000000  1
  Ta  Ta5  1  0.962945  0.370476  0.500000  1
  Ta  Ta6  1  0.037055  0.629524  0.500000  1
  Ta  Ta7  1  0.870476  0.537055  0.000000  1
  Ta  Ta8  1  0.372179  0.965366  0.500000  1
  Ta  Ta9  1  0.627821  0.034634  0.500000  1
  Ta  Ta10  1  0.465366  0.127821  0.000000  1
  Ta  Ta11  1  0.534634  0.872179  0.000000  1
  Ta  Ta12  1  0.185730  0.182362  0.250627  1
  Ta  Ta13  1  0.682362  0.314270  0.750627  1
  Ta  Ta14  1  0.317638  0.685730  0.750627  1
  Ta  Ta15  1  0.814270  0.817638  0.250627  1
  Ta  Ta16  1  0.317638  0.685730  0.249373  1
  Ta  Ta17  1  0.682362  0.314270  0.249373  1
  Ta  Ta18  1  0.185730  0.182362  0.749373  1
  Ta  Ta19  1  0.814270  0.817638  0.749373  1
  Al  Al20  1  0.000000  0.000000  0.000000  1
  Al  Al21  1  0.500000  0.500000  0.500000  1
  Al  Al22  1  0.241122  0.433717  0.500000  1
  Al  Al23  1  0.758878  0.566283  0.500000  1
  Al  Al24  1  0.933717  0.258878  0.000000  1
  Al  Al25  1  0.066283  0.741122  0.000000  1
  Os  Os26  1  0.256870  0.933964  0.000000  1
  Os  Os27  1  0.433964  0.243130  0.500000  1
  Os  Os28  1  0.566036  0.756870  0.500000  1
  Os  Os29  1  0.743130  0.066036  0.000000  1
