# generated using pymatgen
data_Ho2Lu10ZnCo4Sb
_symmetry_space_group_name_H-M   'P 1'
_cell_length_a   8.20040784
_cell_length_b   8.14675115
_cell_length_c   8.14675130
_cell_angle_alpha   111.83619241
_cell_angle_beta   109.05634709
_cell_angle_gamma   107.30382532
_symmetry_Int_Tables_number   1
_chemical_formula_structural   Ho2Lu10ZnCo4Sb
_chemical_formula_sum   'Ho2 Lu10 Zn1 Co4 Sb1'
_cell_volume   419.58548183
_cell_formula_units_Z   1
loop_
 _symmetry_equiv_pos_site_id
 _symmetry_equiv_pos_as_xyz
  1  'x, y, z'
loop_
 _atom_site_type_symbol
 _atom_site_label
 _atom_site_symmetry_multiplicity
 _atom_site_fract_x
 _atom_site_fract_y
 _atom_site_fract_z
 _atom_site_occupancy
  Ho  Ho0  1  0.431682  0.227774  0.203907  1
  Ho  Ho1  1  0.568318  0.772226  0.796093  1
  Lu  Lu2  1  0.025207  0.228915  0.796293  1
  Lu  Lu3  1  0.974793  0.771085  0.203707  1
  Lu  Lu4  1  0.178618  0.280289  0.461165  1
  Lu  Lu5  1  0.821382  0.719711  0.538835  1
  Lu  Lu6  1  0.178618  0.717454  0.898329  1
  Lu  Lu7  1  0.821382  0.282546  0.101671  1
  Lu  Lu8  1  0.320229  0.634295  0.308840  1
  Lu  Lu9  1  0.679771  0.365705  0.691160  1
  Lu  Lu10  1  0.320229  0.011390  0.685934  1
  Lu  Lu11  1  0.679771  0.988610  0.314066  1
  Zn  Zn12  1  0.000000  0.000000  0.000000  1
  Co  Co13  1  0.350695  0.998356  0.352340  1
  Co  Co14  1  0.649305  0.001644  0.647660  1
  Co  Co15  1  0.111666  0.615190  0.496476  1
  Co  Co16  1  0.888334  0.384810  0.503524  1
  Sb  Sb17  1  0.500000  0.500000  0.000000  1
