# generated using pymatgen
data_Lu3Sc2Ga2Te
_symmetry_space_group_name_H-M   'P 1'
_cell_length_a   8.41512064
_cell_length_b   8.40505214
_cell_length_c   6.09185000
_cell_angle_alpha   90.00000000
_cell_angle_beta   90.00000000
_cell_angle_gamma   119.96042999
_symmetry_Int_Tables_number   1
_chemical_formula_structural   Lu3Sc2Ga2Te
_chemical_formula_sum   'Lu6 Sc4 Ga4 Te2'
_cell_volume   373.29624458
_cell_formula_units_Z   2
loop_
 _symmetry_equiv_pos_site_id
 _symmetry_equiv_pos_as_xyz
  1  'x, y, z'
loop_
 _atom_site_type_symbol
 _atom_site_label
 _atom_site_symmetry_multiplicity
 _atom_site_fract_x
 _atom_site_fract_y
 _atom_site_fract_z
 _atom_site_occupancy
  Lu  Lu0  1  0.232164  0.999052  0.250000  1
  Lu  Lu1  1  0.232164  0.233112  0.750000  1
  Lu  Lu2  1  0.013674  0.762761  0.750000  1
  Lu  Lu3  1  0.013674  0.250913  0.250000  1
  Lu  Lu4  1  0.765033  0.749085  0.250000  1
  Lu  Lu5  1  0.765033  0.015949  0.750000  1
  Sc  Sc6  1  0.315836  0.657919  0.000000  1
  Sc  Sc7  1  0.671782  0.335890  0.500000  1
  Sc  Sc8  1  0.671782  0.335890  0.000000  1
  Sc  Sc9  1  0.315836  0.657919  0.500000  1
  Ga  Ga10  1  0.997328  0.398915  0.750000  1
  Ga  Ga11  1  0.997328  0.598413  0.250000  1
  Ga  Ga12  1  0.399820  0.397047  0.250000  1
  Ga  Ga13  1  0.399820  0.002774  0.750000  1
  Te  Te14  1  0.604363  0.995978  0.250000  1
  Te  Te15  1  0.604363  0.608385  0.750000  1
