# generated using pymatgen
data_Y9ScAl3Ru
_symmetry_space_group_name_H-M   'P 1'
_cell_length_a   9.49217500
_cell_length_b   9.49217552
_cell_length_c   9.58880300
_cell_angle_alpha   90.00000000
_cell_angle_beta   90.00000000
_cell_angle_gamma   120.00000167
_symmetry_Int_Tables_number   1
_chemical_formula_structural   Y9ScAl3Ru
_chemical_formula_sum   'Y18 Sc2 Al6 Ru2'
_cell_volume   748.21518373
_cell_formula_units_Z   2
loop_
 _symmetry_equiv_pos_site_id
 _symmetry_equiv_pos_as_xyz
  1  'x, y, z'
loop_
 _atom_site_type_symbol
 _atom_site_label
 _atom_site_symmetry_multiplicity
 _atom_site_fract_x
 _atom_site_fract_y
 _atom_site_fract_z
 _atom_site_occupancy
  Y  Y0  1  0.205165  0.794835  0.439967  1
  Y  Y1  1  0.205165  0.410330  0.439967  1
  Y  Y2  1  0.589670  0.794835  0.439967  1
  Y  Y3  1  0.794835  0.205165  0.560033  1
  Y  Y4  1  0.794835  0.589670  0.560033  1
  Y  Y5  1  0.410330  0.205165  0.560033  1
  Y  Y6  1  0.794835  0.205165  0.939967  1
  Y  Y7  1  0.794835  0.589670  0.939967  1
  Y  Y8  1  0.410330  0.205165  0.939967  1
  Y  Y9  1  0.205165  0.794835  0.060033  1
  Y  Y10  1  0.205165  0.410330  0.060033  1
  Y  Y11  1  0.589670  0.794835  0.060033  1
  Y  Y12  1  0.539982  0.460018  0.250000  1
  Y  Y13  1  0.539982  0.079964  0.250000  1
  Y  Y14  1  0.920036  0.460018  0.250000  1
  Y  Y15  1  0.460018  0.539982  0.750000  1
  Y  Y16  1  0.460018  0.920036  0.750000  1
  Y  Y17  1  0.079964  0.539982  0.750000  1
  Sc  Sc18  1  0.000000  0.000000  0.500000  1
  Sc  Sc19  1  0.000000  0.000000  0.000000  1
  Al  Al20  1  0.894116  0.105884  0.250000  1
  Al  Al21  1  0.894116  0.788235  0.250000  1
  Al  Al22  1  0.211765  0.105884  0.250000  1
  Al  Al23  1  0.105884  0.894116  0.750000  1
  Al  Al24  1  0.105884  0.211765  0.750000  1
  Al  Al25  1  0.788235  0.894116  0.750000  1
  Ru  Ru26  1  0.333333  0.666667  0.250000  1
  Ru  Ru27  1  0.666667  0.333333  0.750000  1
