# generated using pymatgen
data_U(TlSe)4
_symmetry_space_group_name_H-M   'P 1'
_cell_length_a   9.97658755
_cell_length_b   9.97698866
_cell_length_c   17.04809400
_cell_angle_alpha   104.08208195
_cell_angle_beta   104.79071602
_cell_angle_gamma   90.03742868
_symmetry_Int_Tables_number   1
_chemical_formula_structural   U(TlSe)4
_chemical_formula_sum   'U5 Tl20 Se20'
_cell_volume   1587.80309135
_cell_formula_units_Z   5
loop_
 _symmetry_equiv_pos_site_id
 _symmetry_equiv_pos_as_xyz
  1  'x, y, z'
loop_
 _atom_site_type_symbol
 _atom_site_label
 _atom_site_symmetry_multiplicity
 _atom_site_fract_x
 _atom_site_fract_y
 _atom_site_fract_z
 _atom_site_occupancy
  U  U0  1  0.986981  0.316197  0.400530  1
  U  U1  1  0.013019  0.683803  0.599470  1
  U  U2  1  0.823082  0.691313  0.800237  1
  U  U3  1  0.176918  0.308687  0.199763  1
  U  U4  1  0.000000  0.500000  0.000000  1
  Tl  Tl5  1  0.971423  0.928375  0.202797  1
  Tl  Tl6  1  0.028577  0.071625  0.797203  1
  Tl  Tl7  1  0.797176  0.289754  0.597272  1
  Tl  Tl8  1  0.202824  0.710246  0.402728  1
  Tl  Tl9  1  0.796624  0.919640  0.409686  1
  Tl  Tl10  1  0.203376  0.080360  0.590314  1
  Tl  Tl11  1  0.786991  0.531095  0.203298  1
  Tl  Tl12  1  0.213009  0.468905  0.796702  1
  Tl  Tl13  1  0.633325  0.896472  0.614932  1
  Tl  Tl14  1  0.366675  0.103528  0.385068  1
  Tl  Tl15  1  0.626176  0.309240  0.813199  1
  Tl  Tl16  1  0.373824  0.690760  0.186801  1
  Tl  Tl17  1  0.593769  0.516209  0.400128  1
  Tl  Tl18  1  0.406231  0.483791  0.599872  1
  Tl  Tl19  1  0.418946  0.882076  0.791484  1
  Tl  Tl20  1  0.581054  0.117924  0.208516  1
  Tl  Tl21  1  0.384965  0.295441  0.008187  1
  Tl  Tl22  1  0.615035  0.704559  0.991813  1
  Tl  Tl23  1  0.206880  0.891428  0.995220  1
  Tl  Tl24  1  0.793120  0.108572  0.004780  1
  Se  Se25  1  0.932844  0.955688  0.598312  1
  Se  Se26  1  0.067156  0.044312  0.401688  1
  Se  Se27  1  0.922915  0.601714  0.419333  1
  Se  Se28  1  0.077085  0.398286  0.580667  1
  Se  Se29  1  0.917367  0.767161  0.982094  1
  Se  Se30  1  0.082633  0.232839  0.017906  1
  Se  Se31  1  0.914621  0.421208  0.821642  1
  Se  Se32  1  0.085379  0.578792  0.178358  1
  Se  Se33  1  0.746120  0.965831  0.804900  1
  Se  Se34  1  0.253880  0.034169  0.195100  1
  Se  Se35  1  0.745482  0.612531  0.619982  1
  Se  Se36  1  0.254518  0.387469  0.380018  1
  Se  Se37  1  0.550412  0.612067  0.800933  1
  Se  Se38  1  0.449588  0.387933  0.199067  1
  Se  Se39  1  0.285690  0.764485  0.600489  1
  Se  Se40  1  0.714310  0.235515  0.399511  1
  Se  Se41  1  0.268337  0.576332  0.996436  1
  Se  Se42  1  0.731663  0.423668  0.003564  1
  Se  Se43  1  0.092817  0.750412  0.779268  1
  Se  Se44  1  0.907183  0.249588  0.220732  1
