# generated using pymatgen
data_LiV(CuS2)2
_symmetry_space_group_name_H-M   'P 1'
_cell_length_a   5.88872200
_cell_length_b   5.37017000
_cell_length_c   5.37017000
_cell_angle_alpha   90.00000000
_cell_angle_beta   90.00000000
_cell_angle_gamma   90.00000000
_symmetry_Int_Tables_number   1
_chemical_formula_structural   LiV(CuS2)2
_chemical_formula_sum   'Li1 V1 Cu2 S4'
_cell_volume   169.82323924
_cell_formula_units_Z   1
loop_
 _symmetry_equiv_pos_site_id
 _symmetry_equiv_pos_as_xyz
  1  'x, y, z'
loop_
 _atom_site_type_symbol
 _atom_site_label
 _atom_site_symmetry_multiplicity
 _atom_site_fract_x
 _atom_site_fract_y
 _atom_site_fract_z
 _atom_site_occupancy
  Li  Li0  1  0.500000  0.000000  0.000000  1
  V  V1  1  0.000000  0.000000  0.000000  1
  Cu  Cu2  1  0.000000  0.000000  0.500000  1
  Cu  Cu3  1  0.000000  0.500000  0.000000  1
  S  S4  1  0.218261  0.234845  0.234845  1
  S  S5  1  0.218261  0.765155  0.765155  1
  S  S6  1  0.781739  0.234845  0.765155  1
  S  S7  1  0.781739  0.765155  0.234845  1
