# generated using pymatgen
data_La4Nd6IrRh3
_symmetry_space_group_name_H-M   'P 1'
_cell_length_a   9.22122631
_cell_length_b   9.19709478
_cell_length_c   7.33834769
_cell_angle_alpha   84.03892754
_cell_angle_beta   83.92803946
_cell_angle_gamma   42.53885933
_symmetry_Int_Tables_number   1
_chemical_formula_structural   La4Nd6IrRh3
_chemical_formula_sum   'La4 Nd6 Ir1 Rh3'
_cell_volume   418.09599429
_cell_formula_units_Z   1
loop_
 _symmetry_equiv_pos_site_id
 _symmetry_equiv_pos_as_xyz
  1  'x, y, z'
loop_
 _atom_site_type_symbol
 _atom_site_label
 _atom_site_symmetry_multiplicity
 _atom_site_fract_x
 _atom_site_fract_y
 _atom_site_fract_z
 _atom_site_occupancy
  La  La0  1  0.012934  0.798027  0.915173  1
  La  La1  1  0.203173  0.986410  0.585389  1
  La  La2  1  0.985452  0.203062  0.085704  1
  La  La3  1  0.797346  0.013409  0.415735  1
  Nd  Nd4  1  0.354898  0.213812  0.818559  1
  Nd  Nd5  1  0.787047  0.643675  0.681816  1
  Nd  Nd6  1  0.644615  0.789150  0.180950  1
  Nd  Nd7  1  0.214779  0.354220  0.317513  1
  Nd  Nd8  1  0.572231  0.427488  0.751491  1
  Nd  Nd9  1  0.428386  0.570632  0.249264  1
  Ir  Ir10  1  0.596042  0.180379  0.079194  1
  Rh  Rh11  1  0.180556  0.597918  0.579988  1
  Rh  Rh12  1  0.401901  0.820815  0.919515  1
  Rh  Rh13  1  0.820639  0.401003  0.419709  1
