# generated using pymatgen
data_La3Tb4ThSe12
_symmetry_space_group_name_H-M   'P 1'
_cell_length_a   11.39938924
_cell_length_b   4.18290100
_cell_length_c   11.04549506
_cell_angle_alpha   90.00000000
_cell_angle_beta   90.08582398
_cell_angle_gamma   90.00000000
_symmetry_Int_Tables_number   1
_chemical_formula_structural   La3Tb4ThSe12
_chemical_formula_sum   'La3 Tb4 Th1 Se12'
_cell_volume   526.67641110
_cell_formula_units_Z   1
loop_
 _symmetry_equiv_pos_site_id
 _symmetry_equiv_pos_as_xyz
  1  'x, y, z'
loop_
 _atom_site_type_symbol
 _atom_site_label
 _atom_site_symmetry_multiplicity
 _atom_site_fract_x
 _atom_site_fract_y
 _atom_site_fract_z
 _atom_site_occupancy
  La  La0  1  0.694354  0.750000  0.495319  1
  La  La1  1  0.196907  0.750000  0.999951  1
  La  La2  1  0.304738  0.250000  0.500808  1
  Tb  Tb3  1  0.487177  0.250000  0.188628  1
  Tb  Tb4  1  0.989158  0.250000  0.313317  1
  Tb  Tb5  1  0.510001  0.750000  0.811460  1
  Tb  Tb6  1  0.012641  0.750000  0.685679  1
  Th  Th7  1  0.805762  0.250000  0.003496  1
  Se  Se8  1  0.546799  0.250000  0.633214  1
  Se  Se9  1  0.039512  0.250000  0.869885  1
  Se  Se10  1  0.455146  0.750000  0.366418  1
  Se  Se11  1  0.952234  0.750000  0.128980  1
  Se  Se12  1  0.616706  0.750000  0.053097  1
  Se  Se13  1  0.113381  0.750000  0.444578  1
  Se  Se14  1  0.388449  0.250000  0.946252  1
  Se  Se15  1  0.884502  0.250000  0.555317  1
  Se  Se16  1  0.731502  0.250000  0.289559  1
  Se  Se17  1  0.227682  0.250000  0.203129  1
  Se  Se18  1  0.268852  0.750000  0.706134  1
  Se  Se19  1  0.774497  0.750000  0.804779  1
