# generated using pymatgen
data_PaCdF7
_symmetry_space_group_name_H-M   'P 1'
_cell_length_a   5.96746800
_cell_length_b   9.45848876
_cell_length_c   12.55344425
_cell_angle_alpha   61.40277274
_cell_angle_beta   90.00000000
_cell_angle_gamma   90.00000000
_symmetry_Int_Tables_number   1
_chemical_formula_structural   PaCdF7
_chemical_formula_sum   'Pa4 Cd4 F28'
_cell_volume   622.11733383
_cell_formula_units_Z   4
loop_
 _symmetry_equiv_pos_site_id
 _symmetry_equiv_pos_as_xyz
  1  'x, y, z'
loop_
 _atom_site_type_symbol
 _atom_site_label
 _atom_site_symmetry_multiplicity
 _atom_site_fract_x
 _atom_site_fract_y
 _atom_site_fract_z
 _atom_site_occupancy
  Pa  Pa0  1  0.247785  0.802172  0.264965  1
  Pa  Pa1  1  0.752215  0.197828  0.735035  1
  Pa  Pa2  1  0.747785  0.197828  0.235035  1
  Pa  Pa3  1  0.252215  0.802172  0.764965  1
  Cd  Cd4  1  0.749398  0.728549  0.037513  1
  Cd  Cd5  1  0.250602  0.271451  0.962487  1
  Cd  Cd6  1  0.249398  0.271451  0.462487  1
  Cd  Cd7  1  0.750602  0.728549  0.537513  1
  F  F8  1  0.974612  0.711001  0.400539  1
  F  F9  1  0.025388  0.288999  0.599461  1
  F  F10  1  0.474612  0.288999  0.099461  1
  F  F11  1  0.525388  0.711001  0.900539  1
  F  F12  1  0.506742  0.743660  0.170442  1
  F  F13  1  0.493258  0.256340  0.829558  1
  F  F14  1  0.006742  0.256340  0.329558  1
  F  F15  1  0.993258  0.743660  0.670442  1
  F  F16  1  0.995062  0.743362  0.171235  1
  F  F17  1  0.004938  0.256638  0.828765  1
  F  F18  1  0.495062  0.256638  0.328765  1
  F  F19  1  0.504938  0.743362  0.671235  1
  F  F20  1  0.773400  0.462006  0.146172  1
  F  F21  1  0.226600  0.537994  0.853828  1
  F  F22  1  0.273400  0.537994  0.353828  1
  F  F23  1  0.726600  0.462006  0.646172  1
  F  F24  1  0.934270  0.256976  0.070969  1
  F  F25  1  0.065730  0.743024  0.929031  1
  F  F26  1  0.434270  0.743024  0.429031  1
  F  F27  1  0.565730  0.256976  0.570969  1
  F  F28  1  0.746617  0.996522  0.423149  1
  F  F29  1  0.253383  0.003478  0.576851  1
  F  F30  1  0.246617  0.003478  0.076851  1
  F  F31  1  0.753383  0.996522  0.923149  1
  F  F32  1  0.583978  0.990351  0.230290  1
  F  F33  1  0.416022  0.009649  0.769710  1
  F  F34  1  0.083978  0.009649  0.269710  1
  F  F35  1  0.916022  0.990351  0.730290  1
