# generated using pymatgen
data_Cs3K2CuAs2
_symmetry_space_group_name_H-M   'P 1'
_cell_length_a   6.04411600
_cell_length_b   6.04411463
_cell_length_c   20.32618600
_cell_angle_alpha   90.00000000
_cell_angle_beta   90.00000000
_cell_angle_gamma   119.99999653
_symmetry_Int_Tables_number   1
_chemical_formula_structural   Cs3K2CuAs2
_chemical_formula_sum   'Cs6 K4 Cu2 As4'
_cell_volume   643.06078421
_cell_formula_units_Z   2
loop_
 _symmetry_equiv_pos_site_id
 _symmetry_equiv_pos_as_xyz
  1  'x, y, z'
loop_
 _atom_site_type_symbol
 _atom_site_label
 _atom_site_symmetry_multiplicity
 _atom_site_fract_x
 _atom_site_fract_y
 _atom_site_fract_z
 _atom_site_occupancy
  Cs  Cs0  1  0.333333  0.666667  0.549816  1
  Cs  Cs1  1  0.666667  0.333333  0.049816  1
  Cs  Cs2  1  0.666667  0.333333  0.450184  1
  Cs  Cs3  1  0.333333  0.666667  0.950184  1
  Cs  Cs4  1  0.333333  0.666667  0.750000  1
  Cs  Cs5  1  0.666667  0.333333  0.250000  1
  K  K6  1  0.000000  0.000000  0.148010  1
  K  K7  1  0.000000  0.000000  0.648010  1
  K  K8  1  0.000000  0.000000  0.851990  1
  K  K9  1  0.000000  0.000000  0.351990  1
  Cu  Cu10  1  0.333333  0.666667  0.250000  1
  Cu  Cu11  1  0.666667  0.333333  0.750000  1
  As  As12  1  0.333333  0.666667  0.366199  1
  As  As13  1  0.666667  0.333333  0.866199  1
  As  As14  1  0.666667  0.333333  0.633801  1
  As  As15  1  0.333333  0.666667  0.133801  1
