# generated using pymatgen
data_Tb8Dy2(SnSb)3
_symmetry_space_group_name_H-M   'P 1'
_cell_length_a   6.42637600
_cell_length_b   9.02975640
_cell_length_c   9.02975000
_cell_angle_alpha   120.00003086
_cell_angle_beta   89.99987124
_cell_angle_gamma   90.00024331
_symmetry_Int_Tables_number   1
_chemical_formula_structural   Tb8Dy2(SnSb)3
_chemical_formula_sum   'Tb8 Dy2 Sn3 Sb3'
_cell_volume   453.78317502
_cell_formula_units_Z   1
loop_
 _symmetry_equiv_pos_site_id
 _symmetry_equiv_pos_as_xyz
  1  'x, y, z'
loop_
 _atom_site_type_symbol
 _atom_site_label
 _atom_site_symmetry_multiplicity
 _atom_site_fract_x
 _atom_site_fract_y
 _atom_site_fract_z
 _atom_site_occupancy
  Tb  Tb0  1  0.500580  0.333335  0.666680  1
  Tb  Tb1  1  0.500580  0.666656  0.333320  1
  Tb  Tb2  1  0.750027  0.241697  0.000000  1
  Tb  Tb3  1  0.750030  0.758297  0.758288  1
  Tb  Tb4  1  0.750030  0.000010  0.241712  1
  Tb  Tb5  1  0.249964  0.757817  0.000000  1
  Tb  Tb6  1  0.249967  0.242194  0.242201  1
  Tb  Tb7  1  0.249967  0.999993  0.757799  1
  Dy  Dy8  1  0.999408  0.666658  0.333323  1
  Dy  Dy9  1  0.999408  0.333335  0.666677  1
  Sn  Sn10  1  0.750133  0.607262  0.000000  1
  Sn  Sn11  1  0.750132  0.392775  0.392780  1
  Sn  Sn12  1  0.750132  0.999995  0.607220  1
  Sb  Sb13  1  0.249872  0.391410  0.000000  1
  Sb  Sb14  1  0.249887  0.608573  0.608579  1
  Sb  Sb15  1  0.249887  0.999994  0.391421  1
