# generated using pymatgen
data_Zr3GaSi2Ru3
_symmetry_space_group_name_H-M   'P 1'
_cell_length_a   6.86483700
_cell_length_b   6.86483791
_cell_length_c   3.61256500
_cell_angle_alpha   90.00000000
_cell_angle_beta   90.00000000
_cell_angle_gamma   120.00000042
_symmetry_Int_Tables_number   1
_chemical_formula_structural   Zr3GaSi2Ru3
_chemical_formula_sum   'Zr3 Ga1 Si2 Ru3'
_cell_volume   147.43711258
_cell_formula_units_Z   1
loop_
 _symmetry_equiv_pos_site_id
 _symmetry_equiv_pos_as_xyz
  1  'x, y, z'
loop_
 _atom_site_type_symbol
 _atom_site_label
 _atom_site_symmetry_multiplicity
 _atom_site_fract_x
 _atom_site_fract_y
 _atom_site_fract_z
 _atom_site_occupancy
  Zr  Zr0  1  0.407565  0.414284  0.500000  1
  Zr  Zr1  1  0.585716  0.993281  0.500000  1
  Zr  Zr2  1  0.006719  0.592435  0.500000  1
  Ga  Ga3  1  0.666667  0.333333  0.000000  1
  Si  Si4  1  0.000000  0.000000  0.500000  1
  Si  Si5  1  0.333333  0.666667  0.000000  1
  Ru  Ru6  1  0.009451  0.248285  0.000000  1
  Ru  Ru7  1  0.238833  0.990549  0.000000  1
  Ru  Ru8  1  0.751715  0.761167  0.000000  1
