# generated using pymatgen
data_LiEu15HoIn3Rh4
_symmetry_space_group_name_H-M   'P 1'
_cell_length_a   10.31745405
_cell_length_b   10.31745346
_cell_length_c   10.31745316
_cell_angle_alpha   58.90096393
_cell_angle_beta   58.90096330
_cell_angle_gamma   58.90097151
_symmetry_Int_Tables_number   1
_chemical_formula_structural   LiEu15HoIn3Rh4
_chemical_formula_sum   'Li1 Eu15 Ho1 In3 Rh4'
_cell_volume   757.12886552
_cell_formula_units_Z   1
loop_
 _symmetry_equiv_pos_site_id
 _symmetry_equiv_pos_as_xyz
  1  'x, y, z'
loop_
 _atom_site_type_symbol
 _atom_site_label
 _atom_site_symmetry_multiplicity
 _atom_site_fract_x
 _atom_site_fract_y
 _atom_site_fract_z
 _atom_site_occupancy
  Li  Li0  1  0.817276  0.817276  0.817276  1
  Eu  Eu1  1  0.191737  0.191737  0.806147  1
  Eu  Eu2  1  0.593257  0.593257  0.218108  1
  Eu  Eu3  1  0.446715  0.054480  0.446715  1
  Eu  Eu4  1  0.446715  0.446715  0.054480  1
  Eu  Eu5  1  0.801109  0.200823  0.801109  1
  Eu  Eu6  1  0.191737  0.806147  0.191737  1
  Eu  Eu7  1  0.439343  0.059223  0.059223  1
  Eu  Eu8  1  0.200823  0.801109  0.801109  1
  Eu  Eu9  1  0.059223  0.439343  0.059223  1
  Eu  Eu10  1  0.801109  0.801109  0.200823  1
  Eu  Eu11  1  0.218108  0.593257  0.593257  1
  Eu  Eu12  1  0.054480  0.446715  0.446715  1
  Eu  Eu13  1  0.059223  0.059223  0.439343  1
  Eu  Eu14  1  0.806147  0.191737  0.191737  1
  Eu  Eu15  1  0.593257  0.218108  0.593257  1
  Ho  Ho16  1  0.593132  0.593132  0.593132  1
  In  In17  1  0.827507  0.827507  0.514595  1
  In  In18  1  0.514595  0.827507  0.827507  1
  In  In19  1  0.827507  0.514595  0.827507  1
  Rh  Rh20  1  0.399717  0.828666  0.399717  1
  Rh  Rh21  1  0.388902  0.388902  0.388902  1
  Rh  Rh22  1  0.828666  0.399717  0.399717  1
  Rh  Rh23  1  0.399717  0.399717  0.828666  1
