# generated using pymatgen
data_Nd5Th(ZrBi5)2
_symmetry_space_group_name_H-M   'P 1'
_cell_length_a   9.80005608
_cell_length_b   9.83993553
_cell_length_c   6.45522300
_cell_angle_alpha   90.00000000
_cell_angle_beta   90.00000000
_cell_angle_gamma   120.13470449
_symmetry_Int_Tables_number   1
_chemical_formula_structural   Nd5Th(ZrBi5)2
_chemical_formula_sum   'Nd5 Th1 Zr2 Bi10'
_cell_volume   538.35852498
_cell_formula_units_Z   1
loop_
 _symmetry_equiv_pos_site_id
 _symmetry_equiv_pos_as_xyz
  1  'x, y, z'
loop_
 _atom_site_type_symbol
 _atom_site_label
 _atom_site_symmetry_multiplicity
 _atom_site_fract_x
 _atom_site_fract_y
 _atom_site_fract_z
 _atom_site_occupancy
  Nd  Nd0  1  0.618847  0.999725  0.250000  1
  Nd  Nd1  1  0.620447  0.620526  0.750000  1
  Nd  Nd2  1  0.000000  0.622075  0.250000  1
  Nd  Nd3  1  0.381153  0.380878  0.250000  1
  Nd  Nd4  1  0.379553  0.000079  0.750000  1
  Th  Th5  1  0.000000  0.379233  0.750000  1
  Zr  Zr6  1  0.000000  0.998247  0.001031  1
  Zr  Zr7  1  0.000000  0.998247  0.498969  1
  Bi  Bi8  1  0.667693  0.333385  0.999631  1
  Bi  Bi9  1  0.267665  0.001889  0.250000  1
  Bi  Bi10  1  0.332307  0.665693  0.500369  1
  Bi  Bi11  1  0.266398  0.265723  0.750000  1
  Bi  Bi12  1  0.733602  0.999325  0.750000  1
  Bi  Bi13  1  0.000000  0.731820  0.750000  1
  Bi  Bi14  1  0.732335  0.734224  0.250000  1
  Bi  Bi15  1  0.000000  0.269853  0.250000  1
  Bi  Bi16  1  0.332307  0.665693  0.999631  1
  Bi  Bi17  1  0.667693  0.333385  0.500369  1
