# generated using pymatgen
data_Tm4Ga18Ir2PtRh3
_symmetry_space_group_name_H-M   'P 1'
_cell_length_a   7.57234042
_cell_length_b   7.57231380
_cell_length_c   9.46818600
_cell_angle_alpha   89.98451257
_cell_angle_beta   89.98441162
_cell_angle_gamma   119.80526550
_symmetry_Int_Tables_number   1
_chemical_formula_structural   Tm4Ga18Ir2PtRh3
_chemical_formula_sum   'Tm4 Ga18 Ir2 Pt1 Rh3'
_cell_volume   471.09115087
_cell_formula_units_Z   1
loop_
 _symmetry_equiv_pos_site_id
 _symmetry_equiv_pos_as_xyz
  1  'x, y, z'
loop_
 _atom_site_type_symbol
 _atom_site_label
 _atom_site_symmetry_multiplicity
 _atom_site_fract_x
 _atom_site_fract_y
 _atom_site_fract_z
 _atom_site_occupancy
  Tm  Tm0  1  0.995951  0.668393  0.250519  1
  Tm  Tm1  1  0.003340  0.331246  0.749699  1
  Tm  Tm2  1  0.668755  0.996662  0.250300  1
  Tm  Tm3  1  0.331608  0.004048  0.749480  1
  Ga  Ga4  1  0.125593  0.124737  0.250310  1
  Ga  Ga5  1  0.875264  0.874411  0.749689  1
  Ga  Ga6  1  0.002437  0.333722  0.081686  1
  Ga  Ga7  1  0.004191  0.669556  0.918434  1
  Ga  Ga8  1  0.000921  0.665596  0.579643  1
  Ga  Ga9  1  0.334400  0.999075  0.420355  1
  Ga  Ga10  1  0.998257  0.333620  0.419969  1
  Ga  Ga11  1  0.666379  0.001741  0.580032  1
  Ga  Ga12  1  0.666281  0.997563  0.918314  1
  Ga  Ga13  1  0.330445  0.995810  0.081565  1
  Ga  Ga14  1  0.331581  0.331108  0.565866  1
  Ga  Ga15  1  0.668889  0.668420  0.434135  1
  Ga  Ga16  1  0.668466  0.671506  0.068211  1
  Ga  Ga17  1  0.328492  0.331531  0.931792  1
  Ga  Ga18  1  0.339100  0.547450  0.250454  1
  Ga  Ga19  1  0.661316  0.454979  0.746752  1
  Ga  Ga20  1  0.545018  0.338684  0.253248  1
  Ga  Ga21  1  0.452548  0.660900  0.749549  1
  Ir  Ir22  1  0.328411  0.671590  0.000002  1
  Ir  Ir23  1  0.328243  0.671762  0.499998  1
  Pt  Pt24  1  0.671870  0.328130  0.999996  1
  Rh  Rh25  1  0.672067  0.327933  0.499998  1
  Rh  Rh26  1  0.000035  0.999956  0.000001  1
  Rh  Rh27  1  0.000140  0.999873  0.500000  1
