# generated using pymatgen
data_LiTb2PRh5
_symmetry_space_group_name_H-M   'P 1'
_cell_length_a   6.01080850
_cell_length_b   5.95715902
_cell_length_c   5.95715878
_cell_angle_alpha   60.59671893
_cell_angle_beta   59.70164342
_cell_angle_gamma   59.70164107
_symmetry_Int_Tables_number   1
_chemical_formula_structural   LiTb2PRh5
_chemical_formula_sum   'Li1 Tb2 P1 Rh5'
_cell_volume   150.80827779
_cell_formula_units_Z   1
loop_
 _symmetry_equiv_pos_site_id
 _symmetry_equiv_pos_as_xyz
  1  'x, y, z'
loop_
 _atom_site_type_symbol
 _atom_site_label
 _atom_site_symmetry_multiplicity
 _atom_site_fract_x
 _atom_site_fract_y
 _atom_site_fract_z
 _atom_site_occupancy
  Li  Li0  1  0.716525  0.283476  0.283476  1
  Tb  Tb1  1  0.248559  0.251441  0.251441  1
  Tb  Tb2  1  0.748559  0.751441  0.751441  1
  P  P3  1  0.010176  0.989824  0.989824  1
  Rh  Rh4  1  0.263526  0.736475  0.263246  1
  Rh  Rh5  1  0.736754  0.736474  0.263247  1
  Rh  Rh6  1  0.263526  0.263246  0.736475  1
  Rh  Rh7  1  0.736754  0.263247  0.736474  1
  Rh  Rh8  1  0.275622  0.724379  0.724379  1
