# generated using pymatgen
data_Ta3Al2OsC
_symmetry_space_group_name_H-M   'P 1'
_cell_length_a   8.30399227
_cell_length_b   8.30395583
_cell_length_c   8.30401300
_cell_angle_alpha   60.00012089
_cell_angle_beta   59.99918921
_cell_angle_gamma   60.00027480
_symmetry_Int_Tables_number   1
_chemical_formula_structural   Ta3Al2OsC
_chemical_formula_sum   'Ta12 Al8 Os4 C4'
_cell_volume   404.89613060
_cell_formula_units_Z   4
loop_
 _symmetry_equiv_pos_site_id
 _symmetry_equiv_pos_as_xyz
  1  'x, y, z'
loop_
 _atom_site_type_symbol
 _atom_site_label
 _atom_site_symmetry_multiplicity
 _atom_site_fract_x
 _atom_site_fract_y
 _atom_site_fract_z
 _atom_site_occupancy
  Ta  Ta0  1  0.558821  0.941183  0.558814  1
  Ta  Ta1  1  0.308833  0.691180  0.691171  1
  Ta  Ta2  1  0.691169  0.308819  0.308827  1
  Ta  Ta3  1  0.308831  0.691174  0.308821  1
  Ta  Ta4  1  0.691168  0.691184  0.308827  1
  Ta  Ta5  1  0.308833  0.308815  0.691172  1
  Ta  Ta6  1  0.558832  0.558816  0.941173  1
  Ta  Ta7  1  0.941167  0.558820  0.558829  1
  Ta  Ta8  1  0.558831  0.941181  0.941173  1
  Ta  Ta9  1  0.941167  0.941185  0.558828  1
  Ta  Ta10  1  0.691179  0.308817  0.691186  1
  Ta  Ta11  1  0.941169  0.558826  0.941179  1
  Al  Al12  1  0.916480  0.916453  0.916472  1
  Al  Al13  1  0.999422  0.333529  0.333521  1
  Al  Al14  1  0.333521  0.999402  0.333531  1
  Al  Al15  1  0.333518  0.333536  0.999413  1
  Al  Al16  1  0.916479  0.250598  0.916469  1
  Al  Al17  1  0.916482  0.916464  0.250587  1
  Al  Al18  1  0.250578  0.916471  0.916479  1
  Al  Al19  1  0.333520  0.333547  0.333528  1
  Os  Os20  1  0.125000  0.125000  0.125000  1
  Os  Os21  1  0.625000  0.125000  0.125000  1
  Os  Os22  1  0.125000  0.625000  0.125000  1
  Os  Os23  1  0.125000  0.125000  0.625000  1
  C  C24  1  0.625000  0.625000  0.625000  1
  C  C25  1  0.125000  0.625000  0.625000  1
  C  C26  1  0.625000  0.125000  0.625000  1
  C  C27  1  0.625000  0.625000  0.125000  1
