# generated using pymatgen
data_TbLu(Bi3O7)2
_symmetry_space_group_name_H-M   'P 1'
_cell_length_a   6.64324419
_cell_length_b   6.85766760
_cell_length_c   7.84822417
_cell_angle_alpha   106.73671204
_cell_angle_beta   89.36302551
_cell_angle_gamma   99.18938748
_symmetry_Int_Tables_number   1
_chemical_formula_structural   TbLu(Bi3O7)2
_chemical_formula_sum   'Tb1 Lu1 Bi6 O14'
_cell_volume   337.77223385
_cell_formula_units_Z   1
loop_
 _symmetry_equiv_pos_site_id
 _symmetry_equiv_pos_as_xyz
  1  'x, y, z'
loop_
 _atom_site_type_symbol
 _atom_site_label
 _atom_site_symmetry_multiplicity
 _atom_site_fract_x
 _atom_site_fract_y
 _atom_site_fract_z
 _atom_site_occupancy
  Tb  Tb0  1  0.539714  0.995656  0.751927  1
  Lu  Lu1  1  0.462439  0.004419  0.249705  1
  Bi  Bi2  1  0.000862  0.000466  0.499387  1
  Bi  Bi3  1  0.001156  0.000596  0.002984  1
  Bi  Bi4  1  0.258137  0.519118  0.878328  1
  Bi  Bi5  1  0.738001  0.484591  0.120877  1
  Bi  Bi6  1  0.720073  0.458724  0.605001  1
  Bi  Bi7  1  0.276536  0.537025  0.387698  1
  O  O8  1  0.466139  0.666828  0.186494  1
  O  O9  1  0.535050  0.341755  0.815750  1
  O  O10  1  0.305915  0.942706  0.957760  1
  O  O11  1  0.696018  0.052993  0.052687  1
  O  O12  1  0.299264  0.920227  0.508976  1
  O  O13  1  0.701681  0.080117  0.482891  1
  O  O14  1  0.526589  0.344004  0.347468  1
  O  O15  1  0.466346  0.647107  0.646083  1
  O  O16  1  0.918694  0.674695  0.960521  1
  O  O17  1  0.084632  0.325692  0.041686  1
  O  O18  1  0.091769  0.325610  0.624460  1
  O  O19  1  0.902210  0.675318  0.376719  1
  O  O20  1  0.879884  0.936862  0.734823  1
  O  O21  1  0.128891  0.065490  0.267776  1
