# generated using pymatgen
data_MgPa7(Pd2Pb)4
_symmetry_space_group_name_H-M   'P 1'
_cell_length_a   7.75888800
_cell_length_b   7.75888771
_cell_length_c   7.40427700
_cell_angle_alpha   90.00000000
_cell_angle_beta   90.00000000
_cell_angle_gamma   89.97540950
_symmetry_Int_Tables_number   1
_chemical_formula_structural   MgPa7(Pd2Pb)4
_chemical_formula_sum   'Mg1 Pa7 Pd8 Pb4'
_cell_volume   445.73995759
_cell_formula_units_Z   1
loop_
 _symmetry_equiv_pos_site_id
 _symmetry_equiv_pos_as_xyz
  1  'x, y, z'
loop_
 _atom_site_type_symbol
 _atom_site_label
 _atom_site_symmetry_multiplicity
 _atom_site_fract_x
 _atom_site_fract_y
 _atom_site_fract_z
 _atom_site_occupancy
  Mg  Mg0  1  0.316923  0.316923  0.000000  1
  Pa  Pa1  1  0.632389  0.632389  0.500000  1
  Pa  Pa2  1  0.811844  0.185673  0.500000  1
  Pa  Pa3  1  0.682709  0.682709  0.000000  1
  Pa  Pa4  1  0.865590  0.139004  0.000000  1
  Pa  Pa5  1  0.185673  0.811844  0.500000  1
  Pa  Pa6  1  0.139004  0.865590  0.000000  1
  Pa  Pa7  1  0.362821  0.362821  0.500000  1
  Pd  Pd8  1  0.633484  0.366391  0.203962  1
  Pd  Pd9  1  0.366391  0.633484  0.796038  1
  Pd  Pd10  1  0.865125  0.865125  0.703561  1
  Pd  Pd11  1  0.633484  0.366391  0.796038  1
  Pd  Pd12  1  0.366391  0.633484  0.203962  1
  Pd  Pd13  1  0.132590  0.132590  0.298374  1
  Pd  Pd14  1  0.865125  0.865125  0.296439  1
  Pd  Pd15  1  0.132590  0.132590  0.701626  1
  Pb  Pb16  1  0.006547  0.497386  0.242746  1
  Pb  Pb17  1  0.497386  0.006547  0.757254  1
  Pb  Pb18  1  0.497386  0.006547  0.242746  1
  Pb  Pb19  1  0.006547  0.497386  0.757254  1
