# generated using pymatgen
data_ZnCdNi20B6Sb
_symmetry_space_group_name_H-M   'P 1'
_cell_length_a   7.50496667
_cell_length_b   7.50741001
_cell_length_c   7.50559848
_cell_angle_alpha   59.96809307
_cell_angle_beta   60.00016128
_cell_angle_gamma   60.04155634
_symmetry_Int_Tables_number   1
_chemical_formula_structural   ZnCdNi20B6Sb
_chemical_formula_sum   'Zn1 Cd1 Ni20 B6 Sb1'
_cell_volume   299.04811703
_cell_formula_units_Z   1
loop_
 _symmetry_equiv_pos_site_id
 _symmetry_equiv_pos_as_xyz
  1  'x, y, z'
loop_
 _atom_site_type_symbol
 _atom_site_label
 _atom_site_symmetry_multiplicity
 _atom_site_fract_x
 _atom_site_fract_y
 _atom_site_fract_z
 _atom_site_occupancy
  Zn  Zn0  1  0.000094  0.000058  0.999865  1
  Cd  Cd1  1  0.750215  0.750270  0.749830  1
  Ni  Ni2  1  0.999320  0.999099  0.664129  1
  Ni  Ni3  1  0.383005  0.851436  0.382789  1
  Ni  Ni4  1  0.664172  0.337359  0.999310  1
  Ni  Ni5  1  0.999355  0.337331  0.664090  1
  Ni  Ni6  1  0.664263  0.999245  0.999188  1
  Ni  Ni7  1  0.999102  0.999272  0.337379  1
  Ni  Ni8  1  0.664343  0.999097  0.337325  1
  Ni  Ni9  1  0.999369  0.337343  0.999095  1
  Ni  Ni10  1  0.999183  0.664392  0.337285  1
  Ni  Ni11  1  0.337357  0.999199  0.999235  1
  Ni  Ni12  1  0.999092  0.664297  0.999277  1
  Ni  Ni13  1  0.337392  0.999377  0.664057  1
  Ni  Ni14  1  0.382833  0.383053  0.382786  1
  Ni  Ni15  1  0.337449  0.664235  0.999080  1
  Ni  Ni16  1  0.611252  0.165555  0.611675  1
  Ni  Ni17  1  0.382996  0.383029  0.851241  1
  Ni  Ni18  1  0.851334  0.383160  0.382863  1
  Ni  Ni19  1  0.611269  0.611140  0.611499  1
  Ni  Ni20  1  0.165809  0.611160  0.611442  1
  Ni  Ni21  1  0.611172  0.611195  0.166205  1
  B  B22  1  0.726499  0.726558  0.273481  1
  B  B23  1  0.726606  0.273448  0.726453  1
  B  B24  1  0.273422  0.726608  0.273493  1
  B  B25  1  0.726574  0.273480  0.273547  1
  B  B26  1  0.273427  0.726622  0.726466  1
  B  B27  1  0.273496  0.273504  0.726496  1
  Sb  Sb28  1  0.249602  0.249474  0.250424  1
