# generated using pymatgen
data_DyLu2Sc(Co4P3)2
_symmetry_space_group_name_H-M   'P 1'
_cell_length_a   3.70140200
_cell_length_b   10.61138700
_cell_length_c   12.29315600
_cell_angle_alpha   90.00000000
_cell_angle_beta   90.00000000
_cell_angle_gamma   90.00000000
_symmetry_Int_Tables_number   1
_chemical_formula_structural   DyLu2Sc(Co4P3)2
_chemical_formula_sum   'Dy2 Lu4 Sc2 Co16 P12'
_cell_volume   482.83839964
_cell_formula_units_Z   2
loop_
 _symmetry_equiv_pos_site_id
 _symmetry_equiv_pos_as_xyz
  1  'x, y, z'
loop_
 _atom_site_type_symbol
 _atom_site_label
 _atom_site_symmetry_multiplicity
 _atom_site_fract_x
 _atom_site_fract_y
 _atom_site_fract_z
 _atom_site_occupancy
  Dy  Dy0  1  0.000000  0.500000  0.528551  1
  Dy  Dy1  1  0.500000  0.000000  0.471449  1
  Lu  Lu2  1  0.500000  0.823158  0.205296  1
  Lu  Lu3  1  0.500000  0.176842  0.205296  1
  Lu  Lu4  1  0.000000  0.676842  0.794704  1
  Lu  Lu5  1  0.000000  0.323158  0.794704  1
  Sc  Sc6  1  0.500000  0.500000  0.157111  1
  Sc  Sc7  1  0.000000  0.000000  0.842889  1
  Co  Co8  1  0.500000  0.500000  0.707140  1
  Co  Co9  1  0.000000  0.000000  0.292860  1
  Co  Co10  1  0.000000  0.500000  0.987498  1
  Co  Co11  1  0.500000  0.000000  0.012502  1
  Co  Co12  1  0.500000  0.331073  0.994734  1
  Co  Co13  1  0.500000  0.668927  0.994734  1
  Co  Co14  1  0.000000  0.168927  0.005266  1
  Co  Co15  1  0.000000  0.831073  0.005266  1
  Co  Co16  1  0.500000  0.295266  0.432653  1
  Co  Co17  1  0.500000  0.704734  0.432653  1
  Co  Co18  1  0.000000  0.204734  0.567347  1
  Co  Co19  1  0.000000  0.795266  0.567347  1
  Co  Co20  1  0.500000  0.876906  0.703847  1
  Co  Co21  1  0.500000  0.123094  0.703847  1
  Co  Co22  1  0.000000  0.623094  0.296153  1
  Co  Co23  1  0.000000  0.376906  0.296153  1
  P  P24  1  0.500000  0.500000  0.885411  1
  P  P25  1  0.000000  0.000000  0.114589  1
  P  P26  1  0.500000  0.500000  0.360355  1
  P  P27  1  0.000000  0.000000  0.639645  1
  P  P28  1  0.500000  0.310311  0.617070  1
  P  P29  1  0.500000  0.689689  0.617070  1
  P  P30  1  0.000000  0.189689  0.382930  1
  P  P31  1  0.000000  0.810311  0.382930  1
  P  P32  1  0.500000  0.838174  0.891169  1
  P  P33  1  0.500000  0.161826  0.891169  1
  P  P34  1  0.000000  0.661826  0.108831  1
  P  P35  1  0.000000  0.338174  0.108831  1
