# generated using pymatgen
data_LuZrRh6C
_symmetry_space_group_name_H-M   'P 1'
_cell_length_a   5.73071855
_cell_length_b   5.73071863
_cell_length_c   5.73071800
_cell_angle_alpha   60.00000365
_cell_angle_beta   60.00000315
_cell_angle_gamma   59.99999260
_symmetry_Int_Tables_number   1
_chemical_formula_structural   LuZrRh6C
_chemical_formula_sum   'Lu1 Zr1 Rh6 C1'
_cell_volume   133.07981961
_cell_formula_units_Z   1
loop_
 _symmetry_equiv_pos_site_id
 _symmetry_equiv_pos_as_xyz
  1  'x, y, z'
loop_
 _atom_site_type_symbol
 _atom_site_label
 _atom_site_symmetry_multiplicity
 _atom_site_fract_x
 _atom_site_fract_y
 _atom_site_fract_z
 _atom_site_occupancy
  Lu  Lu0  1  0.250000  0.250000  0.250000  1
  Zr  Zr1  1  0.750000  0.750000  0.750000  1
  Rh  Rh2  1  0.753992  0.753992  0.246007  1
  Rh  Rh3  1  0.753992  0.246007  0.246007  1
  Rh  Rh4  1  0.246007  0.753992  0.246007  1
  Rh  Rh5  1  0.246007  0.246007  0.753992  1
  Rh  Rh6  1  0.753992  0.246007  0.753992  1
  Rh  Rh7  1  0.246007  0.753992  0.753992  1
  C  C8  1  0.500000  0.500000  0.500000  1
