# generated using pymatgen
data_Gd4CdHgAu4
_symmetry_space_group_name_H-M   'P 1'
_cell_length_a   8.13525300
_cell_length_b   8.13525300
_cell_length_c   3.74435100
_cell_angle_alpha   90.00000000
_cell_angle_beta   90.00000000
_cell_angle_gamma   90.00000000
_symmetry_Int_Tables_number   1
_chemical_formula_structural   Gd4CdHgAu4
_chemical_formula_sum   'Gd4 Cd1 Hg1 Au4'
_cell_volume   247.80991611
_cell_formula_units_Z   1
loop_
 _symmetry_equiv_pos_site_id
 _symmetry_equiv_pos_as_xyz
  1  'x, y, z'
loop_
 _atom_site_type_symbol
 _atom_site_label
 _atom_site_symmetry_multiplicity
 _atom_site_fract_x
 _atom_site_fract_y
 _atom_site_fract_z
 _atom_site_occupancy
  Gd  Gd0  1  0.683074  0.154945  0.500000  1
  Gd  Gd1  1  0.316926  0.845055  0.500000  1
  Gd  Gd2  1  0.154945  0.316926  0.500000  1
  Gd  Gd3  1  0.845055  0.683074  0.500000  1
  Cd  Cd4  1  0.500000  0.500000  0.000000  1
  Hg  Hg5  1  0.000000  0.000000  0.000000  1
  Au  Au6  1  0.139926  0.618421  0.000000  1
  Au  Au7  1  0.860074  0.381579  0.000000  1
  Au  Au8  1  0.618421  0.860074  0.000000  1
  Au  Au9  1  0.381579  0.139926  0.000000  1
