# generated using pymatgen
data_Tb4Er5Tm11(CoSb2)4
_symmetry_space_group_name_H-M   'P 1'
_cell_length_a   7.79079107
_cell_length_b   8.73711200
_cell_length_c   12.04553810
_cell_angle_alpha   90.00000000
_cell_angle_beta   90.01513791
_cell_angle_gamma   90.00000000
_symmetry_Int_Tables_number   1
_chemical_formula_structural   Tb4Er5Tm11(CoSb2)4
_chemical_formula_sum   'Tb4 Er5 Tm11 Co4 Sb8'
_cell_volume   819.92787486
_cell_formula_units_Z   1
loop_
 _symmetry_equiv_pos_site_id
 _symmetry_equiv_pos_as_xyz
  1  'x, y, z'
loop_
 _atom_site_type_symbol
 _atom_site_label
 _atom_site_symmetry_multiplicity
 _atom_site_fract_x
 _atom_site_fract_y
 _atom_site_fract_z
 _atom_site_occupancy
  Tb  Tb0  1  0.621867  0.750000  0.306641  1
  Tb  Tb1  1  0.121875  0.250000  0.193408  1
  Tb  Tb2  1  0.378128  0.250000  0.693353  1
  Tb  Tb3  1  0.878100  0.750000  0.806560  1
  Er  Er4  1  0.154735  0.750000  0.203459  1
  Er  Er5  1  0.654860  0.250000  0.296732  1
  Er  Er6  1  0.845067  0.250000  0.796620  1
  Er  Er7  1  0.345081  0.750000  0.703361  1
  Er  Er8  1  0.450332  0.750000  0.997750  1
  Tm  Tm9  1  0.950196  0.250000  0.502277  1
  Tm  Tm10  1  0.549841  0.250000  0.002263  1
  Tm  Tm11  1  0.049814  0.750000  0.497721  1
  Tm  Tm12  1  0.823007  0.963540  0.064972  1
  Tm  Tm13  1  0.322923  0.036553  0.435043  1
  Tm  Tm14  1  0.176950  0.463286  0.934987  1
  Tm  Tm15  1  0.677107  0.536567  0.564949  1
  Tm  Tm16  1  0.176950  0.036714  0.934987  1
  Tm  Tm17  1  0.677107  0.963433  0.564949  1
  Tm  Tm18  1  0.823007  0.536460  0.064972  1
  Tm  Tm19  1  0.322923  0.463447  0.435043  1
  Co  Co20  1  0.431965  0.750000  0.490821  1
  Co  Co21  1  0.931973  0.250000  0.009162  1
  Co  Co22  1  0.568044  0.250000  0.509182  1
  Co  Co23  1  0.067874  0.750000  0.990828  1
  Sb  Sb24  1  0.929612  0.991513  0.328537  1
  Sb  Sb25  1  0.429602  0.008688  0.171627  1
  Sb  Sb26  1  0.070400  0.491475  0.671440  1
  Sb  Sb27  1  0.570524  0.508331  0.828375  1
  Sb  Sb28  1  0.070400  0.008525  0.671440  1
  Sb  Sb29  1  0.570524  0.991669  0.828375  1
  Sb  Sb30  1  0.929612  0.508487  0.328537  1
  Sb  Sb31  1  0.429602  0.491312  0.171627  1
