# generated using pymatgen
data_Ho7Er(FeB6)4
_symmetry_space_group_name_H-M   'P 1'
_cell_length_a   3.54137000
_cell_length_b   9.06655103
_cell_length_c   11.42380104
_cell_angle_alpha   89.99038105
_cell_angle_beta   90.00000000
_cell_angle_gamma   90.00000000
_symmetry_Int_Tables_number   1
_chemical_formula_structural   Ho7Er(FeB6)4
_chemical_formula_sum   'Ho7 Er1 Fe4 B24'
_cell_volume   366.79553375
_cell_formula_units_Z   1
loop_
 _symmetry_equiv_pos_site_id
 _symmetry_equiv_pos_as_xyz
  1  'x, y, z'
loop_
 _atom_site_type_symbol
 _atom_site_label
 _atom_site_symmetry_multiplicity
 _atom_site_fract_x
 _atom_site_fract_y
 _atom_site_fract_z
 _atom_site_occupancy
  Ho  Ho0  1  0.000000  0.824280  0.085536  1
  Ho  Ho1  1  0.000000  0.175736  0.914338  1
  Ho  Ho2  1  0.000000  0.324099  0.414551  1
  Ho  Ho3  1  0.000000  0.675922  0.585596  1
  Ho  Ho4  1  0.000000  0.443070  0.129453  1
  Ho  Ho5  1  0.000000  0.556926  0.870477  1
  Ho  Ho6  1  0.000000  0.943122  0.370680  1
  Er  Er7  1  0.000000  0.056933  0.629464  1
  Fe  Fe8  1  0.000000  0.138431  0.179382  1
  Fe  Fe9  1  0.000000  0.861790  0.820498  1
  Fe  Fe10  1  0.000000  0.638475  0.320736  1
  Fe  Fe11  1  0.000000  0.361218  0.679307  1
  B  B12  1  0.500000  0.054242  0.068005  1
  B  B13  1  0.500000  0.945828  0.931850  1
  B  B14  1  0.500000  0.554220  0.432036  1
  B  B15  1  0.500000  0.445571  0.568035  1
  B  B16  1  0.500000  0.246269  0.081455  1
  B  B17  1  0.500000  0.753795  0.918500  1
  B  B18  1  0.500000  0.746344  0.418616  1
  B  B19  1  0.500000  0.253293  0.581481  1
  B  B20  1  0.500000  0.289224  0.233604  1
  B  B21  1  0.500000  0.710942  0.766366  1
  B  B22  1  0.500000  0.789276  0.266484  1
  B  B23  1  0.500000  0.210361  0.733464  1
  B  B24  1  0.500000  0.132221  0.314191  1
  B  B25  1  0.500000  0.868094  0.685749  1
  B  B26  1  0.500000  0.632281  0.185905  1
  B  B27  1  0.500000  0.367604  0.814019  1
  B  B28  1  0.500000  0.486061  0.288403  1
  B  B29  1  0.500000  0.513870  0.711584  1
  B  B30  1  0.500000  0.986047  0.211655  1
  B  B31  1  0.500000  0.014207  0.788095  1
  B  B32  1  0.500000  0.109428  0.470275  1
  B  B33  1  0.500000  0.890835  0.530266  1
  B  B34  1  0.500000  0.609865  0.030108  1
  B  B35  1  0.500000  0.390121  0.969836  1
