# generated using pymatgen
data_Pu2U6B24MoW3
_symmetry_space_group_name_H-M   'P 1'
_cell_length_a   3.68337800
_cell_length_b   9.30345891
_cell_length_c   11.39157970
_cell_angle_alpha   89.87282159
_cell_angle_beta   90.00000000
_cell_angle_gamma   90.00000000
_symmetry_Int_Tables_number   1
_chemical_formula_structural   Pu2U6B24MoW3
_chemical_formula_sum   'Pu2 U6 B24 Mo1 W3'
_cell_volume   390.36746702
_cell_formula_units_Z   1
loop_
 _symmetry_equiv_pos_site_id
 _symmetry_equiv_pos_as_xyz
  1  'x, y, z'
loop_
 _atom_site_type_symbol
 _atom_site_label
 _atom_site_symmetry_multiplicity
 _atom_site_fract_x
 _atom_site_fract_y
 _atom_site_fract_z
 _atom_site_occupancy
  Pu  Pu0  1  0.000000  0.335447  0.407250  1
  Pu  Pu1  1  0.000000  0.663980  0.592438  1
  U  U2  1  0.000000  0.834790  0.092223  1
  U  U3  1  0.000000  0.165181  0.907661  1
  U  U4  1  0.000000  0.956187  0.395097  1
  U  U5  1  0.000000  0.043784  0.605561  1
  U  U6  1  0.000000  0.456280  0.105340  1
  U  U7  1  0.000000  0.544193  0.894488  1
  B  B8  1  0.500000  0.551237  0.432296  1
  B  B9  1  0.500000  0.448482  0.567557  1
  B  B10  1  0.500000  0.049695  0.066586  1
  B  B11  1  0.500000  0.950154  0.933302  1
  B  B12  1  0.500000  0.744362  0.424104  1
  B  B13  1  0.500000  0.255438  0.575957  1
  B  B14  1  0.500000  0.243657  0.075637  1
  B  B15  1  0.500000  0.756794  0.924142  1
  B  B16  1  0.500000  0.804214  0.272469  1
  B  B17  1  0.500000  0.195745  0.727519  1
  B  B18  1  0.500000  0.303484  0.225960  1
  B  B19  1  0.500000  0.696819  0.774088  1
  B  B20  1  0.500000  0.644959  0.186828  1
  B  B21  1  0.500000  0.355162  0.813005  1
  B  B22  1  0.500000  0.143533  0.312217  1
  B  B23  1  0.500000  0.856415  0.688199  1
  B  B24  1  0.500000  0.985762  0.218237  1
  B  B25  1  0.500000  0.013943  0.781776  1
  B  B26  1  0.500000  0.486607  0.280397  1
  B  B27  1  0.500000  0.513351  0.719448  1
  B  B28  1  0.500000  0.642572  0.039122  1
  B  B29  1  0.500000  0.357986  0.960757  1
  B  B30  1  0.500000  0.139678  0.460870  1
  B  B31  1  0.500000  0.859980  0.539436  1
  Mo  Mo32  1  0.000000  0.856872  0.822290  1
  W  W33  1  0.000000  0.647039  0.317958  1
  W  W34  1  0.000000  0.352839  0.681905  1
  W  W35  1  0.000000  0.143381  0.177879  1
