# generated using pymatgen
data_Tb11Nd8TmSn16
_symmetry_space_group_name_H-M   'P 1'
_cell_length_a   8.14664100
_cell_length_b   8.27151236
_cell_length_c   15.63028100
_cell_angle_alpha   90.00000000
_cell_angle_beta   90.00000000
_cell_angle_gamma   89.98312612
_symmetry_Int_Tables_number   1
_chemical_formula_structural   Tb11Nd8TmSn16
_chemical_formula_sum   'Tb11 Nd8 Tm1 Sn16'
_cell_volume   1053.24709150
_cell_formula_units_Z   1
loop_
 _symmetry_equiv_pos_site_id
 _symmetry_equiv_pos_as_xyz
  1  'x, y, z'
loop_
 _atom_site_type_symbol
 _atom_site_label
 _atom_site_symmetry_multiplicity
 _atom_site_fract_x
 _atom_site_fract_y
 _atom_site_fract_z
 _atom_site_occupancy
  Tb  Tb0  1  0.360859  0.836209  0.877395  1
  Tb  Tb1  1  0.860688  0.663813  0.622946  1
  Tb  Tb2  1  0.638914  0.163570  0.376993  1
  Tb  Tb3  1  0.139645  0.336114  0.123079  1
  Tb  Tb4  1  0.638914  0.163570  0.123007  1
  Tb  Tb5  1  0.139645  0.336114  0.376921  1
  Tb  Tb6  1  0.360859  0.836209  0.622605  1
  Tb  Tb7  1  0.860688  0.663813  0.877054  1
  Tb  Tb8  1  0.193711  0.502493  0.750000  1
  Tb  Tb9  1  0.693577  0.997586  0.750000  1
  Tb  Tb10  1  0.806624  0.497850  0.250000  1
  Nd  Nd11  1  0.514970  0.321018  0.903455  1
  Nd  Nd12  1  0.014902  0.178946  0.596387  1
  Nd  Nd13  1  0.484761  0.679108  0.403120  1
  Nd  Nd14  1  0.985022  0.821458  0.096897  1
  Nd  Nd15  1  0.484761  0.679108  0.096880  1
  Nd  Nd16  1  0.985022  0.821458  0.403103  1
  Nd  Nd17  1  0.514970  0.321018  0.596545  1
  Nd  Nd18  1  0.014902  0.178946  0.903613  1
  Tm  Tm19  1  0.306339  0.002561  0.250000  1
  Sn  Sn20  1  0.302070  0.039138  0.042923  1
  Sn  Sn21  1  0.802145  0.460256  0.457949  1
  Sn  Sn22  1  0.697889  0.960233  0.542085  1
  Sn  Sn23  1  0.197783  0.539675  0.957902  1
  Sn  Sn24  1  0.697889  0.960233  0.957915  1
  Sn  Sn25  1  0.197783  0.539675  0.542098  1
  Sn  Sn26  1  0.302070  0.039138  0.457077  1
  Sn  Sn27  1  0.802145  0.460256  0.042051  1
  Sn  Sn28  1  0.559672  0.620822  0.750000  1
  Sn  Sn29  1  0.059987  0.879291  0.750000  1
  Sn  Sn30  1  0.439957  0.378892  0.250000  1
  Sn  Sn31  1  0.941792  0.119967  0.250000  1
  Sn  Sn32  1  0.322292  0.143653  0.750000  1
  Sn  Sn33  1  0.822689  0.355962  0.750000  1
  Sn  Sn34  1  0.676637  0.856579  0.250000  1
  Sn  Sn35  1  0.177424  0.645271  0.250000  1
