# generated using pymatgen
data_DyY8Tm11Bi12
_symmetry_space_group_name_H-M   'P 1'
_cell_length_a   8.22081474
_cell_length_b   9.44641002
_cell_length_c   12.03294105
_cell_angle_alpha   89.99975328
_cell_angle_beta   89.95215596
_cell_angle_gamma   89.99224819
_symmetry_Int_Tables_number   1
_chemical_formula_structural   DyY8Tm11Bi12
_chemical_formula_sum   'Dy1 Y8 Tm11 Bi12'
_cell_volume   934.44401525
_cell_formula_units_Z   1
loop_
 _symmetry_equiv_pos_site_id
 _symmetry_equiv_pos_as_xyz
  1  'x, y, z'
loop_
 _atom_site_type_symbol
 _atom_site_label
 _atom_site_symmetry_multiplicity
 _atom_site_fract_x
 _atom_site_fract_y
 _atom_site_fract_z
 _atom_site_occupancy
  Dy  Dy0  1  0.307293  0.435548  0.940555  1
  Y  Y1  1  0.186378  0.749992  0.718530  1
  Y  Y2  1  0.686138  0.750015  0.781375  1
  Y  Y3  1  0.813744  0.249957  0.281501  1
  Y  Y4  1  0.313617  0.249800  0.218698  1
  Y  Y5  1  0.353492  0.749828  0.216013  1
  Y  Y6  1  0.853662  0.750007  0.283948  1
  Y  Y7  1  0.646580  0.249690  0.783708  1
  Y  Y8  1  0.145955  0.249617  0.715867  1
  Tm  Tm9  1  0.024733  0.750006  0.989067  1
  Tm  Tm10  1  0.524895  0.749856  0.510876  1
  Tm  Tm11  1  0.974579  0.249766  0.011074  1
  Tm  Tm12  1  0.475009  0.250023  0.489065  1
  Tm  Tm13  1  0.806990  0.065610  0.559470  1
  Tm  Tm14  1  0.693073  0.934352  0.059544  1
  Tm  Tm15  1  0.192877  0.565785  0.440515  1
  Tm  Tm16  1  0.692734  0.565768  0.059446  1
  Tm  Tm17  1  0.192974  0.934260  0.440528  1
  Tm  Tm18  1  0.307161  0.065391  0.940473  1
  Tm  Tm19  1  0.807047  0.434357  0.559456  1
  Bi  Bi20  1  0.433981  0.003833  0.672364  1
  Bi  Bi21  1  0.933639  0.496084  0.827391  1
  Bi  Bi22  1  0.566220  0.503861  0.327682  1
  Bi  Bi23  1  0.066014  0.995986  0.172483  1
  Bi  Bi24  1  0.566149  0.996019  0.327600  1
  Bi  Bi25  1  0.066130  0.503788  0.172629  1
  Bi  Bi26  1  0.434075  0.496034  0.672277  1
  Bi  Bi27  1  0.933909  0.003753  0.827466  1
  Bi  Bi28  1  0.407066  0.751493  0.958051  1
  Bi  Bi29  1  0.906589  0.749992  0.542183  1
  Bi  Bi30  1  0.593877  0.249501  0.042378  1
  Bi  Bi31  1  0.093418  0.250027  0.457786  1
