# generated using pymatgen
data_Ho8Er4Ni4SnPd
_symmetry_space_group_name_H-M   'P 1'
_cell_length_a   8.29624657
_cell_length_b   8.29667741
_cell_length_c   8.29624681
_cell_angle_alpha   111.74800420
_cell_angle_beta   109.84810873
_cell_angle_gamma   106.85275390
_symmetry_Int_Tables_number   1
_chemical_formula_structural   Ho8Er4Ni4SnPd
_chemical_formula_sum   'Ho8 Er4 Ni4 Sn1 Pd1'
_cell_volume   438.78800273
_cell_formula_units_Z   1
loop_
 _symmetry_equiv_pos_site_id
 _symmetry_equiv_pos_as_xyz
  1  'x, y, z'
loop_
 _atom_site_type_symbol
 _atom_site_label
 _atom_site_symmetry_multiplicity
 _atom_site_fract_x
 _atom_site_fract_y
 _atom_site_fract_z
 _atom_site_occupancy
  Ho  Ho0  1  0.182890  0.296537  0.479427  1
  Ho  Ho1  1  0.817110  0.703463  0.520573  1
  Ho  Ho2  1  0.182891  0.703463  0.886354  1
  Ho  Ho3  1  0.817109  0.296537  0.113646  1
  Ho  Ho4  1  0.321573  0.627152  0.305579  1
  Ho  Ho5  1  0.678427  0.372848  0.694421  1
  Ho  Ho6  1  0.321574  0.015989  0.694415  1
  Ho  Ho7  1  0.678426  0.984011  0.305585  1
  Er  Er8  1  0.410372  0.215304  0.195063  1
  Er  Er9  1  0.589628  0.784696  0.804937  1
  Er  Er10  1  0.020241  0.215304  0.804933  1
  Er  Er11  1  0.979759  0.784696  0.195067  1
  Ni  Ni12  1  0.363770  0.000000  0.363770  1
  Ni  Ni13  1  0.636230  0.000000  0.636230  1
  Ni  Ni14  1  0.125645  0.625657  0.500013  1
  Ni  Ni15  1  0.874355  0.374343  0.499987  1
  Sn  Sn16  1  0.500000  0.500000  0.000000  1
  Pd  Pd17  1  0.000000  0.000000  0.000000  1
