# generated using pymatgen
data_Sm2Ga5CoPt2
_symmetry_space_group_name_H-M   'P 1'
_cell_length_a   8.64338958
_cell_length_b   8.64338946
_cell_length_c   8.64338800
_cell_angle_alpha   140.60775787
_cell_angle_beta   107.04704090
_cell_angle_gamma   86.21709415
_symmetry_Int_Tables_number   1
_chemical_formula_structural   Sm2Ga5CoPt2
_chemical_formula_sum   'Sm4 Ga10 Co2 Pt4'
_cell_volume   377.82266466
_cell_formula_units_Z   2
loop_
 _symmetry_equiv_pos_site_id
 _symmetry_equiv_pos_as_xyz
  1  'x, y, z'
loop_
 _atom_site_type_symbol
 _atom_site_label
 _atom_site_symmetry_multiplicity
 _atom_site_fract_x
 _atom_site_fract_y
 _atom_site_fract_z
 _atom_site_occupancy
  Sm  Sm0  1  0.863706  0.637561  0.226158  1
  Sm  Sm1  1  0.136294  0.362439  0.773842  1
  Sm  Sm2  1  0.411402  0.137545  0.273837  1
  Sm  Sm3  1  0.588598  0.862455  0.726163  1
  Ga  Ga4  1  0.500013  0.749999  0.250003  1
  Ga  Ga5  1  0.499987  0.250001  0.749997  1
  Ga  Ga6  1  0.205748  0.955747  0.749998  1
  Ga  Ga7  1  0.794251  0.544250  0.749999  1
  Ga  Ga8  1  0.794252  0.044253  0.250002  1
  Ga  Ga9  1  0.205749  0.455750  0.250001  1
  Ga  Ga10  1  0.069786  0.912532  0.157261  1
  Ga  Ga11  1  0.930214  0.087468  0.842739  1
  Ga  Ga12  1  0.755269  0.412524  0.342738  1
  Ga  Ga13  1  0.244731  0.587476  0.657262  1
  Co  Co14  1  0.000001  0.750000  0.749999  1
  Co  Co15  1  0.999999  0.250000  0.250001  1
  Pt  Pt16  1  0.249300  0.853617  0.395706  1
  Pt  Pt17  1  0.750700  0.146383  0.604294  1
  Pt  Pt18  1  0.457905  0.353588  0.104282  1
  Pt  Pt19  1  0.542095  0.646412  0.895718  1
