# generated using pymatgen
data_Lu4Ge6Ir4Pt3
_symmetry_space_group_name_H-M   'P 1'
_cell_length_a   7.24966155
_cell_length_b   7.25956896
_cell_length_c   7.24966247
_cell_angle_alpha   109.49889766
_cell_angle_beta   109.44351086
_cell_angle_gamma   109.49891041
_symmetry_Int_Tables_number   1
_chemical_formula_structural   Lu4Ge6Ir4Pt3
_chemical_formula_sum   'Lu4 Ge6 Ir4 Pt3'
_cell_volume   293.61351184
_cell_formula_units_Z   1
loop_
 _symmetry_equiv_pos_site_id
 _symmetry_equiv_pos_as_xyz
  1  'x, y, z'
loop_
 _atom_site_type_symbol
 _atom_site_label
 _atom_site_symmetry_multiplicity
 _atom_site_fract_x
 _atom_site_fract_y
 _atom_site_fract_z
 _atom_site_occupancy
  Lu  Lu0  1  0.500567  0.500000  0.499433  1
  Lu  Lu1  1  0.000000  0.500000  0.000000  1
  Lu  Lu2  1  0.998865  0.999433  0.499433  1
  Lu  Lu3  1  0.500567  0.000567  0.001135  1
  Ge  Ge4  1  0.689060  0.999475  0.680910  1
  Ge  Ge5  1  0.319090  0.000525  0.310940  1
  Ge  Ge6  1  0.991849  0.310416  0.310940  1
  Ge  Ge7  1  0.991849  0.681435  0.680910  1
  Ge  Ge8  1  0.689060  0.689584  0.008151  1
  Ge  Ge9  1  0.319090  0.318565  0.008151  1
  Ir  Ir10  1  0.500226  0.750114  0.250114  1
  Ir  Ir11  1  0.749886  0.500000  0.250114  1
  Ir  Ir12  1  0.000000  0.000000  0.000000  1
  Ir  Ir13  1  0.749886  0.249886  0.499774  1
  Pt  Pt14  1  0.249667  0.500000  0.750333  1
  Pt  Pt15  1  0.249667  0.749667  0.499333  1
  Pt  Pt16  1  0.500667  0.250333  0.750333  1
