# generated using pymatgen
data_Tb4Pr(Hg2Pd)2
_symmetry_space_group_name_H-M   'P 1'
_cell_length_a   7.98300700
_cell_length_b   18.44441700
_cell_length_c   3.70067400
_cell_angle_alpha   90.00000000
_cell_angle_beta   90.00000000
_cell_angle_gamma   90.00000000
_symmetry_Int_Tables_number   1
_chemical_formula_structural   Tb4Pr(Hg2Pd)2
_chemical_formula_sum   'Tb8 Pr2 Hg8 Pd4'
_cell_volume   544.89430813
_cell_formula_units_Z   2
loop_
 _symmetry_equiv_pos_site_id
 _symmetry_equiv_pos_as_xyz
  1  'x, y, z'
loop_
 _atom_site_type_symbol
 _atom_site_label
 _atom_site_symmetry_multiplicity
 _atom_site_fract_x
 _atom_site_fract_y
 _atom_site_fract_z
 _atom_site_occupancy
  Tb  Tb0  1  0.735612  0.284141  0.000000  1
  Tb  Tb1  1  0.264388  0.715859  0.000000  1
  Tb  Tb2  1  0.764388  0.784141  0.000000  1
  Tb  Tb3  1  0.235612  0.215859  0.000000  1
  Tb  Tb4  1  0.615273  0.085926  0.000000  1
  Tb  Tb5  1  0.384727  0.914074  0.000000  1
  Tb  Tb6  1  0.884727  0.585926  0.000000  1
  Tb  Tb7  1  0.115273  0.414074  0.000000  1
  Pr  Pr8  1  0.500000  0.500000  0.000000  1
  Pr  Pr9  1  0.000000  0.000000  0.000000  1
  Hg  Hg10  1  0.703159  0.932845  0.500000  1
  Hg  Hg11  1  0.296841  0.067155  0.500000  1
  Hg  Hg12  1  0.796841  0.432845  0.500000  1
  Hg  Hg13  1  0.203159  0.567155  0.500000  1
  Hg  Hg14  1  0.583580  0.650936  0.500000  1
  Hg  Hg15  1  0.416420  0.349064  0.500000  1
  Hg  Hg16  1  0.916420  0.150936  0.500000  1
  Hg  Hg17  1  0.083580  0.849064  0.500000  1
  Pd  Pd18  1  0.525415  0.196424  0.500000  1
  Pd  Pd19  1  0.474585  0.803576  0.500000  1
  Pd  Pd20  1  0.974585  0.696424  0.500000  1
  Pd  Pd21  1  0.025415  0.303576  0.500000  1
