# generated using pymatgen
data_CaYb2Tm(ReB4)4
_symmetry_space_group_name_H-M   'P 1'
_cell_length_a   3.57505400
_cell_length_b   5.98539344
_cell_length_c   11.57134604
_cell_angle_alpha   90.07244826
_cell_angle_beta   90.00000000
_cell_angle_gamma   90.00000000
_symmetry_Int_Tables_number   1
_chemical_formula_structural   CaYb2Tm(ReB4)4
_chemical_formula_sum   'Ca1 Yb2 Tm1 Re4 B16'
_cell_volume   247.60467679
_cell_formula_units_Z   1
loop_
 _symmetry_equiv_pos_site_id
 _symmetry_equiv_pos_as_xyz
  1  'x, y, z'
loop_
 _atom_site_type_symbol
 _atom_site_label
 _atom_site_symmetry_multiplicity
 _atom_site_fract_x
 _atom_site_fract_y
 _atom_site_fract_z
 _atom_site_occupancy
  Ca  Ca0  1  0.500000  0.628181  0.848471  1
  Yb  Yb1  1  0.500000  0.128444  0.649800  1
  Yb  Yb2  1  0.500000  0.872353  0.351060  1
  Tm  Tm3  1  0.500000  0.371573  0.150552  1
  Re  Re4  1  0.500000  0.369652  0.414984  1
  Re  Re5  1  0.500000  0.631245  0.583048  1
  Re  Re6  1  0.500000  0.132230  0.917159  1
  Re  Re7  1  0.500000  0.869812  0.085794  1
  B  B8  1  0.000000  0.113640  0.048284  1
  B  B9  1  0.000000  0.885907  0.952826  1
  B  B10  1  0.000000  0.384979  0.546937  1
  B  B11  1  0.000000  0.614238  0.451732  1
  B  B12  1  0.000000  0.134605  0.467640  1
  B  B13  1  0.000000  0.865111  0.531749  1
  B  B14  1  0.000000  0.364401  0.968930  1
  B  B15  1  0.000000  0.635223  0.032411  1
  B  B16  1  0.000000  0.024010  0.193077  1
  B  B17  1  0.000000  0.977567  0.807703  1
  B  B18  1  0.000000  0.475796  0.691897  1
  B  B19  1  0.000000  0.523734  0.306813  1
  B  B20  1  0.000000  0.214018  0.314752  1
  B  B21  1  0.000000  0.785468  0.684328  1
  B  B22  1  0.000000  0.283253  0.814774  1
  B  B23  1  0.000000  0.714558  0.185280  1
