# generated using pymatgen
data_DyY3Ho2(CoSn6)2
_symmetry_space_group_name_H-M   'P 1'
_cell_length_a   8.47918148
_cell_length_b   8.47918185
_cell_length_c   13.14562729
_cell_angle_alpha   89.99340383
_cell_angle_beta   90.00659704
_cell_angle_gamma   148.80550145
_symmetry_Int_Tables_number   1
_chemical_formula_structural   DyY3Ho2(CoSn6)2
_chemical_formula_sum   'Dy1 Y3 Ho2 Co2 Sn12'
_cell_volume   489.52258467
_cell_formula_units_Z   1
loop_
 _symmetry_equiv_pos_site_id
 _symmetry_equiv_pos_as_xyz
  1  'x, y, z'
loop_
 _atom_site_type_symbol
 _atom_site_label
 _atom_site_symmetry_multiplicity
 _atom_site_fract_x
 _atom_site_fract_y
 _atom_site_fract_z
 _atom_site_occupancy
  Dy  Dy0  1  0.898614  0.101386  0.093358  1
  Y  Y1  1  0.101037  0.898963  0.593497  1
  Y  Y2  1  0.100637  0.899363  0.906857  1
  Y  Y3  1  0.899304  0.100696  0.406285  1
  Ho  Ho4  1  0.900353  0.099647  0.751518  1
  Ho  Ho5  1  0.099773  0.900227  0.248907  1
  Co  Co6  1  0.299625  0.700375  0.249970  1
  Co  Co7  1  0.700544  0.299456  0.749633  1
  Sn  Sn8  1  0.757165  0.242835  0.571693  1
  Sn  Sn9  1  0.427517  0.572483  0.577201  1
  Sn  Sn10  1  0.572287  0.427713  0.423324  1
  Sn  Sn11  1  0.733627  0.266373  0.249575  1
  Sn  Sn12  1  0.266576  0.733424  0.750278  1
  Sn  Sn13  1  0.243865  0.756135  0.071803  1
  Sn  Sn14  1  0.243483  0.756517  0.427977  1
  Sn  Sn15  1  0.572115  0.427885  0.076002  1
  Sn  Sn16  1  0.453946  0.546054  0.249279  1
  Sn  Sn17  1  0.546019  0.453981  0.750253  1
  Sn  Sn18  1  0.756158  0.243842  0.928222  1
  Sn  Sn19  1  0.427354  0.572646  0.924367  1
