# generated using pymatgen
data_Al3ZnPd7Pt
_symmetry_space_group_name_H-M   'P 1'
_cell_length_a   4.10872400
_cell_length_b   5.49676450
_cell_length_c   7.87156864
_cell_angle_alpha   89.67315251
_cell_angle_beta   90.00000000
_cell_angle_gamma   90.00000000
_symmetry_Int_Tables_number   1
_chemical_formula_structural   Al3ZnPd7Pt
_chemical_formula_sum   'Al3 Zn1 Pd7 Pt1'
_cell_volume   177.77403089
_cell_formula_units_Z   1
loop_
 _symmetry_equiv_pos_site_id
 _symmetry_equiv_pos_as_xyz
  1  'x, y, z'
loop_
 _atom_site_type_symbol
 _atom_site_label
 _atom_site_symmetry_multiplicity
 _atom_site_fract_x
 _atom_site_fract_y
 _atom_site_fract_z
 _atom_site_occupancy
  Al  Al0  1  0.250000  0.197005  0.103492  1
  Al  Al1  1  0.750000  0.303618  0.603998  1
  Al  Al2  1  0.250000  0.690578  0.396816  1
  Zn  Zn3  1  0.750000  0.807933  0.895004  1
  Pd  Pd4  1  0.250000  0.540810  0.714247  1
  Pd  Pd5  1  0.750000  0.962160  0.214786  1
  Pd  Pd6  1  0.250000  0.045945  0.783893  1
  Pd  Pd7  1  0.750000  0.331745  0.933184  1
  Pd  Pd8  1  0.250000  0.665197  0.070988  1
  Pd  Pd9  1  0.750000  0.832739  0.564466  1
  Pd  Pd10  1  0.250000  0.162370  0.432401  1
  Pt  Pt11  1  0.750000  0.459897  0.286721  1
