# generated using pymatgen
data_HoTh(SiRh2)2
_symmetry_space_group_name_H-M   'P 1'
_cell_length_a   9.19370336
_cell_length_b   9.19370256
_cell_length_c   4.09169200
_cell_angle_alpha   90.00000000
_cell_angle_beta   90.00000000
_cell_angle_gamma   154.83228253
_symmetry_Int_Tables_number   1
_chemical_formula_structural   HoTh(SiRh2)2
_chemical_formula_sum   'Ho1 Th1 Si2 Rh4'
_cell_volume   147.07810219
_cell_formula_units_Z   1
loop_
 _symmetry_equiv_pos_site_id
 _symmetry_equiv_pos_as_xyz
  1  'x, y, z'
loop_
 _atom_site_type_symbol
 _atom_site_label
 _atom_site_symmetry_multiplicity
 _atom_site_fract_x
 _atom_site_fract_y
 _atom_site_fract_z
 _atom_site_occupancy
  Ho  Ho0  1  0.102247  0.897753  0.750000  1
  Th  Th1  1  0.903575  0.096425  0.250000  1
  Si  Si2  1  0.320258  0.679742  0.750000  1
  Si  Si3  1  0.676564  0.323436  0.250000  1
  Rh  Rh4  1  0.547528  0.452472  0.250000  1
  Rh  Rh5  1  0.452487  0.547513  0.750000  1
  Rh  Rh6  1  0.249079  0.750921  0.250000  1
  Rh  Rh7  1  0.748262  0.251738  0.750000  1
