# generated using pymatgen
data_Y3HoAl4(CoO5)4
_symmetry_space_group_name_H-M   'P 1'
_cell_length_a   5.64471900
_cell_length_b   7.22283546
_cell_length_c   8.32694753
_cell_angle_alpha   89.95911391
_cell_angle_beta   90.00000000
_cell_angle_gamma   90.00000000
_symmetry_Int_Tables_number   1
_chemical_formula_structural   Y3HoAl4(CoO5)4
_chemical_formula_sum   'Y3 Ho1 Al4 Co4 O20'
_cell_volume   339.49686338
_cell_formula_units_Z   1
loop_
 _symmetry_equiv_pos_site_id
 _symmetry_equiv_pos_as_xyz
  1  'x, y, z'
loop_
 _atom_site_type_symbol
 _atom_site_label
 _atom_site_symmetry_multiplicity
 _atom_site_fract_x
 _atom_site_fract_y
 _atom_site_fract_z
 _atom_site_occupancy
  Y  Y0  1  0.500000  0.634868  0.669346  1
  Y  Y1  1  0.500000  0.135315  0.830394  1
  Y  Y2  1  0.500000  0.864841  0.169594  1
  Ho  Ho3  1  0.500000  0.364785  0.330499  1
  Al  Al4  1  0.000000  0.109210  0.143245  1
  Al  Al5  1  0.000000  0.891022  0.857035  1
  Al  Al6  1  0.000000  0.391007  0.642655  1
  Al  Al7  1  0.000000  0.608503  0.356918  1
  Co  Co8  1  0.245624  0.000373  0.499833  1
  Co  Co9  1  0.754376  0.000373  0.499833  1
  Co  Co10  1  0.754322  0.499903  0.000297  1
  Co  Co11  1  0.245678  0.499903  0.000297  1
  O  O12  1  0.500000  0.340652  0.056078  1
  O  O13  1  0.500000  0.659184  0.945146  1
  O  O14  1  0.500000  0.160073  0.554399  1
  O  O15  1  0.500000  0.840934  0.445046  1
  O  O16  1  0.219819  0.999987  0.000156  1
  O  O17  1  0.780181  0.999987  0.000156  1
  O  O18  1  0.779499  0.499035  0.499289  1
  O  O19  1  0.220501  0.499035  0.499289  1
  O  O20  1  0.250032  0.105910  0.291815  1
  O  O21  1  0.750468  0.895486  0.708243  1
  O  O22  1  0.249532  0.895486  0.708243  1
  O  O23  1  0.750573  0.395491  0.791681  1
  O  O24  1  0.749968  0.105910  0.291815  1
  O  O25  1  0.250113  0.603685  0.208643  1
  O  O26  1  0.749887  0.603685  0.208643  1
  O  O27  1  0.249427  0.395491  0.791681  1
  O  O28  1  0.000000  0.346347  0.070913  1
  O  O29  1  0.000000  0.653677  0.929104  1
  O  O30  1  0.000000  0.153604  0.570927  1
  O  O31  1  0.000000  0.846240  0.428787  1
