# generated using pymatgen
data_DyHo3Er8(GaCo2)2
_symmetry_space_group_name_H-M   'P 1'
_cell_length_a   8.23541403
_cell_length_b   8.23541451
_cell_length_c   8.22677495
_cell_angle_alpha   106.99619760
_cell_angle_beta   109.37649661
_cell_angle_gamma   112.12151878
_symmetry_Int_Tables_number   1
_chemical_formula_structural   DyHo3Er8(GaCo2)2
_chemical_formula_sum   'Dy1 Ho3 Er8 Ga2 Co4'
_cell_volume   428.44209016
_cell_formula_units_Z   1
loop_
 _symmetry_equiv_pos_site_id
 _symmetry_equiv_pos_as_xyz
  1  'x, y, z'
loop_
 _atom_site_type_symbol
 _atom_site_label
 _atom_site_symmetry_multiplicity
 _atom_site_fract_x
 _atom_site_fract_y
 _atom_site_fract_z
 _atom_site_occupancy
  Dy  Dy0  1  0.697748  0.262471  0.960218  1
  Ho  Ho1  1  0.301030  0.738096  0.039125  1
  Ho  Ho2  1  0.698260  0.738358  0.436620  1
  Ho  Ho3  1  0.301433  0.261708  0.563140  1
  Er  Er4  1  0.811492  0.137580  0.326544  1
  Er  Er5  1  0.811158  0.484749  0.672832  1
  Er  Er6  1  0.188083  0.861674  0.672832  1
  Er  Er7  1  0.188964  0.515052  0.326544  1
  Er  Er8  1  0.600624  0.780675  0.819976  1
  Er  Er9  1  0.961155  0.780888  0.180353  1
  Er  Er10  1  0.039303  0.219352  0.819976  1
  Er  Er11  1  0.399465  0.219197  0.180353  1
  Ga  Ga12  1  0.498935  0.501099  0.000033  1
  Ga  Ga13  1  0.499241  0.999551  0.498793  1
  Co  Co14  1  0.840857  0.500213  0.341070  1
  Co  Co15  1  0.160726  0.499816  0.660543  1
  Co  Co16  1  0.002169  0.114791  0.116960  1
  Co  Co17  1  0.999358  0.884730  0.884087  1
