# generated using pymatgen
data_HgOsBr6
_symmetry_space_group_name_H-M   'P 1'
_cell_length_a   7.02157377
_cell_length_b   7.02031743
_cell_length_c   7.05032324
_cell_angle_alpha   99.54644649
_cell_angle_beta   99.52453619
_cell_angle_gamma   119.85438887
_symmetry_Int_Tables_number   1
_chemical_formula_structural   HgOsBr6
_chemical_formula_sum   'Hg1 Os1 Br6'
_cell_volume   284.46870505
_cell_formula_units_Z   1
loop_
 _symmetry_equiv_pos_site_id
 _symmetry_equiv_pos_as_xyz
  1  'x, y, z'
loop_
 _atom_site_type_symbol
 _atom_site_label
 _atom_site_symmetry_multiplicity
 _atom_site_fract_x
 _atom_site_fract_y
 _atom_site_fract_z
 _atom_site_occupancy
  Hg  Hg0  1  0.832513  0.167345  0.999824  1
  Os  Os1  1  0.166355  0.833675  0.000054  1
  Br  Br2  1  0.526992  0.903500  0.216219  1
  Br  Br3  1  0.947305  0.615996  0.215291  1
  Br  Br4  1  0.238185  0.195259  0.216485  1
  Br  Br5  1  0.804716  0.761624  0.783544  1
  Br  Br6  1  0.383960  0.052783  0.784743  1
  Br  Br7  1  0.096696  0.473099  0.783845  1
