# generated using pymatgen
data_CaPrTc2C3
_symmetry_space_group_name_H-M   'P 1'
_cell_length_a   6.65312200
_cell_length_b   5.76112282
_cell_length_c   12.11929216
_cell_angle_alpha   66.76369326
_cell_angle_beta   90.00000000
_cell_angle_gamma   90.00000000
_symmetry_Int_Tables_number   1
_chemical_formula_structural   CaPrTc2C3
_chemical_formula_sum   'Ca4 Pr4 Tc8 C12'
_cell_volume   426.84606921
_cell_formula_units_Z   4
loop_
 _symmetry_equiv_pos_site_id
 _symmetry_equiv_pos_as_xyz
  1  'x, y, z'
loop_
 _atom_site_type_symbol
 _atom_site_label
 _atom_site_symmetry_multiplicity
 _atom_site_fract_x
 _atom_site_fract_y
 _atom_site_fract_z
 _atom_site_occupancy
  Ca  Ca0  1  0.798043  0.678262  0.912724  1
  Ca  Ca1  1  0.298043  0.321738  0.587276  1
  Ca  Ca2  1  0.201957  0.321738  0.087276  1
  Ca  Ca3  1  0.701957  0.678262  0.412724  1
  Pr  Pr4  1  0.993440  0.724483  0.637655  1
  Pr  Pr5  1  0.493440  0.275517  0.862345  1
  Pr  Pr6  1  0.006560  0.275517  0.362345  1
  Pr  Pr7  1  0.506560  0.724483  0.137655  1
  Tc  Tc8  1  0.992120  0.821645  0.117963  1
  Tc  Tc9  1  0.492120  0.178355  0.382037  1
  Tc  Tc10  1  0.007880  0.178355  0.882037  1
  Tc  Tc11  1  0.507880  0.821645  0.617963  1
  Tc  Tc12  1  0.754329  0.174794  0.664090  1
  Tc  Tc13  1  0.245671  0.825206  0.335910  1
  Tc  Tc14  1  0.745671  0.174794  0.164090  1
  Tc  Tc15  1  0.254329  0.825206  0.835910  1
  C  C16  1  0.629804  0.506201  0.641270  1
  C  C17  1  0.129804  0.493799  0.858730  1
  C  C18  1  0.370196  0.493799  0.358730  1
  C  C19  1  0.870196  0.506201  0.141270  1
  C  C20  1  0.217338  0.916326  0.989476  1
  C  C21  1  0.717338  0.083674  0.510524  1
  C  C22  1  0.782662  0.083674  0.010524  1
  C  C23  1  0.282662  0.916326  0.489476  1
  C  C24  1  0.481294  0.049904  0.243803  1
  C  C25  1  0.018706  0.049904  0.743803  1
  C  C26  1  0.981294  0.950096  0.256197  1
  C  C27  1  0.518706  0.950096  0.756197  1
