# generated using pymatgen
data_Ba2ZrCu2S5
_symmetry_space_group_name_H-M   'P 1'
_cell_length_a   3.97974249
_cell_length_b   7.16772656
_cell_length_c   8.96137801
_cell_angle_alpha   103.94101349
_cell_angle_beta   102.82944969
_cell_angle_gamma   106.11793372
_symmetry_Int_Tables_number   1
_chemical_formula_structural   Ba2ZrCu2S5
_chemical_formula_sum   'Ba2 Zr1 Cu2 S5'
_cell_volume   226.61487577
_cell_formula_units_Z   1
loop_
 _symmetry_equiv_pos_site_id
 _symmetry_equiv_pos_as_xyz
  1  'x, y, z'
loop_
 _atom_site_type_symbol
 _atom_site_label
 _atom_site_symmetry_multiplicity
 _atom_site_fract_x
 _atom_site_fract_y
 _atom_site_fract_z
 _atom_site_occupancy
  Ba  Ba0  1  0.475107  0.653113  0.297100  1
  Ba  Ba1  1  0.524893  0.346887  0.702900  1
  Zr  Zr2  1  0.000000  0.000000  0.000000  1
  Cu  Cu3  1  0.737702  0.185248  0.290157  1
  Cu  Cu4  1  0.262298  0.814752  0.709843  1
  S  S5  1  0.663632  0.272507  0.054758  1
  S  S6  1  0.155713  0.011770  0.299656  1
  S  S7  1  0.000001  0.500001  0.500000  1
  S  S8  1  0.844287  0.988230  0.700345  1
  S  S9  1  0.336369  0.727495  0.945242  1
