# generated using pymatgen
data_Y10IrPd3Ru2
_symmetry_space_group_name_H-M   'P 1'
_cell_length_a   11.06084761
_cell_length_b   11.03647400
_cell_length_c   6.44394295
_cell_angle_alpha   90.00000000
_cell_angle_beta   89.82014116
_cell_angle_gamma   90.00000000
_symmetry_Int_Tables_number   1
_chemical_formula_structural   Y10IrPd3Ru2
_chemical_formula_sum   'Y20 Ir2 Pd6 Ru4'
_cell_volume   786.62600600
_cell_formula_units_Z   2
loop_
 _symmetry_equiv_pos_site_id
 _symmetry_equiv_pos_as_xyz
  1  'x, y, z'
loop_
 _atom_site_type_symbol
 _atom_site_label
 _atom_site_symmetry_multiplicity
 _atom_site_fract_x
 _atom_site_fract_y
 _atom_site_fract_z
 _atom_site_occupancy
  Y  Y0  1  0.297224  0.090322  0.371593  1
  Y  Y1  1  0.297224  0.909678  0.871593  1
  Y  Y2  1  0.700251  0.084866  0.867843  1
  Y  Y3  1  0.700251  0.915134  0.367843  1
  Y  Y4  1  0.579567  0.793091  0.869154  1
  Y  Y5  1  0.579567  0.206909  0.369154  1
  Y  Y6  1  0.410941  0.795413  0.377360  1
  Y  Y7  1  0.410941  0.204587  0.877360  1
  Y  Y8  1  0.209302  0.416253  0.623889  1
  Y  Y9  1  0.209302  0.583747  0.123889  1
  Y  Y10  1  0.798971  0.414105  0.128513  1
  Y  Y11  1  0.798971  0.585895  0.628513  1
  Y  Y12  1  0.917104  0.702030  0.130519  1
  Y  Y13  1  0.917104  0.297970  0.630519  1
  Y  Y14  1  0.092807  0.701491  0.630809  1
  Y  Y15  1  0.092807  0.298509  0.130809  1
  Y  Y16  1  0.998846  0.998646  0.499177  1
  Y  Y17  1  0.998846  0.001354  0.999177  1
  Y  Y18  1  0.495986  0.498310  0.000600  1
  Y  Y19  1  0.495986  0.501690  0.500600  1
  Ir  Ir20  1  0.348059  0.345266  0.250925  1
  Ir  Ir21  1  0.348059  0.654734  0.750925  1
  Pd  Pd22  1  0.844253  0.153755  0.251070  1
  Pd  Pd23  1  0.844253  0.846245  0.751070  1
  Pd  Pd24  1  0.152523  0.153984  0.748517  1
  Pd  Pd25  1  0.152523  0.846016  0.248517  1
  Pd  Pd26  1  0.654857  0.346271  0.749599  1
  Pd  Pd27  1  0.654857  0.653729  0.249599  1
  Ru  Ru28  1  0.500078  0.999830  0.124378  1
  Ru  Ru29  1  0.500078  0.000170  0.624378  1
  Ru  Ru30  1  0.999230  0.500149  0.876053  1
  Ru  Ru31  1  0.999230  0.499851  0.376053  1
