# generated using pymatgen
data_Nd2Th2BeNiB20
_symmetry_space_group_name_H-M   'P 1'
_cell_length_a   4.17564700
_cell_length_b   5.61820513
_cell_length_c   11.13680692
_cell_angle_alpha   89.86925594
_cell_angle_beta   90.00000000
_cell_angle_gamma   90.00000000
_symmetry_Int_Tables_number   1
_chemical_formula_structural   Nd2Th2BeNiB20
_chemical_formula_sum   'Nd2 Th2 Be1 Ni1 B20'
_cell_volume   261.26481643
_cell_formula_units_Z   1
loop_
 _symmetry_equiv_pos_site_id
 _symmetry_equiv_pos_as_xyz
  1  'x, y, z'
loop_
 _atom_site_type_symbol
 _atom_site_label
 _atom_site_symmetry_multiplicity
 _atom_site_fract_x
 _atom_site_fract_y
 _atom_site_fract_z
 _atom_site_occupancy
  Nd  Nd0  1  0.500000  0.307874  0.863192  1
  Nd  Nd1  1  0.500000  0.692126  0.136808  1
  Th  Th2  1  0.500000  0.803795  0.634721  1
  Th  Th3  1  0.500000  0.196205  0.365279  1
  Be  Be4  1  0.000000  0.500000  0.500000  1
  Ni  Ni5  1  0.000000  0.000000  0.000000  1
  B  B6  1  0.000000  0.127702  0.539234  1
  B  B7  1  0.000000  0.872298  0.460766  1
  B  B8  1  0.000000  0.626382  0.958823  1
  B  B9  1  0.000000  0.373618  0.041177  1
  B  B10  1  0.000000  0.157116  0.695325  1
  B  B11  1  0.000000  0.842884  0.304675  1
  B  B12  1  0.300136  0.203198  0.115415  1
  B  B13  1  0.300136  0.796802  0.884585  1
  B  B14  1  0.700202  0.697829  0.389304  1
  B  B15  1  0.700202  0.302171  0.610696  1
  B  B16  1  0.699864  0.796802  0.884585  1
  B  B17  1  0.699864  0.203198  0.115415  1
  B  B18  1  0.299798  0.302171  0.610696  1
  B  B19  1  0.299798  0.697829  0.389304  1
  B  B20  1  0.000000  0.033342  0.189357  1
  B  B21  1  0.000000  0.966658  0.810643  1
  B  B22  1  0.000000  0.531310  0.315895  1
  B  B23  1  0.000000  0.468690  0.684105  1
  B  B24  1  0.000000  0.344324  0.199050  1
  B  B25  1  0.000000  0.655676  0.800950  1
