# generated using pymatgen
data_HoErGa9PdRu2
_symmetry_space_group_name_H-M   'P 1'
_cell_length_a   7.53435832
_cell_length_b   7.53522294
_cell_length_c   9.62122100
_cell_angle_alpha   90.00000000
_cell_angle_beta   90.00000000
_cell_angle_gamma   119.53668489
_symmetry_Int_Tables_number   1
_chemical_formula_structural   HoErGa9PdRu2
_chemical_formula_sum   'Ho2 Er2 Ga18 Pd2 Ru4'
_cell_volume   475.23881363
_cell_formula_units_Z   2
loop_
 _symmetry_equiv_pos_site_id
 _symmetry_equiv_pos_as_xyz
  1  'x, y, z'
loop_
 _atom_site_type_symbol
 _atom_site_label
 _atom_site_symmetry_multiplicity
 _atom_site_fract_x
 _atom_site_fract_y
 _atom_site_fract_z
 _atom_site_occupancy
  Ho  Ho0  1  0.997218  0.671594  0.250000  1
  Ho  Ho1  1  0.002782  0.328406  0.750000  1
  Er  Er2  1  0.671338  0.997555  0.250000  1
  Er  Er3  1  0.328662  0.002445  0.750000  1
  Ga  Ga4  1  0.131698  0.131881  0.250000  1
  Ga  Ga5  1  0.868302  0.868119  0.750000  1
  Ga  Ga6  1  0.003654  0.339238  0.080342  1
  Ga  Ga7  1  0.996346  0.660762  0.919658  1
  Ga  Ga8  1  0.996346  0.660762  0.580342  1
  Ga  Ga9  1  0.339773  0.003710  0.419829  1
  Ga  Ga10  1  0.003654  0.339238  0.419658  1
  Ga  Ga11  1  0.660227  0.996290  0.580171  1
  Ga  Ga12  1  0.660227  0.996290  0.919829  1
  Ga  Ga13  1  0.339773  0.003710  0.080171  1
  Ga  Ga14  1  0.341532  0.341292  0.565823  1
  Ga  Ga15  1  0.658468  0.658708  0.434177  1
  Ga  Ga16  1  0.658468  0.658708  0.065823  1
  Ga  Ga17  1  0.341532  0.341292  0.934177  1
  Ga  Ga18  1  0.335987  0.550847  0.250000  1
  Ga  Ga19  1  0.664013  0.449153  0.750000  1
  Ga  Ga20  1  0.550512  0.335568  0.250000  1
  Ga  Ga21  1  0.449488  0.664432  0.750000  1
  Pd  Pd22  1  0.000000  0.000000  0.000000  1
  Pd  Pd23  1  0.000000  0.000000  0.500000  1
  Ru  Ru24  1  0.674197  0.325675  0.000034  1
  Ru  Ru25  1  0.325803  0.674325  0.999966  1
  Ru  Ru26  1  0.325803  0.674325  0.500034  1
  Ru  Ru27  1  0.674197  0.325675  0.499966  1
