# generated using pymatgen
data_Pr2B4Ir4Rh
_symmetry_space_group_name_H-M   'P 1'
_cell_length_a   7.61814156
_cell_length_b   6.34501674
_cell_length_c   5.76131173
_cell_angle_alpha   77.82754583
_cell_angle_beta   54.50409747
_cell_angle_gamma   47.63272156
_symmetry_Int_Tables_number   1
_chemical_formula_structural   Pr2B4Ir4Rh
_chemical_formula_sum   'Pr2 B4 Ir4 Rh1'
_cell_volume   159.80472652
_cell_formula_units_Z   1
loop_
 _symmetry_equiv_pos_site_id
 _symmetry_equiv_pos_as_xyz
  1  'x, y, z'
loop_
 _atom_site_type_symbol
 _atom_site_label
 _atom_site_symmetry_multiplicity
 _atom_site_fract_x
 _atom_site_fract_y
 _atom_site_fract_z
 _atom_site_occupancy
  Pr  Pr0  1  0.857069  0.857069  0.142931  1
  Pr  Pr1  1  0.142931  0.142931  0.857069  1
  B  B2  1  0.209367  0.527930  0.472137  1
  B  B3  1  0.790633  0.472070  0.527863  1
  B  B4  1  0.527930  0.209367  0.790567  1
  B  B5  1  0.472070  0.790633  0.209433  1
  Ir  Ir6  1  0.749719  0.749719  0.750281  1
  Ir  Ir7  1  0.250281  0.250281  0.249719  1
  Ir  Ir8  1  0.000000  0.000000  0.500000  1
  Ir  Ir9  1  0.500000  0.500000  0.500000  1
  Rh  Rh10  1  0.500000  0.500000  0.000000  1
