# generated using pymatgen
data_Ho7Er3(Bi2As)2
_symmetry_space_group_name_H-M   'P 1'
_cell_length_a   8.01436300
_cell_length_b   9.11299000
_cell_length_c   12.02075000
_cell_angle_alpha   90.00000000
_cell_angle_beta   90.00000000
_cell_angle_gamma   89.99719671
_symmetry_Int_Tables_number   1
_chemical_formula_structural   Ho7Er3(Bi2As)2
_chemical_formula_sum   'Ho14 Er6 Bi8 As4'
_cell_volume   877.93319028
_cell_formula_units_Z   2
loop_
 _symmetry_equiv_pos_site_id
 _symmetry_equiv_pos_as_xyz
  1  'x, y, z'
loop_
 _atom_site_type_symbol
 _atom_site_label
 _atom_site_symmetry_multiplicity
 _atom_site_fract_x
 _atom_site_fract_y
 _atom_site_fract_z
 _atom_site_occupancy
  Ho  Ho0  1  0.817105  0.943661  0.062903  1
  Ho  Ho1  1  0.682895  0.556339  0.562903  1
  Ho  Ho2  1  0.156354  0.749953  0.210869  1
  Ho  Ho3  1  0.343646  0.750047  0.710869  1
  Ho  Ho4  1  0.843664  0.249991  0.789200  1
  Ho  Ho5  1  0.656336  0.250009  0.289200  1
  Ho  Ho6  1  0.463638  0.749981  0.999945  1
  Ho  Ho7  1  0.036362  0.750019  0.499945  1
  Ho  Ho8  1  0.536185  0.250021  0.000064  1
  Ho  Ho9  1  0.963815  0.249979  0.500064  1
  Ho  Ho10  1  0.634295  0.749960  0.292718  1
  Ho  Ho11  1  0.865705  0.750040  0.792718  1
  Ho  Ho12  1  0.365631  0.250001  0.707280  1
  Ho  Ho13  1  0.134369  0.249999  0.207280  1
  Er  Er14  1  0.817285  0.556500  0.062913  1
  Er  Er15  1  0.682715  0.943500  0.562913  1
  Er  Er16  1  0.182828  0.056616  0.937076  1
  Er  Er17  1  0.317172  0.443384  0.437076  1
  Er  Er18  1  0.182796  0.443397  0.937124  1
  Er  Er19  1  0.317204  0.056603  0.437124  1
  Bi  Bi20  1  0.925546  0.509999  0.326779  1
  Bi  Bi21  1  0.574454  0.990001  0.826779  1
  Bi  Bi22  1  0.074468  0.009992  0.673163  1
  Bi  Bi23  1  0.425532  0.490008  0.173163  1
  Bi  Bi24  1  0.074483  0.490025  0.673193  1
  Bi  Bi25  1  0.425517  0.009975  0.173193  1
  Bi  Bi26  1  0.925596  0.990024  0.326876  1
  Bi  Bi27  1  0.574404  0.509976  0.826876  1
  As  As28  1  0.412716  0.750155  0.478479  1
  As  As29  1  0.087284  0.749845  0.978479  1
  As  As30  1  0.587028  0.249697  0.521417  1
  As  As31  1  0.912972  0.250303  0.021417  1
