# generated using pymatgen
data_RbGe2HO5
_symmetry_space_group_name_H-M   'P 1'
_cell_length_a   8.67562100
_cell_length_b   13.38111600
_cell_length_c   5.04299400
_cell_angle_alpha   90.00000000
_cell_angle_beta   90.00000000
_cell_angle_gamma   90.00000000
_symmetry_Int_Tables_number   1
_chemical_formula_structural   RbGe2HO5
_chemical_formula_sum   'Rb4 Ge8 H4 O20'
_cell_volume   585.43860644
_cell_formula_units_Z   4
loop_
 _symmetry_equiv_pos_site_id
 _symmetry_equiv_pos_as_xyz
  1  'x, y, z'
loop_
 _atom_site_type_symbol
 _atom_site_label
 _atom_site_symmetry_multiplicity
 _atom_site_fract_x
 _atom_site_fract_y
 _atom_site_fract_z
 _atom_site_occupancy
  Rb  Rb0  1  0.750000  0.460599  0.028673  1
  Rb  Rb1  1  0.750000  0.960599  0.471327  1
  Rb  Rb2  1  0.250000  0.039401  0.528674  1
  Rb  Rb3  1  0.250000  0.539401  0.971327  1
  Ge  Ge4  1  0.561805  0.185062  0.014378  1
  Ge  Ge5  1  0.938196  0.185062  0.014378  1
  Ge  Ge6  1  0.561805  0.685062  0.485620  1
  Ge  Ge7  1  0.938196  0.685062  0.485620  1
  Ge  Ge8  1  0.061805  0.314938  0.514379  1
  Ge  Ge9  1  0.438196  0.314938  0.514379  1
  Ge  Ge10  1  0.061805  0.814938  0.985620  1
  Ge  Ge11  1  0.438196  0.814938  0.985620  1
  H  H12  1  0.000000  0.000000  0.000000  1
  H  H13  1  0.500000  0.000000  0.000000  1
  H  H14  1  0.000000  0.500000  0.500000  1
  H  H15  1  0.500000  0.500000  0.500000  1
  O  O16  1  0.250000  0.815442  0.131971  1
  O  O17  1  0.506997  0.071223  0.150681  1
  O  O18  1  0.993004  0.071223  0.150681  1
  O  O19  1  0.563938  0.786649  0.256441  1
  O  O20  1  0.936062  0.786649  0.256441  1
  O  O21  1  0.563938  0.286649  0.243559  1
  O  O22  1  0.936062  0.286649  0.243559  1
  O  O23  1  0.506997  0.571223  0.349319  1
  O  O24  1  0.993004  0.571223  0.349319  1
  O  O25  1  0.250000  0.315442  0.368029  1
  O  O26  1  0.750000  0.684558  0.631972  1
  O  O27  1  0.006997  0.428777  0.650682  1
  O  O28  1  0.493003  0.428777  0.650682  1
  O  O29  1  0.063938  0.713351  0.756442  1
  O  O30  1  0.436062  0.713351  0.756442  1
  O  O31  1  0.063938  0.213351  0.743559  1
  O  O32  1  0.436062  0.213351  0.743559  1
  O  O33  1  0.006997  0.928777  0.849319  1
  O  O34  1  0.493003  0.928777  0.849319  1
  O  O35  1  0.750000  0.184558  0.868029  1
