# generated using pymatgen
data_SrPu2F11
_symmetry_space_group_name_H-M   'P 1'
_cell_length_a   8.70807937
_cell_length_b   8.70808016
_cell_length_c   8.70808100
_cell_angle_alpha   122.65915595
_cell_angle_beta   107.48235364
_cell_angle_gamma   99.20386278
_symmetry_Int_Tables_number   1
_chemical_formula_structural   SrPu2F11
_chemical_formula_sum   'Sr2 Pu4 F22'
_cell_volume   485.74150671
_cell_formula_units_Z   2
loop_
 _symmetry_equiv_pos_site_id
 _symmetry_equiv_pos_as_xyz
  1  'x, y, z'
loop_
 _atom_site_type_symbol
 _atom_site_label
 _atom_site_symmetry_multiplicity
 _atom_site_fract_x
 _atom_site_fract_y
 _atom_site_fract_z
 _atom_site_occupancy
  Sr  Sr0  1  0.750000  0.250000  0.500000  1
  Sr  Sr1  1  0.250000  0.750000  0.500000  1
  Pu  Pu2  1  0.677518  0.652025  0.329544  1
  Pu  Pu3  1  0.322482  0.347975  0.670456  1
  Pu  Pu4  1  0.177518  0.847975  0.025493  1
  Pu  Pu5  1  0.822482  0.152025  0.974507  1
  F  F6  1  0.696026  0.895447  0.330287  1
  F  F7  1  0.303974  0.104553  0.669713  1
  F  F8  1  0.565158  0.365738  0.669713  1
  F  F9  1  0.934842  0.604553  0.800578  1
  F  F10  1  0.434842  0.634262  0.330287  1
  F  F11  1  0.065158  0.395447  0.199422  1
  F  F12  1  0.803974  0.134262  0.199422  1
  F  F13  1  0.196026  0.865738  0.800578  1
  F  F14  1  0.500000  0.500000  0.000000  1
  F  F15  1  0.000000  0.000000  0.000000  1
  F  F16  1  0.789896  0.862679  0.652574  1
  F  F17  1  0.210104  0.137321  0.347426  1
  F  F18  1  0.289896  0.637321  0.927217  1
  F  F19  1  0.710104  0.362679  0.072783  1
  F  F20  1  0.942622  0.724059  0.391906  1
  F  F21  1  0.057378  0.275941  0.608094  1
  F  F22  1  0.332154  0.550717  0.608094  1
  F  F23  1  0.167846  0.775941  0.218562  1
  F  F24  1  0.667846  0.449283  0.391906  1
  F  F25  1  0.832154  0.224059  0.781438  1
  F  F26  1  0.557378  0.949283  0.781438  1
  F  F27  1  0.442622  0.050717  0.218562  1
