# generated using pymatgen
data_Nd5Ho11Cd4Ir3Pd
_symmetry_space_group_name_H-M   'P 1'
_cell_length_a   9.71166128
_cell_length_b   9.70722186
_cell_length_c   9.70722240
_cell_angle_alpha   60.15573470
_cell_angle_beta   60.12890617
_cell_angle_gamma   60.12892261
_symmetry_Int_Tables_number   1
_chemical_formula_structural   Nd5Ho11Cd4Ir3Pd
_chemical_formula_sum   'Nd5 Ho11 Cd4 Ir3 Pd1'
_cell_volume   649.11626802
_cell_formula_units_Z   1
loop_
 _symmetry_equiv_pos_site_id
 _symmetry_equiv_pos_as_xyz
  1  'x, y, z'
loop_
 _atom_site_type_symbol
 _atom_site_label
 _atom_site_symmetry_multiplicity
 _atom_site_fract_x
 _atom_site_fract_y
 _atom_site_fract_z
 _atom_site_occupancy
  Nd  Nd0  1  0.560129  0.941325  0.941325  1
  Nd  Nd1  1  0.563240  0.938810  0.560475  1
  Nd  Nd2  1  0.940714  0.561412  0.937285  1
  Nd  Nd3  1  0.563240  0.560475  0.938810  1
  Nd  Nd4  1  0.940714  0.937285  0.561412  1
  Ho  Ho5  1  0.347008  0.346601  0.346601  1
  Ho  Ho6  1  0.352214  0.354548  0.951243  1
  Ho  Ho7  1  0.352214  0.951243  0.354548  1
  Ho  Ho8  1  0.949046  0.353389  0.353389  1
  Ho  Ho9  1  0.805869  0.188257  0.188257  1
  Ho  Ho10  1  0.185434  0.812902  0.812902  1
  Ho  Ho11  1  0.187520  0.805630  0.190212  1
  Ho  Ho12  1  0.812974  0.186630  0.811535  1
  Ho  Ho13  1  0.187520  0.190212  0.805630  1
  Ho  Ho14  1  0.812974  0.811535  0.186630  1
  Ho  Ho15  1  0.943470  0.557302  0.557302  1
  Cd  Cd16  1  0.582567  0.579311  0.579311  1
  Cd  Cd17  1  0.578614  0.579367  0.261482  1
  Cd  Cd18  1  0.578614  0.261482  0.579367  1
  Cd  Cd19  1  0.258757  0.578953  0.578953  1
  Ir  Ir20  1  0.139640  0.144856  0.574489  1
  Ir  Ir21  1  0.139640  0.574489  0.144856  1
  Ir  Ir22  1  0.574750  0.141206  0.141206  1
  Pd  Pd23  1  0.143135  0.142775  0.142775  1
