# generated using pymatgen
data_La10GaTcSb4
_symmetry_space_group_name_H-M   'P 1'
_cell_length_a   8.41053448
_cell_length_b   9.36390900
_cell_length_c   12.81104200
_cell_angle_alpha   90.00000000
_cell_angle_beta   89.30011246
_cell_angle_gamma   90.00000000
_symmetry_Int_Tables_number   1
_chemical_formula_structural   La10GaTcSb4
_chemical_formula_sum   'La20 Ga2 Tc2 Sb8'
_cell_volume   1008.86448236
_cell_formula_units_Z   2
loop_
 _symmetry_equiv_pos_site_id
 _symmetry_equiv_pos_as_xyz
  1  'x, y, z'
loop_
 _atom_site_type_symbol
 _atom_site_label
 _atom_site_symmetry_multiplicity
 _atom_site_fract_x
 _atom_site_fract_y
 _atom_site_fract_z
 _atom_site_occupancy
  La  La0  1  0.039516  0.750000  0.499164  1
  La  La1  1  0.960484  0.250000  0.500836  1
  La  La2  1  0.530002  0.250000  0.000729  1
  La  La3  1  0.469998  0.750000  0.999271  1
  La  La4  1  0.876387  0.750000  0.801783  1
  La  La5  1  0.123613  0.250000  0.198217  1
  La  La6  1  0.366289  0.250000  0.708075  1
  La  La7  1  0.633711  0.750000  0.291925  1
  La  La8  1  0.700987  0.535006  0.563946  1
  La  La9  1  0.299013  0.464994  0.436054  1
  La  La10  1  0.184912  0.472884  0.936882  1
  La  La11  1  0.299013  0.035006  0.436054  1
  La  La12  1  0.815088  0.527116  0.063118  1
  La  La13  1  0.700987  0.964994  0.563946  1
  La  La14  1  0.815088  0.972884  0.063118  1
  La  La15  1  0.184912  0.027116  0.936882  1
  La  La16  1  0.335016  0.750000  0.719940  1
  La  La17  1  0.664984  0.250000  0.280060  1
  La  La18  1  0.853309  0.250000  0.803000  1
  La  La19  1  0.146691  0.750000  0.197000  1
  Ga  Ga20  1  0.557718  0.250000  0.505983  1
  Ga  Ga21  1  0.442282  0.750000  0.494017  1
  Tc  Tc22  1  0.094760  0.750000  0.978138  1
  Tc  Tc23  1  0.905240  0.250000  0.021862  1
  Sb  Sb24  1  0.577059  0.506329  0.824106  1
  Sb  Sb25  1  0.422941  0.493671  0.175894  1
  Sb  Sb26  1  0.076440  0.489946  0.671627  1
  Sb  Sb27  1  0.422941  0.006329  0.175894  1
  Sb  Sb28  1  0.923560  0.510054  0.328373  1
  Sb  Sb29  1  0.577059  0.993671  0.824106  1
  Sb  Sb30  1  0.923560  0.989946  0.328373  1
  Sb  Sb31  1  0.076440  0.010054  0.671627  1
