# generated using pymatgen
data_Zr4Al2(IrRh)5
_symmetry_space_group_name_H-M   'P 1'
_cell_length_a   5.58925983
_cell_length_b   5.58923473
_cell_length_c   8.19420000
_cell_angle_alpha   90.00025830
_cell_angle_beta   89.99894587
_cell_angle_gamma   97.44076102
_symmetry_Int_Tables_number   1
_chemical_formula_structural   Zr4Al2(IrRh)5
_chemical_formula_sum   'Zr4 Al2 Ir5 Rh5'
_cell_volume   253.82865757
_cell_formula_units_Z   1
loop_
 _symmetry_equiv_pos_site_id
 _symmetry_equiv_pos_as_xyz
  1  'x, y, z'
loop_
 _atom_site_type_symbol
 _atom_site_label
 _atom_site_symmetry_multiplicity
 _atom_site_fract_x
 _atom_site_fract_y
 _atom_site_fract_z
 _atom_site_occupancy
  Zr  Zr0  1  0.778545  0.222244  0.500001  1
  Zr  Zr1  1  0.222393  0.777345  0.999998  1
  Zr  Zr2  1  0.222239  0.778535  0.500002  1
  Zr  Zr3  1  0.777341  0.222390  0.999999  1
  Al  Al4  1  0.500079  0.500081  0.749759  1
  Al  Al5  1  0.499633  0.499634  0.250251  1
  Ir  Ir6  1  0.717649  0.717648  0.000090  1
  Ir  Ir7  1  0.718219  0.718222  0.499913  1
  Ir  Ir8  1  0.281462  0.281464  0.999905  1
  Ir  Ir9  1  0.000248  0.000246  0.249697  1
  Ir  Ir10  1  0.000162  0.000157  0.750309  1
  Rh  Rh11  1  0.282897  0.282929  0.500044  1
  Rh  Rh12  1  0.499793  0.999799  0.749936  1
  Rh  Rh13  1  0.499786  0.999720  0.250068  1
  Rh  Rh14  1  0.999824  0.499806  0.749939  1
  Rh  Rh15  1  0.999731  0.499780  0.250092  1
