# generated using pymatgen
data_Er10Tl6In2Pd3Ru
_symmetry_space_group_name_H-M   'P 1'
_cell_length_a   3.58179100
_cell_length_b   8.18398916
_cell_length_c   18.36233733
_cell_angle_alpha   89.88321746
_cell_angle_beta   90.00000000
_cell_angle_gamma   90.00000000
_symmetry_Int_Tables_number   1
_chemical_formula_structural   Er10Tl6In2Pd3Ru
_chemical_formula_sum   'Er10 Tl6 In2 Pd3 Ru1'
_cell_volume   538.26029600
_cell_formula_units_Z   1
loop_
 _symmetry_equiv_pos_site_id
 _symmetry_equiv_pos_as_xyz
  1  'x, y, z'
loop_
 _atom_site_type_symbol
 _atom_site_label
 _atom_site_symmetry_multiplicity
 _atom_site_fract_x
 _atom_site_fract_y
 _atom_site_fract_z
 _atom_site_occupancy
  Er  Er0  1  0.000000  0.499884  0.499622  1
  Er  Er1  1  0.000000  0.000328  0.000826  1
  Er  Er2  1  0.000000  0.728339  0.277438  1
  Er  Er3  1  0.000000  0.259802  0.720284  1
  Er  Er4  1  0.000000  0.760030  0.779987  1
  Er  Er5  1  0.000000  0.252522  0.220213  1
  Er  Er6  1  0.000000  0.615141  0.087331  1
  Er  Er7  1  0.000000  0.383626  0.915143  1
  Er  Er8  1  0.000000  0.885693  0.585042  1
  Er  Er9  1  0.000000  0.116558  0.413366  1
  Tl  Tl10  1  0.500000  0.710715  0.932736  1
  Tl  Tl11  1  0.500000  0.290853  0.068083  1
  Tl  Tl12  1  0.500000  0.792381  0.433937  1
  Tl  Tl13  1  0.500000  0.208582  0.566320  1
  Tl  Tl14  1  0.500000  0.582004  0.648937  1
  Tl  Tl15  1  0.500000  0.422222  0.350788  1
  In  In16  1  0.500000  0.917607  0.150528  1
  In  In17  1  0.500000  0.081235  0.850518  1
  Pd  Pd18  1  0.500000  0.473847  0.804058  1
  Pd  Pd19  1  0.500000  0.976807  0.697180  1
  Pd  Pd20  1  0.500000  0.019951  0.302396  1
  Ru  Ru21  1  0.500000  0.521871  0.195266  1
