# generated using pymatgen
data_Y4HoIrRu
_symmetry_space_group_name_H-M   'P 1'
_cell_length_a   6.41140391
_cell_length_b   7.29409023
_cell_length_c   8.53380361
_cell_angle_alpha   96.65321723
_cell_angle_beta   112.06434694
_cell_angle_gamma   89.99999642
_symmetry_Int_Tables_number   1
_chemical_formula_structural   Y4HoIrRu
_chemical_formula_sum   'Y8 Ho2 Ir2 Ru2'
_cell_volume   366.95670269
_cell_formula_units_Z   2
loop_
 _symmetry_equiv_pos_site_id
 _symmetry_equiv_pos_as_xyz
  1  'x, y, z'
loop_
 _atom_site_type_symbol
 _atom_site_label
 _atom_site_symmetry_multiplicity
 _atom_site_fract_x
 _atom_site_fract_y
 _atom_site_fract_z
 _atom_site_occupancy
  Y  Y0  1  0.977780  0.917096  0.185588  1
  Y  Y1  1  0.792192  0.582904  0.814412  1
  Y  Y2  1  0.024470  0.085477  0.815432  1
  Y  Y3  1  0.209038  0.414523  0.184568  1
  Y  Y4  1  0.643544  0.817123  0.435651  1
  Y  Y5  1  0.207892  0.682877  0.564349  1
  Y  Y6  1  0.354035  0.184488  0.562879  1
  Y  Y7  1  0.791156  0.315512  0.437121  1
  Ho  Ho8  1  0.425037  0.750000  0.000000  1
  Ho  Ho9  1  0.574766  0.250000  0.000000  1
  Ir  Ir10  1  0.821057  0.575419  0.218589  1
  Ir  Ir11  1  0.602468  0.924581  0.781411  1
  Ru  Ru12  1  0.179480  0.426431  0.782396  1
  Ru  Ru13  1  0.397085  0.073569  0.217604  1
