# generated using pymatgen
data_PrSi(SnRh2)3
_symmetry_space_group_name_H-M   'P 1'
_cell_length_a   7.52219300
_cell_length_b   7.52219392
_cell_length_c   4.00218100
_cell_angle_alpha   90.00000000
_cell_angle_beta   90.00000000
_cell_angle_gamma   120.00000037
_symmetry_Int_Tables_number   1
_chemical_formula_structural   PrSi(SnRh2)3
_chemical_formula_sum   'Pr1 Si1 Sn3 Rh6'
_cell_volume   196.11750209
_cell_formula_units_Z   1
loop_
 _symmetry_equiv_pos_site_id
 _symmetry_equiv_pos_as_xyz
  1  'x, y, z'
loop_
 _atom_site_type_symbol
 _atom_site_label
 _atom_site_symmetry_multiplicity
 _atom_site_fract_x
 _atom_site_fract_y
 _atom_site_fract_z
 _atom_site_occupancy
  Pr  Pr0  1  0.000000  0.000000  0.000000  1
  Si  Si1  1  0.333333  0.666667  0.000000  1
  Sn  Sn2  1  0.803664  0.196336  0.500000  1
  Sn  Sn3  1  0.803664  0.607328  0.500000  1
  Sn  Sn4  1  0.392672  0.196336  0.500000  1
  Rh  Rh5  1  0.520413  0.479587  0.000000  1
  Rh  Rh6  1  0.520413  0.040824  0.000000  1
  Rh  Rh7  1  0.959176  0.479587  0.000000  1
  Rh  Rh8  1  0.210408  0.789592  0.500000  1
  Rh  Rh9  1  0.210408  0.420817  0.500000  1
  Rh  Rh10  1  0.579183  0.789592  0.500000  1
