# generated using pymatgen
data_Ac6GaSiI6
_symmetry_space_group_name_H-M   'P 1'
_cell_length_a   11.50684461
_cell_length_b   11.50684526
_cell_length_c   11.42331760
_cell_angle_alpha   109.48854278
_cell_angle_beta   109.48854735
_cell_angle_gamma   109.73113592
_symmetry_Int_Tables_number   1
_chemical_formula_structural   Ac6GaSiI6
_chemical_formula_sum   'Ac12 Ga2 Si2 I12'
_cell_volume   1160.09094184
_cell_formula_units_Z   2
loop_
 _symmetry_equiv_pos_site_id
 _symmetry_equiv_pos_as_xyz
  1  'x, y, z'
loop_
 _atom_site_type_symbol
 _atom_site_label
 _atom_site_symmetry_multiplicity
 _atom_site_fract_x
 _atom_site_fract_y
 _atom_site_fract_z
 _atom_site_occupancy
  Ac  Ac0  1  0.469587  0.486662  0.233095  1
  Ac  Ac1  1  0.753567  0.236492  0.266905  1
  Ac  Ac2  1  0.754167  0.017159  0.488061  1
  Ac  Ac3  1  0.233894  0.470902  0.488061  1
  Ac  Ac4  1  0.263508  0.746433  0.233095  1
  Ac  Ac5  1  0.029098  0.266106  0.011939  1
  Ac  Ac6  1  0.013338  0.030413  0.266905  1
  Ac  Ac7  1  0.482841  0.745833  0.011939  1
  Ac  Ac8  1  0.486376  0.236376  0.472752  1
  Ac  Ac9  1  0.016082  0.483918  0.750000  1
  Ac  Ac10  1  0.263624  0.013624  0.027248  1
  Ac  Ac11  1  0.233918  0.266082  0.750000  1
  Ga  Ga12  1  0.249886  0.250114  0.250000  1
  Ga  Ga13  1  0.500114  0.999886  0.250000  1
  Si  Si14  1  0.000049  0.250049  0.500097  1
  Si  Si15  1  0.249951  0.499951  0.999903  1
  I  I16  1  0.249258  0.757131  0.741054  1
  I  I17  1  0.516077  0.508205  0.758946  1
  I  I18  1  0.983232  0.740531  0.991429  1
  I  I19  1  0.742869  0.250742  0.758946  1
  I  I20  1  0.991795  0.983923  0.741054  1
  I  I21  1  0.249102  0.991802  0.508571  1
  I  I22  1  0.759469  0.516768  0.508571  1
  I  I23  1  0.508198  0.250898  0.991429  1
  I  I24  1  0.758181  0.741819  0.250000  1
  I  I25  1  0.741990  0.991990  0.983980  1
  I  I26  1  0.991819  0.508181  0.250000  1
  I  I27  1  0.508010  0.758010  0.516020  1
