# generated using pymatgen
data_LaHoEr4Ta2O14
_symmetry_space_group_name_H-M   'P 1'
_cell_length_a   6.47634706
_cell_length_b   6.47504891
_cell_length_c   7.51057112
_cell_angle_alpha   89.85040670
_cell_angle_beta   90.15960960
_cell_angle_gamma   108.60631061
_symmetry_Int_Tables_number   1
_chemical_formula_structural   LaHoEr4Ta2O14
_chemical_formula_sum   'La1 Ho1 Er4 Ta2 O14'
_cell_volume   298.49004865
_cell_formula_units_Z   1
loop_
 _symmetry_equiv_pos_site_id
 _symmetry_equiv_pos_as_xyz
  1  'x, y, z'
loop_
 _atom_site_type_symbol
 _atom_site_label
 _atom_site_symmetry_multiplicity
 _atom_site_fract_x
 _atom_site_fract_y
 _atom_site_fract_z
 _atom_site_occupancy
  La  La0  1  0.508507  0.508538  0.500138  1
  Ho  Ho1  1  0.465845  0.998088  0.252830  1
  Er  Er2  1  0.459750  0.459997  0.999877  1
  Er  Er3  1  0.000181  0.534543  0.239508  1
  Er  Er4  1  0.997821  0.466237  0.747386  1
  Er  Er5  1  0.534834  0.000262  0.760497  1
  Ta  Ta6  1  0.000453  0.000420  0.500187  1
  Ta  Ta7  1  0.997081  0.997000  0.999819  1
  O  O8  1  0.932355  0.068580  0.749677  1
  O  O9  1  0.067930  0.932213  0.250319  1
  O  O10  1  0.357199  0.641863  0.236870  1
  O  O11  1  0.643167  0.357366  0.763082  1
  O  O12  1  0.365840  0.633250  0.763244  1
  O  O13  1  0.633855  0.367164  0.236602  1
  O  O14  1  0.327672  0.081796  0.973335  1
  O  O15  1  0.675745  0.928930  0.472569  1
  O  O16  1  0.315910  0.061531  0.542330  1
  O  O17  1  0.691658  0.951392  0.041922  1
  O  O18  1  0.061311  0.315947  0.458182  1
  O  O19  1  0.951905  0.691554  0.957324  1
  O  O20  1  0.929544  0.675607  0.528224  1
  O  O21  1  0.081438  0.327724  0.026077  1
