# generated using pymatgen
data_RbEr3S5
_symmetry_space_group_name_H-M   'P 1'
_cell_length_a   3.96538100
_cell_length_b   11.78405300
_cell_length_c   21.11282400
_cell_angle_alpha   90.00000000
_cell_angle_beta   90.00000000
_cell_angle_gamma   90.00000000
_symmetry_Int_Tables_number   1
_chemical_formula_structural   RbEr3S5
_chemical_formula_sum   'Rb4 Er12 S20'
_cell_volume   986.56552644
_cell_formula_units_Z   4
loop_
 _symmetry_equiv_pos_site_id
 _symmetry_equiv_pos_as_xyz
  1  'x, y, z'
loop_
 _atom_site_type_symbol
 _atom_site_label
 _atom_site_symmetry_multiplicity
 _atom_site_fract_x
 _atom_site_fract_y
 _atom_site_fract_z
 _atom_site_occupancy
  Rb  Rb0  1  0.250000  0.852210  0.093899  1
  Rb  Rb1  1  0.750000  0.147790  0.906101  1
  Rb  Rb2  1  0.750000  0.352210  0.406101  1
  Rb  Rb3  1  0.250000  0.647790  0.593899  1
  Er  Er4  1  0.750000  0.798792  0.825852  1
  Er  Er5  1  0.250000  0.201208  0.174148  1
  Er  Er6  1  0.250000  0.298792  0.674148  1
  Er  Er7  1  0.750000  0.701208  0.325852  1
  Er  Er8  1  0.250000  0.956958  0.697675  1
  Er  Er9  1  0.750000  0.043042  0.302325  1
  Er  Er10  1  0.750000  0.456958  0.802325  1
  Er  Er11  1  0.250000  0.543042  0.197675  1
  Er  Er12  1  0.750000  0.390394  0.052849  1
  Er  Er13  1  0.250000  0.609606  0.947151  1
  Er  Er14  1  0.250000  0.890394  0.447151  1
  Er  Er15  1  0.750000  0.109606  0.552849  1
  S  S16  1  0.250000  0.949620  0.568930  1
  S  S17  1  0.750000  0.050380  0.431070  1
  S  S18  1  0.750000  0.449620  0.931070  1
  S  S19  1  0.250000  0.550380  0.068930  1
  S  S20  1  0.750000  0.764280  0.952936  1
  S  S21  1  0.250000  0.235720  0.047064  1
  S  S22  1  0.250000  0.264280  0.547064  1
  S  S23  1  0.750000  0.735720  0.452936  1
  S  S24  1  0.250000  0.950134  0.825564  1
  S  S25  1  0.750000  0.049866  0.174436  1
  S  S26  1  0.750000  0.450134  0.674436  1
  S  S27  1  0.250000  0.549866  0.325564  1
  S  S28  1  0.750000  0.126485  0.683237  1
  S  S29  1  0.250000  0.873515  0.316763  1
  S  S30  1  0.250000  0.626485  0.816763  1
  S  S31  1  0.750000  0.373515  0.183237  1
  S  S32  1  0.750000  0.692794  0.198119  1
  S  S33  1  0.250000  0.307206  0.801881  1
  S  S34  1  0.250000  0.192794  0.301881  1
  S  S35  1  0.750000  0.807206  0.698119  1
