# generated using pymatgen
data_SmTaNb5Cl18
_symmetry_space_group_name_H-M   'P 1'
_cell_length_a   10.26024747
_cell_length_b   10.25987309
_cell_length_c   10.26316777
_cell_angle_alpha   55.92819296
_cell_angle_beta   55.92886227
_cell_angle_gamma   55.94952426
_symmetry_Int_Tables_number   1
_chemical_formula_structural   SmTaNb5Cl18
_chemical_formula_sum   'Sm1 Ta1 Nb5 Cl18'
_cell_volume   691.99614742
_cell_formula_units_Z   1
loop_
 _symmetry_equiv_pos_site_id
 _symmetry_equiv_pos_as_xyz
  1  'x, y, z'
loop_
 _atom_site_type_symbol
 _atom_site_label
 _atom_site_symmetry_multiplicity
 _atom_site_fract_x
 _atom_site_fract_y
 _atom_site_fract_z
 _atom_site_occupancy
  Sm  Sm0  1  0.999470  0.999587  0.000348  1
  Ta  Ta1  1  0.409816  0.301063  0.648652  1
  Nb  Nb2  1  0.351290  0.590565  0.698971  1
  Nb  Nb3  1  0.699390  0.351394  0.590077  1
  Nb  Nb4  1  0.300932  0.649079  0.409519  1
  Nb  Nb5  1  0.649030  0.409946  0.300614  1
  Nb  Nb6  1  0.590733  0.699845  0.350613  1
  Cl  Cl7  1  0.566459  0.164289  0.444316  1
  Cl  Cl8  1  0.226568  0.369196  0.903651  1
  Cl  Cl9  1  0.905221  0.225385  0.371161  1
  Cl  Cl10  1  0.371176  0.905365  0.225547  1
  Cl  Cl11  1  0.774615  0.629152  0.094592  1
  Cl  Cl12  1  0.094658  0.774204  0.629113  1
  Cl  Cl13  1  0.699473  0.957212  0.162275  1
  Cl  Cl14  1  0.956029  0.161976  0.700077  1
  Cl  Cl15  1  0.162902  0.699300  0.956353  1
  Cl  Cl16  1  0.301500  0.047557  0.834809  1
  Cl  Cl17  1  0.043966  0.836670  0.300403  1
  Cl  Cl18  1  0.837208  0.299516  0.044429  1
  Cl  Cl19  1  0.558553  0.431269  0.835815  1
  Cl  Cl20  1  0.166006  0.438720  0.570312  1
  Cl  Cl21  1  0.441367  0.568381  0.164378  1
  Cl  Cl22  1  0.431564  0.835938  0.558415  1
  Cl  Cl23  1  0.835914  0.558817  0.431261  1
  Cl  Cl24  1  0.626161  0.095575  0.774298  1
