# generated using pymatgen
data_BeB2Mo5
_symmetry_space_group_name_H-M   'P 1'
_cell_length_a   6.93440671
_cell_length_b   6.93440710
_cell_length_c   6.93440664
_cell_angle_alpha   128.92529811
_cell_angle_beta   128.92530402
_cell_angle_gamma   75.13080085
_symmetry_Int_Tables_number   1
_chemical_formula_structural   BeB2Mo5
_chemical_formula_sum   'Be2 B4 Mo10'
_cell_volume   196.48461367
_cell_formula_units_Z   2
loop_
 _symmetry_equiv_pos_site_id
 _symmetry_equiv_pos_as_xyz
  1  'x, y, z'
loop_
 _atom_site_type_symbol
 _atom_site_label
 _atom_site_symmetry_multiplicity
 _atom_site_fract_x
 _atom_site_fract_y
 _atom_site_fract_z
 _atom_site_occupancy
  Be  Be0  1  0.750000  0.750000  0.000000  1
  Be  Be1  1  0.250000  0.250000  0.000000  1
  B  B2  1  0.380477  0.880477  0.260956  1
  B  B3  1  0.880477  0.619523  0.500000  1
  B  B4  1  0.619523  0.119523  0.739044  1
  B  B5  1  0.119523  0.380477  0.500000  1
  Mo  Mo6  1  0.000000  0.000000  0.000000  1
  Mo  Mo7  1  0.809922  0.976681  0.500000  1
  Mo  Mo8  1  0.309922  0.809922  0.833241  1
  Mo  Mo9  1  0.190078  0.023319  0.500000  1
  Mo  Mo10  1  0.523319  0.690078  0.500000  1
  Mo  Mo11  1  0.023319  0.523319  0.833241  1
  Mo  Mo12  1  0.690078  0.190078  0.166759  1
  Mo  Mo13  1  0.976681  0.476681  0.166759  1
  Mo  Mo14  1  0.500000  0.500000  0.000000  1
  Mo  Mo15  1  0.476681  0.309922  0.500000  1
