# generated using pymatgen
data_Sc8Ta2Nb9Si16Ru
_symmetry_space_group_name_H-M   'P 1'
_cell_length_a   6.66331054
_cell_length_b   6.90836305
_cell_length_c   13.10131300
_cell_angle_alpha   90.00000000
_cell_angle_beta   90.00000000
_cell_angle_gamma   90.19484074
_symmetry_Int_Tables_number   1
_chemical_formula_structural   Sc8Ta2Nb9Si16Ru
_chemical_formula_sum   'Sc8 Ta2 Nb9 Si16 Ru1'
_cell_volume   603.08359857
_cell_formula_units_Z   1
loop_
 _symmetry_equiv_pos_site_id
 _symmetry_equiv_pos_as_xyz
  1  'x, y, z'
loop_
 _atom_site_type_symbol
 _atom_site_label
 _atom_site_symmetry_multiplicity
 _atom_site_fract_x
 _atom_site_fract_y
 _atom_site_fract_z
 _atom_site_occupancy
  Sc  Sc0  1  0.496370  0.675479  0.593501  1
  Sc  Sc1  1  0.001625  0.827455  0.906691  1
  Sc  Sc2  1  0.499549  0.326180  0.094879  1
  Sc  Sc3  1  0.998791  0.174371  0.404356  1
  Sc  Sc4  1  0.499549  0.326180  0.405121  1
  Sc  Sc5  1  0.998791  0.174371  0.095644  1
  Sc  Sc6  1  0.496370  0.675479  0.906499  1
  Sc  Sc7  1  0.001625  0.827455  0.593309  1
  Ta  Ta8  1  0.338620  0.002895  0.750000  1
  Ta  Ta9  1  0.162901  0.507417  0.250000  1
  Nb  Nb10  1  0.666653  0.169530  0.626819  1
  Nb  Nb11  1  0.164895  0.326173  0.873031  1
  Nb  Nb12  1  0.335809  0.825673  0.124527  1
  Nb  Nb13  1  0.836655  0.672378  0.376946  1
  Nb  Nb14  1  0.335809  0.825673  0.375473  1
  Nb  Nb15  1  0.836655  0.672378  0.123054  1
  Nb  Nb16  1  0.666653  0.169530  0.873181  1
  Nb  Nb17  1  0.164895  0.326173  0.626969  1
  Nb  Nb18  1  0.661981  0.994738  0.250000  1
  Si  Si19  1  0.669757  0.966764  0.460323  1
  Si  Si20  1  0.169301  0.532609  0.038540  1
  Si  Si21  1  0.331934  0.033975  0.959754  1
  Si  Si22  1  0.830754  0.466053  0.543966  1
  Si  Si23  1  0.331934  0.033975  0.540246  1
  Si  Si24  1  0.830754  0.466053  0.956034  1
  Si  Si25  1  0.669757  0.966764  0.039677  1
  Si  Si26  1  0.169301  0.532609  0.461460  1
  Si  Si27  1  0.472122  0.391234  0.750000  1
  Si  Si28  1  0.960729  0.108397  0.750000  1
  Si  Si29  1  0.540402  0.613776  0.250000  1
  Si  Si30  1  0.037883  0.887073  0.250000  1
  Si  Si31  1  0.706853  0.852363  0.750000  1
  Si  Si32  1  0.194692  0.636077  0.750000  1
  Si  Si33  1  0.294058  0.139072  0.250000  1
  Si  Si34  1  0.794398  0.362668  0.250000  1
  Ru  Ru35  1  0.831175  0.511015  0.750000  1
