# generated using pymatgen
data_Tb4Ga2(OsRu)3
_symmetry_space_group_name_H-M   'P 1'
_cell_length_a   5.32248266
_cell_length_b   5.36543398
_cell_length_c   8.93163200
_cell_angle_alpha   90.00000000
_cell_angle_beta   90.00000000
_cell_angle_gamma   120.26733143
_symmetry_Int_Tables_number   1
_chemical_formula_structural   Tb4Ga2(OsRu)3
_chemical_formula_sum   'Tb4 Ga2 Os3 Ru3'
_cell_volume   220.29484902
_cell_formula_units_Z   1
loop_
 _symmetry_equiv_pos_site_id
 _symmetry_equiv_pos_as_xyz
  1  'x, y, z'
loop_
 _atom_site_type_symbol
 _atom_site_label
 _atom_site_symmetry_multiplicity
 _atom_site_fract_x
 _atom_site_fract_y
 _atom_site_fract_z
 _atom_site_occupancy
  Tb  Tb0  1  0.333493  0.666747  0.432247  1
  Tb  Tb1  1  0.657932  0.328966  0.560246  1
  Tb  Tb2  1  0.657932  0.328966  0.939754  1
  Tb  Tb3  1  0.333493  0.666747  0.067753  1
  Ga  Ga4  1  0.169806  0.834942  0.750000  1
  Ga  Ga5  1  0.169806  0.334864  0.750000  1
  Os  Os6  1  0.837988  0.169805  0.250000  1
  Os  Os7  1  0.837988  0.668183  0.250000  1
  Os  Os8  1  0.356415  0.178208  0.250000  1
  Ru  Ru9  1  0.991816  0.995909  0.498810  1
  Ru  Ru10  1  0.991816  0.995909  0.001190  1
  Ru  Ru11  1  0.661512  0.830756  0.750000  1
