# generated using pymatgen
data_Rb14NbV(In3P5)2
_symmetry_space_group_name_H-M   'P 1'
_cell_length_a   8.51195129
_cell_length_b   9.40907346
_cell_length_c   14.21935434
_cell_angle_alpha   85.69194265
_cell_angle_beta   84.14179527
_cell_angle_gamma   86.06230363
_symmetry_Int_Tables_number   1
_chemical_formula_structural   Rb14NbV(In3P5)2
_chemical_formula_sum   'Rb14 Nb1 V1 In6 P10'
_cell_volume   1127.53546498
_cell_formula_units_Z   1
loop_
 _symmetry_equiv_pos_site_id
 _symmetry_equiv_pos_as_xyz
  1  'x, y, z'
loop_
 _atom_site_type_symbol
 _atom_site_label
 _atom_site_symmetry_multiplicity
 _atom_site_fract_x
 _atom_site_fract_y
 _atom_site_fract_z
 _atom_site_occupancy
  Rb  Rb0  1  0.836989  0.363693  0.649306  1
  Rb  Rb1  1  0.818763  0.806735  0.133700  1
  Rb  Rb2  1  0.240427  0.007720  0.467685  1
  Rb  Rb3  1  0.273693  0.255819  0.250309  1
  Rb  Rb4  1  0.739793  0.500241  0.973081  1
  Rb  Rb5  1  0.259390  0.502168  0.023639  1
  Rb  Rb6  1  0.678525  0.086064  0.883658  1
  Rb  Rb7  1  0.760079  0.992084  0.534826  1
  Rb  Rb8  1  0.725034  0.737588  0.749790  1
  Rb  Rb9  1  0.331770  0.346153  0.601299  1
  Rb  Rb10  1  0.162854  0.637911  0.350197  1
  Rb  Rb11  1  0.182125  0.195449  0.865128  1
  Rb  Rb12  1  0.318155  0.916638  0.110498  1
  Rb  Rb13  1  0.664276  0.657364  0.402900  1
  Nb  Nb14  1  0.647099  0.396247  0.226143  1
  V  V15  1  0.351697  0.605792  0.773508  1
  In  In16  1  0.057638  0.811387  0.870473  1
  In  In17  1  0.944746  0.185814  0.127685  1
  In  In18  1  0.361703  0.947172  0.704401  1
  In  In19  1  0.095526  0.717879  0.624411  1
  In  In20  1  0.908043  0.281294  0.377966  1
  In  In21  1  0.637631  0.048159  0.298246  1
  P  P22  1  0.923286  0.450805  0.210082  1
  P  P23  1  0.624337  0.198974  0.124197  1
  P  P24  1  0.088279  0.549148  0.789449  1
  P  P25  1  0.585123  0.298469  0.389645  1
  P  P26  1  0.415071  0.697829  0.616916  1
  P  P27  1  0.031095  0.989517  0.703464  1
  P  P28  1  0.506218  0.414096  0.807780  1
  P  P29  1  0.485786  0.599484  0.189199  1
  P  P30  1  0.375962  0.791368  0.873107  1
  P  P31  1  0.968885  0.010938  0.297313  1
