# generated using pymatgen
data_Dy5Y5SnSb5
_symmetry_space_group_name_H-M   'P 1'
_cell_length_a   6.39576500
_cell_length_b   8.99773417
_cell_length_c   8.97903400
_cell_angle_alpha   120.06496886
_cell_angle_beta   90.00001792
_cell_angle_gamma   89.99997192
_symmetry_Int_Tables_number   1
_chemical_formula_structural   Dy5Y5SnSb5
_chemical_formula_sum   'Dy5 Y5 Sn1 Sb5'
_cell_volume   447.19940001
_cell_formula_units_Z   1
loop_
 _symmetry_equiv_pos_site_id
 _symmetry_equiv_pos_as_xyz
  1  'x, y, z'
loop_
 _atom_site_type_symbol
 _atom_site_label
 _atom_site_symmetry_multiplicity
 _atom_site_fract_x
 _atom_site_fract_y
 _atom_site_fract_z
 _atom_site_occupancy
  Dy  Dy0  1  0.499989  0.334054  0.667679  1
  Dy  Dy1  1  0.499985  0.666474  0.332348  1
  Dy  Dy2  1  0.000014  0.666475  0.332348  1
  Dy  Dy3  1  0.000010  0.334055  0.667679  1
  Dy  Dy4  1  0.250001  0.001074  0.754180  1
  Y  Y5  1  0.750001  0.244532  0.999866  1
  Y  Y6  1  0.750001  0.754026  0.755784  1
  Y  Y7  1  0.750001  0.998145  0.244261  1
  Y  Y8  1  0.249999  0.755791  0.999956  1
  Y  Y9  1  0.250001  0.246808  0.245779  1
  Sn  Sn10  1  0.749999  0.607011  0.000000  1
  Sb  Sb11  1  0.750001  0.389309  0.390194  1
  Sb  Sb12  1  0.750001  0.999230  0.609871  1
  Sb  Sb13  1  0.250000  0.390356  0.999856  1
  Sb  Sb14  1  0.250000  0.611479  0.610278  1
  Sb  Sb15  1  0.250000  0.001179  0.389919  1
