# generated using pymatgen
data_ZrNp5Cl30
_symmetry_space_group_name_H-M   'P 1'
_cell_length_a   13.99624356
_cell_length_b   13.99624325
_cell_length_c   7.07296745
_cell_angle_alpha   85.60448120
_cell_angle_beta   85.60448091
_cell_angle_gamma   90.20639924
_symmetry_Int_Tables_number   1
_chemical_formula_structural   ZrNp5Cl30
_chemical_formula_sum   'Zr1 Np5 Cl30'
_cell_volume   1377.35661492
_cell_formula_units_Z   1
loop_
 _symmetry_equiv_pos_site_id
 _symmetry_equiv_pos_as_xyz
  1  'x, y, z'
loop_
 _atom_site_type_symbol
 _atom_site_label
 _atom_site_symmetry_multiplicity
 _atom_site_fract_x
 _atom_site_fract_y
 _atom_site_fract_z
 _atom_site_occupancy
  Zr  Zr0  1  0.118749  0.881251  0.000000  1
  Np  Np1  1  0.902931  0.097069  0.000000  1
  Np  Np2  1  0.771559  0.564322  0.432756  1
  Np  Np3  1  0.228952  0.437345  0.567044  1
  Np  Np4  1  0.435678  0.228441  0.567244  1
  Np  Np5  1  0.562655  0.771048  0.432956  1
  Cl  Cl6  1  0.513006  0.309170  0.813871  1
  Cl  Cl7  1  0.263852  0.265296  0.740858  1
  Cl  Cl8  1  0.158075  0.982018  0.713945  1
  Cl  Cl9  1  0.598808  0.598895  0.607182  1
  Cl  Cl10  1  0.219085  0.592184  0.382031  1
  Cl  Cl11  1  0.734704  0.736148  0.259142  1
  Cl  Cl12  1  0.152160  0.357057  0.319940  1
  Cl  Cl13  1  0.066684  0.077287  0.124355  1
  Cl  Cl14  1  0.642943  0.847840  0.680060  1
  Cl  Cl15  1  0.591278  0.218517  0.381460  1
  Cl  Cl16  1  0.113209  0.732762  0.868048  1
  Cl  Cl17  1  0.017982  0.841925  0.286055  1
  Cl  Cl18  1  0.926301  0.555013  0.246060  1
  Cl  Cl19  1  0.828838  0.024858  0.302228  1
  Cl  Cl20  1  0.407816  0.780915  0.617969  1
  Cl  Cl21  1  0.781483  0.408722  0.618540  1
  Cl  Cl22  1  0.553379  0.926049  0.246142  1
  Cl  Cl23  1  0.975142  0.171162  0.697772  1
  Cl  Cl24  1  0.847983  0.644616  0.679294  1
  Cl  Cl25  1  0.890410  0.255749  0.124835  1
  Cl  Cl26  1  0.485962  0.690083  0.186840  1
  Cl  Cl27  1  0.355384  0.152017  0.320706  1
  Cl  Cl28  1  0.073951  0.446621  0.753858  1
  Cl  Cl29  1  0.744251  0.109590  0.875165  1
  Cl  Cl30  1  0.444987  0.073699  0.753940  1
  Cl  Cl31  1  0.401105  0.401192  0.392818  1
  Cl  Cl32  1  0.309917  0.514038  0.813160  1
  Cl  Cl33  1  0.267238  0.886791  0.131952  1
  Cl  Cl34  1  0.922713  0.933316  0.875645  1
  Cl  Cl35  1  0.690830  0.486994  0.186129  1
