# generated using pymatgen
data_Er6Sn6Ir5Pt
_symmetry_space_group_name_H-M   'P 1'
_cell_length_a   7.50054200
_cell_length_b   7.50054257
_cell_length_c   7.82246000
_cell_angle_alpha   90.00000000
_cell_angle_beta   90.00000000
_cell_angle_gamma   119.99999865
_symmetry_Int_Tables_number   1
_chemical_formula_structural   Er6Sn6Ir5Pt
_chemical_formula_sum   'Er6 Sn6 Ir5 Pt1'
_cell_volume   381.11787339
_cell_formula_units_Z   1
loop_
 _symmetry_equiv_pos_site_id
 _symmetry_equiv_pos_as_xyz
  1  'x, y, z'
loop_
 _atom_site_type_symbol
 _atom_site_label
 _atom_site_symmetry_multiplicity
 _atom_site_fract_x
 _atom_site_fract_y
 _atom_site_fract_z
 _atom_site_occupancy
  Er  Er0  1  0.401841  0.996580  0.247732  1
  Er  Er1  1  0.594739  0.598159  0.247732  1
  Er  Er2  1  0.003420  0.405261  0.247732  1
  Er  Er3  1  0.401372  0.995475  0.752306  1
  Er  Er4  1  0.594103  0.598628  0.752306  1
  Er  Er5  1  0.004525  0.405897  0.752306  1
  Sn  Sn6  1  0.262064  0.260401  0.999941  1
  Sn  Sn7  1  0.998336  0.737936  0.999941  1
  Sn  Sn8  1  0.003483  0.742063  0.499932  1
  Sn  Sn9  1  0.738579  0.996517  0.499932  1
  Sn  Sn10  1  0.257937  0.261421  0.499932  1
  Sn  Sn11  1  0.739599  0.001664  0.999941  1
  Ir  Ir12  1  0.000000  0.000000  0.750481  1
  Ir  Ir13  1  0.000000  0.000000  0.249090  1
  Ir  Ir14  1  0.666667  0.333333  0.998986  1
  Ir  Ir15  1  0.333333  0.666667  0.498845  1
  Ir  Ir16  1  0.333333  0.666667  0.001147  1
  Pt  Pt17  1  0.666667  0.333333  0.501719  1
