# generated using pymatgen
data_Pr19Y(CoAu2)4
_symmetry_space_group_name_H-M   'P 1'
_cell_length_a   8.83797619
_cell_length_b   8.29871282
_cell_length_c   12.22246495
_cell_angle_alpha   90.00820441
_cell_angle_beta   89.78715429
_cell_angle_gamma   89.88036070
_symmetry_Int_Tables_number   1
_chemical_formula_structural   Pr19Y(CoAu2)4
_chemical_formula_sum   'Pr19 Y1 Co4 Au8'
_cell_volume   896.43419630
_cell_formula_units_Z   1
loop_
 _symmetry_equiv_pos_site_id
 _symmetry_equiv_pos_as_xyz
  1  'x, y, z'
loop_
 _atom_site_type_symbol
 _atom_site_label
 _atom_site_symmetry_multiplicity
 _atom_site_fract_x
 _atom_site_fract_y
 _atom_site_fract_z
 _atom_site_occupancy
  Pr  Pr0  1  0.837561  0.751037  0.788701  1
  Pr  Pr1  1  0.160516  0.250051  0.210466  1
  Pr  Pr2  1  0.339278  0.249113  0.709283  1
  Pr  Pr3  1  0.662349  0.750670  0.290344  1
  Pr  Pr4  1  0.384998  0.752149  0.696568  1
  Pr  Pr5  1  0.617113  0.247820  0.304644  1
  Pr  Pr6  1  0.882515  0.248682  0.800937  1
  Pr  Pr7  1  0.117119  0.749844  0.198318  1
  Pr  Pr8  1  0.954969  0.752653  0.492129  1
  Pr  Pr9  1  0.040777  0.248854  0.508511  1
  Pr  Pr10  1  0.456346  0.248511  0.008775  1
  Pr  Pr11  1  0.542324  0.751234  0.990912  1
  Pr  Pr12  1  0.329118  0.962605  0.425356  1
  Pr  Pr13  1  0.170599  0.964132  0.924654  1
  Pr  Pr14  1  0.329743  0.535633  0.424258  1
  Pr  Pr15  1  0.828394  0.036313  0.075205  1
  Pr  Pr16  1  0.671989  0.463549  0.576241  1
  Pr  Pr17  1  0.828584  0.463686  0.075417  1
  Pr  Pr18  1  0.171148  0.535858  0.924050  1
  Y  Y19  1  0.666621  0.036579  0.575734  1
  Co  Co20  1  0.564218  0.750350  0.506132  1
  Co  Co21  1  0.440429  0.248896  0.495192  1
  Co  Co22  1  0.062876  0.250146  0.994065  1
  Co  Co23  1  0.937441  0.750192  0.006150  1
  Au  Au24  1  0.578910  0.471080  0.825850  1
  Au  Au25  1  0.422331  0.528539  0.174616  1
  Au  Au26  1  0.078166  0.528416  0.674296  1
  Au  Au27  1  0.422003  0.971052  0.175554  1
  Au  Au28  1  0.921650  0.472776  0.325832  1
  Au  Au29  1  0.580452  0.029203  0.821759  1
  Au  Au30  1  0.920575  0.029304  0.325741  1
  Au  Au31  1  0.078888  0.971072  0.674311  1
