# generated using pymatgen
data_CeTm15Cd4FeRu3
_symmetry_space_group_name_H-M   'P 1'
_cell_length_a   9.50883638
_cell_length_b   9.50885355
_cell_length_c   9.57991235
_cell_angle_alpha   59.14394268
_cell_angle_beta   59.14432815
_cell_angle_gamma   59.64562940
_symmetry_Int_Tables_number   1
_chemical_formula_structural   CeTm15Cd4FeRu3
_chemical_formula_sum   'Ce1 Tm15 Cd4 Fe1 Ru3'
_cell_volume   602.85843744
_cell_formula_units_Z   1
loop_
 _symmetry_equiv_pos_site_id
 _symmetry_equiv_pos_as_xyz
  1  'x, y, z'
loop_
 _atom_site_type_symbol
 _atom_site_label
 _atom_site_symmetry_multiplicity
 _atom_site_fract_x
 _atom_site_fract_y
 _atom_site_fract_z
 _atom_site_occupancy
  Ce  Ce0  1  0.324937  0.324960  0.366754  1
  Tm  Tm1  1  0.555098  0.555093  0.947205  1
  Tm  Tm2  1  0.939794  0.563769  0.938187  1
  Tm  Tm3  1  0.563775  0.939788  0.938182  1
  Tm  Tm4  1  0.937640  0.937636  0.554876  1
  Tm  Tm5  1  0.563505  0.933931  0.564656  1
  Tm  Tm6  1  0.933916  0.563511  0.564666  1
  Tm  Tm7  1  0.189097  0.189098  0.817385  1
  Tm  Tm8  1  0.816800  0.188265  0.806990  1
  Tm  Tm9  1  0.188261  0.816800  0.806987  1
  Tm  Tm10  1  0.811028  0.811026  0.186708  1
  Tm  Tm11  1  0.188724  0.810015  0.190807  1
  Tm  Tm12  1  0.810019  0.188725  0.190807  1
  Tm  Tm13  1  0.348374  0.348374  0.952459  1
  Tm  Tm14  1  0.347479  0.957695  0.348437  1
  Tm  Tm15  1  0.957692  0.347475  0.348441  1
  Cd  Cd16  1  0.577467  0.577467  0.258210  1
  Cd  Cd17  1  0.581000  0.255899  0.580828  1
  Cd  Cd18  1  0.255900  0.580998  0.580827  1
  Cd  Cd19  1  0.581164  0.581164  0.578168  1
  Fe  Fe20  1  0.163988  0.163984  0.564627  1
  Ru  Ru21  1  0.145632  0.580628  0.134016  1
  Ru  Ru22  1  0.580634  0.145637  0.134013  1
  Ru  Ru23  1  0.138073  0.138068  0.145761  1
