# generated using pymatgen
data_Dy4Al17SiIr5Pt
_symmetry_space_group_name_H-M   'P 1'
_cell_length_a   7.56686829
_cell_length_b   7.56742774
_cell_length_c   9.40946403
_cell_angle_alpha   89.96969800
_cell_angle_beta   89.97089065
_cell_angle_gamma   119.66454761
_symmetry_Int_Tables_number   1
_chemical_formula_structural   Dy4Al17SiIr5Pt
_chemical_formula_sum   'Dy4 Al17 Si1 Ir5 Pt1'
_cell_volume   468.18539465
_cell_formula_units_Z   1
loop_
 _symmetry_equiv_pos_site_id
 _symmetry_equiv_pos_as_xyz
  1  'x, y, z'
loop_
 _atom_site_type_symbol
 _atom_site_label
 _atom_site_symmetry_multiplicity
 _atom_site_fract_x
 _atom_site_fract_y
 _atom_site_fract_z
 _atom_site_occupancy
  Dy  Dy0  1  0.993911  0.674364  0.750498  1
  Dy  Dy1  1  0.003975  0.329182  0.249678  1
  Dy  Dy2  1  0.675151  0.995108  0.750360  1
  Dy  Dy3  1  0.329993  0.005145  0.249558  1
  Al  Al4  1  0.874155  0.873298  0.249618  1
  Al  Al5  1  0.004086  0.336507  0.577957  1
  Al  Al6  1  0.002187  0.668909  0.423414  1
  Al  Al7  1  0.999664  0.664958  0.075109  1
  Al  Al8  1  0.336981  0.000005  0.923935  1
  Al  Al9  1  0.000738  0.336502  0.923342  1
  Al  Al10  1  0.665347  0.998932  0.075540  1
  Al  Al11  1  0.665194  0.995612  0.423340  1
  Al  Al12  1  0.332999  0.997489  0.577678  1
  Al  Al13  1  0.332732  0.332632  0.055134  1
  Al  Al14  1  0.665200  0.665036  0.947867  1
  Al  Al15  1  0.664051  0.667281  0.555444  1
  Al  Al16  1  0.330446  0.333771  0.441329  1
  Al  Al17  1  0.337440  0.549757  0.750444  1
  Al  Al18  1  0.660854  0.453731  0.247451  1
  Al  Al19  1  0.546301  0.336787  0.752514  1
  Al  Al20  1  0.450853  0.660293  0.249617  1
  Si  Si21  1  0.130651  0.129637  0.750161  1
  Ir  Ir22  1  0.326843  0.670484  0.500503  1
  Ir  Ir23  1  0.327112  0.670305  0.999593  1
  Ir  Ir24  1  0.670782  0.326587  0.999523  1
  Ir  Ir25  1  0.000549  0.000848  0.506904  1
  Ir  Ir26  1  0.000949  0.000444  0.992923  1
  Pt  Pt27  1  0.670857  0.326398  0.500566  1
