# generated using pymatgen
data_Tb3Y(Si3Ni5)4
_symmetry_space_group_name_H-M   'P 1'
_cell_length_a   3.80171100
_cell_length_b   6.57502612
_cell_length_c   18.78820435
_cell_angle_alpha   89.97788708
_cell_angle_beta   90.00000000
_cell_angle_gamma   90.00000000
_symmetry_Int_Tables_number   1
_chemical_formula_structural   Tb3Y(Si3Ni5)4
_chemical_formula_sum   'Tb3 Y1 Si12 Ni20'
_cell_volume   469.63648057
_cell_formula_units_Z   1
loop_
 _symmetry_equiv_pos_site_id
 _symmetry_equiv_pos_as_xyz
  1  'x, y, z'
loop_
 _atom_site_type_symbol
 _atom_site_label
 _atom_site_symmetry_multiplicity
 _atom_site_fract_x
 _atom_site_fract_y
 _atom_site_fract_z
 _atom_site_occupancy
  Tb  Tb0  1  0.250000  0.623702  0.644132  1
  Tb  Tb1  1  0.750000  0.376249  0.355935  1
  Tb  Tb2  1  0.750000  0.123816  0.855932  1
  Y  Y3  1  0.250000  0.876370  0.143990  1
  Si  Si4  1  0.250000  0.842778  0.926005  1
  Si  Si5  1  0.750000  0.157060  0.074066  1
  Si  Si6  1  0.750000  0.342810  0.573955  1
  Si  Si7  1  0.250000  0.657243  0.425987  1
  Si  Si8  1  0.750000  0.619374  0.763083  1
  Si  Si9  1  0.250000  0.380579  0.236975  1
  Si  Si10  1  0.250000  0.422114  0.913859  1
  Si  Si11  1  0.750000  0.578234  0.086267  1
  Si  Si12  1  0.750000  0.922200  0.586228  1
  Si  Si13  1  0.250000  0.077684  0.413750  1
  Si  Si14  1  0.250000  0.119479  0.736970  1
  Si  Si15  1  0.750000  0.880529  0.262863  1
  Ni  Ni16  1  0.250000  0.134463  0.994673  1
  Ni  Ni17  1  0.750000  0.385866  0.983986  1
  Ni  Ni18  1  0.750000  0.114113  0.483869  1
  Ni  Ni19  1  0.250000  0.614407  0.016201  1
  Ni  Ni20  1  0.250000  0.354903  0.115705  1
  Ni  Ni21  1  0.750000  0.645008  0.884350  1
  Ni  Ni22  1  0.750000  0.854984  0.384201  1
  Ni  Ni23  1  0.250000  0.145130  0.615706  1
  Ni  Ni24  1  0.250000  0.071108  0.293060  1
  Ni  Ni25  1  0.750000  0.928742  0.706882  1
  Ni  Ni26  1  0.750000  0.571045  0.206822  1
  Ni  Ni27  1  0.250000  0.428748  0.793160  1
  Ni  Ni28  1  0.750000  0.634605  0.505347  1
  Ni  Ni29  1  0.250000  0.365415  0.494582  1
  Ni  Ni30  1  0.250000  0.813336  0.800872  1
  Ni  Ni31  1  0.750000  0.186673  0.199166  1
  Ni  Ni32  1  0.750000  0.313315  0.699150  1
  Ni  Ni33  1  0.250000  0.686603  0.300760  1
  Ni  Ni34  1  0.250000  0.885876  0.516120  1
  Ni  Ni35  1  0.750000  0.865441  0.005392  1
