# generated using pymatgen
data_DyEr3Tm4(B6Ru)4
_symmetry_space_group_name_H-M   'P 1'
_cell_length_a   3.62680400
_cell_length_b   9.08469400
_cell_length_c   11.45816400
_cell_angle_alpha   90.00241471
_cell_angle_beta   90.00000000
_cell_angle_gamma   90.00000000
_symmetry_Int_Tables_number   1
_chemical_formula_structural   DyEr3Tm4(B6Ru)4
_chemical_formula_sum   'Dy1 Er3 Tm4 B24 Ru4'
_cell_volume   377.52822257
_cell_formula_units_Z   1
loop_
 _symmetry_equiv_pos_site_id
 _symmetry_equiv_pos_as_xyz
  1  'x, y, z'
loop_
 _atom_site_type_symbol
 _atom_site_label
 _atom_site_symmetry_multiplicity
 _atom_site_fract_x
 _atom_site_fract_y
 _atom_site_fract_z
 _atom_site_occupancy
  Dy  Dy0  1  0.000000  0.321998  0.414091  1
  Er  Er1  1  0.000000  0.678294  0.585822  1
  Er  Er2  1  0.000000  0.821795  0.085753  1
  Er  Er3  1  0.000000  0.178190  0.914216  1
  Tm  Tm4  1  0.000000  0.943636  0.372428  1
  Tm  Tm5  1  0.000000  0.056100  0.627675  1
  Tm  Tm6  1  0.000000  0.443812  0.127448  1
  Tm  Tm7  1  0.000000  0.556274  0.872483  1
  B  B8  1  0.500000  0.554459  0.433230  1
  B  B9  1  0.500000  0.446037  0.567046  1
  B  B10  1  0.500000  0.054048  0.066672  1
  B  B11  1  0.500000  0.945902  0.933289  1
  B  B12  1  0.500000  0.748841  0.419884  1
  B  B13  1  0.500000  0.251110  0.580560  1
  B  B14  1  0.500000  0.248749  0.080077  1
  B  B15  1  0.500000  0.751261  0.919859  1
  B  B16  1  0.500000  0.791659  0.265803  1
  B  B17  1  0.500000  0.208344  0.734271  1
  B  B18  1  0.500000  0.291433  0.233836  1
  B  B19  1  0.500000  0.708395  0.765833  1
  B  B20  1  0.500000  0.631375  0.184470  1
  B  B21  1  0.500000  0.368699  0.815512  1
  B  B22  1  0.500000  0.130992  0.315242  1
  B  B23  1  0.500000  0.868637  0.684558  1
  B  B24  1  0.500000  0.982639  0.212948  1
  B  B25  1  0.500000  0.017244  0.787027  1
  B  B26  1  0.500000  0.483143  0.286784  1
  B  B27  1  0.500000  0.517332  0.713087  1
  B  B28  1  0.500000  0.606424  0.029281  1
  B  B29  1  0.500000  0.393604  0.970692  1
  B  B30  1  0.500000  0.105773  0.470882  1
  B  B31  1  0.500000  0.893623  0.529281  1
  Ru  Ru32  1  0.000000  0.638377  0.320640  1
  Ru  Ru33  1  0.000000  0.361968  0.679473  1
  Ru  Ru34  1  0.000000  0.137834  0.179034  1
  Ru  Ru35  1  0.000000  0.861999  0.820812  1
