# generated using pymatgen
data_Y4Al12Ga6Ir5Pt
_symmetry_space_group_name_H-M   'P 1'
_cell_length_a   7.54731409
_cell_length_b   7.54731518
_cell_length_c   9.58358144
_cell_angle_alpha   89.98251584
_cell_angle_beta   89.98251701
_cell_angle_gamma   119.71515708
_symmetry_Int_Tables_number   1
_chemical_formula_structural   Y4Al12Ga6Ir5Pt
_chemical_formula_sum   'Y4 Al12 Ga6 Ir5 Pt1'
_cell_volume   474.11391157
_cell_formula_units_Z   1
loop_
 _symmetry_equiv_pos_site_id
 _symmetry_equiv_pos_as_xyz
  1  'x, y, z'
loop_
 _atom_site_type_symbol
 _atom_site_label
 _atom_site_symmetry_multiplicity
 _atom_site_fract_x
 _atom_site_fract_y
 _atom_site_fract_z
 _atom_site_occupancy
  Y  Y0  1  0.996860  0.669789  0.250672  1
  Y  Y1  1  0.003055  0.329797  0.749331  1
  Y  Y2  1  0.670203  0.996945  0.250669  1
  Y  Y3  1  0.330211  0.003140  0.749328  1
  Al  Al4  1  0.004482  0.334388  0.074716  1
  Al  Al5  1  0.001569  0.668728  0.925785  1
  Al  Al6  1  0.999062  0.665207  0.572484  1
  Al  Al7  1  0.334793  0.000938  0.427516  1
  Al  Al8  1  0.001213  0.334316  0.426840  1
  Al  Al9  1  0.665684  0.998787  0.573160  1
  Al  Al10  1  0.665612  0.995518  0.925284  1
  Al  Al11  1  0.331272  0.998431  0.074215  1
  Al  Al12  1  0.333411  0.333293  0.555014  1
  Al  Al13  1  0.666707  0.666589  0.444986  1
  Al  Al14  1  0.665732  0.668521  0.057669  1
  Al  Al15  1  0.331479  0.334268  0.942331  1
  Ga  Ga16  1  0.128253  0.127441  0.250289  1
  Ga  Ga17  1  0.872559  0.871747  0.749711  1
  Ga  Ga18  1  0.340277  0.548786  0.250551  1
  Ga  Ga19  1  0.659703  0.454520  0.747246  1
  Ga  Ga20  1  0.545480  0.340297  0.252754  1
  Ga  Ga21  1  0.451214  0.659723  0.749449  1
  Ir  Ir22  1  0.328688  0.671312  0.000000  1
  Ir  Ir23  1  0.328680  0.671320  0.500000  1
  Ir  Ir24  1  0.671799  0.328201  0.500000  1
  Ir  Ir25  1  0.999942  0.000058  0.000000  1
  Ir  Ir26  1  0.000165  0.999835  0.500000  1
  Pt  Pt27  1  0.671894  0.328106  0.000000  1
