# generated using pymatgen
data_Al6Cu6PdPt11
_symmetry_space_group_name_H-M   'P 1'
_cell_length_a   4.04315900
_cell_length_b   6.92574400
_cell_length_c   12.13183500
_cell_angle_alpha   89.99983226
_cell_angle_beta   90.00033535
_cell_angle_gamma   90.00016776
_symmetry_Int_Tables_number   1
_chemical_formula_structural   Al6Cu6PdPt11
_chemical_formula_sum   'Al6 Cu6 Pd1 Pt11'
_cell_volume   339.71423862
_cell_formula_units_Z   1
loop_
 _symmetry_equiv_pos_site_id
 _symmetry_equiv_pos_as_xyz
  1  'x, y, z'
loop_
 _atom_site_type_symbol
 _atom_site_label
 _atom_site_symmetry_multiplicity
 _atom_site_fract_x
 _atom_site_fract_y
 _atom_site_fract_z
 _atom_site_occupancy
  Al  Al0  1  0.000000  0.499861  0.000643  1
  Al  Al1  1  0.499993  0.999916  0.166624  1
  Al  Al2  1  0.999984  0.500034  0.333336  1
  Al  Al3  1  0.500000  0.999917  0.500041  1
  Al  Al4  1  0.000018  0.499862  0.666022  1
  Al  Al5  1  0.500008  0.000350  0.833335  1
  Cu  Cu6  1  0.000000  0.999314  0.999848  1
  Cu  Cu7  1  0.499989  0.500103  0.166541  1
  Cu  Cu8  1  0.999975  0.999977  0.333337  1
  Cu  Cu9  1  0.499999  0.500104  0.500124  1
  Cu  Cu10  1  0.000015  0.999311  0.666819  1
  Cu  Cu11  1  0.500011  0.501266  0.833335  1
  Pd  Pd12  1  0.000020  0.749689  0.833335  1
  Pt  Pt13  1  0.500001  0.250014  0.999953  1
  Pt  Pt14  1  0.500000  0.749969  0.999191  1
  Pt  Pt15  1  0.999981  0.250191  0.166729  1
  Pt  Pt16  1  0.999980  0.750223  0.166834  1
  Pt  Pt17  1  0.500001  0.250124  0.333337  1
  Pt  Pt18  1  0.499999  0.749820  0.333337  1
  Pt  Pt19  1  0.000000  0.250196  0.499932  1
  Pt  Pt20  1  0.000000  0.750225  0.499830  1
  Pt  Pt21  1  0.500002  0.250011  0.666710  1
  Pt  Pt22  1  0.499998  0.749973  0.667472  1
  Pt  Pt23  1  0.000025  0.249552  0.833335  1
