# generated using pymatgen
data_Ti2NbCo(BRu2)2
_symmetry_space_group_name_H-M   'P 1'
_cell_length_a   9.13789146
_cell_length_b   9.13789146
_cell_length_c   3.01415700
_cell_angle_alpha   90.00000000
_cell_angle_beta   90.00000000
_cell_angle_gamma   89.81852978
_symmetry_Int_Tables_number   1
_chemical_formula_structural   Ti2NbCo(BRu2)2
_chemical_formula_sum   'Ti4 Nb2 Co2 B4 Ru8'
_cell_volume   251.68404304
_cell_formula_units_Z   2
loop_
 _symmetry_equiv_pos_site_id
 _symmetry_equiv_pos_as_xyz
  1  'x, y, z'
loop_
 _atom_site_type_symbol
 _atom_site_label
 _atom_site_symmetry_multiplicity
 _atom_site_fract_x
 _atom_site_fract_y
 _atom_site_fract_z
 _atom_site_occupancy
  Ti  Ti0  1  0.824941  0.675059  0.000000  1
  Ti  Ti1  1  0.175059  0.324941  0.000000  1
  Ti  Ti2  1  0.500000  0.500000  0.000000  1
  Ti  Ti3  1  0.000000  0.000000  0.000000  1
  Nb  Nb4  1  0.322207  0.822207  0.000000  1
  Nb  Nb5  1  0.677793  0.177793  0.000000  1
  Co  Co6  1  0.500000  0.000000  0.500000  1
  Co  Co7  1  0.000000  0.500000  0.500000  1
  B  B8  1  0.614879  0.885121  0.000000  1
  B  B9  1  0.385121  0.114879  0.000000  1
  B  B10  1  0.112476  0.612476  0.000000  1
  B  B11  1  0.887524  0.387524  0.000000  1
  Ru  Ru12  1  0.565326  0.721449  0.500000  1
  Ru  Ru13  1  0.434674  0.278551  0.500000  1
  Ru  Ru14  1  0.061617  0.777077  0.500000  1
  Ru  Ru15  1  0.938383  0.222923  0.500000  1
  Ru  Ru16  1  0.277077  0.561617  0.500000  1
  Ru  Ru17  1  0.722923  0.438383  0.500000  1
  Ru  Ru18  1  0.221449  0.065326  0.500000  1
  Ru  Ru19  1  0.778551  0.934674  0.500000  1
