# generated using pymatgen
data_Ti3BeP2IrRu2
_symmetry_space_group_name_H-M   'P 1'
_cell_length_a   6.28669708
_cell_length_b   6.28846710
_cell_length_c   3.54857000
_cell_angle_alpha   90.00000000
_cell_angle_beta   90.00000000
_cell_angle_gamma   120.00930994
_symmetry_Int_Tables_number   1
_chemical_formula_structural   Ti3BeP2IrRu2
_chemical_formula_sum   'Ti3 Be1 P2 Ir1 Ru2'
_cell_volume   121.48162321
_cell_formula_units_Z   1
loop_
 _symmetry_equiv_pos_site_id
 _symmetry_equiv_pos_as_xyz
  1  'x, y, z'
loop_
 _atom_site_type_symbol
 _atom_site_label
 _atom_site_symmetry_multiplicity
 _atom_site_fract_x
 _atom_site_fract_y
 _atom_site_fract_z
 _atom_site_occupancy
  Ti  Ti0  1  0.413800  0.410347  0.500000  1
  Ti  Ti1  1  0.586200  0.996547  0.500000  1
  Ti  Ti2  1  0.000000  0.594912  0.500000  1
  Be  Be3  1  0.000000  0.003969  0.500000  1
  P  P4  1  0.666680  0.332605  0.000000  1
  P  P5  1  0.333320  0.665926  0.000000  1
  Ir  Ir6  1  0.000000  0.246497  0.000000  1
  Ru  Ru7  1  0.247599  0.998399  0.000000  1
  Ru  Ru8  1  0.752401  0.750799  0.000000  1
