# generated using pymatgen
data_Nd12Ga3SiBr12
_symmetry_space_group_name_H-M   'P 1'
_cell_length_a   10.47662522
_cell_length_b   10.44018369
_cell_length_c   10.44020968
_cell_angle_alpha   109.40004976
_cell_angle_beta   109.54139568
_cell_angle_gamma   109.54182553
_symmetry_Int_Tables_number   1
_chemical_formula_structural   Nd12Ga3SiBr12
_chemical_formula_sum   'Nd12 Ga3 Si1 Br12'
_cell_volume   878.29935886
_cell_formula_units_Z   1
loop_
 _symmetry_equiv_pos_site_id
 _symmetry_equiv_pos_as_xyz
  1  'x, y, z'
loop_
 _atom_site_type_symbol
 _atom_site_label
 _atom_site_symmetry_multiplicity
 _atom_site_fract_x
 _atom_site_fract_y
 _atom_site_fract_z
 _atom_site_occupancy
  Nd  Nd0  1  0.481047  0.491581  0.239492  1
  Nd  Nd1  1  0.749999  0.241641  0.258360  1
  Nd  Nd2  1  0.749999  0.007851  0.492145  1
  Nd  Nd3  1  0.242150  0.484299  0.492148  1
  Nd  Nd4  1  0.258446  0.747914  0.239498  1
  Nd  Nd5  1  0.018955  0.260508  0.008420  1
  Nd  Nd6  1  0.008360  0.016717  0.258357  1
  Nd  Nd7  1  0.489470  0.747913  0.008418  1
  Nd  Nd8  1  0.491639  0.241641  0.483280  1
  Nd  Nd9  1  0.010534  0.491581  0.752088  1
  Nd  Nd10  1  0.257850  0.007849  0.015701  1
  Nd  Nd11  1  0.241558  0.260504  0.752089  1
  Ga  Ga12  1  0.249997  0.249842  0.250158  1
  Ga  Ga13  1  0.500158  0.000315  0.250159  1
  Ga  Ga14  1  0.999842  0.249845  0.499687  1
  Si  Si15  1  0.249999  0.499997  0.999997  1
  Br  Br16  1  0.249997  0.754459  0.745537  1
  Br  Br17  1  0.509986  0.505153  0.755500  1
  Br  Br18  1  0.990014  0.744500  0.994844  1
  Br  Br19  1  0.745518  0.250350  0.755499  1
  Br  Br20  1  0.995539  0.991079  0.745539  1
  Br  Br21  1  0.250001  0.994864  0.505137  1
  Br  Br22  1  0.755133  0.510266  0.505134  1
  Br  Br23  1  0.504830  0.250345  0.994847  1
  Br  Br24  1  0.754485  0.744500  0.249655  1
  Br  Br25  1  0.744863  0.994861  0.989726  1
  Br  Br26  1  0.995168  0.505159  0.249655  1
  Br  Br27  1  0.504464  0.754464  0.508928  1
