# generated using pymatgen
data_Dy10Y2InCo4Cu
_symmetry_space_group_name_H-M   'P 1'
_cell_length_a   8.33240687
_cell_length_b   8.33240719
_cell_length_c   8.31203233
_cell_angle_alpha   111.03518811
_cell_angle_beta   110.65205075
_cell_angle_gamma   106.86435644
_symmetry_Int_Tables_number   1
_chemical_formula_structural   Dy10Y2InCo4Cu
_chemical_formula_sum   'Dy10 Y2 In1 Co4 Cu1'
_cell_volume   442.95844370
_cell_formula_units_Z   1
loop_
 _symmetry_equiv_pos_site_id
 _symmetry_equiv_pos_as_xyz
  1  'x, y, z'
loop_
 _atom_site_type_symbol
 _atom_site_label
 _atom_site_symmetry_multiplicity
 _atom_site_fract_x
 _atom_site_fract_y
 _atom_site_fract_z
 _atom_site_occupancy
  Dy  Dy0  1  0.185105  0.708349  0.893455  1
  Dy  Dy1  1  0.814895  0.291651  0.106545  1
  Dy  Dy2  1  0.315370  0.620993  0.305088  1
  Dy  Dy3  1  0.684630  0.379007  0.694912  1
  Dy  Dy4  1  0.315907  0.010283  0.694912  1
  Dy  Dy5  1  0.684093  0.989717  0.305088  1
  Dy  Dy6  1  0.416061  0.216641  0.198426  1
  Dy  Dy7  1  0.583939  0.783359  0.801574  1
  Dy  Dy8  1  0.018215  0.217634  0.801574  1
  Dy  Dy9  1  0.981785  0.782366  0.198426  1
  Y  Y10  1  0.186708  0.290170  0.476876  1
  Y  Y11  1  0.813292  0.709830  0.523124  1
  In  In12  1  0.500000  0.500000  0.000000  1
  Co  Co13  1  0.112327  0.612327  0.500000  1
  Co  Co14  1  0.887673  0.387673  0.500000  1
  Co  Co15  1  0.376865  0.999770  0.376634  1
  Co  Co16  1  0.623135  0.000230  0.623366  1
  Cu  Cu17  1  0.000000  0.000000  0.000000  1
