# generated using pymatgen
data_Dy6Ho4Sn5Sb
_symmetry_space_group_name_H-M   'P 1'
_cell_length_a   8.96668800
_cell_length_b   8.95797878
_cell_length_c   6.48893500
_cell_angle_alpha   90.00000000
_cell_angle_beta   90.00000000
_cell_angle_gamma   120.03215896
_symmetry_Int_Tables_number   1
_chemical_formula_structural   Dy6Ho4Sn5Sb
_chemical_formula_sum   'Dy6 Ho4 Sn5 Sb1'
_cell_volume   451.23763749
_cell_formula_units_Z   1
loop_
 _symmetry_equiv_pos_site_id
 _symmetry_equiv_pos_as_xyz
  1  'x, y, z'
loop_
 _atom_site_type_symbol
 _atom_site_label
 _atom_site_symmetry_multiplicity
 _atom_site_fract_x
 _atom_site_fract_y
 _atom_site_fract_z
 _atom_site_occupancy
  Dy  Dy0  1  0.998038  0.760053  0.750000  1
  Dy  Dy1  1  0.000677  0.238986  0.250000  1
  Dy  Dy2  1  0.761692  0.761014  0.250000  1
  Dy  Dy3  1  0.761883  0.000000  0.750000  1
  Dy  Dy4  1  0.237984  0.239947  0.750000  1
  Dy  Dy5  1  0.239033  0.000000  0.250000  1
  Ho  Ho6  1  0.333149  0.665700  0.499824  1
  Ho  Ho7  1  0.667450  0.334300  0.000176  1
  Ho  Ho8  1  0.667450  0.334300  0.499824  1
  Ho  Ho9  1  0.333149  0.665700  0.000176  1
  Sn  Sn10  1  0.395696  0.394926  0.250000  1
  Sn  Sn11  1  0.000771  0.605074  0.250000  1
  Sn  Sn12  1  0.999829  0.395615  0.750000  1
  Sn  Sn13  1  0.604214  0.604385  0.750000  1
  Sn  Sn14  1  0.605259  0.000000  0.250000  1
  Sb  Sb15  1  0.393724  0.000000  0.750000  1
