# generated using pymatgen
data_Hf2CuRh4Au
_symmetry_space_group_name_H-M   'P 1'
_cell_length_a   4.06736400
_cell_length_b   5.55540469
_cell_length_c   11.09870045
_cell_angle_alpha   87.78877266
_cell_angle_beta   90.00000000
_cell_angle_gamma   90.00000000
_symmetry_Int_Tables_number   1
_chemical_formula_structural   Hf2CuRh4Au
_chemical_formula_sum   'Hf4 Cu2 Rh8 Au2'
_cell_volume   250.59786380
_cell_formula_units_Z   2
loop_
 _symmetry_equiv_pos_site_id
 _symmetry_equiv_pos_as_xyz
  1  'x, y, z'
loop_
 _atom_site_type_symbol
 _atom_site_label
 _atom_site_symmetry_multiplicity
 _atom_site_fract_x
 _atom_site_fract_y
 _atom_site_fract_z
 _atom_site_occupancy
  Hf  Hf0  1  0.500000  0.210132  0.624728  1
  Hf  Hf1  1  0.500000  0.789868  0.375272  1
  Hf  Hf2  1  0.500000  0.739588  0.877853  1
  Hf  Hf3  1  0.500000  0.260412  0.122147  1
  Cu  Cu4  1  0.000000  0.500000  0.500000  1
  Cu  Cu5  1  0.000000  0.000000  0.000000  1
  Rh  Rh6  1  0.500000  0.227763  0.879483  1
  Rh  Rh7  1  0.500000  0.772237  0.120517  1
  Rh  Rh8  1  0.500000  0.724052  0.618179  1
  Rh  Rh9  1  0.500000  0.275948  0.381821  1
  Rh  Rh10  1  0.000000  0.000000  0.500000  1
  Rh  Rh11  1  0.000000  0.500000  0.000000  1
  Rh  Rh12  1  0.000000  0.026152  0.247886  1
  Rh  Rh13  1  0.000000  0.973848  0.752114  1
  Au  Au14  1  0.000000  0.474319  0.747743  1
  Au  Au15  1  0.000000  0.525681  0.252257  1
