# generated using pymatgen
data_Zn41Ir8
_symmetry_space_group_name_H-M   'P 1'
_cell_length_a   9.24975741
_cell_length_b   9.24975688
_cell_length_c   9.24975700
_cell_angle_alpha   94.78021004
_cell_angle_beta   94.78020977
_cell_angle_gamma   94.78020632
_symmetry_Int_Tables_number   1
_chemical_formula_structural   Zn41Ir8
_chemical_formula_sum   'Zn41 Ir8'
_cell_volume   782.64070599
_cell_formula_units_Z   1
loop_
 _symmetry_equiv_pos_site_id
 _symmetry_equiv_pos_as_xyz
  1  'x, y, z'
loop_
 _atom_site_type_symbol
 _atom_site_label
 _atom_site_symmetry_multiplicity
 _atom_site_fract_x
 _atom_site_fract_y
 _atom_site_fract_z
 _atom_site_occupancy
  Zn  Zn0  1  0.000000  0.000000  0.000000  1
  Zn  Zn1  1  0.500000  0.500000  0.500000  1
  Zn  Zn2  1  0.000000  0.500000  0.500000  1
  Zn  Zn3  1  0.500000  0.000000  0.500000  1
  Zn  Zn4  1  0.500000  0.500000  0.000000  1
  Zn  Zn5  1  0.777351  0.451648  0.074294  1
  Zn  Zn6  1  0.074294  0.777351  0.451648  1
  Zn  Zn7  1  0.451648  0.074294  0.777351  1
  Zn  Zn8  1  0.222649  0.548352  0.925706  1
  Zn  Zn9  1  0.925706  0.222649  0.548352  1
  Zn  Zn10  1  0.548352  0.925706  0.222649  1
  Zn  Zn11  1  0.730659  0.052302  0.870276  1
  Zn  Zn12  1  0.870276  0.730659  0.052302  1
  Zn  Zn13  1  0.052302  0.870276  0.730659  1
  Zn  Zn14  1  0.269341  0.947698  0.129724  1
  Zn  Zn15  1  0.129724  0.269341  0.947698  1
  Zn  Zn16  1  0.947698  0.129724  0.269341  1
  Zn  Zn17  1  0.680448  0.181195  0.127112  1
  Zn  Zn18  1  0.127112  0.680448  0.181195  1
  Zn  Zn19  1  0.181195  0.127112  0.680448  1
  Zn  Zn20  1  0.319552  0.818805  0.872888  1
  Zn  Zn21  1  0.872888  0.319552  0.818805  1
  Zn  Zn22  1  0.818805  0.872888  0.319552  1
  Zn  Zn23  1  0.394613  0.368203  0.731595  1
  Zn  Zn24  1  0.731595  0.394613  0.368203  1
  Zn  Zn25  1  0.368203  0.731595  0.394613  1
  Zn  Zn26  1  0.605387  0.631797  0.268405  1
  Zn  Zn27  1  0.268405  0.605387  0.631797  1
  Zn  Zn28  1  0.631797  0.268405  0.605387  1
  Zn  Zn29  1  0.963759  0.595476  0.780991  1
  Zn  Zn30  1  0.780991  0.963759  0.595476  1
  Zn  Zn31  1  0.595476  0.780991  0.963759  1
  Zn  Zn32  1  0.036241  0.404524  0.219009  1
  Zn  Zn33  1  0.219009  0.036241  0.404524  1
  Zn  Zn34  1  0.404524  0.219009  0.036241  1
  Zn  Zn35  1  0.665020  0.537861  0.768055  1
  Zn  Zn36  1  0.768055  0.665020  0.537861  1
  Zn  Zn37  1  0.537861  0.768055  0.665020  1
  Zn  Zn38  1  0.334980  0.462139  0.231945  1
  Zn  Zn39  1  0.231945  0.334980  0.462139  1
  Zn  Zn40  1  0.462139  0.231945  0.334980  1
  Ir  Ir41  1  0.618289  0.287417  0.888580  1
  Ir  Ir42  1  0.888580  0.618289  0.287417  1
  Ir  Ir43  1  0.287417  0.888580  0.618289  1
  Ir  Ir44  1  0.381711  0.712583  0.111420  1
  Ir  Ir45  1  0.111420  0.381711  0.712583  1
  Ir  Ir46  1  0.712583  0.111420  0.381711  1
  Ir  Ir47  1  0.809289  0.809289  0.809289  1
  Ir  Ir48  1  0.190711  0.190711  0.190711  1
