# generated using pymatgen
data_Ce2NdAl11
_symmetry_space_group_name_H-M   'P 1'
_cell_length_a   8.42487471
_cell_length_b   8.42487533
_cell_length_c   8.42487479
_cell_angle_alpha   149.66234772
_cell_angle_beta   108.52346018
_cell_angle_gamma   79.58615969
_symmetry_Int_Tables_number   1
_chemical_formula_structural   Ce2NdAl11
_chemical_formula_sum   'Ce2 Nd1 Al11'
_cell_volume   280.88895158
_cell_formula_units_Z   1
loop_
 _symmetry_equiv_pos_site_id
 _symmetry_equiv_pos_as_xyz
  1  'x, y, z'
loop_
 _atom_site_type_symbol
 _atom_site_label
 _atom_site_symmetry_multiplicity
 _atom_site_fract_x
 _atom_site_fract_y
 _atom_site_fract_z
 _atom_site_occupancy
  Ce  Ce0  1  0.315233  0.315233  0.000000  1
  Ce  Ce1  1  0.684767  0.684767  0.000000  1
  Nd  Nd2  1  0.000000  0.000000  0.000000  1
  Al  Al3  1  0.700620  0.334410  0.366209  1
  Al  Al4  1  0.299380  0.665590  0.633790  1
  Al  Al5  1  0.968200  0.334410  0.633790  1
  Al  Al6  1  0.031800  0.665590  0.366209  1
  Al  Al7  1  0.708190  0.500000  0.208190  1
  Al  Al8  1  0.291810  0.500000  0.791810  1
  Al  Al9  1  0.410813  0.135572  0.275242  1
  Al  Al10  1  0.589187  0.864428  0.724758  1
  Al  Al11  1  0.860330  0.135572  0.724758  1
  Al  Al12  1  0.139670  0.864428  0.275242  1
  Al  Al13  1  0.500000  0.000000  0.500000  1
