# generated using pymatgen
data_YbAl4O7
_symmetry_space_group_name_H-M   'P 1'
_cell_length_a   5.47069287
_cell_length_b   7.86075068
_cell_length_c   7.86076244
_cell_angle_alpha   68.94664148
_cell_angle_beta   76.37471611
_cell_angle_gamma   76.37470045
_symmetry_Int_Tables_number   1
_chemical_formula_structural   YbAl4O7
_chemical_formula_sum   'Yb2 Al8 O14'
_cell_volume   302.32245160
_cell_formula_units_Z   2
loop_
 _symmetry_equiv_pos_site_id
 _symmetry_equiv_pos_as_xyz
  1  'x, y, z'
loop_
 _atom_site_type_symbol
 _atom_site_label
 _atom_site_symmetry_multiplicity
 _atom_site_fract_x
 _atom_site_fract_y
 _atom_site_fract_z
 _atom_site_occupancy
  Yb  Yb0  1  0.250000  0.808984  0.191016  1
  Yb  Yb1  1  0.750000  0.191016  0.808984  1
  Al  Al2  1  0.195585  0.248848  0.076303  1
  Al  Al3  1  0.695585  0.076303  0.248848  1
  Al  Al4  1  0.740141  0.439632  0.320988  1
  Al  Al5  1  0.240141  0.320988  0.439631  1
  Al  Al6  1  0.759859  0.679012  0.560369  1
  Al  Al7  1  0.259860  0.560369  0.679012  1
  Al  Al8  1  0.304415  0.923696  0.751152  1
  Al  Al9  1  0.804415  0.751152  0.923696  1
  O  O10  1  0.930205  0.168330  0.058639  1
  O  O11  1  0.642968  0.628575  0.136998  1
  O  O12  1  0.430206  0.058639  0.168329  1
  O  O13  1  0.078527  0.364035  0.249489  1
  O  O14  1  0.578527  0.249489  0.364035  1
  O  O15  1  0.857033  0.863002  0.371426  1
  O  O16  1  0.250000  0.534721  0.465280  1
  O  O17  1  0.750000  0.465280  0.534720  1
  O  O18  1  0.142967  0.136999  0.628574  1
  O  O19  1  0.421474  0.750511  0.635965  1
  O  O20  1  0.921474  0.635965  0.750511  1
  O  O21  1  0.569794  0.941361  0.831670  1
  O  O22  1  0.357034  0.371426  0.863002  1
  O  O23  1  0.069794  0.831670  0.941361  1
