# generated using pymatgen
data_Pr2Nd2Se3N2
_symmetry_space_group_name_H-M   'P 1'
_cell_length_a   8.38086306
_cell_length_b   8.38086210
_cell_length_c   6.51814156
_cell_angle_alpha   89.90273735
_cell_angle_beta   89.90274089
_cell_angle_gamma   75.51107143
_symmetry_Int_Tables_number   1
_chemical_formula_structural   Pr2Nd2Se3N2
_chemical_formula_sum   'Pr4 Nd4 Se6 N4'
_cell_volume   443.26507277
_cell_formula_units_Z   2
loop_
 _symmetry_equiv_pos_site_id
 _symmetry_equiv_pos_as_xyz
  1  'x, y, z'
loop_
 _atom_site_type_symbol
 _atom_site_label
 _atom_site_symmetry_multiplicity
 _atom_site_fract_x
 _atom_site_fract_y
 _atom_site_fract_z
 _atom_site_occupancy
  Pr  Pr0  1  0.942933  0.309704  0.530314  1
  Pr  Pr1  1  0.690296  0.057067  0.969686  1
  Pr  Pr2  1  0.057067  0.690296  0.469686  1
  Pr  Pr3  1  0.309704  0.942933  0.030314  1
  Nd  Nd4  1  0.585615  0.744098  0.572017  1
  Nd  Nd5  1  0.255902  0.414385  0.927983  1
  Nd  Nd6  1  0.414385  0.255902  0.427983  1
  Nd  Nd7  1  0.744098  0.585615  0.072017  1
  Se  Se8  1  0.984218  0.247764  0.034592  1
  Se  Se9  1  0.403963  0.596037  0.250000  1
  Se  Se10  1  0.752236  0.015782  0.465408  1
  Se  Se11  1  0.015782  0.752236  0.965408  1
  Se  Se12  1  0.596037  0.403963  0.750000  1
  Se  Se13  1  0.247764  0.984218  0.534592  1
  N  N14  1  0.828140  0.582412  0.414163  1
  N  N15  1  0.582412  0.828140  0.914163  1
  N  N16  1  0.171860  0.417588  0.585837  1
  N  N17  1  0.417588  0.171860  0.085837  1
