# generated using pymatgen
data_SrCu(Sb4Ru)3
_symmetry_space_group_name_H-M   'P 1'
_cell_length_a   8.18073296
_cell_length_b   8.17025663
_cell_length_c   8.17025684
_cell_angle_alpha   109.44523661
_cell_angle_beta   109.49719587
_cell_angle_gamma   109.49720025
_symmetry_Int_Tables_number   1
_chemical_formula_structural   SrCu(Sb4Ru)3
_chemical_formula_sum   'Sr1 Cu1 Sb12 Ru3'
_cell_volume   420.24481918
_cell_formula_units_Z   1
loop_
 _symmetry_equiv_pos_site_id
 _symmetry_equiv_pos_as_xyz
  1  'x, y, z'
loop_
 _atom_site_type_symbol
 _atom_site_label
 _atom_site_symmetry_multiplicity
 _atom_site_fract_x
 _atom_site_fract_y
 _atom_site_fract_z
 _atom_site_occupancy
  Sr  Sr0  1  0.000000  0.000000  0.000000  1
  Cu  Cu1  1  0.500000  0.000000  0.000000  1
  Sb  Sb2  1  0.158977  0.498817  0.340709  1
  Sb  Sb3  1  0.499978  0.652708  0.839631  1
  Sb  Sb4  1  0.339653  0.839631  0.186924  1
  Sb  Sb5  1  0.818267  0.659291  0.158108  1
  Sb  Sb6  1  0.660160  0.841892  0.501183  1
  Sb  Sb7  1  0.181733  0.340709  0.841892  1
  Sb  Sb8  1  0.660347  0.160369  0.813076  1
  Sb  Sb9  1  0.339840  0.158108  0.498817  1
  Sb  Sb10  1  0.500022  0.347292  0.160369  1
  Sb  Sb11  1  0.841023  0.501183  0.659291  1
  Sb  Sb12  1  0.847270  0.186924  0.347292  1
  Sb  Sb13  1  0.152730  0.813076  0.652708  1
  Ru  Ru14  1  0.500000  0.500000  0.500000  1
  Ru  Ru15  1  0.000000  0.500000  0.000000  1
  Ru  Ru16  1  0.000000  0.000000  0.500000  1
