# generated using pymatgen
data_Hf7Zr5(IrRh)6
_symmetry_space_group_name_H-M   'P 1'
_cell_length_a   4.46105022
_cell_length_b   6.75065299
_cell_length_c   14.51395117
_cell_angle_alpha   83.00410957
_cell_angle_beta   89.91836277
_cell_angle_gamma   90.01334817
_symmetry_Int_Tables_number   1
_chemical_formula_structural   Hf7Zr5(IrRh)6
_chemical_formula_sum   'Hf7 Zr5 Ir6 Rh6'
_cell_volume   433.83302643
_cell_formula_units_Z   1
loop_
 _symmetry_equiv_pos_site_id
 _symmetry_equiv_pos_as_xyz
  1  'x, y, z'
loop_
 _atom_site_type_symbol
 _atom_site_label
 _atom_site_symmetry_multiplicity
 _atom_site_fract_x
 _atom_site_fract_y
 _atom_site_fract_z
 _atom_site_occupancy
  Hf  Hf0  1  0.498592  0.805995  0.339865  1
  Hf  Hf1  1  0.999769  0.272959  0.501855  1
  Hf  Hf2  1  0.999784  0.771674  0.501861  1
  Hf  Hf3  1  0.501002  0.229246  0.664517  1
  Hf  Hf4  1  0.500980  0.730858  0.665774  1
  Hf  Hf5  1  0.001366  0.191905  0.826249  1
  Hf  Hf6  1  0.001376  0.692977  0.827392  1
  Zr  Zr7  1  0.500413  0.143266  0.006622  1
  Zr  Zr8  1  0.500407  0.640791  0.006363  1
  Zr  Zr9  1  0.998882  0.354737  0.159139  1
  Zr  Zr10  1  0.998828  0.857802  0.159977  1
  Zr  Zr11  1  0.498668  0.307571  0.340265  1
  Ir  Ir12  1  0.000897  0.404232  0.971059  1
  Ir  Ir13  1  0.498301  0.092501  0.194494  1
  Ir  Ir14  1  0.998140  0.558404  0.346371  1
  Ir  Ir15  1  0.499566  0.023830  0.504684  1
  Ir  Ir16  1  0.001299  0.477930  0.663578  1
  Ir  Ir17  1  0.501706  0.945128  0.820038  1
  Rh  Rh18  1  0.000930  0.905307  0.970794  1
  Rh  Rh19  1  0.498280  0.596359  0.194214  1
  Rh  Rh20  1  0.998034  0.046596  0.346224  1
  Rh  Rh21  1  0.499960  0.529202  0.506740  1
  Rh  Rh22  1  0.001059  0.975087  0.662476  1
  Rh  Rh23  1  0.501760  0.445640  0.819449  1
