# generated using pymatgen
data_Tb2PrHo(Ir2O7)2
_symmetry_space_group_name_H-M   'P 1'
_cell_length_a   7.31414801
_cell_length_b   7.26792566
_cell_length_c   7.26792545
_cell_angle_alpha   60.08244218
_cell_angle_beta   60.27879661
_cell_angle_gamma   60.27879175
_symmetry_Int_Tables_number   1
_chemical_formula_structural   Tb2PrHo(Ir2O7)2
_chemical_formula_sum   'Tb2 Pr1 Ho1 Ir4 O14'
_cell_volume   274.51059737
_cell_formula_units_Z   1
loop_
 _symmetry_equiv_pos_site_id
 _symmetry_equiv_pos_as_xyz
  1  'x, y, z'
loop_
 _atom_site_type_symbol
 _atom_site_label
 _atom_site_symmetry_multiplicity
 _atom_site_fract_x
 _atom_site_fract_y
 _atom_site_fract_z
 _atom_site_occupancy
  Tb  Tb0  1  0.125000  0.125000  0.625000  1
  Tb  Tb1  1  0.125000  0.625000  0.125000  1
  Pr  Pr2  1  0.625000  0.125000  0.125000  1
  Ho  Ho3  1  0.125000  0.125000  0.125000  1
  Ir  Ir4  1  0.625000  0.625000  0.625000  1
  Ir  Ir5  1  0.125000  0.625000  0.625000  1
  Ir  Ir6  1  0.625000  0.125000  0.625000  1
  Ir  Ir7  1  0.625000  0.625000  0.125000  1
  O  O8  1  0.961162  0.539379  0.539379  1
  O  O9  1  0.288439  0.289688  0.712084  1
  O  O10  1  0.961561  0.537916  0.960312  1
  O  O11  1  0.720667  0.289233  0.289233  1
  O  O12  1  0.530987  0.548228  0.960351  1
  O  O13  1  0.530987  0.960351  0.548228  1
  O  O14  1  0.529333  0.960767  0.960767  1
  O  O15  1  0.238879  0.252252  0.252252  1
  O  O16  1  0.288838  0.710621  0.710621  1
  O  O17  1  0.719013  0.289649  0.701772  1
  O  O18  1  0.011121  0.997748  0.997748  1
  O  O19  1  0.961561  0.960312  0.537916  1
  O  O20  1  0.288439  0.712084  0.289688  1
  O  O21  1  0.719013  0.701772  0.289649  1
