# generated using pymatgen
data_Zr3Zn3Ga2Ni
_symmetry_space_group_name_H-M   'P 1'
_cell_length_a   6.56660000
_cell_length_b   6.56659914
_cell_length_c   4.07478100
_cell_angle_alpha   90.00000000
_cell_angle_beta   90.00000000
_cell_angle_gamma   119.99999426
_symmetry_Int_Tables_number   1
_chemical_formula_structural   Zr3Zn3Ga2Ni
_chemical_formula_sum   'Zr3 Zn3 Ga2 Ni1'
_cell_volume   152.16542980
_cell_formula_units_Z   1
loop_
 _symmetry_equiv_pos_site_id
 _symmetry_equiv_pos_as_xyz
  1  'x, y, z'
loop_
 _atom_site_type_symbol
 _atom_site_label
 _atom_site_symmetry_multiplicity
 _atom_site_fract_x
 _atom_site_fract_y
 _atom_site_fract_z
 _atom_site_occupancy
  Zr  Zr0  1  0.000000  0.402758  0.500000  1
  Zr  Zr1  1  0.597242  0.597242  0.500000  1
  Zr  Zr2  1  0.402758  0.000000  0.500000  1
  Zn  Zn3  1  0.000000  0.763002  0.000000  1
  Zn  Zn4  1  0.236998  0.236998  0.000000  1
  Zn  Zn5  1  0.763002  0.000000  0.000000  1
  Ga  Ga6  1  0.333333  0.666667  0.000000  1
  Ga  Ga7  1  0.666667  0.333333  0.000000  1
  Ni  Ni8  1  0.000000  0.000000  0.500000  1
