# generated using pymatgen
data_Er12InNi4Pd
_symmetry_space_group_name_H-M   'P 1'
_cell_length_a   8.27031708
_cell_length_b   8.27031677
_cell_length_c   8.27031803
_cell_angle_alpha   111.56125322
_cell_angle_beta   109.84403408
_cell_angle_gamma   107.04025019
_symmetry_Int_Tables_number   1
_chemical_formula_structural   Er12InNi4Pd
_chemical_formula_sum   'Er12 In1 Ni4 Pd1'
_cell_volume   434.76930726
_cell_formula_units_Z   1
loop_
 _symmetry_equiv_pos_site_id
 _symmetry_equiv_pos_as_xyz
  1  'x, y, z'
loop_
 _atom_site_type_symbol
 _atom_site_label
 _atom_site_symmetry_multiplicity
 _atom_site_fract_x
 _atom_site_fract_y
 _atom_site_fract_z
 _atom_site_occupancy
  Er  Er0  1  0.322151  0.628332  0.306182  1
  Er  Er1  1  0.677849  0.371668  0.693818  1
  Er  Er2  1  0.322151  0.015968  0.693818  1
  Er  Er3  1  0.677849  0.984032  0.306182  1
  Er  Er4  1  0.184870  0.295814  0.480684  1
  Er  Er5  1  0.815130  0.704186  0.519316  1
  Er  Er6  1  0.184870  0.704186  0.889056  1
  Er  Er7  1  0.815130  0.295814  0.110944  1
  Er  Er8  1  0.412413  0.217827  0.194585  1
  Er  Er9  1  0.587587  0.782173  0.805415  1
  Er  Er10  1  0.023243  0.217827  0.805415  1
  Er  Er11  1  0.976757  0.782173  0.194585  1
  In  In12  1  0.500000  0.500000  0.000000  1
  Ni  Ni13  1  0.123730  0.623730  0.500000  1
  Ni  Ni14  1  0.876270  0.376270  0.500000  1
  Ni  Ni15  1  0.360828  0.000000  0.360828  1
  Ni  Ni16  1  0.639172  0.000000  0.639172  1
  Pd  Pd17  1  0.000000  0.000000  0.000000  1
