# generated using pymatgen
data_CaLa5TbCoI12
_symmetry_space_group_name_H-M   'P 1'
_cell_length_a   10.12523009
_cell_length_b   9.95851807
_cell_length_c   10.17388110
_cell_angle_alpha   106.99803869
_cell_angle_beta   106.79408542
_cell_angle_gamma   107.05231482
_symmetry_Int_Tables_number   1
_chemical_formula_structural   CaLa5TbCoI12
_chemical_formula_sum   'Ca1 La5 Tb1 Co1 I12'
_cell_volume   855.54430400
_cell_formula_units_Z   1
loop_
 _symmetry_equiv_pos_site_id
 _symmetry_equiv_pos_as_xyz
  1  'x, y, z'
loop_
 _atom_site_type_symbol
 _atom_site_label
 _atom_site_symmetry_multiplicity
 _atom_site_fract_x
 _atom_site_fract_y
 _atom_site_fract_z
 _atom_site_occupancy
  Ca  Ca0  1  0.499538  0.501522  0.500553  1
  La  La1  1  0.024516  0.103170  0.307724  1
  La  La2  1  0.092362  0.287481  0.024403  1
  La  La3  1  0.310053  0.024967  0.101254  1
  La  La4  1  0.975743  0.896763  0.692022  1
  La  La5  1  0.902222  0.710959  0.974174  1
  Tb  Tb6  1  0.704822  0.974489  0.901656  1
  Co  Co7  1  0.999241  0.998757  0.999493  1
  I  I8  1  0.162727  0.467887  0.384741  1
  I  I9  1  0.462199  0.387731  0.162008  1
  I  I10  1  0.382398  0.158594  0.461996  1
  I  I11  1  0.835612  0.531891  0.615301  1
  I  I12  1  0.537674  0.625962  0.840146  1
  I  I13  1  0.618195  0.848849  0.550438  1
  I  I14  1  0.676940  0.067769  0.212286  1
  I  I15  1  0.073579  0.230255  0.680207  1
  I  I16  1  0.222477  0.674084  0.071387  1
  I  I17  1  0.327440  0.929143  0.775562  1
  I  I18  1  0.925697  0.769677  0.319886  1
  I  I19  1  0.766565  0.310048  0.924763  1
