# generated using pymatgen
data_Ho14Er2Cd4Ir3Ru
_symmetry_space_group_name_H-M   'P 1'
_cell_length_a   9.61236851
_cell_length_b   9.61236772
_cell_length_c   9.61017247
_cell_angle_alpha   59.72585567
_cell_angle_beta   59.72585717
_cell_angle_gamma   59.73869285
_symmetry_Int_Tables_number   1
_chemical_formula_structural   Ho14Er2Cd4Ir3Ru
_chemical_formula_sum   'Ho14 Er2 Cd4 Ir3 Ru1'
_cell_volume   624.03228466
_cell_formula_units_Z   1
loop_
 _symmetry_equiv_pos_site_id
 _symmetry_equiv_pos_as_xyz
  1  'x, y, z'
loop_
 _atom_site_type_symbol
 _atom_site_label
 _atom_site_symmetry_multiplicity
 _atom_site_fract_x
 _atom_site_fract_y
 _atom_site_fract_z
 _atom_site_occupancy
  Ho  Ho0  1  0.598570  0.205564  0.598587  1
  Ho  Ho1  1  0.205564  0.598570  0.598587  1
  Ho  Ho2  1  0.061817  0.438904  0.438655  1
  Ho  Ho3  1  0.438374  0.060016  0.060043  1
  Ho  Ho4  1  0.438904  0.061817  0.438655  1
  Ho  Ho5  1  0.060016  0.438374  0.060043  1
  Ho  Ho6  1  0.438850  0.438850  0.061811  1
  Ho  Ho7  1  0.060128  0.060128  0.438121  1
  Ho  Ho8  1  0.188618  0.811681  0.811916  1
  Ho  Ho9  1  0.810108  0.188029  0.188040  1
  Ho  Ho10  1  0.811681  0.188618  0.811916  1
  Ho  Ho11  1  0.188029  0.810108  0.188040  1
  Ho  Ho12  1  0.811688  0.811688  0.188718  1
  Ho  Ho13  1  0.187986  0.187986  0.810239  1
  Er  Er14  1  0.598974  0.598974  0.598926  1
  Er  Er15  1  0.598396  0.598396  0.206190  1
  Cd  Cd16  1  0.830013  0.830013  0.830136  1
  Cd  Cd17  1  0.830676  0.830676  0.506884  1
  Cd  Cd18  1  0.830673  0.506904  0.830698  1
  Cd  Cd19  1  0.506904  0.830673  0.830698  1
  Ir  Ir20  1  0.393418  0.393418  0.825762  1
  Ir  Ir21  1  0.393670  0.825522  0.393178  1
  Ir  Ir22  1  0.825522  0.393670  0.393178  1
  Ru  Ru23  1  0.391423  0.391423  0.390983  1
