# generated using pymatgen
data_CaMgCdP2
_symmetry_space_group_name_H-M   'P 1'
_cell_length_a   4.28150000
_cell_length_b   4.28150070
_cell_length_c   7.00336000
_cell_angle_alpha   90.00000000
_cell_angle_beta   90.00000000
_cell_angle_gamma   120.00001003
_symmetry_Int_Tables_number   1
_chemical_formula_structural   CaMgCdP2
_chemical_formula_sum   'Ca1 Mg1 Cd1 P2'
_cell_volume   111.18059839
_cell_formula_units_Z   1
loop_
 _symmetry_equiv_pos_site_id
 _symmetry_equiv_pos_as_xyz
  1  'x, y, z'
loop_
 _atom_site_type_symbol
 _atom_site_label
 _atom_site_symmetry_multiplicity
 _atom_site_fract_x
 _atom_site_fract_y
 _atom_site_fract_z
 _atom_site_occupancy
  Ca  Ca0  1  0.000000  0.000000  0.001553  1
  Mg  Mg1  1  0.333333  0.666667  0.635893  1
  Cd  Cd2  1  0.666667  0.333333  0.365443  1
  P  P3  1  0.666667  0.333333  0.753277  1
  P  P4  1  0.333333  0.666667  0.243833  1
