# generated using pymatgen
data_Lu2MnCo2Si5
_symmetry_space_group_name_H-M   'P 1'
_cell_length_a   7.94111181
_cell_length_b   7.93252423
_cell_length_c   7.93252442
_cell_angle_alpha   140.57596653
_cell_angle_beta   107.55260685
_cell_angle_gamma   85.73930535
_symmetry_Int_Tables_number   1
_chemical_formula_structural   Lu2MnCo2Si5
_chemical_formula_sum   'Lu4 Mn2 Co4 Si10'
_cell_volume   291.98508245
_cell_formula_units_Z   2
loop_
 _symmetry_equiv_pos_site_id
 _symmetry_equiv_pos_as_xyz
  1  'x, y, z'
loop_
 _atom_site_type_symbol
 _atom_site_label
 _atom_site_symmetry_multiplicity
 _atom_site_fract_x
 _atom_site_fract_y
 _atom_site_fract_z
 _atom_site_occupancy
  Lu  Lu0  1  0.869575  0.637880  0.231695  1
  Lu  Lu1  1  0.130425  0.362120  0.768305  1
  Lu  Lu2  1  0.406102  0.137847  0.268255  1
  Lu  Lu3  1  0.593898  0.862153  0.731745  1
  Mn  Mn4  1  0.000000  0.748048  0.748048  1
  Mn  Mn5  1  0.000000  0.251952  0.251952  1
  Co  Co6  1  0.262663  0.858163  0.404499  1
  Co  Co7  1  0.737337  0.141837  0.595501  1
  Co  Co8  1  0.453851  0.358234  0.095617  1
  Co  Co9  1  0.546149  0.641766  0.904383  1
  Si  Si10  1  0.500000  0.750081  0.250081  1
  Si  Si11  1  0.500000  0.249919  0.749919  1
  Si  Si12  1  0.215791  0.965900  0.750075  1
  Si  Si13  1  0.784209  0.534285  0.750109  1
  Si  Si14  1  0.784209  0.034100  0.249925  1
  Si  Si15  1  0.215791  0.465715  0.249891  1
  Si  Si16  1  0.073876  0.902473  0.171403  1
  Si  Si17  1  0.926124  0.097527  0.828597  1
  Si  Si18  1  0.730457  0.402275  0.328181  1
  Si  Si19  1  0.269543  0.597725  0.671819  1
