# generated using pymatgen
data_Tb10In3Ru
_symmetry_space_group_name_H-M   'P 1'
_cell_length_a   9.75079100
_cell_length_b   9.75079063
_cell_length_c   9.83245800
_cell_angle_alpha   90.00000000
_cell_angle_beta   90.00000000
_cell_angle_gamma   120.00000464
_symmetry_Int_Tables_number   1
_chemical_formula_structural   Tb10In3Ru
_chemical_formula_sum   'Tb20 In6 Ru2'
_cell_volume   809.60352535
_cell_formula_units_Z   2
loop_
 _symmetry_equiv_pos_site_id
 _symmetry_equiv_pos_as_xyz
  1  'x, y, z'
loop_
 _atom_site_type_symbol
 _atom_site_label
 _atom_site_symmetry_multiplicity
 _atom_site_fract_x
 _atom_site_fract_y
 _atom_site_fract_z
 _atom_site_occupancy
  Tb  Tb0  1  0.000000  0.000000  0.500000  1
  Tb  Tb1  1  0.000000  0.000000  0.000000  1
  Tb  Tb2  1  0.209699  0.790301  0.438636  1
  Tb  Tb3  1  0.209699  0.419400  0.438636  1
  Tb  Tb4  1  0.580600  0.790301  0.438636  1
  Tb  Tb5  1  0.790301  0.209699  0.561364  1
  Tb  Tb6  1  0.790301  0.580600  0.561364  1
  Tb  Tb7  1  0.419400  0.209699  0.561364  1
  Tb  Tb8  1  0.790301  0.209699  0.938636  1
  Tb  Tb9  1  0.790301  0.580600  0.938636  1
  Tb  Tb10  1  0.419400  0.209699  0.938636  1
  Tb  Tb11  1  0.209699  0.790301  0.061364  1
  Tb  Tb12  1  0.209699  0.419400  0.061364  1
  Tb  Tb13  1  0.580600  0.790301  0.061364  1
  Tb  Tb14  1  0.539746  0.460254  0.250000  1
  Tb  Tb15  1  0.539746  0.079491  0.250000  1
  Tb  Tb16  1  0.920509  0.460254  0.250000  1
  Tb  Tb17  1  0.460254  0.539746  0.750000  1
  Tb  Tb18  1  0.460254  0.920509  0.750000  1
  Tb  Tb19  1  0.079491  0.539746  0.750000  1
  In  In20  1  0.884672  0.115328  0.250000  1
  In  In21  1  0.884672  0.769345  0.250000  1
  In  In22  1  0.230655  0.115328  0.250000  1
  In  In23  1  0.115328  0.884672  0.750000  1
  In  In24  1  0.115328  0.230655  0.750000  1
  In  In25  1  0.769345  0.884672  0.750000  1
  Ru  Ru26  1  0.333333  0.666667  0.250000  1
  Ru  Ru27  1  0.666667  0.333333  0.750000  1
