# generated using pymatgen
data_Sr3Bi2Pb3O14
_symmetry_space_group_name_H-M   'P 1'
_cell_length_a   7.82137358
_cell_length_b   7.87697677
_cell_length_c   7.80448100
_cell_angle_alpha   60.30394755
_cell_angle_beta   60.07141561
_cell_angle_gamma   60.12427369
_symmetry_Int_Tables_number   1
_chemical_formula_structural   Sr3Bi2Pb3O14
_chemical_formula_sum   'Sr3 Bi2 Pb3 O14'
_cell_volume   341.27367942
_cell_formula_units_Z   1
loop_
 _symmetry_equiv_pos_site_id
 _symmetry_equiv_pos_as_xyz
  1  'x, y, z'
loop_
 _atom_site_type_symbol
 _atom_site_label
 _atom_site_symmetry_multiplicity
 _atom_site_fract_x
 _atom_site_fract_y
 _atom_site_fract_z
 _atom_site_occupancy
  Sr  Sr0  1  0.500000  0.500000  0.000000  1
  Sr  Sr1  1  0.500001  0.500001  0.499999  1
  Sr  Sr2  1  0.499999  0.000000  0.500001  1
  Bi  Bi3  1  0.500001  0.000000  0.000000  1
  Bi  Bi4  1  0.000000  0.499998  0.000000  1
  Pb  Pb5  1  0.000000  0.000000  0.000000  1
  Pb  Pb6  1  0.000000  0.000000  0.500001  1
  Pb  Pb7  1  0.000000  0.499999  0.500001  1
  O  O8  1  0.668762  0.668518  0.081359  1
  O  O9  1  0.661030  0.087214  0.082910  1
  O  O10  1  0.081123  0.662738  0.085104  1
  O  O11  1  0.918880  0.337261  0.328965  1
  O  O12  1  0.338969  0.912786  0.331157  1
  O  O13  1  0.919110  0.905231  0.337830  1
  O  O14  1  0.319794  0.394646  0.392780  1
  O  O15  1  0.680208  0.605353  0.607220  1
  O  O16  1  0.080890  0.094769  0.662171  1
  O  O17  1  0.661027  0.087214  0.668844  1
  O  O18  1  0.081120  0.662739  0.671036  1
  O  O19  1  0.331240  0.331481  0.918641  1
  O  O20  1  0.918879  0.337260  0.914896  1
  O  O21  1  0.338972  0.912786  0.917090  1
