# generated using pymatgen
data_Hf3Nb(Al3Au)2
_symmetry_space_group_name_H-M   'P 1'
_cell_length_a   5.32767100
_cell_length_b   5.32766951
_cell_length_c   8.37625700
_cell_angle_alpha   90.00000000
_cell_angle_beta   90.00000000
_cell_angle_gamma   120.00000303
_symmetry_Int_Tables_number   1
_chemical_formula_structural   Hf3Nb(Al3Au)2
_chemical_formula_sum   'Hf3 Nb1 Al6 Au2'
_cell_volume   205.89949764
_cell_formula_units_Z   1
loop_
 _symmetry_equiv_pos_site_id
 _symmetry_equiv_pos_as_xyz
  1  'x, y, z'
loop_
 _atom_site_type_symbol
 _atom_site_label
 _atom_site_symmetry_multiplicity
 _atom_site_fract_x
 _atom_site_fract_y
 _atom_site_fract_z
 _atom_site_occupancy
  Hf  Hf0  1  0.666666  0.333333  0.066471  1
  Hf  Hf1  1  0.666666  0.333333  0.429903  1
  Hf  Hf2  1  0.333333  0.666666  0.575862  1
  Nb  Nb3  1  0.333333  0.666666  0.923063  1
  Al  Al4  1  0.172482  0.344966  0.248462  1
  Al  Al5  1  0.172483  0.827517  0.248462  1
  Al  Al6  1  0.655033  0.827517  0.248462  1
  Al  Al7  1  0.345602  0.172800  0.752441  1
  Al  Al8  1  0.827199  0.172800  0.752441  1
  Al  Al9  1  0.827199  0.654397  0.752441  1
  Au  Au10  1  0.000000  0.000000  0.000720  1
  Au  Au11  1  0.000000  0.000000  0.501273  1
