# generated using pymatgen
data_TbPrHo3(In2Pd)2
_symmetry_space_group_name_H-M   'P 1'
_cell_length_a   3.63781600
_cell_length_b   8.22327846
_cell_length_c   18.42196550
_cell_angle_alpha   89.91145030
_cell_angle_beta   90.00000000
_cell_angle_gamma   90.00000000
_symmetry_Int_Tables_number   1
_chemical_formula_structural   TbPrHo3(In2Pd)2
_chemical_formula_sum   'Tb2 Pr2 Ho6 In8 Pd4'
_cell_volume   551.08827526
_cell_formula_units_Z   2
loop_
 _symmetry_equiv_pos_site_id
 _symmetry_equiv_pos_as_xyz
  1  'x, y, z'
loop_
 _atom_site_type_symbol
 _atom_site_label
 _atom_site_symmetry_multiplicity
 _atom_site_fract_x
 _atom_site_fract_y
 _atom_site_fract_z
 _atom_site_occupancy
  Tb  Tb0  1  0.000000  0.738801  0.282315  1
  Tb  Tb1  1  0.000000  0.261199  0.717685  1
  Pr  Pr2  1  0.000000  0.500000  0.500000  1
  Pr  Pr3  1  0.000000  0.000000  0.000000  1
  Ho  Ho4  1  0.000000  0.761150  0.782184  1
  Ho  Ho5  1  0.000000  0.238850  0.217816  1
  Ho  Ho6  1  0.000000  0.621198  0.084527  1
  Ho  Ho7  1  0.000000  0.378802  0.915473  1
  Ho  Ho8  1  0.000000  0.878697  0.584556  1
  Ho  Ho9  1  0.000000  0.121303  0.415444  1
  In  In10  1  0.500000  0.698471  0.931951  1
  In  In11  1  0.500000  0.301529  0.068049  1
  In  In12  1  0.500000  0.801719  0.432144  1
  In  In13  1  0.500000  0.198281  0.567856  1
  In  In14  1  0.500000  0.583663  0.653912  1
  In  In15  1  0.500000  0.416337  0.346088  1
  In  In16  1  0.500000  0.917023  0.153779  1
  In  In17  1  0.500000  0.082977  0.846221  1
  Pd  Pd18  1  0.500000  0.524107  0.195662  1
  Pd  Pd19  1  0.500000  0.475893  0.804338  1
  Pd  Pd20  1  0.500000  0.974485  0.695843  1
  Pd  Pd21  1  0.500000  0.025515  0.304157  1
