# generated using pymatgen
data_Gd6Al7Ag16
_symmetry_space_group_name_H-M   'P 1'
_cell_length_a   9.42470169
_cell_length_b   9.42470200
_cell_length_c   9.42470200
_cell_angle_alpha   60.00000000
_cell_angle_beta   59.99999892
_cell_angle_gamma   60.00000036
_symmetry_Int_Tables_number   1
_chemical_formula_structural   Gd6Al7Ag16
_chemical_formula_sum   'Gd6 Al7 Ag16'
_cell_volume   591.95387376
_cell_formula_units_Z   1
loop_
 _symmetry_equiv_pos_site_id
 _symmetry_equiv_pos_as_xyz
  1  'x, y, z'
loop_
 _atom_site_type_symbol
 _atom_site_label
 _atom_site_symmetry_multiplicity
 _atom_site_fract_x
 _atom_site_fract_y
 _atom_site_fract_z
 _atom_site_occupancy
  Gd  Gd0  1  0.713328  0.713328  0.286672  1
  Gd  Gd1  1  0.286672  0.713328  0.286672  1
  Gd  Gd2  1  0.713328  0.286672  0.286672  1
  Gd  Gd3  1  0.286672  0.286672  0.713328  1
  Gd  Gd4  1  0.713328  0.286672  0.713328  1
  Gd  Gd5  1  0.286672  0.713328  0.713328  1
  Al  Al6  1  0.000000  0.000000  0.000000  1
  Al  Al7  1  0.000000  0.000000  0.500000  1
  Al  Al8  1  0.500000  0.000000  0.500000  1
  Al  Al9  1  0.000000  0.500000  0.500000  1
  Al  Al10  1  0.500000  0.500000  0.000000  1
  Al  Al11  1  0.000000  0.500000  0.000000  1
  Al  Al12  1  0.500000  0.000000  0.000000  1
  Ag  Ag13  1  0.881754  0.881754  0.354738  1
  Ag  Ag14  1  0.881754  0.354738  0.881754  1
  Ag  Ag15  1  0.354738  0.881754  0.881754  1
  Ag  Ag16  1  0.881754  0.881754  0.881754  1
  Ag  Ag17  1  0.118246  0.118246  0.645262  1
  Ag  Ag18  1  0.118246  0.645262  0.118246  1
  Ag  Ag19  1  0.645262  0.118246  0.118246  1
  Ag  Ag20  1  0.118246  0.118246  0.118246  1
  Ag  Ag21  1  0.666231  0.666231  0.001305  1
  Ag  Ag22  1  0.666231  0.001305  0.666231  1
  Ag  Ag23  1  0.001305  0.666231  0.666231  1
  Ag  Ag24  1  0.666231  0.666231  0.666231  1
  Ag  Ag25  1  0.333769  0.333769  0.998695  1
  Ag  Ag26  1  0.333769  0.998695  0.333769  1
  Ag  Ag27  1  0.998695  0.333769  0.333769  1
  Ag  Ag28  1  0.333769  0.333769  0.333769  1
