# generated using pymatgen
data_La8Y12Ga11Sn5
_symmetry_space_group_name_H-M   'P 1'
_cell_length_a   7.83316015
_cell_length_b   8.24459508
_cell_length_c   15.65374500
_cell_angle_alpha   89.99323119
_cell_angle_beta   90.07177737
_cell_angle_gamma   90.15717835
_symmetry_Int_Tables_number   1
_chemical_formula_structural   La8Y12Ga11Sn5
_chemical_formula_sum   'La8 Y12 Ga11 Sn5'
_cell_volume   1010.93355840
_cell_formula_units_Z   1
loop_
 _symmetry_equiv_pos_site_id
 _symmetry_equiv_pos_as_xyz
  1  'x, y, z'
loop_
 _atom_site_type_symbol
 _atom_site_label
 _atom_site_symmetry_multiplicity
 _atom_site_fract_x
 _atom_site_fract_y
 _atom_site_fract_z
 _atom_site_occupancy
  La  La0  1  0.006944  0.175058  0.405210  1
  La  La1  1  0.515723  0.319357  0.405683  1
  La  La2  1  0.476315  0.677149  0.907510  1
  La  La3  1  0.481748  0.681013  0.594930  1
  La  La4  1  0.990239  0.823989  0.595027  1
  La  La5  1  0.994740  0.818940  0.906216  1
  La  La6  1  0.517208  0.321889  0.094337  1
  La  La7  1  0.012462  0.179128  0.092829  1
  Y  Y8  1  0.326480  0.177964  0.626328  1
  Y  Y9  1  0.679143  0.833036  0.373698  1
  Y  Y10  1  0.659041  0.995151  0.748633  1
  Y  Y11  1  0.175526  0.672816  0.374917  1
  Y  Y12  1  0.831270  0.330214  0.876615  1
  Y  Y13  1  0.828434  0.316887  0.625201  1
  Y  Y14  1  0.827644  0.488297  0.246053  1
  Y  Y15  1  0.339870  0.003685  0.245839  1
  Y  Y16  1  0.315918  0.175873  0.876752  1
  Y  Y17  1  0.171480  0.676453  0.121579  1
  Y  Y18  1  0.675615  0.820324  0.125614  1
  Y  Y19  1  0.171895  0.510493  0.749864  1
  Ga  Ga20  1  0.275664  0.880004  0.749553  1
  Ga  Ga21  1  0.471778  0.620502  0.251191  1
  Ga  Ga22  1  0.029476  0.112924  0.749034  1
  Ga  Ga23  1  0.528392  0.379600  0.750740  1
  Ga  Ga24  1  0.161453  0.467567  0.542285  1
  Ga  Ga25  1  0.971378  0.885974  0.249424  1
  Ga  Ga26  1  0.724001  0.121918  0.249971  1
  Ga  Ga27  1  0.846649  0.530550  0.040853  1
  Ga  Ga28  1  0.338328  0.968210  0.042687  1
  Ga  Ga29  1  0.150985  0.468787  0.958913  1
  Ga  Ga30  1  0.662382  0.032138  0.542345  1
  Sn  Sn31  1  0.341842  0.967313  0.459867  1
  Sn  Sn32  1  0.843036  0.534818  0.460308  1
  Sn  Sn33  1  0.777057  0.625098  0.749573  1
  Sn  Sn34  1  0.221597  0.374252  0.250562  1
  Sn  Sn35  1  0.658289  0.032633  0.959858  1
