# generated using pymatgen
data_Nd6RuAuBr6
_symmetry_space_group_name_H-M   'P 1'
_cell_length_a   10.45627709
_cell_length_b   10.45627819
_cell_length_c   10.63743001
_cell_angle_alpha   109.42549051
_cell_angle_beta   109.42549603
_cell_angle_gamma   108.86350548
_symmetry_Int_Tables_number   1
_chemical_formula_structural   Nd6RuAuBr6
_chemical_formula_sum   'Nd12 Ru2 Au2 Br12'
_cell_volume   902.92183493
_cell_formula_units_Z   2
loop_
 _symmetry_equiv_pos_site_id
 _symmetry_equiv_pos_as_xyz
  1  'x, y, z'
loop_
 _atom_site_type_symbol
 _atom_site_label
 _atom_site_symmetry_multiplicity
 _atom_site_fract_x
 _atom_site_fract_y
 _atom_site_fract_z
 _atom_site_occupancy
  Nd  Nd0  1  0.472766  0.478046  0.245096  1
  Nd  Nd1  1  0.732949  0.227671  0.254904  1
  Nd  Nd2  1  0.735998  0.006234  0.476304  1
  Nd  Nd3  1  0.240306  0.470067  0.476304  1
  Nd  Nd4  1  0.272329  0.767051  0.245096  1
  Nd  Nd5  1  0.029933  0.259694  0.023696  1
  Nd  Nd6  1  0.021954  0.027234  0.254904  1
  Nd  Nd7  1  0.493766  0.764002  0.023696  1
  Nd  Nd8  1  0.485713  0.235713  0.471427  1
  Nd  Nd9  1  0.010699  0.489301  0.750000  1
  Nd  Nd10  1  0.264287  0.014287  0.028573  1
  Nd  Nd11  1  0.239301  0.260699  0.750000  1
  Ru  Ru12  1  0.251163  0.248837  0.250000  1
  Ru  Ru13  1  0.498837  0.001163  0.250000  1
  Au  Au14  1  0.998815  0.248815  0.497629  1
  Au  Au15  1  0.251185  0.501185  0.002371  1
  Br  Br16  1  0.250259  0.750782  0.747328  1
  Br  Br17  1  0.503455  0.502931  0.752672  1
  Br  Br18  1  0.989453  0.741688  0.992799  1
  Br  Br19  1  0.749218  0.249741  0.752672  1
  Br  Br20  1  0.997069  0.996545  0.747328  1
  Br  Br21  1  0.248888  0.996655  0.507201  1
  Br  Br22  1  0.758312  0.510547  0.507201  1
  Br  Br23  1  0.503345  0.251112  0.992799  1
  Br  Br24  1  0.753279  0.746721  0.250000  1
  Br  Br25  1  0.744798  0.994798  0.989595  1
  Br  Br26  1  0.996721  0.503279  0.250000  1
  Br  Br27  1  0.505202  0.755202  0.510405  1
