# generated using pymatgen
data_Dy2SiP(Ru2C)2
_symmetry_space_group_name_H-M   'P 1'
_cell_length_a   3.80678500
_cell_length_b   5.86052701
_cell_length_c   7.09228600
_cell_angle_alpha   90.00000000
_cell_angle_beta   90.00000000
_cell_angle_gamma   71.04764935
_symmetry_Int_Tables_number   1
_chemical_formula_structural   Dy2SiP(Ru2C)2
_chemical_formula_sum   'Dy2 Si1 P1 Ru4 C2'
_cell_volume   149.64958674
_cell_formula_units_Z   1
loop_
 _symmetry_equiv_pos_site_id
 _symmetry_equiv_pos_as_xyz
  1  'x, y, z'
loop_
 _atom_site_type_symbol
 _atom_site_label
 _atom_site_symmetry_multiplicity
 _atom_site_fract_x
 _atom_site_fract_y
 _atom_site_fract_z
 _atom_site_occupancy
  Dy  Dy0  1  0.953612  0.092774  0.249999  1
  Dy  Dy1  1  0.046648  0.906703  0.750000  1
  Si  Si2  1  0.769106  0.461790  0.750000  1
  P  P3  1  0.231524  0.536951  0.249999  1
  Ru  Ru4  1  0.664264  0.671470  0.058944  1
  Ru  Ru5  1  0.664264  0.671470  0.441055  1
  Ru  Ru6  1  0.334962  0.330078  0.551852  1
  Ru  Ru7  1  0.334962  0.330078  0.948148  1
  C  C8  1  0.500329  0.999343  0.998507  1
  C  C9  1  0.500329  0.999343  0.501493  1
