# generated using pymatgen
data_Pr5Bi(BO3)6
_symmetry_space_group_name_H-M   'P 1'
_cell_length_a   6.85368989
_cell_length_b   6.85745518
_cell_length_c   9.96302546
_cell_angle_alpha   70.13714514
_cell_angle_beta   70.17223976
_cell_angle_gamma   60.03706852
_symmetry_Int_Tables_number   1
_chemical_formula_structural   Pr5Bi(BO3)6
_chemical_formula_sum   'Pr5 Bi1 B6 O18'
_cell_volume   373.18829953
_cell_formula_units_Z   1
loop_
 _symmetry_equiv_pos_site_id
 _symmetry_equiv_pos_as_xyz
  1  'x, y, z'
loop_
 _atom_site_type_symbol
 _atom_site_label
 _atom_site_symmetry_multiplicity
 _atom_site_fract_x
 _atom_site_fract_y
 _atom_site_fract_z
 _atom_site_occupancy
  Pr  Pr0  1  0.998836  0.500621  0.500019  1
  Pr  Pr1  1  0.500288  0.999618  0.999785  1
  Pr  Pr2  1  0.828996  0.343232  0.000821  1
  Pr  Pr3  1  0.655968  0.171693  0.499193  1
  Pr  Pr4  1  0.171843  0.656234  0.999285  1
  Bi  Bi5  1  0.341445  0.829660  0.500750  1
  B  B6  1  0.083183  0.149418  0.252769  1
  B  B7  1  0.848909  0.917658  0.247060  1
  B  B8  1  0.918254  0.849873  0.747221  1
  B  B9  1  0.150245  0.081667  0.752771  1
  B  B10  1  0.316322  0.684520  0.250031  1
  B  B11  1  0.682854  0.317067  0.750183  1
  O  O12  1  0.037045  0.213273  0.389472  1
  O  O13  1  0.785418  0.964001  0.110465  1
  O  O14  1  0.964501  0.786024  0.610480  1
  O  O15  1  0.214384  0.036096  0.889638  1
  O  O16  1  0.128878  0.304751  0.115162  1
  O  O17  1  0.696059  0.869924  0.386261  1
  O  O18  1  0.870289  0.695628  0.884739  1
  O  O19  1  0.304512  0.128424  0.615504  1
  O  O20  1  0.472822  0.620390  0.113163  1
  O  O21  1  0.379729  0.528083  0.386591  1
  O  O22  1  0.527077  0.379679  0.886702  1
  O  O23  1  0.621852  0.472383  0.611751  1
  O  O24  1  0.083851  0.709612  0.247354  1
  O  O25  1  0.291256  0.916213  0.252281  1
  O  O26  1  0.915928  0.290660  0.752709  1
  O  O27  1  0.709174  0.084218  0.747512  1
  O  O28  1  0.874275  0.125409  0.250038  1
  O  O29  1  0.125809  0.873972  0.750295  1
