# generated using pymatgen
data_Dy5Y6Er5(CdIr)4
_symmetry_space_group_name_H-M   'P 1'
_cell_length_a   9.62466354
_cell_length_b   9.61617005
_cell_length_c   9.61617025
_cell_angle_alpha   59.98267170
_cell_angle_beta   59.97077906
_cell_angle_gamma   59.97077514
_symmetry_Int_Tables_number   1
_chemical_formula_structural   Dy5Y6Er5(CdIr)4
_chemical_formula_sum   'Dy5 Y6 Er5 Cd4 Ir4'
_cell_volume   628.96432027
_cell_formula_units_Z   1
loop_
 _symmetry_equiv_pos_site_id
 _symmetry_equiv_pos_as_xyz
  1  'x, y, z'
loop_
 _atom_site_type_symbol
 _atom_site_label
 _atom_site_symmetry_multiplicity
 _atom_site_fract_x
 _atom_site_fract_y
 _atom_site_fract_z
 _atom_site_occupancy
  Dy  Dy0  1  0.348164  0.349069  0.349069  1
  Dy  Dy1  1  0.348894  0.349397  0.952817  1
  Dy  Dy2  1  0.348894  0.952817  0.349397  1
  Dy  Dy3  1  0.953699  0.349069  0.349069  1
  Dy  Dy4  1  0.811165  0.188835  0.188835  1
  Y  Y5  1  0.938437  0.561563  0.561563  1
  Y  Y6  1  0.561518  0.938482  0.938482  1
  Y  Y7  1  0.561351  0.938639  0.561743  1
  Y  Y8  1  0.938268  0.561743  0.938639  1
  Y  Y9  1  0.561351  0.561743  0.938639  1
  Y  Y10  1  0.938268  0.938639  0.561743  1
  Er  Er11  1  0.188683  0.811317  0.811317  1
  Er  Er12  1  0.189447  0.810575  0.188323  1
  Er  Er13  1  0.811656  0.188323  0.810575  1
  Er  Er14  1  0.189447  0.188323  0.810575  1
  Er  Er15  1  0.811656  0.810575  0.188323  1
  Cd  Cd16  1  0.580623  0.580507  0.580507  1
  Cd  Cd17  1  0.580697  0.580779  0.257829  1
  Cd  Cd18  1  0.580697  0.257829  0.580779  1
  Cd  Cd19  1  0.258365  0.580507  0.580507  1
  Ir  Ir20  1  0.141287  0.141476  0.141476  1
  Ir  Ir21  1  0.140840  0.141822  0.576499  1
  Ir  Ir22  1  0.140840  0.576499  0.141822  1
  Ir  Ir23  1  0.575761  0.141476  0.141476  1
