# generated using pymatgen
data_CsNbSe2O7
_symmetry_space_group_name_H-M   'P 1'
_cell_length_a   7.59571536
_cell_length_b   7.59571606
_cell_length_c   7.67133900
_cell_angle_alpha   90.00000000
_cell_angle_beta   90.00000000
_cell_angle_gamma   110.07818132
_symmetry_Int_Tables_number   1
_chemical_formula_structural   CsNbSe2O7
_chemical_formula_sum   'Cs2 Nb2 Se4 O14'
_cell_volume   415.69829824
_cell_formula_units_Z   2
loop_
 _symmetry_equiv_pos_site_id
 _symmetry_equiv_pos_as_xyz
  1  'x, y, z'
loop_
 _atom_site_type_symbol
 _atom_site_label
 _atom_site_symmetry_multiplicity
 _atom_site_fract_x
 _atom_site_fract_y
 _atom_site_fract_z
 _atom_site_occupancy
  Cs  Cs0  1  0.975189  0.975189  0.352324  1
  Cs  Cs1  1  0.024811  0.024811  0.852324  1
  Nb  Nb2  1  0.514591  0.514591  0.907529  1
  Nb  Nb3  1  0.485409  0.485409  0.407529  1
  Se  Se4  1  0.514299  0.904551  0.628533  1
  Se  Se5  1  0.904551  0.514299  0.628533  1
  Se  Se6  1  0.485701  0.095449  0.128533  1
  Se  Se7  1  0.095449  0.485701  0.128533  1
  O  O8  1  0.547923  0.773644  0.809661  1
  O  O9  1  0.773644  0.547923  0.809661  1
  O  O10  1  0.452077  0.226356  0.309661  1
  O  O11  1  0.226356  0.452077  0.309661  1
  O  O12  1  0.534068  0.762277  0.448763  1
  O  O13  1  0.762277  0.534068  0.448763  1
  O  O14  1  0.465932  0.237723  0.948763  1
  O  O15  1  0.237723  0.465932  0.948763  1
  O  O16  1  0.720239  0.076719  0.618344  1
  O  O17  1  0.076719  0.720239  0.618344  1
  O  O18  1  0.279761  0.923281  0.118344  1
  O  O19  1  0.923281  0.279761  0.118344  1
  O  O20  1  0.418784  0.418784  0.632483  1
  O  O21  1  0.581216  0.581216  0.132483  1
