# generated using pymatgen
data_Ce2NiP2H4Ir
_symmetry_space_group_name_H-M   'P 1'
_cell_length_a   4.10023000
_cell_length_b   4.10022970
_cell_length_c   8.25269000
_cell_angle_alpha   90.00000000
_cell_angle_beta   90.00000000
_cell_angle_gamma   120.00000239
_symmetry_Int_Tables_number   1
_chemical_formula_structural   Ce2NiP2H4Ir
_chemical_formula_sum   'Ce2 Ni1 P2 H4 Ir1'
_cell_volume   120.15519692
_cell_formula_units_Z   1
loop_
 _symmetry_equiv_pos_site_id
 _symmetry_equiv_pos_as_xyz
  1  'x, y, z'
loop_
 _atom_site_type_symbol
 _atom_site_label
 _atom_site_symmetry_multiplicity
 _atom_site_fract_x
 _atom_site_fract_y
 _atom_site_fract_z
 _atom_site_occupancy
  Ce  Ce0  1  0.000000  0.000000  0.496291  1
  Ce  Ce1  1  0.000000  0.000000  0.003709  1
  Ni  Ni2  1  0.333333  0.666667  0.250000  1
  P  P3  1  0.333333  0.666667  0.750000  1
  P  P4  1  0.666667  0.333333  0.250000  1
  H  H5  1  0.333333  0.666667  0.448316  1
  H  H6  1  0.666667  0.333333  0.542360  1
  H  H7  1  0.333333  0.666667  0.051684  1
  H  H8  1  0.666667  0.333333  0.957640  1
  Ir  Ir9  1  0.666667  0.333333  0.750000  1
