# generated using pymatgen
data_ScMn3Be2(B2Ir5)2
_symmetry_space_group_name_H-M   'P 1'
_cell_length_a   9.22898593
_cell_length_b   9.22898593
_cell_length_c   2.89857100
_cell_angle_alpha   90.00000000
_cell_angle_beta   90.00000000
_cell_angle_gamma   89.48025660
_symmetry_Int_Tables_number   1
_chemical_formula_structural   ScMn3Be2(B2Ir5)2
_chemical_formula_sum   'Sc1 Mn3 Be2 B4 Ir10'
_cell_volume   246.87325415
_cell_formula_units_Z   1
loop_
 _symmetry_equiv_pos_site_id
 _symmetry_equiv_pos_as_xyz
  1  'x, y, z'
loop_
 _atom_site_type_symbol
 _atom_site_label
 _atom_site_symmetry_multiplicity
 _atom_site_fract_x
 _atom_site_fract_y
 _atom_site_fract_z
 _atom_site_occupancy
  Sc  Sc0  1  0.675259  0.175259  0.000000  1
  Mn  Mn1  1  0.320359  0.820359  0.000000  1
  Mn  Mn2  1  0.176003  0.322783  0.000000  1
  Mn  Mn3  1  0.822783  0.676003  0.000000  1
  Be  Be4  1  0.996321  0.002602  0.000000  1
  Be  Be5  1  0.502602  0.496321  0.000000  1
  B  B6  1  0.133458  0.633458  0.000000  1
  B  B7  1  0.873688  0.373688  0.000000  1
  B  B8  1  0.629999  0.868427  0.000000  1
  B  B9  1  0.368427  0.129999  0.000000  1
  Ir  Ir10  1  0.203282  0.068237  0.500000  1
  Ir  Ir11  1  0.794348  0.929235  0.500000  1
  Ir  Ir12  1  0.066836  0.796659  0.500000  1
  Ir  Ir13  1  0.709298  0.436167  0.500000  1
  Ir  Ir14  1  0.936167  0.209298  0.500000  1
  Ir  Ir15  1  0.296659  0.566836  0.500000  1
  Ir  Ir16  1  0.568237  0.703282  0.500000  1
  Ir  Ir17  1  0.429235  0.294348  0.500000  1
  Ir  Ir18  1  0.494452  0.994452  0.500000  1
  Ir  Ir19  1  0.002586  0.502586  0.500000  1
