# generated using pymatgen
data_Tm16Cd2In2CoNi3
_symmetry_space_group_name_H-M   'P 1'
_cell_length_a   9.40790880
_cell_length_b   9.40196264
_cell_length_c   9.42992178
_cell_angle_alpha   60.18932596
_cell_angle_beta   60.13568852
_cell_angle_gamma   60.24789610
_symmetry_Int_Tables_number   1
_chemical_formula_structural   Tm16Cd2In2CoNi3
_chemical_formula_sum   'Tm16 Cd2 In2 Co1 Ni3'
_cell_volume   592.34940093
_cell_formula_units_Z   1
loop_
 _symmetry_equiv_pos_site_id
 _symmetry_equiv_pos_as_xyz
  1  'x, y, z'
loop_
 _atom_site_type_symbol
 _atom_site_label
 _atom_site_symmetry_multiplicity
 _atom_site_fract_x
 _atom_site_fract_y
 _atom_site_fract_z
 _atom_site_occupancy
  Tm  Tm0  1  0.346080  0.346163  0.346867  1
  Tm  Tm1  1  0.347925  0.347643  0.955650  1
  Tm  Tm2  1  0.350473  0.953623  0.348359  1
  Tm  Tm3  1  0.953276  0.350643  0.348528  1
  Tm  Tm4  1  0.814037  0.188876  0.188886  1
  Tm  Tm5  1  0.189128  0.811489  0.811065  1
  Tm  Tm6  1  0.189102  0.813903  0.188774  1
  Tm  Tm7  1  0.811461  0.188993  0.811163  1
  Tm  Tm8  1  0.187779  0.187507  0.815392  1
  Tm  Tm9  1  0.810261  0.810148  0.190367  1
  Tm  Tm10  1  0.937071  0.565541  0.564364  1
  Tm  Tm11  1  0.562036  0.939201  0.935260  1
  Tm  Tm12  1  0.565742  0.936967  0.564275  1
  Tm  Tm13  1  0.939294  0.562021  0.935270  1
  Tm  Tm14  1  0.564184  0.564059  0.934908  1
  Tm  Tm15  1  0.940191  0.940118  0.558360  1
  Cd  Cd16  1  0.579417  0.253339  0.582649  1
  Cd  Cd17  1  0.253455  0.579292  0.582714  1
  In  In18  1  0.581762  0.581610  0.584248  1
  In  In19  1  0.580991  0.580819  0.253220  1
  Co  Co20  1  0.141409  0.141253  0.146283  1
  Ni  Ni21  1  0.138304  0.140225  0.575407  1
  Ni  Ni22  1  0.140813  0.575380  0.139086  1
  Ni  Ni23  1  0.575811  0.141188  0.138906  1
