# generated using pymatgen
data_TbTm7Si4(B8Mo)2
_symmetry_space_group_name_H-M   'P 1'
_cell_length_a   7.07139331
_cell_length_b   7.07139364
_cell_length_c   7.54422003
_cell_angle_alpha   90.00429654
_cell_angle_beta   89.99570297
_cell_angle_gamma   89.95875841
_symmetry_Int_Tables_number   1
_chemical_formula_structural   TbTm7Si4(B8Mo)2
_chemical_formula_sum   'Tb1 Tm7 Si4 B16 Mo2'
_cell_volume   377.24564789
_cell_formula_units_Z   1
loop_
 _symmetry_equiv_pos_site_id
 _symmetry_equiv_pos_as_xyz
  1  'x, y, z'
loop_
 _atom_site_type_symbol
 _atom_site_label
 _atom_site_symmetry_multiplicity
 _atom_site_fract_x
 _atom_site_fract_y
 _atom_site_fract_z
 _atom_site_occupancy
  Tb  Tb0  1  0.179672  0.320328  0.239684  1
  Tm  Tm1  1  0.679624  0.179470  0.237004  1
  Tm  Tm2  1  0.320587  0.820215  0.763593  1
  Tm  Tm3  1  0.320530  0.820376  0.237004  1
  Tm  Tm4  1  0.820327  0.679673  0.236478  1
  Tm  Tm5  1  0.820138  0.679862  0.763424  1
  Tm  Tm6  1  0.679785  0.179413  0.763593  1
  Tm  Tm7  1  0.179655  0.320345  0.762934  1
  Si  Si8  1  0.122587  0.626149  0.501375  1
  Si  Si9  1  0.873851  0.377413  0.501375  1
  Si  Si10  1  0.378130  0.121870  0.502410  1
  Si  Si11  1  0.624503  0.875497  0.500322  1
  B  B12  1  0.172135  0.038749  0.999536  1
  B  B13  1  0.827222  0.960485  0.999633  1
  B  B14  1  0.960100  0.171994  0.999085  1
  B  B15  1  0.328006  0.539900  0.999085  1
  B  B16  1  0.039053  0.827252  0.999334  1
  B  B17  1  0.672748  0.460947  0.999334  1
  B  B18  1  0.539515  0.672778  0.999633  1
  B  B19  1  0.461251  0.327865  0.999536  1
  B  B20  1  0.089639  0.589948  0.998420  1
  B  B21  1  0.910052  0.410361  0.998420  1
  B  B22  1  0.410302  0.089698  0.999683  1
  B  B23  1  0.589621  0.910379  0.999619  1
  B  B24  1  0.999251  0.998830  0.177053  1
  B  B25  1  0.999850  0.999916  0.821761  1
  B  B26  1  0.500084  0.500150  0.821761  1
  B  B27  1  0.501170  0.500749  0.177053  1
  Mo  Mo28  1  0.999031  0.998416  0.500929  1
  Mo  Mo29  1  0.501584  0.500969  0.500929  1
