# generated using pymatgen
data_Ce4Sn2Pd3Au
_symmetry_space_group_name_H-M   'P 1'
_cell_length_a   7.85196300
_cell_length_b   7.85196300
_cell_length_c   3.86459100
_cell_angle_alpha   90.00000000
_cell_angle_beta   90.00000000
_cell_angle_gamma   90.16359881
_symmetry_Int_Tables_number   1
_chemical_formula_structural   Ce4Sn2Pd3Au
_chemical_formula_sum   'Ce4 Sn2 Pd3 Au1'
_cell_volume   238.26390585
_cell_formula_units_Z   1
loop_
 _symmetry_equiv_pos_site_id
 _symmetry_equiv_pos_as_xyz
  1  'x, y, z'
loop_
 _atom_site_type_symbol
 _atom_site_label
 _atom_site_symmetry_multiplicity
 _atom_site_fract_x
 _atom_site_fract_y
 _atom_site_fract_z
 _atom_site_occupancy
  Ce  Ce0  1  0.677327  0.177327  0.500000  1
  Ce  Ce1  1  0.329805  0.829805  0.500000  1
  Ce  Ce2  1  0.177161  0.317274  0.500000  1
  Ce  Ce3  1  0.817274  0.677161  0.500000  1
  Sn  Sn4  1  0.998533  0.004904  0.000000  1
  Sn  Sn5  1  0.504904  0.498533  0.000000  1
  Pd  Pd6  1  0.870700  0.370700  0.000000  1
  Pd  Pd7  1  0.628014  0.872514  0.000000  1
  Pd  Pd8  1  0.372514  0.128014  0.000000  1
  Au  Au9  1  0.123768  0.623768  0.000000  1
