# generated using pymatgen
data_LaNd5CoCl10
_symmetry_space_group_name_H-M   'P 1'
_cell_length_a   7.42196265
_cell_length_b   8.95672366
_cell_length_c   9.37658500
_cell_angle_alpha   109.00098106
_cell_angle_beta   96.92436984
_cell_angle_gamma   106.40631651
_symmetry_Int_Tables_number   1
_chemical_formula_structural   LaNd5CoCl10
_chemical_formula_sum   'La1 Nd5 Co1 Cl10'
_cell_volume   549.62413168
_cell_formula_units_Z   1
loop_
 _symmetry_equiv_pos_site_id
 _symmetry_equiv_pos_as_xyz
  1  'x, y, z'
loop_
 _atom_site_type_symbol
 _atom_site_label
 _atom_site_symmetry_multiplicity
 _atom_site_fract_x
 _atom_site_fract_y
 _atom_site_fract_z
 _atom_site_occupancy
  La  La0  1  0.968711  0.299527  0.096019  1
  Nd  Nd1  1  0.139304  0.057470  0.754047  1
  Nd  Nd2  1  0.631462  0.852600  0.805692  1
  Nd  Nd3  1  0.858609  0.942688  0.245213  1
  Nd  Nd4  1  0.032938  0.705602  0.905300  1
  Nd  Nd5  1  0.367856  0.144056  0.193624  1
  Co  Co6  1  0.998859  0.004896  0.001415  1
  Cl  Cl7  1  0.207206  0.747580  0.659168  1
  Cl  Cl8  1  0.654730  0.538819  0.729637  1
  Cl  Cl9  1  0.233704  0.077087  0.444538  1
  Cl  Cl10  1  0.788404  0.248922  0.344791  1
  Cl  Cl11  1  0.544509  0.169372  0.925888  1
  Cl  Cl12  1  0.764415  0.920880  0.554794  1
  Cl  Cl13  1  0.908890  0.629796  0.159768  1
  Cl  Cl14  1  0.356165  0.461363  0.273868  1
  Cl  Cl15  1  0.094109  0.373403  0.834817  1
  Cl  Cl16  1  0.450127  0.825941  0.071422  1
