# generated using pymatgen
data_Pr8Ho12Si15Rh
_symmetry_space_group_name_H-M   'P 1'
_cell_length_a   7.55044182
_cell_length_b   7.79326225
_cell_length_c   14.82327027
_cell_angle_alpha   89.68310532
_cell_angle_beta   89.73620464
_cell_angle_gamma   90.21157078
_symmetry_Int_Tables_number   1
_chemical_formula_structural   Pr8Ho12Si15Rh
_chemical_formula_sum   'Pr8 Ho12 Si15 Rh1'
_cell_volume   872.21075169
_cell_formula_units_Z   1
loop_
 _symmetry_equiv_pos_site_id
 _symmetry_equiv_pos_as_xyz
  1  'x, y, z'
loop_
 _atom_site_type_symbol
 _atom_site_label
 _atom_site_symmetry_multiplicity
 _atom_site_fract_x
 _atom_site_fract_y
 _atom_site_fract_z
 _atom_site_occupancy
  Pr  Pr0  1  0.976202  0.817467  0.096611  1
  Pr  Pr1  1  0.475377  0.677352  0.402026  1
  Pr  Pr2  1  0.526818  0.325544  0.900183  1
  Pr  Pr3  1  0.025542  0.179949  0.598910  1
  Pr  Pr4  1  0.023951  0.182227  0.902261  1
  Pr  Pr5  1  0.526091  0.321808  0.599032  1
  Pr  Pr6  1  0.476081  0.678871  0.100125  1
  Pr  Pr7  1  0.975138  0.821749  0.401267  1
  Ho  Ho8  1  0.650750  0.993828  0.249345  1
  Ho  Ho9  1  0.149805  0.508732  0.247574  1
  Ho  Ho10  1  0.846978  0.492635  0.756902  1
  Ho  Ho11  1  0.348598  0.009002  0.751914  1
  Ho  Ho12  1  0.681286  0.814138  0.881280  1
  Ho  Ho13  1  0.178221  0.680957  0.622675  1
  Ho  Ho14  1  0.821435  0.333035  0.119440  1
  Ho  Ho15  1  0.317201  0.176901  0.376062  1
  Ho  Ho16  1  0.321204  0.177572  0.123744  1
  Ho  Ho17  1  0.820274  0.319965  0.376830  1
  Ho  Ho18  1  0.175042  0.673568  0.878789  1
  Ho  Ho19  1  0.681441  0.820157  0.622781  1
  Si  Si20  1  0.767696  0.621813  0.251124  1
  Si  Si21  1  0.269610  0.878340  0.250773  1
  Si  Si22  1  0.730074  0.117290  0.749443  1
  Si  Si23  1  0.232066  0.380447  0.747472  1
  Si  Si24  1  0.022149  0.115785  0.248294  1
  Si  Si25  1  0.526304  0.386787  0.251571  1
  Si  Si26  1  0.469657  0.615122  0.747031  1
  Si  Si27  1  0.973909  0.887587  0.749338  1
  Si  Si28  1  0.355766  0.969317  0.539299  1
  Si  Si29  1  0.642395  0.031905  0.040621  1
  Si  Si30  1  0.144780  0.468057  0.460301  1
  Si  Si31  1  0.152912  0.466536  0.041696  1
  Si  Si32  1  0.643209  0.031240  0.460352  1
  Si  Si33  1  0.355066  0.967617  0.961080  1
  Si  Si34  1  0.856899  0.531377  0.538549  1
  Rh  Rh35  1  0.860073  0.525318  0.955306  1
