# generated using pymatgen
data_Lu4TcOs3Ru4
_symmetry_space_group_name_H-M   'P 1'
_cell_length_a   5.18655786
_cell_length_b   5.33935452
_cell_length_c   8.91157700
_cell_angle_alpha   90.00000000
_cell_angle_beta   90.00000000
_cell_angle_gamma   120.97939354
_symmetry_Int_Tables_number   1
_chemical_formula_structural   Lu4TcOs3Ru4
_chemical_formula_sum   'Lu4 Tc1 Os3 Ru4'
_cell_volume   211.58357793
_cell_formula_units_Z   1
loop_
 _symmetry_equiv_pos_site_id
 _symmetry_equiv_pos_as_xyz
  1  'x, y, z'
loop_
 _atom_site_type_symbol
 _atom_site_label
 _atom_site_symmetry_multiplicity
 _atom_site_fract_x
 _atom_site_fract_y
 _atom_site_fract_z
 _atom_site_occupancy
  Lu  Lu0  1  0.334207  0.667105  0.432884  1
  Lu  Lu1  1  0.662923  0.331461  0.566123  1
  Lu  Lu2  1  0.662923  0.331461  0.933877  1
  Lu  Lu3  1  0.334207  0.667105  0.067116  1
  Tc  Tc4  1  0.665176  0.832587  0.750000  1
  Os  Os5  1  0.830829  0.171069  0.250000  1
  Os  Os6  1  0.830829  0.659760  0.250000  1
  Os  Os7  1  0.344193  0.172097  0.250000  1
  Ru  Ru8  1  0.990337  0.995168  0.500027  1
  Ru  Ru9  1  0.990337  0.995168  0.999973  1
  Ru  Ru10  1  0.177020  0.831824  0.750000  1
  Ru  Ru11  1  0.177020  0.345197  0.750000  1
