# generated using pymatgen
data_HoLu11(Si3Ru)4
_symmetry_space_group_name_H-M   'P 1'
_cell_length_a   4.12535000
_cell_length_b   10.58563400
_cell_length_c   12.15522472
_cell_angle_alpha   90.08303946
_cell_angle_beta   90.00000000
_cell_angle_gamma   90.00000000
_symmetry_Int_Tables_number   1
_chemical_formula_structural   HoLu11(Si3Ru)4
_chemical_formula_sum   'Ho1 Lu11 Si12 Ru4'
_cell_volume   530.81136278
_cell_formula_units_Z   1
loop_
 _symmetry_equiv_pos_site_id
 _symmetry_equiv_pos_as_xyz
  1  'x, y, z'
loop_
 _atom_site_type_symbol
 _atom_site_label
 _atom_site_symmetry_multiplicity
 _atom_site_fract_x
 _atom_site_fract_y
 _atom_site_fract_z
 _atom_site_occupancy
  Ho  Ho0  1  0.750000  0.160584  0.699574  1
  Lu  Lu1  1  0.250000  0.878976  0.020631  1
  Lu  Lu2  1  0.250000  0.620836  0.520028  1
  Lu  Lu3  1  0.750000  0.120261  0.980678  1
  Lu  Lu4  1  0.750000  0.380669  0.479238  1
  Lu  Lu5  1  0.250000  0.921014  0.604798  1
  Lu  Lu6  1  0.250000  0.578284  0.105278  1
  Lu  Lu7  1  0.750000  0.079136  0.394093  1
  Lu  Lu8  1  0.750000  0.421851  0.895286  1
  Lu  Lu9  1  0.250000  0.662251  0.799755  1
  Lu  Lu10  1  0.250000  0.837931  0.299615  1
  Lu  Lu11  1  0.750000  0.338740  0.200226  1
  Si  Si12  1  0.250000  0.012002  0.822693  1
  Si  Si13  1  0.250000  0.486581  0.321886  1
  Si  Si14  1  0.750000  0.985966  0.178197  1
  Si  Si15  1  0.750000  0.513867  0.678099  1
  Si  Si16  1  0.250000  0.250378  0.843129  1
  Si  Si17  1  0.250000  0.250676  0.341349  1
  Si  Si18  1  0.750000  0.749784  0.157837  1
  Si  Si19  1  0.750000  0.750146  0.657886  1
  Si  Si20  1  0.250000  0.199998  0.541345  1
  Si  Si21  1  0.250000  0.301278  0.043928  1
  Si  Si22  1  0.750000  0.801622  0.456307  1
  Si  Si23  1  0.750000  0.697995  0.956913  1
  Ru  Ru24  1  0.250000  0.391360  0.680210  1
  Ru  Ru25  1  0.250000  0.109368  0.180191  1
  Ru  Ru26  1  0.750000  0.609656  0.319619  1
  Ru  Ru27  1  0.750000  0.888789  0.821210  1
