# generated using pymatgen
data_Tb16Tm4Ir7Rh5
_symmetry_space_group_name_H-M   'P 1'
_cell_length_a   10.90071039
_cell_length_b   10.90071039
_cell_length_c   6.38430500
_cell_angle_alpha   89.99757395
_cell_angle_beta   89.99757395
_cell_angle_gamma   89.96928303
_symmetry_Int_Tables_number   1
_chemical_formula_structural   Tb16Tm4Ir7Rh5
_chemical_formula_sum   'Tb16 Tm4 Ir7 Rh5'
_cell_volume   758.61804135
_cell_formula_units_Z   1
loop_
 _symmetry_equiv_pos_site_id
 _symmetry_equiv_pos_as_xyz
  1  'x, y, z'
loop_
 _atom_site_type_symbol
 _atom_site_label
 _atom_site_symmetry_multiplicity
 _atom_site_fract_x
 _atom_site_fract_y
 _atom_site_fract_z
 _atom_site_occupancy
  Tb  Tb0  1  0.289264  0.088190  0.378715  1
  Tb  Tb1  1  0.289380  0.911791  0.878351  1
  Tb  Tb2  1  0.709997  0.087857  0.877808  1
  Tb  Tb3  1  0.710162  0.910625  0.378882  1
  Tb  Tb4  1  0.588186  0.789349  0.878721  1
  Tb  Tb5  1  0.587014  0.210827  0.378734  1
  Tb  Tb6  1  0.411671  0.789375  0.378621  1
  Tb  Tb7  1  0.411786  0.210593  0.878551  1
  Tb  Tb8  1  0.210651  0.411814  0.621279  1
  Tb  Tb9  1  0.210625  0.588329  0.121379  1
  Tb  Tb10  1  0.789173  0.412986  0.121266  1
  Tb  Tb11  1  0.789407  0.588214  0.621449  1
  Tb  Tb12  1  0.911810  0.710736  0.121285  1
  Tb  Tb13  1  0.912143  0.290003  0.622192  1
  Tb  Tb14  1  0.088209  0.710620  0.621649  1
  Tb  Tb15  1  0.089375  0.289838  0.121118  1
  Tm  Tm16  1  0.000224  0.999709  0.500100  1
  Tm  Tm17  1  0.000291  0.999776  0.999900  1
  Tm  Tm18  1  0.499984  0.499902  0.999959  1
  Tm  Tm19  1  0.500098  0.500016  0.500041  1
  Ir  Ir20  1  0.847884  0.848451  0.749958  1
  Ir  Ir21  1  0.151549  0.152116  0.750042  1
  Ir  Ir22  1  0.152044  0.847956  0.250000  1
  Ir  Ir23  1  0.652615  0.347385  0.750000  1
  Ir  Ir24  1  0.652231  0.652047  0.249908  1
  Ir  Ir25  1  0.347953  0.347769  0.250092  1
  Ir  Ir26  1  0.347901  0.652099  0.750000  1
  Rh  Rh27  1  0.847887  0.152113  0.250000  1
  Rh  Rh28  1  0.500555  0.000234  0.122377  1
  Rh  Rh29  1  0.500372  0.000206  0.621962  1
  Rh  Rh30  1  0.999794  0.499628  0.878038  1
  Rh  Rh31  1  0.999766  0.499445  0.377623  1
