# generated using pymatgen
data_CoS2(O3F)2
_symmetry_space_group_name_H-M   'P 1'
_cell_length_a   7.84302200
_cell_length_b   9.04406475
_cell_length_c   10.34638800
_cell_angle_alpha   66.27021663
_cell_angle_beta   90.00000000
_cell_angle_gamma   90.00000000
_symmetry_Int_Tables_number   1
_chemical_formula_structural   CoS2(O3F)2
_chemical_formula_sum   'Co4 S8 O24 F8'
_cell_volume   671.84975119
_cell_formula_units_Z   4
loop_
 _symmetry_equiv_pos_site_id
 _symmetry_equiv_pos_as_xyz
  1  'x, y, z'
loop_
 _atom_site_type_symbol
 _atom_site_label
 _atom_site_symmetry_multiplicity
 _atom_site_fract_x
 _atom_site_fract_y
 _atom_site_fract_z
 _atom_site_occupancy
  Co  Co0  1  0.500000  0.000000  0.000000  1
  Co  Co1  1  0.000000  0.500000  0.000000  1
  Co  Co2  1  0.500000  0.500000  0.500000  1
  Co  Co3  1  0.000000  0.000000  0.500000  1
  S  S4  1  0.302956  0.642930  0.157214  1
  S  S5  1  0.802956  0.857070  0.842786  1
  S  S6  1  0.697044  0.357070  0.842786  1
  S  S7  1  0.197044  0.142930  0.157214  1
  S  S8  1  0.258662  0.179431  0.670607  1
  S  S9  1  0.758662  0.320569  0.329393  1
  S  S10  1  0.741338  0.820569  0.329393  1
  S  S11  1  0.241338  0.679431  0.670607  1
  O  O12  1  0.335938  0.808044  0.057089  1
  O  O13  1  0.835938  0.691956  0.942911  1
  O  O14  1  0.664062  0.191956  0.942911  1
  O  O15  1  0.164062  0.308044  0.057089  1
  O  O16  1  0.138970  0.583567  0.132381  1
  O  O17  1  0.638970  0.916433  0.867619  1
  O  O18  1  0.861030  0.416433  0.867619  1
  O  O19  1  0.361030  0.083567  0.132381  1
  O  O20  1  0.337528  0.609219  0.304038  1
  O  O21  1  0.837528  0.890781  0.695962  1
  O  O22  1  0.662472  0.390781  0.695962  1
  O  O23  1  0.162472  0.109219  0.304038  1
  O  O24  1  0.367472  0.288097  0.556947  1
  O  O25  1  0.867472  0.211903  0.443053  1
  O  O26  1  0.632528  0.711903  0.443053  1
  O  O27  1  0.132528  0.788097  0.556947  1
  O  O28  1  0.173052  0.060846  0.631564  1
  O  O29  1  0.673052  0.439154  0.368436  1
  O  O30  1  0.826948  0.939154  0.368436  1
  O  O31  1  0.326948  0.560846  0.631564  1
  O  O32  1  0.333386  0.117647  0.810128  1
  O  O33  1  0.833386  0.382353  0.189872  1
  O  O34  1  0.666614  0.882353  0.189872  1
  O  O35  1  0.166614  0.617647  0.810128  1
  F  F36  1  0.439545  0.538995  0.115696  1
  F  F37  1  0.939545  0.961005  0.884304  1
  F  F38  1  0.560455  0.461005  0.884304  1
  F  F39  1  0.060455  0.038995  0.115696  1
  F  F40  1  0.106971  0.291072  0.680991  1
  F  F41  1  0.606971  0.208928  0.319009  1
  F  F42  1  0.893029  0.708928  0.319009  1
  F  F43  1  0.393029  0.791072  0.680991  1
