# generated using pymatgen
data_Sr16Ta5N19
_symmetry_space_group_name_H-M   'P 1'
_cell_length_a   10.58665038
_cell_length_b   11.02283331
_cell_length_c   13.82264600
_cell_angle_alpha   104.08997459
_cell_angle_beta   101.54227797
_cell_angle_gamma   97.78195810
_symmetry_Int_Tables_number   1
_chemical_formula_structural   Sr16Ta5N19
_chemical_formula_sum   'Sr32 Ta10 N38'
_cell_volume   1503.82046151
_cell_formula_units_Z   2
loop_
 _symmetry_equiv_pos_site_id
 _symmetry_equiv_pos_as_xyz
  1  'x, y, z'
loop_
 _atom_site_type_symbol
 _atom_site_label
 _atom_site_symmetry_multiplicity
 _atom_site_fract_x
 _atom_site_fract_y
 _atom_site_fract_z
 _atom_site_occupancy
  Sr  Sr0  1  0.846162  0.344540  0.985446  1
  Sr  Sr1  1  0.153838  0.655460  0.014554  1
  Sr  Sr2  1  0.900620  0.812420  0.135497  1
  Sr  Sr3  1  0.099380  0.187580  0.864503  1
  Sr  Sr4  1  0.016607  0.129682  0.387811  1
  Sr  Sr5  1  0.983393  0.870318  0.612189  1
  Sr  Sr6  1  0.386841  0.123428  0.470014  1
  Sr  Sr7  1  0.613159  0.876572  0.529986  1
  Sr  Sr8  1  0.509058  0.230194  0.921996  1
  Sr  Sr9  1  0.490942  0.769806  0.078004  1
  Sr  Sr10  1  0.337363  0.004426  0.692203  1
  Sr  Sr11  1  0.662637  0.995574  0.307797  1
  Sr  Sr12  1  0.117911  0.845307  0.384042  1
  Sr  Sr13  1  0.882089  0.154693  0.615958  1
  Sr  Sr14  1  0.628926  0.318539  0.721744  1
  Sr  Sr15  1  0.371074  0.681461  0.278256  1
  Sr  Sr16  1  0.226615  0.379031  0.362141  1
  Sr  Sr17  1  0.773385  0.620969  0.637859  1
  Sr  Sr18  1  0.919319  0.511371  0.392299  1
  Sr  Sr19  1  0.080681  0.488629  0.607701  1
  Sr  Sr20  1  0.372148  0.492202  0.871387  1
  Sr  Sr21  1  0.627852  0.507798  0.128613  1
  Sr  Sr22  1  0.692750  0.006000  0.011064  1
  Sr  Sr23  1  0.307250  0.994000  0.988936  1
  Sr  Sr24  1  0.045621  0.148871  0.116734  1
  Sr  Sr25  1  0.954379  0.851129  0.883266  1
  Sr  Sr26  1  0.526831  0.777934  0.789123  1
  Sr  Sr27  1  0.473169  0.222066  0.210877  1
  Sr  Sr28  1  0.432171  0.475625  0.608459  1
  Sr  Sr29  1  0.567829  0.524375  0.391541  1
  Sr  Sr30  1  0.048455  0.538530  0.205780  1
  Sr  Sr31  1  0.951545  0.461470  0.794220  1
  Ta  Ta32  1  0.800929  0.236997  0.219229  1
  Ta  Ta33  1  0.199071  0.763003  0.780771  1
  Ta  Ta34  1  0.315516  0.713701  0.524080  1
  Ta  Ta35  1  0.684484  0.286299  0.475920  1
  Ta  Ta36  1  0.713265  0.600653  0.912044  1
  Ta  Ta37  1  0.286735  0.399347  0.087956  1
  Ta  Ta38  1  0.212430  0.250629  0.648812  1
  Ta  Ta39  1  0.787570  0.749371  0.351188  1
  Ta  Ta40  1  0.765580  0.060175  0.805155  1
  Ta  Ta41  1  0.234420  0.939825  0.194845  1
  N  N42  1  0.285341  0.720590  0.663688  1
  N  N43  1  0.714659  0.279410  0.336312  1
  N  N44  1  0.823148  0.061513  0.193552  1
  N  N45  1  0.176852  0.938487  0.806448  1
  N  N46  1  0.980650  0.333098  0.257534  1
  N  N47  1  0.019350  0.666902  0.742466  1
  N  N48  1  0.679811  0.255700  0.097246  1
  N  N49  1  0.320189  0.744300  0.902754  1
  N  N50  1  0.352342  0.884771  0.509221  1
  N  N51  1  0.647658  0.115229  0.490779  1
  N  N52  1  0.165937  0.612540  0.410957  1
  N  N53  1  0.834063  0.387460  0.589043  1
  N  N54  1  0.478233  0.652118  0.521301  1
  N  N55  1  0.521767  0.347882  0.478699  1
  N  N56  1  0.903002  0.608706  0.954540  1
  N  N57  1  0.096998  0.391294  0.045460  1
  N  N58  1  0.638785  0.575060  0.762910  1
  N  N59  1  0.361215  0.424940  0.237090  1
  N  N60  1  0.626701  0.447862  0.939455  1
  N  N61  1  0.373299  0.552138  0.060545  1
  N  N62  1  0.676838  0.763358  0.987725  1
  N  N63  1  0.323162  0.236642  0.012275  1
  N  N64  1  0.199677  0.321940  0.528893  1
  N  N65  1  0.800323  0.678060  0.471107  1
  N  N66  1  0.857820  0.636408  0.249171  1
  N  N67  1  0.142180  0.363592  0.750829  1
  N  N68  1  0.396126  0.248919  0.709084  1
  N  N69  1  0.603874  0.751081  0.290916  1
  N  N70  1  0.112006  0.078423  0.606984  1
  N  N71  1  0.887994  0.921577  0.393016  1
  N  N72  1  0.176138  0.768400  0.210202  1
  N  N73  1  0.823862  0.231600  0.789798  1
  N  N74  1  0.584290  0.024805  0.825565  1
  N  N75  1  0.415710  0.975195  0.174435  1
  N  N76  1  0.883028  0.068515  0.936259  1
  N  N77  1  0.116972  0.931485  0.063741  1
  N  N78  1  0.198017  0.072602  0.304238  1
  N  N79  1  0.801983  0.927398  0.695762  1
