# generated using pymatgen
data_Y3Th(AsSe)4
_symmetry_space_group_name_H-M   'P 1'
_cell_length_a   3.98179600
_cell_length_b   3.98638595
_cell_length_c   17.50387447
_cell_angle_alpha   90.15929808
_cell_angle_beta   90.00000000
_cell_angle_gamma   90.00000000
_symmetry_Int_Tables_number   1
_chemical_formula_structural   Y3Th(AsSe)4
_chemical_formula_sum   'Y3 Th1 As4 Se4'
_cell_volume   277.83749934
_cell_formula_units_Z   1
loop_
 _symmetry_equiv_pos_site_id
 _symmetry_equiv_pos_as_xyz
  1  'x, y, z'
loop_
 _atom_site_type_symbol
 _atom_site_label
 _atom_site_symmetry_multiplicity
 _atom_site_fract_x
 _atom_site_fract_y
 _atom_site_fract_z
 _atom_site_occupancy
  Y  Y0  1  0.750000  0.258606  0.360845  1
  Y  Y1  1  0.250000  0.757799  0.140064  1
  Y  Y2  1  0.250000  0.740925  0.634245  1
  Th  Th3  1  0.750000  0.243573  0.866462  1
  As  As4  1  0.250000  0.235587  0.499766  1
  As  As5  1  0.250000  0.250686  0.001108  1
  As  As6  1  0.750000  0.764468  0.499236  1
  As  As7  1  0.750000  0.748848  0.001164  1
  Se  Se8  1  0.750000  0.241705  0.686637  1
  Se  Se9  1  0.750000  0.257987  0.185740  1
  Se  Se10  1  0.250000  0.757656  0.312947  1
  Se  Se11  1  0.250000  0.742160  0.811784  1
