# generated using pymatgen
data_Sm3V(P3Rh4)2
_symmetry_space_group_name_H-M   'P 1'
_cell_length_a   3.94152900
_cell_length_b   11.22443100
_cell_length_c   12.85747900
_cell_angle_alpha   90.00000000
_cell_angle_beta   90.00000000
_cell_angle_gamma   90.00000000
_symmetry_Int_Tables_number   1
_chemical_formula_structural   Sm3V(P3Rh4)2
_chemical_formula_sum   'Sm6 V2 P12 Rh16'
_cell_volume   568.83313237
_cell_formula_units_Z   2
loop_
 _symmetry_equiv_pos_site_id
 _symmetry_equiv_pos_as_xyz
  1  'x, y, z'
loop_
 _atom_site_type_symbol
 _atom_site_label
 _atom_site_symmetry_multiplicity
 _atom_site_fract_x
 _atom_site_fract_y
 _atom_site_fract_z
 _atom_site_occupancy
  Sm  Sm0  1  0.000000  0.500000  0.520387  1
  Sm  Sm1  1  0.500000  0.000000  0.479613  1
  Sm  Sm2  1  0.500000  0.816824  0.202372  1
  Sm  Sm3  1  0.500000  0.183176  0.202372  1
  Sm  Sm4  1  0.000000  0.683176  0.797628  1
  Sm  Sm5  1  0.000000  0.316824  0.797628  1
  V  V6  1  0.500000  0.500000  0.156910  1
  V  V7  1  0.000000  0.000000  0.843090  1
  P  P8  1  0.500000  0.500000  0.879370  1
  P  P9  1  0.000000  0.000000  0.120630  1
  P  P10  1  0.500000  0.500000  0.342386  1
  P  P11  1  0.000000  0.000000  0.657614  1
  P  P12  1  0.500000  0.312251  0.616809  1
  P  P13  1  0.500000  0.687749  0.616809  1
  P  P14  1  0.000000  0.187749  0.383191  1
  P  P15  1  0.000000  0.812251  0.383191  1
  P  P16  1  0.500000  0.847963  0.889527  1
  P  P17  1  0.500000  0.152037  0.889527  1
  P  P18  1  0.000000  0.652037  0.110473  1
  P  P19  1  0.000000  0.347963  0.110473  1
  Rh  Rh20  1  0.500000  0.500000  0.699924  1
  Rh  Rh21  1  0.000000  0.000000  0.300076  1
  Rh  Rh22  1  0.000000  0.500000  0.987845  1
  Rh  Rh23  1  0.500000  0.000000  0.012155  1
  Rh  Rh24  1  0.500000  0.332594  0.991397  1
  Rh  Rh25  1  0.500000  0.667406  0.991397  1
  Rh  Rh26  1  0.000000  0.167406  0.008603  1
  Rh  Rh27  1  0.000000  0.832594  0.008603  1
  Rh  Rh28  1  0.500000  0.293127  0.430849  1
  Rh  Rh29  1  0.500000  0.706873  0.430849  1
  Rh  Rh30  1  0.000000  0.206873  0.569151  1
  Rh  Rh31  1  0.000000  0.793127  0.569151  1
  Rh  Rh32  1  0.500000  0.876211  0.709880  1
  Rh  Rh33  1  0.500000  0.123789  0.709880  1
  Rh  Rh34  1  0.000000  0.623789  0.290120  1
  Rh  Rh35  1  0.000000  0.376211  0.290120  1
