# generated using pymatgen
data_SrPr2Mn3O9
_symmetry_space_group_name_H-M   'P 1'
_cell_length_a   5.58713800
_cell_length_b   5.58713798
_cell_length_c   13.37859900
_cell_angle_alpha   90.00000000
_cell_angle_beta   90.00000000
_cell_angle_gamma   119.99998826
_symmetry_Int_Tables_number   1
_chemical_formula_structural   SrPr2Mn3O9
_chemical_formula_sum   'Sr2 Pr4 Mn6 O18'
_cell_volume   361.67635336
_cell_formula_units_Z   2
loop_
 _symmetry_equiv_pos_site_id
 _symmetry_equiv_pos_as_xyz
  1  'x, y, z'
loop_
 _atom_site_type_symbol
 _atom_site_label
 _atom_site_symmetry_multiplicity
 _atom_site_fract_x
 _atom_site_fract_y
 _atom_site_fract_z
 _atom_site_occupancy
  Sr  Sr0  1  0.000000  0.000000  0.000000  1
  Sr  Sr1  1  0.000000  0.000000  0.500000  1
  Pr  Pr2  1  0.666667  0.333333  0.834102  1
  Pr  Pr3  1  0.333333  0.666667  0.165898  1
  Pr  Pr4  1  0.666667  0.333333  0.333998  1
  Pr  Pr5  1  0.333333  0.666667  0.666002  1
  Mn  Mn6  1  0.666667  0.333333  0.582821  1
  Mn  Mn7  1  0.000000  0.000000  0.249999  1
  Mn  Mn8  1  0.333333  0.666667  0.917219  1
  Mn  Mn9  1  0.666667  0.333333  0.082781  1
  Mn  Mn10  1  0.000000  0.000000  0.750001  1
  Mn  Mn11  1  0.333333  0.666667  0.417179  1
  O  O12  1  0.103296  0.338850  0.329076  1
  O  O13  1  0.764446  0.661150  0.670924  1
  O  O14  1  0.451100  0.000000  0.000000  1
  O  O15  1  0.235554  0.896704  0.329076  1
  O  O16  1  0.896704  0.235554  0.670924  1
  O  O17  1  0.548900  0.548900  0.000000  1
  O  O18  1  0.661150  0.764446  0.329076  1
  O  O19  1  0.338850  0.103296  0.670924  1
  O  O20  1  0.000000  0.451100  0.000000  1
  O  O21  1  0.764531  0.103407  0.170980  1
  O  O22  1  0.451260  0.451260  0.500000  1
  O  O23  1  0.103407  0.764531  0.829020  1
  O  O24  1  0.338876  0.235469  0.170980  1
  O  O25  1  0.000000  0.548740  0.500000  1
  O  O26  1  0.661124  0.896593  0.829020  1
  O  O27  1  0.896593  0.661124  0.170980  1
  O  O28  1  0.548740  0.000000  0.500000  1
  O  O29  1  0.235469  0.338876  0.829020  1
