# generated using pymatgen
data_Ho5Tm5(Bi3C)2
_symmetry_space_group_name_H-M   'P 1'
_cell_length_a   6.43963101
_cell_length_b   9.08303583
_cell_length_c   9.08530403
_cell_angle_alpha   120.00597653
_cell_angle_beta   90.00558738
_cell_angle_gamma   89.99379645
_symmetry_Int_Tables_number   1
_chemical_formula_structural   Ho5Tm5(Bi3C)2
_chemical_formula_sum   'Ho5 Tm5 Bi6 C2'
_cell_volume   460.18869588
_cell_formula_units_Z   1
loop_
 _symmetry_equiv_pos_site_id
 _symmetry_equiv_pos_as_xyz
  1  'x, y, z'
loop_
 _atom_site_type_symbol
 _atom_site_label
 _atom_site_symmetry_multiplicity
 _atom_site_fract_x
 _atom_site_fract_y
 _atom_site_fract_z
 _atom_site_occupancy
  Ho  Ho0  1  0.499969  0.333281  0.666727  1
  Ho  Ho1  1  0.499965  0.666702  0.333375  1
  Ho  Ho2  1  0.000038  0.666705  0.333372  1
  Ho  Ho3  1  0.000032  0.333276  0.666747  1
  Ho  Ho4  1  0.250002  0.000087  0.791814  1
  Tm  Tm5  1  0.750005  0.204385  0.000606  1
  Tm  Tm6  1  0.749999  0.795461  0.796111  1
  Tm  Tm7  1  0.750002  0.999948  0.204762  1
  Tm  Tm8  1  0.249985  0.795839  0.999827  1
  Tm  Tm9  1  0.250009  0.204356  0.204134  1
  Bi  Bi10  1  0.749987  0.600600  0.999932  1
  Bi  Bi11  1  0.750000  0.399425  0.399366  1
  Bi  Bi12  1  0.749991  0.999993  0.601182  1
  Bi  Bi13  1  0.250015  0.400124  0.000795  1
  Bi  Bi14  1  0.250001  0.599823  0.600620  1
  Bi  Bi15  1  0.249998  0.999986  0.398569  1
  C  C16  1  0.500646  0.000008  0.001024  1
  C  C17  1  0.999357  0.000001  0.001035  1
