# generated using pymatgen
data_PrHo2Er2(In2Pd)2
_symmetry_space_group_name_H-M   'P 1'
_cell_length_a   3.62263900
_cell_length_b   8.21057300
_cell_length_c   18.33884300
_cell_angle_alpha   90.00000000
_cell_angle_beta   90.00000000
_cell_angle_gamma   90.00000000
_symmetry_Int_Tables_number   1
_chemical_formula_structural   PrHo2Er2(In2Pd)2
_chemical_formula_sum   'Pr2 Ho4 Er4 In8 Pd4'
_cell_volume   545.46948184
_cell_formula_units_Z   2
loop_
 _symmetry_equiv_pos_site_id
 _symmetry_equiv_pos_as_xyz
  1  'x, y, z'
loop_
 _atom_site_type_symbol
 _atom_site_label
 _atom_site_symmetry_multiplicity
 _atom_site_fract_x
 _atom_site_fract_y
 _atom_site_fract_z
 _atom_site_occupancy
  Pr  Pr0  1  0.000000  0.500000  0.500000  1
  Pr  Pr1  1  0.000000  0.000000  0.000000  1
  Ho  Ho2  1  0.000000  0.738249  0.282797  1
  Ho  Ho3  1  0.000000  0.261751  0.717203  1
  Ho  Ho4  1  0.000000  0.761751  0.782797  1
  Ho  Ho5  1  0.000000  0.238249  0.217203  1
  Er  Er6  1  0.000000  0.621632  0.085003  1
  Er  Er7  1  0.000000  0.378368  0.914997  1
  Er  Er8  1  0.000000  0.878368  0.585003  1
  Er  Er9  1  0.000000  0.121632  0.414997  1
  In  In10  1  0.500000  0.696572  0.932923  1
  In  In11  1  0.500000  0.303428  0.067077  1
  In  In12  1  0.500000  0.803428  0.432923  1
  In  In13  1  0.500000  0.196572  0.567077  1
  In  In14  1  0.500000  0.584001  0.654161  1
  In  In15  1  0.500000  0.415999  0.345839  1
  In  In16  1  0.500000  0.915999  0.154161  1
  In  In17  1  0.500000  0.084001  0.845839  1
  Pd  Pd18  1  0.500000  0.524811  0.195335  1
  Pd  Pd19  1  0.500000  0.475189  0.804665  1
  Pd  Pd20  1  0.500000  0.975189  0.695335  1
  Pd  Pd21  1  0.500000  0.024811  0.304665  1
