# generated using pymatgen
data_Zr3In3Cu5Ni
_symmetry_space_group_name_H-M   'P 1'
_cell_length_a   4.53888400
_cell_length_b   6.40437000
_cell_length_c   13.64145901
_cell_angle_alpha   90.00000000
_cell_angle_beta   89.99667047
_cell_angle_gamma   90.00000000
_symmetry_Int_Tables_number   1
_chemical_formula_structural   Zr3In3Cu5Ni
_chemical_formula_sum   'Zr6 In6 Cu10 Ni2'
_cell_volume   396.53937690
_cell_formula_units_Z   2
loop_
 _symmetry_equiv_pos_site_id
 _symmetry_equiv_pos_as_xyz
  1  'x, y, z'
loop_
 _atom_site_type_symbol
 _atom_site_label
 _atom_site_symmetry_multiplicity
 _atom_site_fract_x
 _atom_site_fract_y
 _atom_site_fract_z
 _atom_site_occupancy
  Zr  Zr0  1  0.000000  0.000000  0.000000  1
  Zr  Zr1  1  0.500355  0.500001  0.163572  1
  Zr  Zr2  1  0.000373  0.000000  0.333567  1
  Zr  Zr3  1  0.499999  0.500001  0.499999  1
  Zr  Zr4  1  0.999625  0.000000  0.666433  1
  Zr  Zr5  1  0.499643  0.500001  0.836428  1
  In  In6  1  0.000000  0.500001  0.000000  1
  In  In7  1  0.500419  0.000000  0.164740  1
  In  In8  1  0.000306  0.500001  0.333138  1
  In  In9  1  0.499999  0.000000  0.499999  1
  In  In10  1  0.999695  0.500001  0.666862  1
  In  In11  1  0.499579  0.000000  0.835259  1
  Cu  Cu12  1  0.000389  0.251401  0.166247  1
  Cu  Cu13  1  0.000389  0.748599  0.166247  1
  Cu  Cu14  1  0.500380  0.249335  0.332832  1
  Cu  Cu15  1  0.500380  0.750663  0.332832  1
  Cu  Cu16  1  0.000000  0.250852  0.499999  1
  Cu  Cu17  1  0.000000  0.749148  0.499999  1
  Cu  Cu18  1  0.499623  0.249335  0.667168  1
  Cu  Cu19  1  0.499623  0.750663  0.667168  1
  Cu  Cu20  1  0.999610  0.251401  0.833753  1
  Cu  Cu21  1  0.999610  0.748599  0.833753  1
  Ni  Ni22  1  0.499999  0.249790  0.000000  1
  Ni  Ni23  1  0.499999  0.750211  0.000000  1
