# generated using pymatgen
data_Ce2Pr6Cd2IrOs
_symmetry_space_group_name_H-M   'P 1'
_cell_length_a   9.95742017
_cell_length_b   9.95742043
_cell_length_c   9.97724400
_cell_angle_alpha   59.93412188
_cell_angle_beta   59.93412098
_cell_angle_gamma   59.86969066
_symmetry_Int_Tables_number   1
_chemical_formula_structural   Ce2Pr6Cd2IrOs
_chemical_formula_sum   'Ce4 Pr12 Cd4 Ir2 Os2'
_cell_volume   698.11574269
_cell_formula_units_Z   2
loop_
 _symmetry_equiv_pos_site_id
 _symmetry_equiv_pos_as_xyz
  1  'x, y, z'
loop_
 _atom_site_type_symbol
 _atom_site_label
 _atom_site_symmetry_multiplicity
 _atom_site_fract_x
 _atom_site_fract_y
 _atom_site_fract_z
 _atom_site_occupancy
  Ce  Ce0  1  0.343174  0.343174  0.347285  1
  Ce  Ce1  1  0.343174  0.343174  0.966364  1
  Ce  Ce2  1  0.341435  0.969138  0.344713  1
  Ce  Ce3  1  0.969138  0.341435  0.344713  1
  Pr  Pr4  1  0.809281  0.191088  0.192386  1
  Pr  Pr5  1  0.191088  0.809281  0.807245  1
  Pr  Pr6  1  0.191088  0.809281  0.192386  1
  Pr  Pr7  1  0.809281  0.191088  0.807245  1
  Pr  Pr8  1  0.190705  0.190705  0.809295  1
  Pr  Pr9  1  0.806676  0.806676  0.193324  1
  Pr  Pr10  1  0.941480  0.557332  0.560453  1
  Pr  Pr11  1  0.557332  0.941480  0.940734  1
  Pr  Pr12  1  0.557332  0.941480  0.560453  1
  Pr  Pr13  1  0.941480  0.557332  0.940734  1
  Pr  Pr14  1  0.559146  0.559146  0.940854  1
  Pr  Pr15  1  0.941273  0.941273  0.558727  1
  Cd  Cd16  1  0.578833  0.578833  0.579552  1
  Cd  Cd17  1  0.578833  0.578833  0.262781  1
  Cd  Cd18  1  0.578962  0.261810  0.579614  1
  Cd  Cd19  1  0.261810  0.578962  0.579614  1
  Ir  Ir20  1  0.147352  0.566083  0.143283  1
  Ir  Ir21  1  0.566083  0.147352  0.143283  1
  Os  Os22  1  0.147520  0.147520  0.143238  1
  Os  Os23  1  0.147520  0.147520  0.561722  1
