# generated using pymatgen
data_Lu8MnB24Os2W
_symmetry_space_group_name_H-M   'P 1'
_cell_length_a   3.55707600
_cell_length_b   9.06456031
_cell_length_c   11.43474367
_cell_angle_alpha   89.93353205
_cell_angle_beta   90.00000000
_cell_angle_gamma   90.00000000
_symmetry_Int_Tables_number   1
_chemical_formula_structural   Lu8MnB24Os2W
_chemical_formula_sum   'Lu8 Mn1 B24 Os2 W1'
_cell_volume   368.69396477
_cell_formula_units_Z   1
loop_
 _symmetry_equiv_pos_site_id
 _symmetry_equiv_pos_as_xyz
  1  'x, y, z'
loop_
 _atom_site_type_symbol
 _atom_site_label
 _atom_site_symmetry_multiplicity
 _atom_site_fract_x
 _atom_site_fract_y
 _atom_site_fract_z
 _atom_site_occupancy
  Lu  Lu0  1  0.000000  0.325647  0.412409  1
  Lu  Lu1  1  0.000000  0.678424  0.582255  1
  Lu  Lu2  1  0.000000  0.819356  0.088241  1
  Lu  Lu3  1  0.000000  0.179643  0.914191  1
  Lu  Lu4  1  0.000000  0.938811  0.370004  1
  Lu  Lu5  1  0.000000  0.054088  0.627003  1
  Lu  Lu6  1  0.000000  0.445850  0.131788  1
  Lu  Lu7  1  0.000000  0.557518  0.873835  1
  Mn  Mn8  1  0.000000  0.639152  0.319196  1
  B  B9  1  0.500000  0.554840  0.430488  1
  B  B10  1  0.500000  0.450591  0.562305  1
  B  B11  1  0.500000  0.053493  0.066353  1
  B  B12  1  0.500000  0.946598  0.934430  1
  B  B13  1  0.500000  0.746636  0.417169  1
  B  B14  1  0.500000  0.247331  0.576312  1
  B  B15  1  0.500000  0.250342  0.081158  1
  B  B16  1  0.500000  0.750720  0.920758  1
  B  B17  1  0.500000  0.790083  0.265094  1
  B  B18  1  0.500000  0.203413  0.737141  1
  B  B19  1  0.500000  0.292281  0.235596  1
  B  B20  1  0.500000  0.708988  0.766227  1
  B  B21  1  0.500000  0.631319  0.186067  1
  B  B22  1  0.500000  0.368999  0.819212  1
  B  B23  1  0.500000  0.129646  0.314825  1
  B  B24  1  0.500000  0.868904  0.685005  1
  B  B25  1  0.500000  0.980380  0.212078  1
  B  B26  1  0.500000  0.017804  0.788005  1
  B  B27  1  0.500000  0.484615  0.287930  1
  B  B28  1  0.500000  0.524743  0.713154  1
  B  B29  1  0.500000  0.603580  0.029946  1
  B  B30  1  0.500000  0.398007  0.974077  1
  B  B31  1  0.500000  0.100419  0.469834  1
  B  B32  1  0.500000  0.895406  0.527568  1
  Os  Os33  1  0.000000  0.137779  0.178806  1
  Os  Os34  1  0.000000  0.862351  0.822210  1
  W  W35  1  0.000000  0.362240  0.679331  1
