# generated using pymatgen
data_AgPt2F9
_symmetry_space_group_name_H-M   'P 1'
_cell_length_a   5.55951916
_cell_length_b   10.09569944
_cell_length_c   9.84738716
_cell_angle_alpha   136.45219128
_cell_angle_beta   106.27057811
_cell_angle_gamma   80.81730534
_symmetry_Int_Tables_number   1
_chemical_formula_structural   AgPt2F9
_chemical_formula_sum   'Ag2 Pt4 F18'
_cell_volume   364.75045501
_cell_formula_units_Z   2
loop_
 _symmetry_equiv_pos_site_id
 _symmetry_equiv_pos_as_xyz
  1  'x, y, z'
loop_
 _atom_site_type_symbol
 _atom_site_label
 _atom_site_symmetry_multiplicity
 _atom_site_fract_x
 _atom_site_fract_y
 _atom_site_fract_z
 _atom_site_occupancy
  Ag  Ag0  1  0.586058  0.772389  0.695167  1
  Ag  Ag1  1  0.413942  0.227611  0.304833  1
  Pt  Pt2  1  0.693009  0.799005  0.148419  1
  Pt  Pt3  1  0.306991  0.200995  0.851581  1
  Pt  Pt4  1  0.912559  0.482241  0.222395  1
  Pt  Pt5  1  0.087441  0.517759  0.777605  1
  F  F6  1  0.358924  0.654301  0.039787  1
  F  F7  1  0.641076  0.345699  0.960213  1
  F  F8  1  0.442640  0.123258  0.988526  1
  F  F9  1  0.557360  0.876742  0.011474  1
  F  F10  1  0.824974  0.551585  0.909964  1
  F  F11  1  0.175026  0.448415  0.090036  1
  F  F12  1  0.178438  0.617199  0.469718  1
  F  F13  1  0.821562  0.382801  0.530282  1
  F  F14  1  0.002221  0.249351  0.156370  1
  F  F15  1  0.997779  0.750649  0.843630  1
  F  F16  1  0.440971  0.969314  0.629993  1
  F  F17  1  0.559029  0.030686  0.370007  1
  F  F18  1  0.333660  0.467924  0.640185  1
  F  F19  1  0.666340  0.532076  0.359815  1
  F  F20  1  0.991646  0.064645  0.739547  1
  F  F21  1  0.008354  0.935355  0.260453  1
  F  F22  1  0.171753  0.263040  0.688665  1
  F  F23  1  0.828247  0.736960  0.311335  1
