# generated using pymatgen
data_Nd16TcHg4Pt3
_symmetry_space_group_name_H-M   'P 1'
_cell_length_a   10.01847621
_cell_length_b   10.01847578
_cell_length_c   10.01847590
_cell_angle_alpha   59.60787043
_cell_angle_beta   59.60787334
_cell_angle_gamma   59.60787341
_symmetry_Int_Tables_number   1
_chemical_formula_structural   Nd16TcHg4Pt3
_chemical_formula_sum   'Nd16 Tc1 Hg4 Pt3'
_cell_volume   704.69651640
_cell_formula_units_Z   1
loop_
 _symmetry_equiv_pos_site_id
 _symmetry_equiv_pos_as_xyz
  1  'x, y, z'
loop_
 _atom_site_type_symbol
 _atom_site_label
 _atom_site_symmetry_multiplicity
 _atom_site_fract_x
 _atom_site_fract_y
 _atom_site_fract_z
 _atom_site_occupancy
  Nd  Nd0  1  0.352502  0.352502  0.352502  1
  Nd  Nd1  1  0.349448  0.349448  0.947269  1
  Nd  Nd2  1  0.349448  0.947269  0.349448  1
  Nd  Nd3  1  0.947269  0.349448  0.349448  1
  Nd  Nd4  1  0.815495  0.189017  0.189017  1
  Nd  Nd5  1  0.189716  0.807961  0.807961  1
  Nd  Nd6  1  0.189017  0.815495  0.189017  1
  Nd  Nd7  1  0.807961  0.189716  0.807961  1
  Nd  Nd8  1  0.189017  0.189017  0.815495  1
  Nd  Nd9  1  0.807961  0.807961  0.189716  1
  Nd  Nd10  1  0.937454  0.563719  0.563719  1
  Nd  Nd11  1  0.556731  0.939049  0.939049  1
  Nd  Nd12  1  0.563719  0.937454  0.563719  1
  Nd  Nd13  1  0.939049  0.556731  0.939049  1
  Nd  Nd14  1  0.563719  0.563719  0.937454  1
  Nd  Nd15  1  0.939049  0.939049  0.556731  1
  Tc  Tc16  1  0.142446  0.142446  0.142446  1
  Hg  Hg17  1  0.584005  0.584005  0.584005  1
  Hg  Hg18  1  0.584384  0.584384  0.245089  1
  Hg  Hg19  1  0.584384  0.245089  0.584384  1
  Hg  Hg20  1  0.245089  0.584384  0.584384  1
  Pt  Pt21  1  0.145025  0.145025  0.572087  1
  Pt  Pt22  1  0.145025  0.572087  0.145025  1
  Pt  Pt23  1  0.572087  0.145025  0.145025  1
