# generated using pymatgen
data_Ho4Er8Co5Sn
_symmetry_space_group_name_H-M   'P 1'
_cell_length_a   8.20721636
_cell_length_b   8.20721683
_cell_length_c   8.20721664
_cell_angle_alpha   106.87471459
_cell_angle_beta   110.72501944
_cell_angle_gamma   110.84474034
_symmetry_Int_Tables_number   1
_chemical_formula_structural   Ho4Er8Co5Sn
_chemical_formula_sum   'Ho4 Er8 Co5 Sn1'
_cell_volume   424.91265520
_cell_formula_units_Z   1
loop_
 _symmetry_equiv_pos_site_id
 _symmetry_equiv_pos_as_xyz
  1  'x, y, z'
loop_
 _atom_site_type_symbol
 _atom_site_label
 _atom_site_symmetry_multiplicity
 _atom_site_fract_x
 _atom_site_fract_y
 _atom_site_fract_z
 _atom_site_occupancy
  Ho  Ho0  1  0.193748  0.210189  0.403938  1
  Ho  Ho1  1  0.806252  0.789811  0.596062  1
  Ho  Ho2  1  0.193748  0.789811  0.983558  1
  Ho  Ho3  1  0.806252  0.210189  0.016442  1
  Er  Er4  1  0.475297  0.290134  0.185164  1
  Er  Er5  1  0.104969  0.290134  0.814836  1
  Er  Er6  1  0.895031  0.709866  0.185164  1
  Er  Er7  1  0.524703  0.709866  0.814836  1
  Er  Er8  1  0.305562  0.619469  0.313906  1
  Er  Er9  1  0.305562  0.991657  0.686094  1
  Er  Er10  1  0.694438  0.380531  0.686094  1
  Er  Er11  1  0.694438  0.008343  0.313906  1
  Co  Co12  1  0.500000  0.612475  0.112475  1
  Co  Co13  1  0.500000  0.387525  0.887525  1
  Co  Co14  1  0.376869  0.000000  0.376869  1
  Co  Co15  1  0.623131  0.000000  0.623131  1
  Co  Co16  1  0.000000  0.000000  0.000000  1
  Sn  Sn17  1  0.000000  0.500000  0.500000  1
