# generated using pymatgen
data_Ho5Mg(P2Ru3)6
_symmetry_space_group_name_H-M   'P 1'
_cell_length_a   12.62683899
_cell_length_b   12.46791378
_cell_length_c   3.97505000
_cell_angle_alpha   90.00000000
_cell_angle_beta   90.00000000
_cell_angle_gamma   119.58451444
_symmetry_Int_Tables_number   1
_chemical_formula_structural   Ho5Mg(P2Ru3)6
_chemical_formula_sum   'Ho5 Mg1 P12 Ru18'
_cell_volume   544.20777461
_cell_formula_units_Z   1
loop_
 _symmetry_equiv_pos_site_id
 _symmetry_equiv_pos_as_xyz
  1  'x, y, z'
loop_
 _atom_site_type_symbol
 _atom_site_label
 _atom_site_symmetry_multiplicity
 _atom_site_fract_x
 _atom_site_fract_y
 _atom_site_fract_z
 _atom_site_occupancy
  Ho  Ho0  1  0.000000  0.181169  0.500000  1
  Ho  Ho1  1  0.816052  0.818064  0.500000  1
  Ho  Ho2  1  0.183948  0.002012  0.500000  1
  Ho  Ho3  1  0.660933  0.329004  0.000000  1
  Ho  Ho4  1  0.339067  0.668072  0.000000  1
  Mg  Mg5  1  0.000000  0.561357  0.000000  1
  P  P6  1  0.000000  0.812861  0.000000  1
  P  P7  1  0.183296  0.183604  0.000000  1
  P  P8  1  0.816704  0.000308  0.000000  1
  P  P9  1  0.691303  0.172082  0.500000  1
  P  P10  1  0.819203  0.518776  0.500000  1
  P  P11  1  0.475501  0.307182  0.500000  1
  P  P12  1  0.180797  0.699573  0.500000  1
  P  P13  1  0.524499  0.831680  0.500000  1
  P  P14  1  0.308697  0.480779  0.500000  1
  P  P15  1  0.000000  0.359736  0.000000  1
  P  P16  1  0.625867  0.625633  0.000000  1
  P  P17  1  0.374133  0.999766  0.000000  1
  Ru  Ru18  1  0.444855  0.444571  0.000000  1
  Ru  Ru19  1  0.555145  0.999716  0.000000  1
  Ru  Ru20  1  0.000000  0.717579  0.500000  1
  Ru  Ru21  1  0.281913  0.283279  0.500000  1
  Ru  Ru22  1  0.718087  0.001366  0.500000  1
  Ru  Ru23  1  0.805200  0.184156  0.000000  1
  Ru  Ru24  1  0.813672  0.620434  0.000000  1
  Ru  Ru25  1  0.373679  0.189191  0.000000  1
  Ru  Ru26  1  0.186328  0.806762  0.000000  1
  Ru  Ru27  1  0.626321  0.815512  0.000000  1
  Ru  Ru28  1  0.194800  0.378956  0.000000  1
  Ru  Ru29  1  0.874664  0.365339  0.500000  1
  Ru  Ru30  1  0.631508  0.509557  0.500000  1
  Ru  Ru31  1  0.492640  0.128630  0.500000  1
  Ru  Ru32  1  0.368492  0.878049  0.500000  1
  Ru  Ru33  1  0.507360  0.635991  0.500000  1
  Ru  Ru34  1  0.125336  0.490675  0.500000  1
  Ru  Ru35  1  0.000000  0.998579  0.000000  1
