# generated using pymatgen
data_Zn3Co2Ni3(Mo3N)4
_symmetry_space_group_name_H-M   'P 1'
_cell_length_a   6.72844287
_cell_length_b   6.71249879
_cell_length_c   6.71536114
_cell_angle_alpha   90.12335698
_cell_angle_beta   90.10061115
_cell_angle_gamma   89.95407645
_symmetry_Int_Tables_number   1
_chemical_formula_structural   Zn3Co2Ni3(Mo3N)4
_chemical_formula_sum   'Zn3 Co2 Ni3 Mo12 N4'
_cell_volume   303.29576675
_cell_formula_units_Z   1
loop_
 _symmetry_equiv_pos_site_id
 _symmetry_equiv_pos_as_xyz
  1  'x, y, z'
loop_
 _atom_site_type_symbol
 _atom_site_label
 _atom_site_symmetry_multiplicity
 _atom_site_fract_x
 _atom_site_fract_y
 _atom_site_fract_z
 _atom_site_occupancy
  Zn  Zn0  1  0.069665  0.064235  0.070175  1
  Zn  Zn1  1  0.321066  0.184509  0.820110  1
  Zn  Zn2  1  0.816364  0.319992  0.181544  1
  Co  Co3  1  0.935269  0.569511  0.433575  1
  Co  Co4  1  0.685874  0.682673  0.683240  1
  Ni  Ni5  1  0.185457  0.818087  0.319137  1
  Ni  Ni6  1  0.435084  0.934093  0.568743  1
  Ni  Ni7  1  0.570630  0.433584  0.930968  1
  Mo  Mo8  1  0.128023  0.201395  0.457152  1
  Mo  Mo9  1  0.382978  0.786970  0.947136  1
  Mo  Mo10  1  0.875182  0.700099  0.045552  1
  Mo  Mo11  1  0.200790  0.464204  0.130767  1
  Mo  Mo12  1  0.791951  0.942115  0.381971  1
  Mo  Mo13  1  0.040938  0.868633  0.691407  1
  Mo  Mo14  1  0.451707  0.120859  0.210767  1
  Mo  Mo15  1  0.298953  0.553815  0.623053  1
  Mo  Mo16  1  0.945010  0.384974  0.785766  1
  Mo  Mo17  1  0.544813  0.627131  0.302156  1
  Mo  Mo18  1  0.698363  0.038334  0.871052  1
  Mo  Mo19  1  0.628185  0.306633  0.546969  1
  N  N20  1  0.373552  0.375241  0.376838  1
  N  N21  1  0.624568  0.872048  0.125281  1
  N  N22  1  0.123738  0.626485  0.872331  1
  N  N23  1  0.871839  0.124381  0.624307  1
