# generated using pymatgen
data_Y2Er4NbCo17P12
_symmetry_space_group_name_H-M   'P 1'
_cell_length_a   3.68762700
_cell_length_b   10.52542100
_cell_length_c   12.22664400
_cell_angle_alpha   90.00000000
_cell_angle_beta   90.00000000
_cell_angle_gamma   90.00000000
_symmetry_Int_Tables_number   1
_chemical_formula_structural   Y2Er4NbCo17P12
_chemical_formula_sum   'Y2 Er4 Nb1 Co17 P12'
_cell_volume   474.56284092
_cell_formula_units_Z   1
loop_
 _symmetry_equiv_pos_site_id
 _symmetry_equiv_pos_as_xyz
  1  'x, y, z'
loop_
 _atom_site_type_symbol
 _atom_site_label
 _atom_site_symmetry_multiplicity
 _atom_site_fract_x
 _atom_site_fract_y
 _atom_site_fract_z
 _atom_site_occupancy
  Y  Y0  1  0.750000  0.250000  0.473134  1
  Y  Y1  1  0.250000  0.750000  0.522460  1
  Er  Er2  1  0.250000  0.930238  0.793013  1
  Er  Er3  1  0.250000  0.569762  0.793013  1
  Er  Er4  1  0.750000  0.067329  0.203842  1
  Er  Er5  1  0.750000  0.432671  0.203842  1
  Nb  Nb6  1  0.250000  0.250000  0.845463  1
  Co  Co7  1  0.750000  0.750000  0.161168  1
  Co  Co8  1  0.250000  0.250000  0.297129  1
  Co  Co9  1  0.750000  0.750000  0.704319  1
  Co  Co10  1  0.750000  0.250000  0.015995  1
  Co  Co11  1  0.250000  0.750000  0.985587  1
  Co  Co12  1  0.250000  0.420471  0.010809  1
  Co  Co13  1  0.250000  0.079529  0.010809  1
  Co  Co14  1  0.750000  0.586303  0.996034  1
  Co  Co15  1  0.750000  0.913697  0.996034  1
  Co  Co16  1  0.250000  0.454941  0.567217  1
  Co  Co17  1  0.250000  0.045059  0.567217  1
  Co  Co18  1  0.750000  0.547530  0.429897  1
  Co  Co19  1  0.750000  0.952470  0.429897  1
  Co  Co20  1  0.250000  0.870604  0.291260  1
  Co  Co21  1  0.250000  0.629396  0.291260  1
  Co  Co22  1  0.750000  0.126667  0.706072  1
  Co  Co23  1  0.750000  0.373333  0.706072  1
  P  P24  1  0.250000  0.250000  0.119395  1
  P  P25  1  0.750000  0.750000  0.882702  1
  P  P26  1  0.250000  0.250000  0.644617  1
  P  P27  1  0.750000  0.750000  0.344005  1
  P  P28  1  0.250000  0.440193  0.381868  1
  P  P29  1  0.250000  0.059807  0.381868  1
  P  P30  1  0.750000  0.561749  0.614937  1
  P  P31  1  0.750000  0.938251  0.614937  1
  P  P32  1  0.250000  0.898988  0.110157  1
  P  P33  1  0.250000  0.601012  0.110157  1
  P  P34  1  0.750000  0.088535  0.896907  1
  P  P35  1  0.750000  0.411465  0.896907  1
