# generated using pymatgen
data_Lu2CO
_symmetry_space_group_name_H-M   'P 1'
_cell_length_a   5.93829336
_cell_length_b   5.93829318
_cell_length_c   5.93829242
_cell_angle_alpha   132.29996977
_cell_angle_beta   132.29996375
_cell_angle_gamma   69.75567106
_symmetry_Int_Tables_number   1
_chemical_formula_structural   Lu2CO
_chemical_formula_sum   'Lu4 C2 O2'
_cell_volume   112.34609906
_cell_formula_units_Z   2
loop_
 _symmetry_equiv_pos_site_id
 _symmetry_equiv_pos_as_xyz
  1  'x, y, z'
loop_
 _atom_site_type_symbol
 _atom_site_label
 _atom_site_symmetry_multiplicity
 _atom_site_fract_x
 _atom_site_fract_y
 _atom_site_fract_z
 _atom_site_occupancy
  Lu  Lu0  1  0.755269  0.755269  0.000000  1
  Lu  Lu1  1  0.244731  0.244731  0.000000  1
  Lu  Lu2  1  0.994731  0.494731  0.500000  1
  Lu  Lu3  1  0.505269  0.005269  0.500000  1
  C  C4  1  0.000000  0.000000  0.000000  1
  C  C5  1  0.750000  0.250000  0.500000  1
  O  O6  1  0.500000  0.500000  0.000000  1
  O  O7  1  0.250000  0.750000  0.500000  1
