# generated using pymatgen
data_HfMg(Np3Sb5)2
_symmetry_space_group_name_H-M   'P 1'
_cell_length_a   9.24895400
_cell_length_b   9.24895563
_cell_length_c   6.20985000
_cell_angle_alpha   90.00000000
_cell_angle_beta   90.00000000
_cell_angle_gamma   119.99999418
_symmetry_Int_Tables_number   1
_chemical_formula_structural   HfMg(Np3Sb5)2
_chemical_formula_sum   'Hf1 Mg1 Np6 Sb10'
_cell_volume   460.04157569
_cell_formula_units_Z   1
loop_
 _symmetry_equiv_pos_site_id
 _symmetry_equiv_pos_as_xyz
  1  'x, y, z'
loop_
 _atom_site_type_symbol
 _atom_site_label
 _atom_site_symmetry_multiplicity
 _atom_site_fract_x
 _atom_site_fract_y
 _atom_site_fract_z
 _atom_site_occupancy
  Hf  Hf0  1  0.000000  0.000000  0.500000  1
  Mg  Mg1  1  0.000000  0.000000  0.000000  1
  Np  Np2  1  0.615608  0.000000  0.251753  1
  Np  Np3  1  0.384392  0.000000  0.748247  1
  Np  Np4  1  0.000000  0.615608  0.251753  1
  Np  Np5  1  0.000000  0.384392  0.748247  1
  Np  Np6  1  0.384392  0.384392  0.251753  1
  Np  Np7  1  0.615608  0.615608  0.748247  1
  Sb  Sb8  1  0.268382  0.000000  0.250020  1
  Sb  Sb9  1  0.731618  0.000000  0.749980  1
  Sb  Sb10  1  0.000000  0.268382  0.250020  1
  Sb  Sb11  1  0.000000  0.731618  0.749980  1
  Sb  Sb12  1  0.731618  0.731618  0.250020  1
  Sb  Sb13  1  0.268382  0.268382  0.749980  1
  Sb  Sb14  1  0.333333  0.666667  0.000000  1
  Sb  Sb15  1  0.666667  0.333333  0.000000  1
  Sb  Sb16  1  0.666667  0.333333  0.500000  1
  Sb  Sb17  1  0.333333  0.666667  0.500000  1
