# generated using pymatgen
data_Tb7Y3(InSb)4
_symmetry_space_group_name_H-M   'P 1'
_cell_length_a   8.84731717
_cell_length_b   8.84607201
_cell_length_c   8.15426703
_cell_angle_alpha   89.99315382
_cell_angle_beta   90.00939602
_cell_angle_gamma   125.09418301
_symmetry_Int_Tables_number   1
_chemical_formula_structural   Tb7Y3(InSb)4
_chemical_formula_sum   'Tb7 Y3 In4 Sb4'
_cell_volume   522.16860939
_cell_formula_units_Z   1
loop_
 _symmetry_equiv_pos_site_id
 _symmetry_equiv_pos_as_xyz
  1  'x, y, z'
loop_
 _atom_site_type_symbol
 _atom_site_label
 _atom_site_symmetry_multiplicity
 _atom_site_fract_x
 _atom_site_fract_y
 _atom_site_fract_z
 _atom_site_occupancy
  Tb  Tb0  1  0.031386  0.307302  0.334258  1
  Tb  Tb1  1  0.968631  0.692703  0.665714  1
  Tb  Tb2  1  0.468613  0.192678  0.834262  1
  Tb  Tb3  1  0.807317  0.531384  0.165726  1
  Tb  Tb4  1  0.531379  0.807298  0.165724  1
  Tb  Tb5  1  0.192693  0.468611  0.834295  1
  Tb  Tb6  1  0.692707  0.968626  0.665742  1
  Y  Y7  1  0.307214  0.031359  0.334318  1
  Y  Y8  1  0.000018  0.000019  0.000018  1
  Y  Y9  1  0.499988  0.499973  0.499986  1
  In  In10  1  0.370675  0.370654  0.127965  1
  In  In11  1  0.629312  0.629307  0.872060  1
  In  In12  1  0.129333  0.129324  0.627920  1
  In  In13  1  0.870714  0.870688  0.372066  1
  Sb  Sb14  1  0.797517  0.202500  0.999980  1
  Sb  Sb15  1  0.202550  0.797544  0.000055  1
  Sb  Sb16  1  0.702455  0.297459  0.499953  1
  Sb  Sb17  1  0.297497  0.702570  0.499958  1
