# generated using pymatgen
data_Tb3Nd(TmBi)6
_symmetry_space_group_name_H-M   'P 1'
_cell_length_a   8.25149100
_cell_length_b   9.46093600
_cell_length_c   12.08057500
_cell_angle_alpha   90.00000000
_cell_angle_beta   90.00000000
_cell_angle_gamma   90.00000000
_symmetry_Int_Tables_number   1
_chemical_formula_structural   Tb3Nd(TmBi)6
_chemical_formula_sum   'Tb6 Nd2 Tm12 Bi12'
_cell_volume   943.09217375
_cell_formula_units_Z   2
loop_
 _symmetry_equiv_pos_site_id
 _symmetry_equiv_pos_as_xyz
  1  'x, y, z'
loop_
 _atom_site_type_symbol
 _atom_site_label
 _atom_site_symmetry_multiplicity
 _atom_site_fract_x
 _atom_site_fract_y
 _atom_site_fract_z
 _atom_site_occupancy
  Tb  Tb0  1  0.814145  0.250000  0.281597  1
  Tb  Tb1  1  0.314145  0.250000  0.218403  1
  Tb  Tb2  1  0.353285  0.750000  0.217897  1
  Tb  Tb3  1  0.853285  0.750000  0.282103  1
  Tb  Tb4  1  0.647417  0.250000  0.784019  1
  Tb  Tb5  1  0.147417  0.250000  0.715981  1
  Nd  Nd6  1  0.184002  0.750000  0.720056  1
  Nd  Nd7  1  0.684002  0.750000  0.779944  1
  Tm  Tm8  1  0.023420  0.750000  0.989528  1
  Tm  Tm9  1  0.523420  0.750000  0.510472  1
  Tm  Tm10  1  0.976385  0.250000  0.012463  1
  Tm  Tm11  1  0.476385  0.250000  0.487537  1
  Tm  Tm12  1  0.308463  0.434190  0.940849  1
  Tm  Tm13  1  0.808463  0.065810  0.559151  1
  Tm  Tm14  1  0.691997  0.934590  0.060033  1
  Tm  Tm15  1  0.191997  0.565410  0.439967  1
  Tm  Tm16  1  0.691997  0.565410  0.060033  1
  Tm  Tm17  1  0.191997  0.934590  0.439967  1
  Tm  Tm18  1  0.308463  0.065810  0.940849  1
  Tm  Tm19  1  0.808463  0.434190  0.559151  1
  Bi  Bi20  1  0.434404  0.008019  0.670197  1
  Bi  Bi21  1  0.934404  0.491981  0.829803  1
  Bi  Bi22  1  0.566429  0.503928  0.327758  1
  Bi  Bi23  1  0.066429  0.996072  0.172242  1
  Bi  Bi24  1  0.566429  0.996072  0.327758  1
  Bi  Bi25  1  0.066429  0.503928  0.172242  1
  Bi  Bi26  1  0.434404  0.491981  0.670197  1
  Bi  Bi27  1  0.934404  0.008019  0.829803  1
  Bi  Bi28  1  0.404225  0.750000  0.961601  1
  Bi  Bi29  1  0.904225  0.750000  0.538399  1
  Bi  Bi30  1  0.594536  0.250000  0.042667  1
  Bi  Bi31  1  0.094536  0.250000  0.457333  1
