# generated using pymatgen
data_Rb8Hf6BeBr20
_symmetry_space_group_name_H-M   'P 1'
_cell_length_a   12.03182826
_cell_length_b   12.03182831
_cell_length_c   12.03182800
_cell_angle_alpha   60.00000084
_cell_angle_beta   60.00000071
_cell_angle_gamma   60.00000378
_symmetry_Int_Tables_number   1
_chemical_formula_structural   Rb8Hf6BeBr20
_chemical_formula_sum   'Rb8 Hf6 Be1 Br20'
_cell_volume   1231.62893869
_cell_formula_units_Z   1
loop_
 _symmetry_equiv_pos_site_id
 _symmetry_equiv_pos_as_xyz
  1  'x, y, z'
loop_
 _atom_site_type_symbol
 _atom_site_label
 _atom_site_symmetry_multiplicity
 _atom_site_fract_x
 _atom_site_fract_y
 _atom_site_fract_z
 _atom_site_occupancy
  Rb  Rb0  1  0.360673  0.360673  0.360673  1
  Rb  Rb1  1  0.639327  0.639327  0.639327  1
  Rb  Rb2  1  0.360673  0.360673  0.917980  1
  Rb  Rb3  1  0.360673  0.917980  0.360673  1
  Rb  Rb4  1  0.639327  0.639327  0.082020  1
  Rb  Rb5  1  0.639327  0.082020  0.639327  1
  Rb  Rb6  1  0.917980  0.360673  0.360673  1
  Rb  Rb7  1  0.082020  0.639327  0.639327  1
  Hf  Hf8  1  0.862195  0.137805  0.137805  1
  Hf  Hf9  1  0.137805  0.862195  0.862195  1
  Hf  Hf10  1  0.137805  0.862195  0.137805  1
  Hf  Hf11  1  0.862195  0.137805  0.862195  1
  Hf  Hf12  1  0.137805  0.137805  0.862195  1
  Hf  Hf13  1  0.862195  0.862195  0.137805  1
  Be  Be14  1  0.000000  0.000000  0.000000  1
  Br  Br15  1  0.318044  0.000000  0.000000  1
  Br  Br16  1  0.681956  0.000000  0.000000  1
  Br  Br17  1  0.000000  0.318044  0.681956  1
  Br  Br18  1  0.000000  0.681956  0.318044  1
  Br  Br19  1  0.000000  0.318044  0.000000  1
  Br  Br20  1  0.681956  0.000000  0.318044  1
  Br  Br21  1  0.000000  0.681956  0.000000  1
  Br  Br22  1  0.318044  0.000000  0.681956  1
  Br  Br23  1  0.000000  0.000000  0.318044  1
  Br  Br24  1  0.000000  0.000000  0.681956  1
  Br  Br25  1  0.681956  0.318044  0.000000  1
  Br  Br26  1  0.318044  0.681956  0.000000  1
  Br  Br27  1  0.692442  0.307558  0.307558  1
  Br  Br28  1  0.307558  0.692442  0.692442  1
  Br  Br29  1  0.307558  0.692442  0.307558  1
  Br  Br30  1  0.692442  0.307558  0.692442  1
  Br  Br31  1  0.307558  0.307558  0.692442  1
  Br  Br32  1  0.692442  0.692442  0.307558  1
  Br  Br33  1  0.250000  0.250000  0.250000  1
  Br  Br34  1  0.750000  0.750000  0.750000  1
