# generated using pymatgen
data_Ca2SiGePd4
_symmetry_space_group_name_H-M   'P 1'
_cell_length_a   5.61941400
_cell_length_b   7.04669400
_cell_length_c   7.47413600
_cell_angle_alpha   90.00000000
_cell_angle_beta   90.00000000
_cell_angle_gamma   90.00000000
_symmetry_Int_Tables_number   1
_chemical_formula_structural   Ca2SiGePd4
_chemical_formula_sum   'Ca4 Si2 Ge2 Pd8'
_cell_volume   295.96301168
_cell_formula_units_Z   2
loop_
 _symmetry_equiv_pos_site_id
 _symmetry_equiv_pos_as_xyz
  1  'x, y, z'
loop_
 _atom_site_type_symbol
 _atom_site_label
 _atom_site_symmetry_multiplicity
 _atom_site_fract_x
 _atom_site_fract_y
 _atom_site_fract_z
 _atom_site_occupancy
  Ca  Ca0  1  0.369385  0.750000  0.022876  1
  Ca  Ca1  1  0.130615  0.750000  0.522876  1
  Ca  Ca2  1  0.630552  0.250000  0.976575  1
  Ca  Ca3  1  0.869448  0.250000  0.476575  1
  Si  Si4  1  0.370632  0.250000  0.623046  1
  Si  Si5  1  0.129368  0.250000  0.123046  1
  Ge  Ge6  1  0.629689  0.750000  0.374670  1
  Ge  Ge7  1  0.870311  0.750000  0.874670  1
  Pd  Pd8  1  0.905270  0.549260  0.170910  1
  Pd  Pd9  1  0.594730  0.950740  0.670910  1
  Pd  Pd10  1  0.111645  0.057479  0.830507  1
  Pd  Pd11  1  0.388355  0.442521  0.330507  1
  Pd  Pd12  1  0.111645  0.442521  0.830507  1
  Pd  Pd13  1  0.388355  0.057479  0.330507  1
  Pd  Pd14  1  0.905270  0.950740  0.170910  1
  Pd  Pd15  1  0.594730  0.549260  0.670910  1
