# generated using pymatgen
data_Tm5Lu2Co6Sn23
_symmetry_space_group_name_H-M   'P 1'
_cell_length_a   9.65850908
_cell_length_b   9.65850923
_cell_length_c   9.94168806
_cell_angle_alpha   89.99824716
_cell_angle_beta   90.00175160
_cell_angle_gamma   120.02208111
_symmetry_Int_Tables_number   1
_chemical_formula_structural   Tm5Lu2Co6Sn23
_chemical_formula_sum   'Tm5 Lu2 Co6 Sn23'
_cell_volume   802.99766098
_cell_formula_units_Z   1
loop_
 _symmetry_equiv_pos_site_id
 _symmetry_equiv_pos_as_xyz
  1  'x, y, z'
loop_
 _atom_site_type_symbol
 _atom_site_label
 _atom_site_symmetry_multiplicity
 _atom_site_fract_x
 _atom_site_fract_y
 _atom_site_fract_z
 _atom_site_occupancy
  Tm  Tm0  1  0.479143  0.958329  0.305894  1
  Tm  Tm1  1  0.520857  0.041671  0.694106  1
  Tm  Tm2  1  0.041671  0.520857  0.305894  1
  Tm  Tm3  1  0.958329  0.479143  0.694106  1
  Tm  Tm4  1  0.000000  0.000000  0.000000  1
  Lu  Lu5  1  0.479390  0.520610  0.305928  1
  Lu  Lu6  1  0.520610  0.479390  0.694072  1
  Co  Co7  1  0.832287  0.167713  0.197251  1
  Co  Co8  1  0.167713  0.832287  0.802749  1
  Co  Co9  1  0.831881  0.664337  0.197374  1
  Co  Co10  1  0.168119  0.335663  0.802626  1
  Co  Co11  1  0.335663  0.168119  0.197374  1
  Co  Co12  1  0.664337  0.831881  0.802626  1
  Sn  Sn13  1  0.118427  0.881573  0.274689  1
  Sn  Sn14  1  0.881573  0.118427  0.725311  1
  Sn  Sn15  1  0.118871  0.237245  0.274732  1
  Sn  Sn16  1  0.881129  0.762755  0.725268  1
  Sn  Sn17  1  0.762755  0.881129  0.274732  1
  Sn  Sn18  1  0.237245  0.118871  0.725268  1
  Sn  Sn19  1  0.780772  0.219228  0.452167  1
  Sn  Sn20  1  0.219228  0.780772  0.547833  1
  Sn  Sn21  1  0.780183  0.561487  0.452165  1
  Sn  Sn22  1  0.219817  0.438513  0.547835  1
  Sn  Sn23  1  0.438513  0.219817  0.452165  1
  Sn  Sn24  1  0.561487  0.780183  0.547835  1
  Sn  Sn25  1  0.346090  0.000089  0.999992  1
  Sn  Sn26  1  0.653910  0.999911  0.000008  1
  Sn  Sn27  1  0.000089  0.346090  0.000008  1
  Sn  Sn28  1  0.999911  0.653910  0.999992  1
  Sn  Sn29  1  0.653872  0.653872  0.000000  1
  Sn  Sn30  1  0.346128  0.346128  0.000000  1
  Sn  Sn31  1  0.333698  0.666302  0.120175  1
  Sn  Sn32  1  0.666302  0.333698  0.879825  1
  Sn  Sn33  1  0.333398  0.666602  0.817355  1
  Sn  Sn34  1  0.666602  0.333398  0.182645  1
  Sn  Sn35  1  0.000000  0.000000  0.500000  1
