# generated using pymatgen
data_Cs2HfFeH8
_symmetry_space_group_name_H-M   'P 1'
_cell_length_a   7.81777313
_cell_length_b   7.81777294
_cell_length_c   4.56874108
_cell_angle_alpha   106.69288892
_cell_angle_beta   106.69288931
_cell_angle_gamma   50.96631188
_symmetry_Int_Tables_number   1
_chemical_formula_structural   Cs2HfFeH8
_chemical_formula_sum   'Cs2 Hf1 Fe1 H8'
_cell_volume   205.62585353
_cell_formula_units_Z   1
loop_
 _symmetry_equiv_pos_site_id
 _symmetry_equiv_pos_as_xyz
  1  'x, y, z'
loop_
 _atom_site_type_symbol
 _atom_site_label
 _atom_site_symmetry_multiplicity
 _atom_site_fract_x
 _atom_site_fract_y
 _atom_site_fract_z
 _atom_site_occupancy
  Cs  Cs0  1  0.820337  0.820337  0.442953  1
  Cs  Cs1  1  0.165652  0.165652  0.674966  1
  Hf  Hf2  1  0.462295  0.462295  0.097897  1
  Fe  Fe3  1  0.544455  0.544455  0.683248  1
  H  H4  1  0.728135  0.380570  0.932517  1
  H  H5  1  0.380570  0.728135  0.932517  1
  H  H6  1  0.422671  0.422671  0.566759  1
  H  H7  1  0.719547  0.377081  0.446404  1
  H  H8  1  0.377081  0.719547  0.446404  1
  H  H9  1  0.661793  0.661793  0.790476  1
  H  H10  1  0.562711  0.154750  0.992926  1
  H  H11  1  0.154750  0.562711  0.992926  1
