# generated using pymatgen
data_Nd3Th11Ru6
_symmetry_space_group_name_H-M   'P 1'
_cell_length_a   9.85980233
_cell_length_b   9.98571853
_cell_length_c   6.39319911
_cell_angle_alpha   89.76911775
_cell_angle_beta   90.25887005
_cell_angle_gamma   120.19128781
_symmetry_Int_Tables_number   1
_chemical_formula_structural   Nd3Th11Ru6
_chemical_formula_sum   'Nd3 Th11 Ru6'
_cell_volume   544.06489857
_cell_formula_units_Z   1
loop_
 _symmetry_equiv_pos_site_id
 _symmetry_equiv_pos_as_xyz
  1  'x, y, z'
loop_
 _atom_site_type_symbol
 _atom_site_label
 _atom_site_symmetry_multiplicity
 _atom_site_fract_x
 _atom_site_fract_y
 _atom_site_fract_z
 _atom_site_occupancy
  Nd  Nd0  1  0.462306  0.537510  0.295522  1
  Nd  Nd1  1  0.074278  0.537089  0.295402  1
  Nd  Nd2  1  0.924857  0.460982  0.795375  1
  Th  Th3  1  0.249660  0.126237  0.508068  1
  Th  Th4  1  0.541449  0.080352  0.801398  1
  Th  Th5  1  0.749316  0.873771  0.007260  1
  Th  Th6  1  0.665502  0.332939  0.281612  1
  Th  Th7  1  0.125949  0.873344  0.002993  1
  Th  Th8  1  0.460715  0.921028  0.302032  1
  Th  Th9  1  0.539694  0.461036  0.798530  1
  Th  Th10  1  0.875480  0.126315  0.505594  1
  Th  Th11  1  0.124508  0.249657  0.004627  1
  Th  Th12  1  0.874362  0.750129  0.505718  1
  Th  Th13  1  0.334686  0.667122  0.779312  1
  Ru  Ru14  1  0.809591  0.633272  0.047933  1
  Ru  Ru15  1  0.808327  0.176032  0.050475  1
  Ru  Ru16  1  0.632525  0.821483  0.551754  1
  Ru  Ru17  1  0.371392  0.185949  0.043913  1
  Ru  Ru18  1  0.183372  0.361484  0.558602  1
  Ru  Ru19  1  0.192031  0.824268  0.547876  1
