# generated using pymatgen
data_Dy3Y5Re2(B12Os)2
_symmetry_space_group_name_H-M   'P 1'
_cell_length_a   3.67805100
_cell_length_b   9.19152479
_cell_length_c   11.58010200
_cell_angle_alpha   90.13895086
_cell_angle_beta   90.00000000
_cell_angle_gamma   90.00000000
_symmetry_Int_Tables_number   1
_chemical_formula_structural   Dy3Y5Re2(B12Os)2
_chemical_formula_sum   'Dy3 Y5 Re2 B24 Os2'
_cell_volume   391.48616352
_cell_formula_units_Z   1
loop_
 _symmetry_equiv_pos_site_id
 _symmetry_equiv_pos_as_xyz
  1  'x, y, z'
loop_
 _atom_site_type_symbol
 _atom_site_label
 _atom_site_symmetry_multiplicity
 _atom_site_fract_x
 _atom_site_fract_y
 _atom_site_fract_z
 _atom_site_occupancy
  Dy  Dy0  1  0.000000  0.056724  0.629427  1
  Dy  Dy1  1  0.000000  0.442611  0.128854  1
  Dy  Dy2  1  0.000000  0.557387  0.871107  1
  Y  Y3  1  0.000000  0.320964  0.412418  1
  Y  Y4  1  0.000000  0.679068  0.587604  1
  Y  Y5  1  0.000000  0.824693  0.084712  1
  Y  Y6  1  0.000000  0.175283  0.915272  1
  Y  Y7  1  0.000000  0.943471  0.370885  1
  Re  Re8  1  0.000000  0.138263  0.179415  1
  Re  Re9  1  0.000000  0.861801  0.820459  1
  B  B10  1  0.500000  0.553606  0.432887  1
  B  B11  1  0.500000  0.446365  0.567131  1
  B  B12  1  0.500000  0.053098  0.067072  1
  B  B13  1  0.500000  0.946887  0.932879  1
  B  B14  1  0.500000  0.748198  0.418700  1
  B  B15  1  0.500000  0.251696  0.581398  1
  B  B16  1  0.500000  0.248349  0.081158  1
  B  B17  1  0.500000  0.751660  0.918799  1
  B  B18  1  0.500000  0.790491  0.266113  1
  B  B19  1  0.500000  0.209467  0.733773  1
  B  B20  1  0.500000  0.291496  0.234270  1
  B  B21  1  0.500000  0.708531  0.765729  1
  B  B22  1  0.500000  0.630863  0.186299  1
  B  B23  1  0.500000  0.369103  0.813667  1
  B  B24  1  0.500000  0.131467  0.314509  1
  B  B25  1  0.500000  0.868677  0.685524  1
  B  B26  1  0.500000  0.982966  0.212406  1
  B  B27  1  0.500000  0.016971  0.787483  1
  B  B28  1  0.500000  0.483235  0.287905  1
  B  B29  1  0.500000  0.516713  0.712075  1
  B  B30  1  0.500000  0.603697  0.029006  1
  B  B31  1  0.500000  0.396294  0.970956  1
  B  B32  1  0.500000  0.104338  0.471286  1
  B  B33  1  0.500000  0.895730  0.528859  1
  Os  Os34  1  0.000000  0.637239  0.321850  1
  Os  Os35  1  0.000000  0.362595  0.678113  1
