# generated using pymatgen
data_LaPr7Np4O24
_symmetry_space_group_name_H-M   'P 1'
_cell_length_a   10.26102160
_cell_length_b   10.26102170
_cell_length_c   5.72053706
_cell_angle_alpha   78.98495739
_cell_angle_beta   78.98494702
_cell_angle_gamma   68.06085785
_symmetry_Int_Tables_number   1
_chemical_formula_structural   LaPr7Np4O24
_chemical_formula_sum   'La1 Pr7 Np4 O24'
_cell_volume   543.63787883
_cell_formula_units_Z   1
loop_
 _symmetry_equiv_pos_site_id
 _symmetry_equiv_pos_as_xyz
  1  'x, y, z'
loop_
 _atom_site_type_symbol
 _atom_site_label
 _atom_site_symmetry_multiplicity
 _atom_site_fract_x
 _atom_site_fract_y
 _atom_site_fract_z
 _atom_site_occupancy
  La  La0  1  0.619888  0.380112  0.750000  1
  Pr  Pr1  1  0.380088  0.619912  0.250000  1
  Pr  Pr2  1  0.112149  0.887851  0.750000  1
  Pr  Pr3  1  0.887946  0.112054  0.250000  1
  Pr  Pr4  1  0.715476  0.949631  0.901953  1
  Pr  Pr5  1  0.284519  0.050205  0.098119  1
  Pr  Pr6  1  0.050369  0.284524  0.598047  1
  Pr  Pr7  1  0.949795  0.715481  0.401881  1
  Np  Np8  1  0.504060  0.818947  0.600840  1
  Np  Np9  1  0.495585  0.181117  0.399021  1
  Np  Np10  1  0.181053  0.495940  0.899160  1
  Np  Np11  1  0.818883  0.504415  0.100979  1
  O  O12  1  0.668199  0.140741  0.556685  1
  O  O13  1  0.331616  0.858878  0.442732  1
  O  O14  1  0.859259  0.331801  0.943315  1
  O  O15  1  0.141122  0.668384  0.057268  1
  O  O16  1  0.360480  0.812891  0.929212  1
  O  O17  1  0.639806  0.186120  0.071759  1
  O  O18  1  0.187109  0.639520  0.570788  1
  O  O19  1  0.813880  0.360194  0.428241  1
  O  O20  1  0.694441  0.771009  0.692675  1
  O  O21  1  0.305414  0.228938  0.307165  1
  O  O22  1  0.228991  0.305559  0.807325  1
  O  O23  1  0.771062  0.694586  0.192835  1
  O  O24  1  0.463474  0.019770  0.725760  1
  O  O25  1  0.536463  0.979954  0.274295  1
  O  O26  1  0.980230  0.536526  0.774240  1
  O  O27  1  0.020046  0.463537  0.225705  1
  O  O28  1  0.541228  0.622436  0.523591  1
  O  O29  1  0.457970  0.378146  0.473675  1
  O  O30  1  0.377564  0.458772  0.976409  1
  O  O31  1  0.621854  0.542030  0.026325  1
  O  O32  1  0.907962  0.914726  0.085517  1
  O  O33  1  0.092033  0.085287  0.914431  1
  O  O34  1  0.085274  0.092038  0.414483  1
  O  O35  1  0.914713  0.907967  0.585569  1
