# generated using pymatgen
data_Ho3Sc2SnBi2
_symmetry_space_group_name_H-M   'P 1'
_cell_length_a   8.90434305
_cell_length_b   8.90275202
_cell_length_c   6.19598900
_cell_angle_alpha   90.00000000
_cell_angle_beta   90.00000000
_cell_angle_gamma   119.99407910
_symmetry_Int_Tables_number   1
_chemical_formula_structural   Ho3Sc2SnBi2
_chemical_formula_sum   'Ho6 Sc4 Sn2 Bi4'
_cell_volume   425.39593732
_cell_formula_units_Z   2
loop_
 _symmetry_equiv_pos_site_id
 _symmetry_equiv_pos_as_xyz
  1  'x, y, z'
loop_
 _atom_site_type_symbol
 _atom_site_label
 _atom_site_symmetry_multiplicity
 _atom_site_fract_x
 _atom_site_fract_y
 _atom_site_fract_z
 _atom_site_occupancy
  Ho  Ho0  1  0.994827  0.759006  0.750000  1
  Ho  Ho1  1  0.994827  0.235821  0.250000  1
  Ho  Ho2  1  0.757653  0.763448  0.250000  1
  Ho  Ho3  1  0.757653  0.994205  0.750000  1
  Ho  Ho4  1  0.243773  0.242923  0.750000  1
  Ho  Ho5  1  0.243773  0.000849  0.250000  1
  Sc  Sc6  1  0.338950  0.669475  0.500000  1
  Sc  Sc7  1  0.664993  0.332496  0.000000  1
  Sc  Sc8  1  0.664993  0.332496  0.500000  1
  Sc  Sc9  1  0.338950  0.669475  0.000000  1
  Sn  Sn10  1  0.602305  0.600586  0.750000  1
  Sn  Sn11  1  0.602305  0.001720  0.250000  1
  Bi  Bi12  1  0.396902  0.999276  0.750000  1
  Bi  Bi13  1  0.396902  0.397626  0.250000  1
  Bi  Bi14  1  0.000597  0.604037  0.250000  1
  Bi  Bi15  1  0.000597  0.396560  0.750000  1
