# generated using pymatgen
data_Rb2Cr(S2O7)3
_symmetry_space_group_name_H-M   'P 1'
_cell_length_a   9.92077400
_cell_length_b   9.92077410
_cell_length_c   11.42496800
_cell_angle_alpha   90.00000000
_cell_angle_beta   90.00000000
_cell_angle_gamma   119.99999300
_symmetry_Int_Tables_number   1
_chemical_formula_structural   Rb2Cr(S2O7)3
_chemical_formula_sum   'Rb4 Cr2 S12 O42'
_cell_volume   973.81569897
_cell_formula_units_Z   2
loop_
 _symmetry_equiv_pos_site_id
 _symmetry_equiv_pos_as_xyz
  1  'x, y, z'
loop_
 _atom_site_type_symbol
 _atom_site_label
 _atom_site_symmetry_multiplicity
 _atom_site_fract_x
 _atom_site_fract_y
 _atom_site_fract_z
 _atom_site_occupancy
  Rb  Rb0  1  0.666667  0.333333  0.563087  1
  Rb  Rb1  1  0.333333  0.666667  0.436913  1
  Rb  Rb2  1  0.333333  0.666667  0.879433  1
  Rb  Rb3  1  0.666667  0.333333  0.120567  1
  Cr  Cr4  1  0.000000  0.000000  0.756909  1
  Cr  Cr5  1  0.000000  0.000000  0.243091  1
  S  S6  1  0.081052  0.338722  0.661218  1
  S  S7  1  0.257670  0.918948  0.661218  1
  S  S8  1  0.661278  0.742330  0.661218  1
  S  S9  1  0.918948  0.661278  0.338782  1
  S  S10  1  0.742330  0.081052  0.338782  1
  S  S11  1  0.338722  0.257670  0.338782  1
  S  S12  1  0.801553  0.651512  0.846800  1
  S  S13  1  0.849959  0.198447  0.846800  1
  S  S14  1  0.348488  0.150041  0.846800  1
  S  S15  1  0.198447  0.348488  0.153200  1
  S  S16  1  0.150041  0.801553  0.153200  1
  S  S17  1  0.651512  0.849959  0.153200  1
  O  O18  1  0.655654  0.674477  0.794384  1
  O  O19  1  0.018822  0.344346  0.794384  1
  O  O20  1  0.325523  0.981178  0.794384  1
  O  O21  1  0.344346  0.325523  0.205616  1
  O  O22  1  0.981178  0.655654  0.205616  1
  O  O23  1  0.674477  0.018822  0.205616  1
  O  O24  1  0.932286  0.816254  0.860187  1
  O  O25  1  0.883969  0.067714  0.860187  1
  O  O26  1  0.183746  0.116031  0.860187  1
  O  O27  1  0.067714  0.183746  0.139813  1
  O  O28  1  0.116031  0.932286  0.139813  1
  O  O29  1  0.816254  0.883969  0.139813  1
  O  O30  1  0.064515  0.180953  0.651056  1
  O  O31  1  0.116437  0.935485  0.651056  1
  O  O32  1  0.819047  0.883563  0.651056  1
  O  O33  1  0.935485  0.819047  0.348944  1
  O  O34  1  0.883563  0.064515  0.348944  1
  O  O35  1  0.180953  0.116437  0.348944  1
  O  O36  1  0.834305  0.565596  0.760863  1
  O  O37  1  0.731291  0.165695  0.760863  1
  O  O38  1  0.434404  0.268709  0.760863  1
  O  O39  1  0.165695  0.434404  0.239137  1
  O  O40  1  0.268709  0.834305  0.239137  1
  O  O41  1  0.565596  0.731291  0.239137  1
  O  O42  1  0.741271  0.582140  0.958856  1
  O  O43  1  0.840869  0.258729  0.958856  1
  O  O44  1  0.417860  0.159131  0.958856  1
  O  O45  1  0.258729  0.417860  0.041144  1
  O  O46  1  0.159131  0.741271  0.041144  1
  O  O47  1  0.582140  0.840869  0.041144  1
  O  O48  1  0.241830  0.460109  0.667317  1
  O  O49  1  0.218278  0.758170  0.667317  1
  O  O50  1  0.539891  0.781722  0.667317  1
  O  O51  1  0.758170  0.539891  0.332683  1
  O  O52  1  0.781722  0.241830  0.332683  1
  O  O53  1  0.460109  0.218278  0.332683  1
  O  O54  1  0.983979  0.358199  0.577094  1
  O  O55  1  0.374219  0.016021  0.577094  1
  O  O56  1  0.641801  0.625781  0.577094  1
  O  O57  1  0.016021  0.641801  0.422906  1
  O  O58  1  0.625781  0.983979  0.422906  1
  O  O59  1  0.358199  0.374219  0.422906  1
