# generated using pymatgen
data_YHf3ZrPd15
_symmetry_space_group_name_H-M   'P 1'
_cell_length_a   4.04654400
_cell_length_b   4.04654400
_cell_length_c   20.20561700
_cell_angle_alpha   90.00000000
_cell_angle_beta   90.00000000
_cell_angle_gamma   90.00000000
_symmetry_Int_Tables_number   1
_chemical_formula_structural   YHf3ZrPd15
_chemical_formula_sum   'Y1 Hf3 Zr1 Pd15'
_cell_volume   330.85724622
_cell_formula_units_Z   1
loop_
 _symmetry_equiv_pos_site_id
 _symmetry_equiv_pos_as_xyz
  1  'x, y, z'
loop_
 _atom_site_type_symbol
 _atom_site_label
 _atom_site_symmetry_multiplicity
 _atom_site_fract_x
 _atom_site_fract_y
 _atom_site_fract_z
 _atom_site_occupancy
  Y  Y0  1  0.000000  0.000000  0.799020  1
  Hf  Hf1  1  0.000000  0.000000  0.201409  1
  Hf  Hf2  1  0.000000  0.000000  0.399689  1
  Hf  Hf3  1  0.000000  0.000000  0.598371  1
  Zr  Zr4  1  0.000000  0.000000  0.001085  1
  Pd  Pd5  1  0.500000  0.500000  0.005282  1
  Pd  Pd6  1  0.500000  0.500000  0.202480  1
  Pd  Pd7  1  0.500000  0.500000  0.398588  1
  Pd  Pd8  1  0.500000  0.500000  0.595039  1
  Pd  Pd9  1  0.500000  0.500000  0.798682  1
  Pd  Pd10  1  0.500000  0.000000  0.104335  1
  Pd  Pd11  1  0.500000  0.000000  0.300564  1
  Pd  Pd12  1  0.500000  0.000000  0.496967  1
  Pd  Pd13  1  0.500000  0.000000  0.692824  1
  Pd  Pd14  1  0.500000  0.000000  0.905487  1
  Pd  Pd15  1  0.000000  0.500000  0.104335  1
  Pd  Pd16  1  0.000000  0.500000  0.300564  1
  Pd  Pd17  1  0.000000  0.500000  0.496967  1
  Pd  Pd18  1  0.000000  0.500000  0.692824  1
  Pd  Pd19  1  0.000000  0.500000  0.905487  1
