# generated using pymatgen
data_ThMnAl10Ir
_symmetry_space_group_name_H-M   'P 1'
_cell_length_a   6.84177009
_cell_length_b   6.84202421
_cell_length_c   9.12456472
_cell_angle_alpha   90.24926393
_cell_angle_beta   90.24590917
_cell_angle_gamma   97.32022295
_symmetry_Int_Tables_number   1
_chemical_formula_structural   ThMnAl10Ir
_chemical_formula_sum   'Th2 Mn2 Al20 Ir2'
_cell_volume   423.64466093
_cell_formula_units_Z   2
loop_
 _symmetry_equiv_pos_site_id
 _symmetry_equiv_pos_as_xyz
  1  'x, y, z'
loop_
 _atom_site_type_symbol
 _atom_site_label
 _atom_site_symmetry_multiplicity
 _atom_site_fract_x
 _atom_site_fract_y
 _atom_site_fract_z
 _atom_site_occupancy
  Th  Th0  1  0.874093  0.125920  0.749977  1
  Th  Th1  1  0.125907  0.874080  0.250023  1
  Mn  Mn2  1  0.000000  0.500000  0.000000  1
  Mn  Mn3  1  0.500000  0.000000  0.500000  1
  Al  Al4  1  0.518240  0.776081  0.744422  1
  Al  Al5  1  0.481760  0.223919  0.255578  1
  Al  Al6  1  0.591279  0.861809  0.253647  1
  Al  Al7  1  0.777209  0.769911  0.003112  1
  Al  Al8  1  0.164497  0.844669  0.601343  1
  Al  Al9  1  0.222791  0.230089  0.996888  1
  Al  Al10  1  0.138222  0.408710  0.246390  1
  Al  Al11  1  0.626664  0.381464  0.949510  1
  Al  Al12  1  0.844619  0.164472  0.101349  1
  Al  Al13  1  0.381479  0.626701  0.449538  1
  Al  Al14  1  0.155381  0.835528  0.898651  1
  Al  Al15  1  0.223953  0.481751  0.755531  1
  Al  Al16  1  0.373336  0.618536  0.050490  1
  Al  Al17  1  0.835503  0.155331  0.398657  1
  Al  Al18  1  0.618521  0.373299  0.550462  1
  Al  Al19  1  0.408721  0.138191  0.746353  1
  Al  Al20  1  0.776047  0.518249  0.244469  1
  Al  Al21  1  0.769911  0.777269  0.503099  1
  Al  Al22  1  0.230089  0.222731  0.496901  1
  Al  Al23  1  0.861778  0.591290  0.753610  1
  Ir  Ir24  1  0.000000  0.500000  0.500000  1
  Ir  Ir25  1  0.500000  0.000000  0.000000  1
