# generated using pymatgen
data_DyLuTh(ZnNi)3
_symmetry_space_group_name_H-M   'P 1'
_cell_length_a   7.06259762
_cell_length_b   7.06262588
_cell_length_c   3.73691300
_cell_angle_alpha   90.00000000
_cell_angle_beta   90.00000000
_cell_angle_gamma   119.50615172
_symmetry_Int_Tables_number   1
_chemical_formula_structural   DyLuTh(ZnNi)3
_chemical_formula_sum   'Dy1 Lu1 Th1 Zn3 Ni3'
_cell_volume   162.22360305
_cell_formula_units_Z   1
loop_
 _symmetry_equiv_pos_site_id
 _symmetry_equiv_pos_as_xyz
  1  'x, y, z'
loop_
 _atom_site_type_symbol
 _atom_site_label
 _atom_site_symmetry_multiplicity
 _atom_site_fract_x
 _atom_site_fract_y
 _atom_site_fract_z
 _atom_site_occupancy
  Dy  Dy0  1  0.004231  0.409693  0.500000  1
  Lu  Lu1  1  0.407100  0.003548  0.500000  1
  Th  Th2  1  0.586252  0.585966  0.500000  1
  Zn  Zn3  1  0.753329  0.012566  0.000000  1
  Zn  Zn4  1  0.014883  0.757870  0.000000  1
  Zn  Zn5  1  0.231355  0.227842  0.000000  1
  Ni  Ni6  1  0.346199  0.671640  0.000000  1
  Ni  Ni7  1  0.663672  0.339750  0.000000  1
  Ni  Ni8  1  0.992982  0.991125  0.500000  1
