# generated using pymatgen
data_Nb4Si3PRh4
_symmetry_space_group_name_H-M   'P 1'
_cell_length_a   3.76436200
_cell_length_b   6.44013684
_cell_length_c   7.34557743
_cell_angle_alpha   90.12552771
_cell_angle_beta   90.00000000
_cell_angle_gamma   90.00000000
_symmetry_Int_Tables_number   1
_chemical_formula_structural   Nb4Si3PRh4
_chemical_formula_sum   'Nb4 Si3 P1 Rh4'
_cell_volume   178.07845335
_cell_formula_units_Z   1
loop_
 _symmetry_equiv_pos_site_id
 _symmetry_equiv_pos_as_xyz
  1  'x, y, z'
loop_
 _atom_site_type_symbol
 _atom_site_label
 _atom_site_symmetry_multiplicity
 _atom_site_fract_x
 _atom_site_fract_y
 _atom_site_fract_z
 _atom_site_occupancy
  Nb  Nb0  1  0.750000  0.472499  0.326266  1
  Nb  Nb1  1  0.250000  0.027687  0.829817  1
  Nb  Nb2  1  0.750000  0.976042  0.172148  1
  Nb  Nb3  1  0.250000  0.526528  0.671973  1
  Si  Si4  1  0.250000  0.768290  0.375216  1
  Si  Si5  1  0.750000  0.732794  0.874660  1
  Si  Si6  1  0.750000  0.231308  0.624878  1
  P  P7  1  0.250000  0.266149  0.125394  1
  Rh  Rh8  1  0.250000  0.644249  0.062159  1
  Rh  Rh9  1  0.250000  0.146774  0.435537  1
  Rh  Rh10  1  0.750000  0.854681  0.561930  1
  Rh  Rh11  1  0.750000  0.352999  0.940020  1
