# generated using pymatgen
data_Dy3YMoOs7
_symmetry_space_group_name_H-M   'P 1'
_cell_length_a   5.30082014
_cell_length_b   5.30091355
_cell_length_c   8.89429409
_cell_angle_alpha   90.01376951
_cell_angle_beta   89.98628809
_cell_angle_gamma   118.03557159
_symmetry_Int_Tables_number   1
_chemical_formula_structural   Dy3YMoOs7
_chemical_formula_sum   'Dy3 Y1 Mo1 Os7'
_cell_volume   220.59553295
_cell_formula_units_Z   1
loop_
 _symmetry_equiv_pos_site_id
 _symmetry_equiv_pos_as_xyz
  1  'x, y, z'
loop_
 _atom_site_type_symbol
 _atom_site_label
 _atom_site_symmetry_multiplicity
 _atom_site_fract_x
 _atom_site_fract_y
 _atom_site_fract_z
 _atom_site_occupancy
  Dy  Dy0  1  0.666211  0.333787  0.566303  1
  Dy  Dy1  1  0.666108  0.333888  0.933973  1
  Dy  Dy2  1  0.329594  0.670408  0.061775  1
  Y  Y3  1  0.329671  0.670329  0.437717  1
  Mo  Mo4  1  0.833482  0.166519  0.249922  1
  Os  Os5  1  0.993059  0.006943  0.501968  1
  Os  Os6  1  0.993011  0.006998  0.998254  1
  Os  Os7  1  0.826036  0.652345  0.249854  1
  Os  Os8  1  0.347655  0.173963  0.249854  1
  Os  Os9  1  0.179311  0.820690  0.750181  1
  Os  Os10  1  0.172127  0.336263  0.750099  1
  Os  Os11  1  0.663734  0.827867  0.750099  1
