# generated using pymatgen
data_Hf4In2CoCu2Pd
_symmetry_space_group_name_H-M   'P 1'
_cell_length_a   7.27621065
_cell_length_b   7.30715467
_cell_length_c   3.38375600
_cell_angle_alpha   90.00000000
_cell_angle_beta   90.00000000
_cell_angle_gamma   89.43115449
_symmetry_Int_Tables_number   1
_chemical_formula_structural   Hf4In2CoCu2Pd
_chemical_formula_sum   'Hf4 In2 Co1 Cu2 Pd1'
_cell_volume   179.90001441
_cell_formula_units_Z   1
loop_
 _symmetry_equiv_pos_site_id
 _symmetry_equiv_pos_as_xyz
  1  'x, y, z'
loop_
 _atom_site_type_symbol
 _atom_site_label
 _atom_site_symmetry_multiplicity
 _atom_site_fract_x
 _atom_site_fract_y
 _atom_site_fract_z
 _atom_site_occupancy
  Hf  Hf0  1  0.184274  0.316472  0.000000  1
  Hf  Hf1  1  0.836107  0.661814  0.000000  1
  Hf  Hf2  1  0.645594  0.171257  0.000000  1
  Hf  Hf3  1  0.330123  0.855712  0.000000  1
  In  In4  1  0.991918  0.003065  0.500000  1
  In  In5  1  0.504393  0.506038  0.500000  1
  Co  Co6  1  0.379089  0.123972  0.500000  1
  Cu  Cu7  1  0.627634  0.873149  0.500000  1
  Cu  Cu8  1  0.874073  0.365223  0.500000  1
  Pd  Pd9  1  0.126796  0.623297  0.500000  1
