# generated using pymatgen
data_Y7HoSc11Si16Os
_symmetry_space_group_name_H-M   'P 1'
_cell_length_a   7.01268102
_cell_length_b   7.35853500
_cell_length_c   13.87995420
_cell_angle_alpha   89.98075805
_cell_angle_beta   89.99946129
_cell_angle_gamma   90.10267202
_symmetry_Int_Tables_number   1
_chemical_formula_structural   Y7HoSc11Si16Os
_chemical_formula_sum   'Y7 Ho1 Sc11 Si16 Os1'
_cell_volume   716.24690146
_cell_formula_units_Z   1
loop_
 _symmetry_equiv_pos_site_id
 _symmetry_equiv_pos_as_xyz
  1  'x, y, z'
loop_
 _atom_site_type_symbol
 _atom_site_label
 _atom_site_symmetry_multiplicity
 _atom_site_fract_x
 _atom_site_fract_y
 _atom_site_fract_z
 _atom_site_occupancy
  Y  Y0  1  0.011677  0.177806  0.092539  1
  Y  Y1  1  0.993962  0.819668  0.900713  1
  Y  Y2  1  0.490125  0.672371  0.902554  1
  Y  Y3  1  0.993908  0.819606  0.599173  1
  Y  Y4  1  0.511262  0.323803  0.094422  1
  Y  Y5  1  0.011747  0.177852  0.407515  1
  Y  Y6  1  0.511212  0.323928  0.405727  1
  Ho  Ho7  1  0.489988  0.672602  0.597785  1
  Sc  Sc8  1  0.841828  0.496668  0.250008  1
  Sc  Sc9  1  0.341906  0.003124  0.250009  1
  Sc  Sc10  1  0.657228  0.995685  0.749943  1
  Sc  Sc11  1  0.325891  0.176093  0.627445  1
  Sc  Sc12  1  0.671913  0.824543  0.374452  1
  Sc  Sc13  1  0.172148  0.673932  0.377059  1
  Sc  Sc14  1  0.671992  0.824634  0.125615  1
  Sc  Sc15  1  0.824754  0.331835  0.628546  1
  Sc  Sc16  1  0.325871  0.176096  0.872496  1
  Sc  Sc17  1  0.824822  0.331742  0.871385  1
  Sc  Sc18  1  0.172128  0.673954  0.122981  1
  Si  Si19  1  0.028376  0.120838  0.749970  1
  Si  Si20  1  0.972759  0.885098  0.250002  1
  Si  Si21  1  0.468782  0.616110  0.250004  1
  Si  Si22  1  0.513586  0.394640  0.749725  1
  Si  Si23  1  0.287130  0.860432  0.749661  1
  Si  Si24  1  0.717023  0.128823  0.250011  1
  Si  Si25  1  0.214917  0.371994  0.250000  1
  Si  Si26  1  0.795761  0.629800  0.749765  1
  Si  Si27  1  0.156784  0.465907  0.549871  1
  Si  Si28  1  0.842901  0.536903  0.464042  1
  Si  Si29  1  0.346086  0.963657  0.463263  1
  Si  Si30  1  0.843115  0.536786  0.036063  1
  Si  Si31  1  0.658308  0.033956  0.540165  1
  Si  Si32  1  0.155847  0.465344  0.950267  1
  Si  Si33  1  0.658555  0.034610  0.959957  1
  Si  Si34  1  0.345971  0.964201  0.036955  1
  Os  Os35  1  0.149736  0.494958  0.749913  1
