# generated using pymatgen
data_Dy4Er8Co5Sn
_symmetry_space_group_name_H-M   'P 1'
_cell_length_a   8.20786878
_cell_length_b   8.20786877
_cell_length_c   8.20786753
_cell_angle_alpha   106.85576901
_cell_angle_beta   110.61066007
_cell_angle_gamma   110.97869636
_symmetry_Int_Tables_number   1
_chemical_formula_structural   Dy4Er8Co5Sn
_chemical_formula_sum   'Dy4 Er8 Co5 Sn1'
_cell_volume   425.00024241
_cell_formula_units_Z   1
loop_
 _symmetry_equiv_pos_site_id
 _symmetry_equiv_pos_as_xyz
  1  'x, y, z'
loop_
 _atom_site_type_symbol
 _atom_site_label
 _atom_site_symmetry_multiplicity
 _atom_site_fract_x
 _atom_site_fract_y
 _atom_site_fract_z
 _atom_site_occupancy
  Dy  Dy0  1  0.194490  0.210946  0.405437  1
  Dy  Dy1  1  0.805510  0.789054  0.594563  1
  Dy  Dy2  1  0.194490  0.789054  0.983543  1
  Dy  Dy3  1  0.805510  0.210946  0.016457  1
  Er  Er4  1  0.474323  0.289678  0.184645  1
  Er  Er5  1  0.105032  0.289678  0.815355  1
  Er  Er6  1  0.894968  0.710322  0.184645  1
  Er  Er7  1  0.525677  0.710322  0.815355  1
  Er  Er8  1  0.305134  0.619255  0.314121  1
  Er  Er9  1  0.305134  0.991014  0.685879  1
  Er  Er10  1  0.694866  0.380745  0.685879  1
  Er  Er11  1  0.694866  0.008986  0.314121  1
  Co  Co12  1  0.500000  0.612591  0.112591  1
  Co  Co13  1  0.500000  0.387409  0.887409  1
  Co  Co14  1  0.377535  0.000000  0.377535  1
  Co  Co15  1  0.622465  0.000000  0.622465  1
  Co  Co16  1  0.000000  0.000000  0.000000  1
  Sn  Sn17  1  0.000000  0.500000  0.500000  1
