# generated using pymatgen
data_Cs3Rb3Ho2Br12
_symmetry_space_group_name_H-M   'P 1'
_cell_length_a   9.85258151
_cell_length_b   9.83209452
_cell_length_c   8.18684200
_cell_angle_alpha   90.00000000
_cell_angle_beta   90.00000000
_cell_angle_gamma   90.06360437
_symmetry_Int_Tables_number   1
_chemical_formula_structural   Cs3Rb3Ho2Br12
_chemical_formula_sum   'Cs3 Rb3 Ho2 Br12'
_cell_volume   793.07128007
_cell_formula_units_Z   1
loop_
 _symmetry_equiv_pos_site_id
 _symmetry_equiv_pos_as_xyz
  1  'x, y, z'
loop_
 _atom_site_type_symbol
 _atom_site_label
 _atom_site_symmetry_multiplicity
 _atom_site_fract_x
 _atom_site_fract_y
 _atom_site_fract_z
 _atom_site_occupancy
  Cs  Cs0  1  0.765204  0.418515  0.500000  1
  Cs  Cs1  1  0.417612  0.234938  0.000000  1
  Cs  Cs2  1  0.581736  0.765498  0.000000  1
  Rb  Rb3  1  0.000592  0.000002  0.500000  1
  Rb  Rb4  1  0.000429  0.000146  0.000000  1
  Rb  Rb5  1  0.234752  0.579223  0.500000  1
  Ho  Ho6  1  0.498119  0.000821  0.500000  1
  Ho  Ho7  1  0.001312  0.500048  0.000000  1
  Br  Br8  1  0.697685  0.054694  0.739123  1
  Br  Br9  1  0.301080  0.945152  0.740294  1
  Br  Br10  1  0.949162  0.696985  0.243150  1
  Br  Br11  1  0.056498  0.303114  0.241353  1
  Br  Br12  1  0.301080  0.945152  0.259706  1
  Br  Br13  1  0.697685  0.054694  0.260877  1
  Br  Br14  1  0.056498  0.303114  0.758647  1
  Br  Br15  1  0.949162  0.696985  0.756850  1
  Br  Br16  1  0.561500  0.724572  0.500000  1
  Br  Br17  1  0.427929  0.275662  0.500000  1
  Br  Br18  1  0.274443  0.569982  0.000000  1
  Br  Br19  1  0.727522  0.430704  0.000000  1
