# generated using pymatgen
data_GaSb2(SeCl2)2
_symmetry_space_group_name_H-M   'P 1'
_cell_length_a   9.55102684
_cell_length_b   11.47209953
_cell_length_c   12.32007740
_cell_angle_alpha   66.50777121
_cell_angle_beta   77.68503868
_cell_angle_gamma   72.59481295
_symmetry_Int_Tables_number   1
_chemical_formula_structural   GaSb2(SeCl2)2
_chemical_formula_sum   'Ga4 Sb8 Se8 Cl16'
_cell_volume   1174.49946892
_cell_formula_units_Z   4
loop_
 _symmetry_equiv_pos_site_id
 _symmetry_equiv_pos_as_xyz
  1  'x, y, z'
loop_
 _atom_site_type_symbol
 _atom_site_label
 _atom_site_symmetry_multiplicity
 _atom_site_fract_x
 _atom_site_fract_y
 _atom_site_fract_z
 _atom_site_occupancy
  Ga  Ga0  1  0.806513  0.316896  0.542879  1
  Ga  Ga1  1  0.193487  0.683104  0.457121  1
  Ga  Ga2  1  0.886957  0.812651  0.024107  1
  Ga  Ga3  1  0.113043  0.187349  0.975893  1
  Sb  Sb4  1  0.348411  0.984552  0.432122  1
  Sb  Sb5  1  0.651589  0.015448  0.567878  1
  Sb  Sb6  1  0.558204  0.624168  0.676640  1
  Sb  Sb7  1  0.441796  0.375832  0.323360  1
  Sb  Sb8  1  0.564690  0.856520  0.819955  1
  Sb  Sb9  1  0.435310  0.143480  0.180045  1
  Sb  Sb10  1  0.704809  0.437439  0.007636  1
  Sb  Sb11  1  0.295191  0.562561  0.992364  1
  Se  Se12  1  0.621408  0.846170  0.475539  1
  Se  Se13  1  0.378592  0.153830  0.524461  1
  Se  Se14  1  0.350308  0.785208  0.767276  1
  Se  Se15  1  0.649692  0.214792  0.232724  1
  Se  Se16  1  0.758160  0.652121  0.780386  1
  Se  Se17  1  0.241840  0.347879  0.219614  1
  Se  Se18  1  0.511027  0.396040  0.910372  1
  Se  Se19  1  0.488973  0.603960  0.089628  1
  Cl  Cl20  1  0.725654  0.445004  0.369171  1
  Cl  Cl21  1  0.274346  0.554996  0.630829  1
  Cl  Cl22  1  0.619613  0.233944  0.660277  1
  Cl  Cl23  1  0.380387  0.766056  0.339723  1
  Cl  Cl24  1  0.859778  0.434909  0.625837  1
  Cl  Cl25  1  0.140222  0.565091  0.374163  1
  Cl  Cl26  1  0.992900  0.158457  0.523356  1
  Cl  Cl27  1  0.007100  0.841543  0.476644  1
  Cl  Cl28  1  0.888404  0.604542  0.073588  1
  Cl  Cl29  1  0.111596  0.395458  0.926412  1
  Cl  Cl30  1  0.863140  0.909359  0.830713  1
  Cl  Cl31  1  0.136860  0.090641  0.169287  1
  Cl  Cl32  1  0.106877  0.814004  0.052937  1
  Cl  Cl33  1  0.893123  0.185996  0.947063  1
  Cl  Cl34  1  0.704335  0.900167  0.129991  1
  Cl  Cl35  1  0.295665  0.099833  0.870009  1
