# generated using pymatgen
data_YbTm6Co6Sn23
_symmetry_space_group_name_H-M   'P 1'
_cell_length_a   9.69080600
_cell_length_b   9.69080671
_cell_length_c   9.93698700
_cell_angle_alpha   90.00000000
_cell_angle_beta   90.00000000
_cell_angle_gamma   119.99999757
_symmetry_Int_Tables_number   1
_chemical_formula_structural   YbTm6Co6Sn23
_chemical_formula_sum   'Yb1 Tm6 Co6 Sn23'
_cell_volume   808.17459617
_cell_formula_units_Z   1
loop_
 _symmetry_equiv_pos_site_id
 _symmetry_equiv_pos_as_xyz
  1  'x, y, z'
loop_
 _atom_site_type_symbol
 _atom_site_label
 _atom_site_symmetry_multiplicity
 _atom_site_fract_x
 _atom_site_fract_y
 _atom_site_fract_z
 _atom_site_occupancy
  Yb  Yb0  1  0.000000  0.000000  0.000000  1
  Tm  Tm1  1  0.479649  0.520351  0.306061  1
  Tm  Tm2  1  0.520351  0.479649  0.693939  1
  Tm  Tm3  1  0.479649  0.959296  0.306061  1
  Tm  Tm4  1  0.520351  0.040704  0.693939  1
  Tm  Tm5  1  0.040704  0.520351  0.306061  1
  Tm  Tm6  1  0.959296  0.479649  0.693939  1
  Co  Co7  1  0.831451  0.168549  0.198310  1
  Co  Co8  1  0.168549  0.831451  0.801690  1
  Co  Co9  1  0.831451  0.662900  0.198310  1
  Co  Co10  1  0.168549  0.337100  0.801690  1
  Co  Co11  1  0.337100  0.168549  0.198310  1
  Co  Co12  1  0.662900  0.831451  0.801690  1
  Sn  Sn13  1  0.346061  0.000000  0.000000  1
  Sn  Sn14  1  0.653939  0.000000  0.000000  1
  Sn  Sn15  1  0.000000  0.346061  0.000000  1
  Sn  Sn16  1  0.000000  0.653939  0.000000  1
  Sn  Sn17  1  0.653939  0.653939  0.000000  1
  Sn  Sn18  1  0.346061  0.346061  0.000000  1
  Sn  Sn19  1  0.333333  0.666667  0.817197  1
  Sn  Sn20  1  0.666667  0.333333  0.182803  1
  Sn  Sn21  1  0.000000  0.000000  0.500000  1
  Sn  Sn22  1  0.780730  0.219270  0.451749  1
  Sn  Sn23  1  0.219270  0.780730  0.548251  1
  Sn  Sn24  1  0.780730  0.561461  0.451749  1
  Sn  Sn25  1  0.219270  0.438539  0.548251  1
  Sn  Sn26  1  0.438539  0.219270  0.451749  1
  Sn  Sn27  1  0.561461  0.780730  0.548251  1
  Sn  Sn28  1  0.333333  0.666667  0.121770  1
  Sn  Sn29  1  0.666667  0.333333  0.878230  1
  Sn  Sn30  1  0.118214  0.881786  0.274295  1
  Sn  Sn31  1  0.881786  0.118214  0.725705  1
  Sn  Sn32  1  0.118214  0.236426  0.274295  1
  Sn  Sn33  1  0.881786  0.763574  0.725705  1
  Sn  Sn34  1  0.763574  0.881786  0.274295  1
  Sn  Sn35  1  0.236426  0.118214  0.725705  1
