# generated using pymatgen
data_NdSmCBr
_symmetry_space_group_name_H-M   'P 1'
_cell_length_a   3.78763300
_cell_length_b   3.78763327
_cell_length_c   14.77342800
_cell_angle_alpha   90.00000000
_cell_angle_beta   90.00000000
_cell_angle_gamma   119.99998890
_symmetry_Int_Tables_number   1
_chemical_formula_structural   NdSmCBr
_chemical_formula_sum   'Nd2 Sm2 C2 Br2'
_cell_volume   183.54720464
_cell_formula_units_Z   2
loop_
 _symmetry_equiv_pos_site_id
 _symmetry_equiv_pos_as_xyz
  1  'x, y, z'
loop_
 _atom_site_type_symbol
 _atom_site_label
 _atom_site_symmetry_multiplicity
 _atom_site_fract_x
 _atom_site_fract_y
 _atom_site_fract_z
 _atom_site_occupancy
  Nd  Nd0  1  0.333333  0.666667  0.408697  1
  Nd  Nd1  1  0.666667  0.333333  0.908697  1
  Sm  Sm2  1  0.666667  0.333333  0.591251  1
  Sm  Sm3  1  0.333333  0.666667  0.091251  1
  C  C4  1  0.000000  0.000000  0.503139  1
  C  C5  1  0.000000  0.000000  0.003139  1
  Br  Br6  1  0.666667  0.333333  0.246912  1
  Br  Br7  1  0.333333  0.666667  0.746912  1
