# generated using pymatgen
data_Pr5Ho11MgHg3Rh4
_symmetry_space_group_name_H-M   'P 1'
_cell_length_a   9.74909294
_cell_length_b   9.72313097
_cell_length_c   9.72409000
_cell_angle_alpha   59.40964888
_cell_angle_beta   59.75982221
_cell_angle_gamma   59.76480679
_symmetry_Int_Tables_number   1
_chemical_formula_structural   Pr5Ho11MgHg3Rh4
_chemical_formula_sum   'Pr5 Ho11 Mg1 Hg3 Rh4'
_cell_volume   646.50725982
_cell_formula_units_Z   1
loop_
 _symmetry_equiv_pos_site_id
 _symmetry_equiv_pos_as_xyz
  1  'x, y, z'
loop_
 _atom_site_type_symbol
 _atom_site_label
 _atom_site_symmetry_multiplicity
 _atom_site_fract_x
 _atom_site_fract_y
 _atom_site_fract_z
 _atom_site_occupancy
  Pr  Pr0  1  0.549235  0.944361  0.944306  1
  Pr  Pr1  1  0.564520  0.937511  0.561998  1
  Pr  Pr2  1  0.942421  0.563137  0.929917  1
  Pr  Pr3  1  0.564534  0.561959  0.937469  1
  Pr  Pr4  1  0.942365  0.929952  0.563145  1
  Ho  Ho5  1  0.349892  0.347615  0.347618  1
  Ho  Ho6  1  0.348142  0.352801  0.960024  1
  Ho  Ho7  1  0.348135  0.960081  0.352754  1
  Ho  Ho8  1  0.941276  0.351111  0.351126  1
  Ho  Ho9  1  0.813475  0.185542  0.185470  1
  Ho  Ho10  1  0.180941  0.817365  0.817356  1
  Ho  Ho11  1  0.182459  0.811972  0.188954  1
  Ho  Ho12  1  0.809605  0.187299  0.811103  1
  Ho  Ho13  1  0.182475  0.189011  0.811925  1
  Ho  Ho14  1  0.809611  0.811151  0.187245  1
  Ho  Ho15  1  0.942789  0.553019  0.552944  1
  Mg  Mg16  1  0.287487  0.570352  0.569697  1
  Hg  Hg17  1  0.585987  0.582577  0.582639  1
  Hg  Hg18  1  0.582533  0.581887  0.250860  1
  Hg  Hg19  1  0.582606  0.250627  0.582001  1
  Rh  Rh20  1  0.143201  0.142222  0.142182  1
  Rh  Rh21  1  0.135648  0.152962  0.572903  1
  Rh  Rh22  1  0.135743  0.572641  0.153282  1
  Rh  Rh23  1  0.574922  0.142847  0.143081  1
