# generated using pymatgen
data_DyY19Cd6TcRu
_symmetry_space_group_name_H-M   'P 1'
_cell_length_a   9.61343000
_cell_length_b   9.61342948
_cell_length_c   9.92030900
_cell_angle_alpha   90.00000000
_cell_angle_beta   90.00000000
_cell_angle_gamma   120.00000178
_symmetry_Int_Tables_number   1
_chemical_formula_structural   DyY19Cd6TcRu
_chemical_formula_sum   'Dy1 Y19 Cd6 Tc1 Ru1'
_cell_volume   793.98543747
_cell_formula_units_Z   1
loop_
 _symmetry_equiv_pos_site_id
 _symmetry_equiv_pos_as_xyz
  1  'x, y, z'
loop_
 _atom_site_type_symbol
 _atom_site_label
 _atom_site_symmetry_multiplicity
 _atom_site_fract_x
 _atom_site_fract_y
 _atom_site_fract_z
 _atom_site_occupancy
  Dy  Dy0  1  0.000000  0.000000  0.500188  1
  Y  Y1  1  0.000000  0.000000  0.999820  1
  Y  Y2  1  0.209841  0.790159  0.441285  1
  Y  Y3  1  0.209841  0.419682  0.441285  1
  Y  Y4  1  0.580318  0.790159  0.441285  1
  Y  Y5  1  0.789994  0.210006  0.559154  1
  Y  Y6  1  0.789994  0.579985  0.559154  1
  Y  Y7  1  0.420015  0.210006  0.559154  1
  Y  Y8  1  0.789904  0.210096  0.940730  1
  Y  Y9  1  0.789904  0.579805  0.940730  1
  Y  Y10  1  0.420195  0.210096  0.940730  1
  Y  Y11  1  0.209940  0.790060  0.058830  1
  Y  Y12  1  0.209940  0.419880  0.058830  1
  Y  Y13  1  0.580120  0.790060  0.058830  1
  Y  Y14  1  0.540156  0.459844  0.250039  1
  Y  Y15  1  0.540156  0.080313  0.250039  1
  Y  Y16  1  0.919687  0.459844  0.250039  1
  Y  Y17  1  0.458680  0.541320  0.749954  1
  Y  Y18  1  0.458680  0.917361  0.749954  1
  Y  Y19  1  0.082639  0.541320  0.749954  1
  Cd  Cd20  1  0.885492  0.114508  0.250050  1
  Cd  Cd21  1  0.885492  0.770986  0.250050  1
  Cd  Cd22  1  0.229014  0.114508  0.250050  1
  Cd  Cd23  1  0.114327  0.885673  0.749935  1
  Cd  Cd24  1  0.114327  0.228655  0.749935  1
  Cd  Cd25  1  0.771345  0.885673  0.749935  1
  Tc  Tc26  1  0.333333  0.666667  0.250056  1
  Ru  Ru27  1  0.666667  0.333333  0.750002  1
