# generated using pymatgen
data_CeDyTh2(ReC2)2
_symmetry_space_group_name_H-M   'P 1'
_cell_length_a   5.30567300
_cell_length_b   6.68305300
_cell_length_c   9.92720000
_cell_angle_alpha   90.00000000
_cell_angle_beta   90.00000000
_cell_angle_gamma   90.00000000
_symmetry_Int_Tables_number   1
_chemical_formula_structural   CeDyTh2(ReC2)2
_chemical_formula_sum   'Ce2 Dy2 Th4 Re4 C8'
_cell_volume   351.99958936
_cell_formula_units_Z   2
loop_
 _symmetry_equiv_pos_site_id
 _symmetry_equiv_pos_as_xyz
  1  'x, y, z'
loop_
 _atom_site_type_symbol
 _atom_site_label
 _atom_site_symmetry_multiplicity
 _atom_site_fract_x
 _atom_site_fract_y
 _atom_site_fract_z
 _atom_site_occupancy
  Ce  Ce0  1  0.250000  0.817366  0.452906  1
  Ce  Ce1  1  0.750000  0.682634  0.952906  1
  Dy  Dy2  1  0.250000  0.320695  0.051868  1
  Dy  Dy3  1  0.750000  0.179305  0.551868  1
  Th  Th4  1  0.250000  0.972981  0.781501  1
  Th  Th5  1  0.750000  0.527019  0.281501  1
  Th  Th6  1  0.250000  0.470697  0.715368  1
  Th  Th7  1  0.750000  0.029303  0.215368  1
  Re  Re8  1  0.250000  0.770906  0.137443  1
  Re  Re9  1  0.750000  0.729094  0.637443  1
  Re  Re10  1  0.250000  0.272101  0.362334  1
  Re  Re11  1  0.750000  0.227899  0.862334  1
  C  C12  1  0.250000  0.168657  0.551250  1
  C  C13  1  0.750000  0.331343  0.051250  1
  C  C14  1  0.250000  0.668988  0.948431  1
  C  C15  1  0.750000  0.831012  0.448431  1
  C  C16  1  0.250000  0.534856  0.258511  1
  C  C17  1  0.750000  0.965144  0.758511  1
  C  C18  1  0.250000  0.037256  0.240388  1
  C  C19  1  0.750000  0.462744  0.740388  1
