# generated using pymatgen
data_Ba8Li4Si11Pb
_symmetry_space_group_name_H-M   'P 1'
_cell_length_a   12.48502877
_cell_length_b   10.76774543
_cell_length_c   8.87633726
_cell_angle_alpha   78.14399317
_cell_angle_beta   57.57279593
_cell_angle_gamma   44.23845497
_symmetry_Int_Tables_number   1
_chemical_formula_structural   Ba8Li4Si11Pb
_chemical_formula_sum   'Ba8 Li4 Si11 Pb1'
_cell_volume   669.54356683
_cell_formula_units_Z   1
loop_
 _symmetry_equiv_pos_site_id
 _symmetry_equiv_pos_as_xyz
  1  'x, y, z'
loop_
 _atom_site_type_symbol
 _atom_site_label
 _atom_site_symmetry_multiplicity
 _atom_site_fract_x
 _atom_site_fract_y
 _atom_site_fract_z
 _atom_site_occupancy
  Ba  Ba0  1  0.880452  0.865082  0.123839  1
  Ba  Ba1  1  0.131768  0.121209  0.871947  1
  Ba  Ba2  1  0.367479  0.375003  0.125802  1
  Ba  Ba3  1  0.128146  0.127065  0.373677  1
  Ba  Ba4  1  0.623692  0.626794  0.378425  1
  Ba  Ba5  1  0.371735  0.376896  0.629880  1
  Ba  Ba6  1  0.623270  0.629844  0.872133  1
  Ba  Ba7  1  0.872824  0.875799  0.626335  1
  Li  Li8  1  0.167472  0.832857  0.168581  1
  Li  Li9  1  0.843709  0.157003  0.810018  1
  Li  Li10  1  0.081127  0.416581  0.083013  1
  Li  Li11  1  0.418647  0.083674  0.416656  1
  Si  Si12  1  0.833068  0.178259  0.349471  1
  Si  Si13  1  0.185894  0.821987  0.660108  1
  Si  Si14  1  0.338145  0.654971  0.819476  1
  Si  Si15  1  0.594234  0.907209  0.591914  1
  Si  Si16  1  0.905863  0.594239  0.907174  1
  Si  Si17  1  0.652939  0.345483  0.664732  1
  Si  Si18  1  0.317359  0.682264  0.355653  1
  Si  Si19  1  0.910464  0.596122  0.433248  1
  Si  Si20  1  0.059534  0.432862  0.597149  1
  Si  Si21  1  0.432758  0.060740  0.911117  1
  Si  Si22  1  0.595487  0.910475  0.061625  1
  Pb  Pb23  1  0.663935  0.327583  0.168025  1
