# generated using pymatgen
data_Sc10Tc3
_symmetry_space_group_name_H-M   'P 1'
_cell_length_a   8.84557700
_cell_length_b   8.84557728
_cell_length_c   8.09708400
_cell_angle_alpha   90.00000000
_cell_angle_beta   90.00000000
_cell_angle_gamma   119.99999523
_symmetry_Int_Tables_number   1
_chemical_formula_structural   Sc10Tc3
_chemical_formula_sum   'Sc20 Tc6'
_cell_volume   548.67054435
_cell_formula_units_Z   2
loop_
 _symmetry_equiv_pos_site_id
 _symmetry_equiv_pos_as_xyz
  1  'x, y, z'
loop_
 _atom_site_type_symbol
 _atom_site_label
 _atom_site_symmetry_multiplicity
 _atom_site_fract_x
 _atom_site_fract_y
 _atom_site_fract_z
 _atom_site_occupancy
  Sc  Sc0  1  0.000000  0.000000  0.000000  1
  Sc  Sc1  1  0.403940  0.201970  0.054562  1
  Sc  Sc2  1  0.798030  0.201970  0.054562  1
  Sc  Sc3  1  0.798029  0.596059  0.054562  1
  Sc  Sc4  1  0.094890  0.547445  0.250000  1
  Sc  Sc5  1  0.452555  0.547445  0.250000  1
  Sc  Sc6  1  0.452555  0.905111  0.250000  1
  Sc  Sc7  1  0.403940  0.201970  0.445438  1
  Sc  Sc8  1  0.798030  0.201970  0.445438  1
  Sc  Sc9  1  0.798029  0.596059  0.445438  1
  Sc  Sc10  1  0.000000  0.000000  0.500000  1
  Sc  Sc11  1  0.201970  0.403941  0.554563  1
  Sc  Sc12  1  0.201969  0.798030  0.554563  1
  Sc  Sc13  1  0.596060  0.798030  0.554563  1
  Sc  Sc14  1  0.547444  0.094889  0.750001  1
  Sc  Sc15  1  0.547445  0.452555  0.750001  1
  Sc  Sc16  1  0.905111  0.452555  0.750001  1
  Sc  Sc17  1  0.201970  0.403941  0.945437  1
  Sc  Sc18  1  0.201969  0.798030  0.945437  1
  Sc  Sc19  1  0.596060  0.798030  0.945437  1
  Tc  Tc20  1  0.120534  0.241068  0.250000  1
  Tc  Tc21  1  0.120533  0.879466  0.250000  1
  Tc  Tc22  1  0.758933  0.879466  0.250000  1
  Tc  Tc23  1  0.241068  0.120534  0.750001  1
  Tc  Tc24  1  0.879466  0.120534  0.750001  1
  Tc  Tc25  1  0.879465  0.758932  0.750001  1
