# generated using pymatgen
data_Ce2Co3As4Pd
_symmetry_space_group_name_H-M   'P 1'
_cell_length_a   4.20932700
_cell_length_b   4.20796100
_cell_length_c   9.54049600
_cell_angle_alpha   90.00000000
_cell_angle_beta   90.00000000
_cell_angle_gamma   90.00000000
_symmetry_Int_Tables_number   1
_chemical_formula_structural   Ce2Co3As4Pd
_chemical_formula_sum   'Ce2 Co3 As4 Pd1'
_cell_volume   168.98778944
_cell_formula_units_Z   1
loop_
 _symmetry_equiv_pos_site_id
 _symmetry_equiv_pos_as_xyz
  1  'x, y, z'
loop_
 _atom_site_type_symbol
 _atom_site_label
 _atom_site_symmetry_multiplicity
 _atom_site_fract_x
 _atom_site_fract_y
 _atom_site_fract_z
 _atom_site_occupancy
  Ce  Ce0  1  0.000000  0.500000  0.257614  1
  Ce  Ce1  1  0.500000  0.000000  0.742360  1
  Co  Co2  1  0.000000  0.000000  0.000263  1
  Co  Co3  1  0.000000  0.500000  0.609642  1
  Co  Co4  1  0.500000  0.000000  0.390281  1
  As  As5  1  0.000000  0.000000  0.499994  1
  As  As6  1  0.500000  0.500000  0.500012  1
  As  As7  1  0.000000  0.500000  0.853676  1
  As  As8  1  0.500000  0.000000  0.146281  1
  Pd  Pd9  1  0.500000  0.500000  0.999878  1
