# generated using pymatgen
data_Rb5(PuI4)3
_symmetry_space_group_name_H-M   'P 1'
_cell_length_a   15.35016000
_cell_length_b   15.35016092
_cell_length_c   4.84021000
_cell_angle_alpha   90.00000000
_cell_angle_beta   90.00000000
_cell_angle_gamma   120.00000232
_symmetry_Int_Tables_number   1
_chemical_formula_structural   Rb5(PuI4)3
_chemical_formula_sum   'Rb5 Pu3 I12'
_cell_volume   987.69001997
_cell_formula_units_Z   1
loop_
 _symmetry_equiv_pos_site_id
 _symmetry_equiv_pos_as_xyz
  1  'x, y, z'
loop_
 _atom_site_type_symbol
 _atom_site_label
 _atom_site_symmetry_multiplicity
 _atom_site_fract_x
 _atom_site_fract_y
 _atom_site_fract_z
 _atom_site_occupancy
  Rb  Rb0  1  0.333333  0.666667  0.000000  1
  Rb  Rb1  1  0.666667  0.333333  0.000000  1
  Rb  Rb2  1  0.714721  0.000000  0.000000  1
  Rb  Rb3  1  0.000000  0.714721  0.000000  1
  Rb  Rb4  1  0.285279  0.285279  0.000000  1
  Pu  Pu5  1  0.324786  0.000000  0.500000  1
  Pu  Pu6  1  0.000000  0.324786  0.500000  1
  Pu  Pu7  1  0.675214  0.675214  0.500000  1
  I  I8  1  0.183700  0.000000  0.000000  1
  I  I9  1  0.000000  0.183700  0.000000  1
  I  I10  1  0.816300  0.816300  0.000000  1
  I  I11  1  0.461747  0.000000  0.000000  1
  I  I12  1  0.000000  0.461747  0.000000  1
  I  I13  1  0.538253  0.538253  0.000000  1
  I  I14  1  0.239023  0.443077  0.500000  1
  I  I15  1  0.556923  0.795946  0.500000  1
  I  I16  1  0.443077  0.239023  0.500000  1
  I  I17  1  0.204054  0.760977  0.500000  1
  I  I18  1  0.795946  0.556923  0.500000  1
  I  I19  1  0.760977  0.204054  0.500000  1
