# generated using pymatgen
data_Dy3Ho5Ti5Si16Mo7
_symmetry_space_group_name_H-M   'P 1'
_cell_length_a   6.93626330
_cell_length_b   6.92853877
_cell_length_c   12.82449425
_cell_angle_alpha   89.88546826
_cell_angle_beta   90.00529378
_cell_angle_gamma   90.03338827
_symmetry_Int_Tables_number   1
_chemical_formula_structural   Dy3Ho5Ti5Si16Mo7
_chemical_formula_sum   'Dy3 Ho5 Ti5 Si16 Mo7'
_cell_volume   616.32037624
_cell_formula_units_Z   1
loop_
 _symmetry_equiv_pos_site_id
 _symmetry_equiv_pos_as_xyz
  1  'x, y, z'
loop_
 _atom_site_type_symbol
 _atom_site_label
 _atom_site_symmetry_multiplicity
 _atom_site_fract_x
 _atom_site_fract_y
 _atom_site_fract_z
 _atom_site_occupancy
  Dy  Dy0  1  0.341303  0.003867  0.467178  1
  Dy  Dy1  1  0.496823  0.840934  0.718741  1
  Dy  Dy2  1  0.502801  0.159499  0.218414  1
  Ho  Ho3  1  0.840822  0.496547  0.280982  1
  Ho  Ho4  1  0.158819  0.502193  0.782930  1
  Ho  Ho5  1  0.658852  0.997143  0.968322  1
  Ho  Ho6  1  0.002837  0.340816  0.531870  1
  Ho  Ho7  1  0.996299  0.660013  0.031203  1
  Ti  Ti8  1  0.328992  0.329446  0.999456  1
  Ti  Ti9  1  0.170181  0.828555  0.249974  1
  Ti  Ti10  1  0.827465  0.172243  0.750481  1
  Ti  Ti11  1  0.670525  0.668338  0.499287  1
  Ti  Ti12  1  0.994087  0.841654  0.625768  1
  Si  Si13  1  0.201707  0.130511  0.683976  1
  Si  Si14  1  0.370589  0.700910  0.934026  1
  Si  Si15  1  0.631301  0.300228  0.434041  1
  Si  Si16  1  0.699559  0.370140  0.066037  1
  Si  Si17  1  0.300455  0.629367  0.565341  1
  Si  Si18  1  0.799699  0.870140  0.183680  1
  Si  Si19  1  0.127801  0.200707  0.316287  1
  Si  Si20  1  0.871647  0.799775  0.816166  1
  Si  Si21  1  0.288789  0.957906  0.062793  1
  Si  Si22  1  0.542189  0.788175  0.312759  1
  Si  Si23  1  0.457343  0.211367  0.812909  1
  Si  Si24  1  0.789569  0.543286  0.687458  1
  Si  Si25  1  0.210720  0.457975  0.186750  1
  Si  Si26  1  0.711381  0.043711  0.563425  1
  Si  Si27  1  0.957577  0.289336  0.937296  1
  Si  Si28  1  0.043818  0.710528  0.437054  1
  Mo  Mo29  1  0.159127  0.008551  0.875437  1
  Mo  Mo30  1  0.492746  0.658126  0.124271  1
  Mo  Mo31  1  0.507225  0.341889  0.623719  1
  Mo  Mo32  1  0.657135  0.491783  0.877528  1
  Mo  Mo33  1  0.342814  0.504646  0.374644  1
  Mo  Mo34  1  0.840628  0.991259  0.373498  1
  Mo  Mo35  1  0.006374  0.158437  0.126297  1
