# generated using pymatgen
data_Sr20Cd3(Pt2Au)3
_symmetry_space_group_name_H-M   'P 1'
_cell_length_a   8.37069058
_cell_length_b   8.37069084
_cell_length_c   15.82512100
_cell_angle_alpha   90.02139687
_cell_angle_beta   90.02139687
_cell_angle_gamma   90.36110596
_symmetry_Int_Tables_number   1
_chemical_formula_structural   Sr20Cd3(Pt2Au)3
_chemical_formula_sum   'Sr20 Cd3 Pt6 Au3'
_cell_volume   1108.81972701
_cell_formula_units_Z   1
loop_
 _symmetry_equiv_pos_site_id
 _symmetry_equiv_pos_as_xyz
  1  'x, y, z'
loop_
 _atom_site_type_symbol
 _atom_site_label
 _atom_site_symmetry_multiplicity
 _atom_site_fract_x
 _atom_site_fract_y
 _atom_site_fract_z
 _atom_site_occupancy
  Sr  Sr0  1  0.005361  0.002301  0.756257  1
  Sr  Sr1  1  0.505033  0.502211  0.251392  1
  Sr  Sr2  1  0.997699  0.994639  0.243743  1
  Sr  Sr3  1  0.497789  0.494967  0.748608  1
  Sr  Sr4  1  0.175623  0.668433  0.114540  1
  Sr  Sr5  1  0.669687  0.173004  0.619090  1
  Sr  Sr6  1  0.818819  0.337600  0.114775  1
  Sr  Sr7  1  0.324679  0.832959  0.619240  1
  Sr  Sr8  1  0.342958  0.169430  0.113832  1
  Sr  Sr9  1  0.839134  0.663526  0.618589  1
  Sr  Sr10  1  0.662392  0.824927  0.115596  1
  Sr  Sr11  1  0.166584  0.330562  0.620433  1
  Sr  Sr12  1  0.331567  0.824377  0.885460  1
  Sr  Sr13  1  0.826996  0.330313  0.380910  1
  Sr  Sr14  1  0.662400  0.181181  0.885225  1
  Sr  Sr15  1  0.167041  0.675321  0.380760  1
  Sr  Sr16  1  0.175073  0.337608  0.884404  1
  Sr  Sr17  1  0.669438  0.833416  0.379567  1
  Sr  Sr18  1  0.830570  0.657042  0.886168  1
  Sr  Sr19  1  0.336474  0.160866  0.381411  1
  Cd  Cd20  1  0.999313  0.000687  0.500000  1
  Cd  Cd21  1  0.999463  0.000537  0.000000  1
  Cd  Cd22  1  0.499376  0.500624  0.500000  1
  Pt  Pt23  1  0.624202  0.125779  0.247998  1
  Pt  Pt24  1  0.125306  0.625175  0.752078  1
  Pt  Pt25  1  0.874221  0.375798  0.752002  1
  Pt  Pt26  1  0.374825  0.874694  0.247922  1
  Pt  Pt27  1  0.374421  0.126138  0.752006  1
  Pt  Pt28  1  0.873862  0.625579  0.247994  1
  Au  Au29  1  0.124105  0.374880  0.248112  1
  Au  Au30  1  0.625120  0.875895  0.751888  1
  Au  Au31  1  0.500465  0.499535  0.000000  1
