# generated using pymatgen
data_CeThPaCo2
_symmetry_space_group_name_H-M   'P 1'
_cell_length_a   3.58241426
_cell_length_b   5.96837495
_cell_length_c   5.96837400
_cell_angle_alpha   61.83918685
_cell_angle_beta   72.53539325
_cell_angle_gamma   72.53540072
_symmetry_Int_Tables_number   1
_chemical_formula_structural   CeThPaCo2
_chemical_formula_sum   'Ce1 Th1 Pa1 Co2'
_cell_volume   105.39628664
_cell_formula_units_Z   1
loop_
 _symmetry_equiv_pos_site_id
 _symmetry_equiv_pos_as_xyz
  1  'x, y, z'
loop_
 _atom_site_type_symbol
 _atom_site_label
 _atom_site_symmetry_multiplicity
 _atom_site_fract_x
 _atom_site_fract_y
 _atom_site_fract_z
 _atom_site_occupancy
  Ce  Ce0  1  0.194938  0.305062  0.305062  1
  Th  Th1  1  0.802854  0.697146  0.697146  1
  Pa  Pa2  1  0.995722  0.004278  0.004278  1
  Co  Co3  1  0.503244  0.280495  0.713019  1
  Co  Co4  1  0.503244  0.713019  0.280495  1
