# generated using pymatgen
data_TbNd(CrN3)2
_symmetry_space_group_name_H-M   'P 1'
_cell_length_a   7.04761492
_cell_length_b   7.04761476
_cell_length_c   5.90002324
_cell_angle_alpha   77.59456424
_cell_angle_beta   77.59456971
_cell_angle_gamma   86.67266582
_symmetry_Int_Tables_number   1
_chemical_formula_structural   TbNd(CrN3)2
_chemical_formula_sum   'Tb2 Nd2 Cr4 N12'
_cell_volume   279.50135290
_cell_formula_units_Z   2
loop_
 _symmetry_equiv_pos_site_id
 _symmetry_equiv_pos_as_xyz
  1  'x, y, z'
loop_
 _atom_site_type_symbol
 _atom_site_label
 _atom_site_symmetry_multiplicity
 _atom_site_fract_x
 _atom_site_fract_y
 _atom_site_fract_z
 _atom_site_occupancy
  Tb  Tb0  1  0.091370  0.908630  0.250000  1
  Tb  Tb1  1  0.908630  0.091370  0.750000  1
  Nd  Nd2  1  0.331510  0.668490  0.750000  1
  Nd  Nd3  1  0.668490  0.331510  0.250000  1
  Cr  Cr4  1  0.376172  0.198546  0.758963  1
  Cr  Cr5  1  0.623828  0.801454  0.241037  1
  Cr  Cr6  1  0.801454  0.623828  0.741037  1
  Cr  Cr7  1  0.198546  0.376172  0.258963  1
  N  N8  1  0.994943  0.776943  0.653069  1
  N  N9  1  0.874130  0.399892  0.837296  1
  N  N10  1  0.776943  0.994943  0.153069  1
  N  N11  1  0.125870  0.600108  0.162704  1
  N  N12  1  0.005057  0.223057  0.346931  1
  N  N13  1  0.223057  0.005057  0.846931  1
  N  N14  1  0.600108  0.125870  0.662704  1
  N  N15  1  0.628285  0.676218  0.995181  1
  N  N16  1  0.371715  0.323782  0.004819  1
  N  N17  1  0.399892  0.874130  0.337296  1
  N  N18  1  0.676218  0.628285  0.495181  1
  N  N19  1  0.323782  0.371715  0.504819  1
