# generated using pymatgen
data_DyU7(PaTe5)4
_symmetry_space_group_name_H-M   'P 1'
_cell_length_a   4.18311700
_cell_length_b   14.15118093
_cell_length_c   16.16850003
_cell_angle_alpha   90.16930252
_cell_angle_beta   90.00000000
_cell_angle_gamma   90.00000000
_symmetry_Int_Tables_number   1
_chemical_formula_structural   DyU7(PaTe5)4
_chemical_formula_sum   'Dy1 U7 Pa4 Te20'
_cell_volume   957.10708584
_cell_formula_units_Z   1
loop_
 _symmetry_equiv_pos_site_id
 _symmetry_equiv_pos_as_xyz
  1  'x, y, z'
loop_
 _atom_site_type_symbol
 _atom_site_label
 _atom_site_symmetry_multiplicity
 _atom_site_fract_x
 _atom_site_fract_y
 _atom_site_fract_z
 _atom_site_occupancy
  Dy  Dy0  1  0.250000  0.246503  0.880302  1
  U  U1  1  0.250000  0.250616  0.379979  1
  U  U2  1  0.250000  0.931390  0.860471  1
  U  U3  1  0.250000  0.568148  0.360703  1
  U  U4  1  0.250000  0.091624  0.628194  1
  U  U5  1  0.750000  0.910273  0.372303  1
  U  U6  1  0.750000  0.589907  0.871787  1
  U  U7  1  0.250000  0.409410  0.125677  1
  Pa  Pa8  1  0.750000  0.750908  0.119803  1
  Pa  Pa9  1  0.750000  0.748855  0.620229  1
  Pa  Pa10  1  0.750000  0.067888  0.138703  1
  Pa  Pa11  1  0.750000  0.433388  0.638686  1
  Te  Te12  1  0.250000  0.918475  0.075388  1
  Te  Te13  1  0.750000  0.079990  0.926774  1
  Te  Te14  1  0.750000  0.419043  0.426257  1
  Te  Te15  1  0.250000  0.581762  0.574608  1
  Te  Te16  1  0.250000  0.451032  0.785644  1
  Te  Te17  1  0.750000  0.546921  0.213976  1
  Te  Te18  1  0.750000  0.953376  0.714057  1
  Te  Te19  1  0.250000  0.046825  0.284623  1
  Te  Te20  1  0.250000  0.720753  0.763983  1
  Te  Te21  1  0.750000  0.277798  0.234490  1
  Te  Te22  1  0.750000  0.225399  0.735400  1
  Te  Te23  1  0.250000  0.778350  0.264283  1
  Te  Te24  1  0.250000  0.611356  0.026525  1
  Te  Te25  1  0.750000  0.390011  0.973933  1
  Te  Te26  1  0.750000  0.110204  0.475443  1
  Te  Te27  1  0.250000  0.889036  0.526689  1
  Te  Te28  1  0.250000  0.200696  0.067132  1
  Te  Te29  1  0.750000  0.797441  0.932872  1
  Te  Te30  1  0.750000  0.702947  0.432594  1
  Te  Te31  1  0.250000  0.299677  0.568495  1
