# generated using pymatgen
data_Y4CuPt3
_symmetry_space_group_name_H-M   'P 1'
_cell_length_a   4.48384400
_cell_length_b   5.63536726
_cell_length_c   7.07752569
_cell_angle_alpha   89.80460111
_cell_angle_beta   90.00000000
_cell_angle_gamma   90.00000000
_symmetry_Int_Tables_number   1
_chemical_formula_structural   Y4CuPt3
_chemical_formula_sum   'Y4 Cu1 Pt3'
_cell_volume   178.83464107
_cell_formula_units_Z   1
loop_
 _symmetry_equiv_pos_site_id
 _symmetry_equiv_pos_as_xyz
  1  'x, y, z'
loop_
 _atom_site_type_symbol
 _atom_site_label
 _atom_site_symmetry_multiplicity
 _atom_site_fract_x
 _atom_site_fract_y
 _atom_site_fract_z
 _atom_site_occupancy
  Y  Y0  1  0.000000  0.641236  0.316778  1
  Y  Y1  1  0.000000  0.856680  0.819371  1
  Y  Y2  1  0.500000  0.363887  0.687136  1
  Y  Y3  1  0.500000  0.138985  0.176395  1
  Cu  Cu4  1  0.000000  0.136240  0.463859  1
  Pt  Pt5  1  0.000000  0.342016  0.956785  1
  Pt  Pt6  1  0.500000  0.867053  0.534256  1
  Pt  Pt7  1  0.500000  0.653903  0.045421  1
