# generated using pymatgen
data_Sc10CoAu3
_symmetry_space_group_name_H-M   'P 1'
_cell_length_a   8.77980700
_cell_length_b   8.77980770
_cell_length_c   8.85262100
_cell_angle_alpha   90.00000000
_cell_angle_beta   90.00000000
_cell_angle_gamma   119.99999359
_symmetry_Int_Tables_number   1
_chemical_formula_structural   Sc10CoAu3
_chemical_formula_sum   'Sc20 Co2 Au6'
_cell_volume   590.97961993
_cell_formula_units_Z   2
loop_
 _symmetry_equiv_pos_site_id
 _symmetry_equiv_pos_as_xyz
  1  'x, y, z'
loop_
 _atom_site_type_symbol
 _atom_site_label
 _atom_site_symmetry_multiplicity
 _atom_site_fract_x
 _atom_site_fract_y
 _atom_site_fract_z
 _atom_site_occupancy
  Sc  Sc0  1  0.000000  0.000000  0.500000  1
  Sc  Sc1  1  0.000000  0.000000  0.000000  1
  Sc  Sc2  1  0.541698  0.458302  0.250000  1
  Sc  Sc3  1  0.541698  0.083393  0.250000  1
  Sc  Sc4  1  0.916607  0.458302  0.250000  1
  Sc  Sc5  1  0.458302  0.541698  0.750000  1
  Sc  Sc6  1  0.458302  0.916607  0.750000  1
  Sc  Sc7  1  0.083393  0.541698  0.750000  1
  Sc  Sc8  1  0.208694  0.791306  0.438379  1
  Sc  Sc9  1  0.208694  0.417388  0.438379  1
  Sc  Sc10  1  0.582612  0.791306  0.438379  1
  Sc  Sc11  1  0.791306  0.208694  0.561621  1
  Sc  Sc12  1  0.791306  0.582612  0.561621  1
  Sc  Sc13  1  0.417388  0.208694  0.561621  1
  Sc  Sc14  1  0.791306  0.208694  0.938379  1
  Sc  Sc15  1  0.791306  0.582612  0.938379  1
  Sc  Sc16  1  0.417388  0.208694  0.938379  1
  Sc  Sc17  1  0.208694  0.791306  0.061621  1
  Sc  Sc18  1  0.208694  0.417388  0.061621  1
  Sc  Sc19  1  0.582612  0.791306  0.061621  1
  Co  Co20  1  0.333333  0.666667  0.250000  1
  Co  Co21  1  0.666667  0.333333  0.750000  1
  Au  Au22  1  0.880818  0.119182  0.250000  1
  Au  Au23  1  0.880818  0.761637  0.250000  1
  Au  Au24  1  0.238363  0.119182  0.250000  1
  Au  Au25  1  0.119182  0.880818  0.750000  1
  Au  Au26  1  0.119182  0.238363  0.750000  1
  Au  Au27  1  0.761637  0.880818  0.750000  1
