# generated using pymatgen
data_Hf10AlPb5
_symmetry_space_group_name_H-M   'P 1'
_cell_length_a   5.67674745
_cell_length_b   8.44052099
_cell_length_c   8.44049158
_cell_angle_alpha   96.48427412
_cell_angle_beta   109.65011708
_cell_angle_gamma   70.34934800
_symmetry_Int_Tables_number   1
_chemical_formula_structural   Hf10AlPb5
_chemical_formula_sum   'Hf10 Al1 Pb5'
_cell_volume   358.68976189
_cell_formula_units_Z   1
loop_
 _symmetry_equiv_pos_site_id
 _symmetry_equiv_pos_as_xyz
  1  'x, y, z'
loop_
 _atom_site_type_symbol
 _atom_site_label
 _atom_site_symmetry_multiplicity
 _atom_site_fract_x
 _atom_site_fract_y
 _atom_site_fract_z
 _atom_site_occupancy
  Hf  Hf0  1  0.935464  0.855185  0.704147  1
  Hf  Hf1  1  0.086505  0.144810  0.295850  1
  Hf  Hf2  1  0.413499  0.295853  0.144815  1
  Hf  Hf3  1  0.564534  0.704150  0.855190  1
  Hf  Hf4  1  0.231291  0.704093  0.144778  1
  Hf  Hf5  1  0.790605  0.295913  0.855231  1
  Hf  Hf6  1  0.268711  0.144769  0.704087  1
  Hf  Hf7  1  0.709396  0.855222  0.295907  1
  Hf  Hf8  1  0.249996  0.500004  0.499996  1
  Hf  Hf9  1  0.749992  0.500008  0.499992  1
  Al  Al10  1  0.250007  0.999993  0.000007  1
  Pb  Pb11  1  0.334166  0.831610  0.499971  1
  Pb  Pb12  1  0.665800  0.168386  0.500022  1
  Pb  Pb13  1  0.834196  0.500029  0.168390  1
  Pb  Pb14  1  0.165834  0.499978  0.831614  1
  Pb  Pb15  1  0.750003  0.999997  0.000003  1
