# generated using pymatgen
data_Pr8Ag3As16Au5
_symmetry_space_group_name_H-M   'P 1'
_cell_length_a   5.83769900
_cell_length_b   5.89313800
_cell_length_c   20.97383202
_cell_angle_alpha   90.00000000
_cell_angle_beta   90.00447449
_cell_angle_gamma   90.00000000
_symmetry_Int_Tables_number   1
_chemical_formula_structural   Pr8Ag3As16Au5
_chemical_formula_sum   'Pr8 Ag3 As16 Au5'
_cell_volume   721.54943979
_cell_formula_units_Z   1
loop_
 _symmetry_equiv_pos_site_id
 _symmetry_equiv_pos_as_xyz
  1  'x, y, z'
loop_
 _atom_site_type_symbol
 _atom_site_label
 _atom_site_symmetry_multiplicity
 _atom_site_fract_x
 _atom_site_fract_y
 _atom_site_fract_z
 _atom_site_occupancy
  Pr  Pr0  1  0.248572  0.986724  0.619790  1
  Pr  Pr1  1  0.749995  0.011690  0.380727  1
  Pr  Pr2  1  0.751428  0.986724  0.880210  1
  Pr  Pr3  1  0.250005  0.011690  0.119273  1
  Pr  Pr4  1  0.751717  0.484574  0.615822  1
  Pr  Pr5  1  0.250027  0.517084  0.384725  1
  Pr  Pr6  1  0.248283  0.484574  0.884178  1
  Pr  Pr7  1  0.749973  0.517084  0.115275  1
  Ag  Ag8  1  0.500000  0.730990  0.750000  1
  Ag  Ag9  1  0.000000  0.268893  0.250000  1
  Ag  Ag10  1  0.500000  0.268886  0.250000  1
  As  As11  1  0.750024  0.986067  0.661023  1
  As  As12  1  0.250020  0.013758  0.338727  1
  As  As13  1  0.249976  0.986067  0.838977  1
  As  As14  1  0.749980  0.013758  0.161273  1
  As  As15  1  0.250031  0.485896  0.659604  1
  As  As16  1  0.749956  0.514333  0.340077  1
  As  As17  1  0.749969  0.485896  0.840396  1
  As  As18  1  0.250044  0.514333  0.159923  1
  As  As19  1  0.028604  0.220577  0.500730  1
  As  As20  1  0.528480  0.779491  0.499421  1
  As  As21  1  0.971396  0.220577  0.999270  1
  As  As22  1  0.471520  0.779491  0.000579  1
  As  As23  1  0.971398  0.779436  0.499407  1
  As  As24  1  0.471400  0.220670  0.500808  1
  As  As25  1  0.028602  0.779436  0.000593  1
  As  As26  1  0.528600  0.220670  0.999192  1
  Au  Au27  1  0.000000  0.730940  0.750000  1
  Au  Au28  1  0.500000  0.233727  0.750000  1
  Au  Au29  1  0.000000  0.765959  0.250000  1
  Au  Au30  1  0.500000  0.766000  0.250000  1
  Au  Au31  1  0.000000  0.234007  0.750000  1
