# generated using pymatgen
data_DyTmTcC2
_symmetry_space_group_name_H-M   'P 1'
_cell_length_a   5.06100900
_cell_length_b   6.55822200
_cell_length_c   9.81277300
_cell_angle_alpha   90.00000000
_cell_angle_beta   90.00000000
_cell_angle_gamma   90.00000000
_symmetry_Int_Tables_number   1
_chemical_formula_structural   DyTmTcC2
_chemical_formula_sum   'Dy4 Tm4 Tc4 C8'
_cell_volume   325.69791301
_cell_formula_units_Z   4
loop_
 _symmetry_equiv_pos_site_id
 _symmetry_equiv_pos_as_xyz
  1  'x, y, z'
loop_
 _atom_site_type_symbol
 _atom_site_label
 _atom_site_symmetry_multiplicity
 _atom_site_fract_x
 _atom_site_fract_y
 _atom_site_fract_z
 _atom_site_occupancy
  Dy  Dy0  1  0.250000  0.466348  0.214767  1
  Dy  Dy1  1  0.250000  0.966348  0.285233  1
  Dy  Dy2  1  0.750000  0.533652  0.785233  1
  Dy  Dy3  1  0.750000  0.033652  0.714767  1
  Tm  Tm4  1  0.250000  0.826135  0.941075  1
  Tm  Tm5  1  0.250000  0.326135  0.558925  1
  Tm  Tm6  1  0.750000  0.173865  0.058925  1
  Tm  Tm7  1  0.750000  0.673865  0.441075  1
  Tc  Tc8  1  0.250000  0.280891  0.866851  1
  Tc  Tc9  1  0.250000  0.780891  0.633149  1
  Tc  Tc10  1  0.750000  0.719109  0.133149  1
  Tc  Tc11  1  0.750000  0.219109  0.366851  1
  C  C12  1  0.250000  0.049251  0.740551  1
  C  C13  1  0.250000  0.549251  0.759449  1
  C  C14  1  0.750000  0.950749  0.259449  1
  C  C15  1  0.750000  0.450749  0.240551  1
  C  C16  1  0.250000  0.674341  0.450443  1
  C  C17  1  0.250000  0.174341  0.049557  1
  C  C18  1  0.750000  0.325659  0.549557  1
  C  C19  1  0.750000  0.825659  0.950443  1
