# generated using pymatgen
data_DyEr6Sn23Ru6
_symmetry_space_group_name_H-M   'P 1'
_cell_length_a   9.83052500
_cell_length_b   9.83052405
_cell_length_c   10.07524500
_cell_angle_alpha   90.00000000
_cell_angle_beta   90.00000000
_cell_angle_gamma   120.00000655
_symmetry_Int_Tables_number   1
_chemical_formula_structural   DyEr6Sn23Ru6
_chemical_formula_sum   'Dy1 Er6 Sn23 Ru6'
_cell_volume   843.21747979
_cell_formula_units_Z   1
loop_
 _symmetry_equiv_pos_site_id
 _symmetry_equiv_pos_as_xyz
  1  'x, y, z'
loop_
 _atom_site_type_symbol
 _atom_site_label
 _atom_site_symmetry_multiplicity
 _atom_site_fract_x
 _atom_site_fract_y
 _atom_site_fract_z
 _atom_site_occupancy
  Dy  Dy0  1  0.000000  0.000000  0.000000  1
  Er  Er1  1  0.485164  0.514836  0.302562  1
  Er  Er2  1  0.514836  0.485164  0.697438  1
  Er  Er3  1  0.485164  0.970330  0.302562  1
  Er  Er4  1  0.514836  0.029670  0.697438  1
  Er  Er5  1  0.029670  0.514836  0.302562  1
  Er  Er6  1  0.970330  0.485164  0.697438  1
  Sn  Sn7  1  0.118905  0.881095  0.274628  1
  Sn  Sn8  1  0.881095  0.118905  0.725372  1
  Sn  Sn9  1  0.118905  0.237808  0.274628  1
  Sn  Sn10  1  0.881095  0.762192  0.725372  1
  Sn  Sn11  1  0.762192  0.881095  0.274628  1
  Sn  Sn12  1  0.237808  0.118905  0.725372  1
  Sn  Sn13  1  0.779714  0.220286  0.462706  1
  Sn  Sn14  1  0.220286  0.779714  0.537294  1
  Sn  Sn15  1  0.779714  0.559429  0.462706  1
  Sn  Sn16  1  0.220286  0.440571  0.537294  1
  Sn  Sn17  1  0.440571  0.220286  0.462706  1
  Sn  Sn18  1  0.559429  0.779714  0.537294  1
  Sn  Sn19  1  0.349252  0.000000  0.000000  1
  Sn  Sn20  1  0.650748  0.000000  0.000000  1
  Sn  Sn21  1  0.000000  0.349252  0.000000  1
  Sn  Sn22  1  0.000000  0.650748  0.000000  1
  Sn  Sn23  1  0.650748  0.650748  0.000000  1
  Sn  Sn24  1  0.349252  0.349252  0.000000  1
  Sn  Sn25  1  0.333333  0.666667  0.129123  1
  Sn  Sn26  1  0.666667  0.333333  0.870877  1
  Sn  Sn27  1  0.333333  0.666667  0.822284  1
  Sn  Sn28  1  0.666667  0.333333  0.177716  1
  Sn  Sn29  1  0.000000  0.000000  0.500000  1
  Ru  Ru30  1  0.829595  0.170405  0.202814  1
  Ru  Ru31  1  0.170405  0.829595  0.797186  1
  Ru  Ru32  1  0.829595  0.659191  0.202814  1
  Ru  Ru33  1  0.170405  0.340809  0.797186  1
  Ru  Ru34  1  0.340809  0.170405  0.202814  1
  Ru  Ru35  1  0.659191  0.829595  0.797186  1
