# generated using pymatgen
data_Sm3AgO6
_symmetry_space_group_name_H-M   'P 1'
_cell_length_a   3.72923412
_cell_length_b   5.67664213
_cell_length_c   7.16115252
_cell_angle_alpha   90.61199895
_cell_angle_beta   102.77783238
_cell_angle_gamma   91.10303674
_symmetry_Int_Tables_number   1
_chemical_formula_structural   Sm3AgO6
_chemical_formula_sum   'Sm3 Ag1 O6'
_cell_volume   147.79913907
_cell_formula_units_Z   1
loop_
 _symmetry_equiv_pos_site_id
 _symmetry_equiv_pos_as_xyz
  1  'x, y, z'
loop_
 _atom_site_type_symbol
 _atom_site_label
 _atom_site_symmetry_multiplicity
 _atom_site_fract_x
 _atom_site_fract_y
 _atom_site_fract_z
 _atom_site_occupancy
  Sm  Sm0  1  0.609883  0.529348  0.765517  1
  Sm  Sm1  1  0.390117  0.470652  0.234483  1
  Sm  Sm2  1  0.000000  0.000000  0.500000  1
  Ag  Ag3  1  0.000000  0.000000  0.000000  1
  O  O4  1  0.844020  0.693856  0.114872  1
  O  O5  1  0.155980  0.306144  0.885128  1
  O  O6  1  0.517760  0.255859  0.522359  1
  O  O7  1  0.482240  0.744141  0.477641  1
  O  O8  1  0.125077  0.793332  0.791048  1
  O  O9  1  0.874923  0.206668  0.208952  1
