# generated using pymatgen
data_CdHgP2O7
_symmetry_space_group_name_H-M   'P 1'
_cell_length_a   6.84254207
_cell_length_b   7.00238652
_cell_length_c   6.90417245
_cell_angle_alpha   66.81691819
_cell_angle_beta   80.00785598
_cell_angle_gamma   79.98849248
_symmetry_Int_Tables_number   1
_chemical_formula_structural   CdHgP2O7
_chemical_formula_sum   'Cd2 Hg2 P4 O14'
_cell_volume   297.44055697
_cell_formula_units_Z   2
loop_
 _symmetry_equiv_pos_site_id
 _symmetry_equiv_pos_as_xyz
  1  'x, y, z'
loop_
 _atom_site_type_symbol
 _atom_site_label
 _atom_site_symmetry_multiplicity
 _atom_site_fract_x
 _atom_site_fract_y
 _atom_site_fract_z
 _atom_site_occupancy
  Cd  Cd0  1  0.332492  0.744577  0.894584  1
  Cd  Cd1  1  0.667508  0.255423  0.105416  1
  Hg  Hg2  1  0.820953  0.635736  0.301253  1
  Hg  Hg3  1  0.179047  0.364264  0.698747  1
  P  P4  1  0.845246  0.735667  0.785964  1
  P  P5  1  0.154754  0.264333  0.214036  1
  P  P6  1  0.373019  0.831362  0.356177  1
  P  P7  1  0.626981  0.168638  0.643823  1
  O  O8  1  0.992485  0.766266  0.911709  1
  O  O9  1  0.007515  0.233734  0.088291  1
  O  O10  1  0.755165  0.958020  0.622203  1
  O  O11  1  0.244835  0.041980  0.377797  1
  O  O12  1  0.588433  0.899679  0.256621  1
  O  O13  1  0.411567  0.100321  0.743379  1
  O  O14  1  0.944035  0.627884  0.629745  1
  O  O15  1  0.055965  0.372116  0.370255  1
  O  O16  1  0.667652  0.630062  0.936099  1
  O  O17  1  0.332348  0.369938  0.063901  1
  O  O18  1  0.724064  0.236429  0.782291  1
  O  O19  1  0.275936  0.763571  0.217709  1
  O  O20  1  0.377484  0.677988  0.586608  1
  O  O21  1  0.622516  0.322012  0.413392  1
