# generated using pymatgen
data_CeY2Ho13(CdRu)4
_symmetry_space_group_name_H-M   'P 1'
_cell_length_a   9.65663114
_cell_length_b   9.65560755
_cell_length_c   9.65462375
_cell_angle_alpha   59.40092015
_cell_angle_beta   59.39057937
_cell_angle_gamma   59.38512473
_symmetry_Int_Tables_number   1
_chemical_formula_structural   CeY2Ho13(CdRu)4
_chemical_formula_sum   'Ce1 Y2 Ho13 Cd4 Ru4'
_cell_volume   627.73532700
_cell_formula_units_Z   1
loop_
 _symmetry_equiv_pos_site_id
 _symmetry_equiv_pos_as_xyz
  1  'x, y, z'
loop_
 _atom_site_type_symbol
 _atom_site_label
 _atom_site_symmetry_multiplicity
 _atom_site_fract_x
 _atom_site_fract_y
 _atom_site_fract_z
 _atom_site_occupancy
  Ce  Ce0  1  0.342495  0.342409  0.342784  1
  Y  Y1  1  0.562343  0.562597  0.937876  1
  Y  Y2  1  0.938675  0.561314  0.938460  1
  Ho  Ho3  1  0.560867  0.939045  0.938604  1
  Ho  Ho4  1  0.938565  0.938788  0.560905  1
  Ho  Ho5  1  0.562461  0.938189  0.562202  1
  Ho  Ho6  1  0.938209  0.562427  0.561947  1
  Ho  Ho7  1  0.189196  0.188869  0.812324  1
  Ho  Ho8  1  0.811065  0.187582  0.810900  1
  Ho  Ho9  1  0.187755  0.811128  0.810852  1
  Ho  Ho10  1  0.810893  0.811015  0.187944  1
  Ho  Ho11  1  0.188898  0.812451  0.189203  1
  Ho  Ho12  1  0.812399  0.188711  0.189340  1
  Ho  Ho13  1  0.346984  0.346641  0.957003  1
  Ho  Ho14  1  0.346813  0.957048  0.346854  1
  Ho  Ho15  1  0.957031  0.346689  0.347077  1
  Cd  Cd16  1  0.579672  0.579844  0.257979  1
  Cd  Cd17  1  0.579849  0.257601  0.579837  1
  Cd  Cd18  1  0.257813  0.579838  0.579652  1
  Cd  Cd19  1  0.579782  0.579776  0.579664  1
  Ru  Ru20  1  0.146595  0.146644  0.575356  1
  Ru  Ru21  1  0.146409  0.575489  0.146761  1
  Ru  Ru22  1  0.575421  0.146394  0.146709  1
  Ru  Ru23  1  0.139807  0.139514  0.139766  1
