# generated using pymatgen
data_YHo3Al17SiIr6
_symmetry_space_group_name_H-M   'P 1'
_cell_length_a   7.55171701
_cell_length_b   7.55150849
_cell_length_c   9.41299600
_cell_angle_alpha   90.00000000
_cell_angle_beta   90.00000000
_cell_angle_gamma   119.68539504
_symmetry_Int_Tables_number   1
_chemical_formula_structural   YHo3Al17SiIr6
_chemical_formula_sum   'Y1 Ho3 Al17 Si1 Ir6'
_cell_volume   466.34358179
_cell_formula_units_Z   1
loop_
 _symmetry_equiv_pos_site_id
 _symmetry_equiv_pos_as_xyz
  1  'x, y, z'
loop_
 _atom_site_type_symbol
 _atom_site_label
 _atom_site_symmetry_multiplicity
 _atom_site_fract_x
 _atom_site_fract_y
 _atom_site_fract_z
 _atom_site_occupancy
  Y  Y0  1  0.004071  0.330548  0.750000  1
  Ho  Ho1  1  0.994497  0.675650  0.250000  1
  Ho  Ho2  1  0.675703  0.994490  0.250000  1
  Ho  Ho3  1  0.330583  0.004026  0.750000  1
  Al  Al4  1  0.874821  0.874699  0.750000  1
  Al  Al5  1  0.000662  0.336876  0.077205  1
  Al  Al6  1  0.998909  0.665856  0.925093  1
  Al  Al7  1  0.998909  0.665856  0.574907  1
  Al  Al8  1  0.336857  0.000653  0.422908  1
  Al  Al9  1  0.000662  0.336876  0.422795  1
  Al  Al10  1  0.665629  0.998795  0.574924  1
  Al  Al11  1  0.665629  0.998795  0.925076  1
  Al  Al12  1  0.336857  0.000653  0.077092  1
  Al  Al13  1  0.332493  0.332389  0.557013  1
  Al  Al14  1  0.663604  0.663600  0.447430  1
  Al  Al15  1  0.663604  0.663600  0.052570  1
  Al  Al16  1  0.332493  0.332389  0.942987  1
  Al  Al17  1  0.336353  0.549235  0.250000  1
  Al  Al18  1  0.661100  0.452053  0.750000  1
  Al  Al19  1  0.549245  0.336367  0.250000  1
  Al  Al20  1  0.452166  0.661317  0.750000  1
  Si  Si21  1  0.130579  0.130548  0.250000  1
  Ir  Ir22  1  0.670262  0.326600  0.000286  1
  Ir  Ir23  1  0.326669  0.670386  0.000277  1
  Ir  Ir24  1  0.326669  0.670386  0.499723  1
  Ir  Ir25  1  0.670262  0.326600  0.499714  1
  Ir  Ir26  1  0.000356  0.000377  0.007311  1
  Ir  Ir27  1  0.000356  0.000377  0.492689  1
