# generated using pymatgen
data_Yb5Er4LuSn8
_symmetry_space_group_name_H-M   'P 1'
_cell_length_a   7.79892900
_cell_length_b   8.39698700
_cell_length_c   15.82163800
_cell_angle_alpha   90.00000000
_cell_angle_beta   90.00000000
_cell_angle_gamma   90.00000000
_symmetry_Int_Tables_number   1
_chemical_formula_structural   Yb5Er4LuSn8
_chemical_formula_sum   'Yb10 Er8 Lu2 Sn16'
_cell_volume   1036.11960439
_cell_formula_units_Z   2
loop_
 _symmetry_equiv_pos_site_id
 _symmetry_equiv_pos_as_xyz
  1  'x, y, z'
loop_
 _atom_site_type_symbol
 _atom_site_label
 _atom_site_symmetry_multiplicity
 _atom_site_fract_x
 _atom_site_fract_y
 _atom_site_fract_z
 _atom_site_occupancy
  Yb  Yb0  1  0.502130  0.684332  0.593613  1
  Yb  Yb1  1  0.002130  0.815668  0.906387  1
  Yb  Yb2  1  0.496003  0.312146  0.091083  1
  Yb  Yb3  1  0.996003  0.187854  0.408917  1
  Yb  Yb4  1  0.496003  0.312146  0.408917  1
  Yb  Yb5  1  0.996003  0.187854  0.091083  1
  Yb  Yb6  1  0.502130  0.684332  0.906387  1
  Yb  Yb7  1  0.002130  0.815668  0.593613  1
  Yb  Yb8  1  0.164169  0.489136  0.250000  1
  Yb  Yb9  1  0.664169  0.010864  0.250000  1
  Er  Er10  1  0.675460  0.162007  0.623854  1
  Er  Er11  1  0.175460  0.337993  0.876146  1
  Er  Er12  1  0.326329  0.835069  0.121470  1
  Er  Er13  1  0.826329  0.664931  0.378530  1
  Er  Er14  1  0.326329  0.835069  0.378530  1
  Er  Er15  1  0.826329  0.664931  0.121470  1
  Er  Er16  1  0.675460  0.162007  0.876146  1
  Er  Er17  1  0.175460  0.337993  0.623854  1
  Lu  Lu18  1  0.838185  0.508842  0.750000  1
  Lu  Lu19  1  0.338185  0.991158  0.750000  1
  Sn  Sn20  1  0.672354  0.962340  0.460188  1
  Sn  Sn21  1  0.172354  0.537660  0.039812  1
  Sn  Sn22  1  0.328060  0.035594  0.955839  1
  Sn  Sn23  1  0.828060  0.464406  0.544161  1
  Sn  Sn24  1  0.328060  0.035594  0.544161  1
  Sn  Sn25  1  0.828060  0.464406  0.955839  1
  Sn  Sn26  1  0.672354  0.962340  0.039812  1
  Sn  Sn27  1  0.172354  0.537660  0.460188  1
  Sn  Sn28  1  0.476784  0.370739  0.750000  1
  Sn  Sn29  1  0.976784  0.129261  0.750000  1
  Sn  Sn30  1  0.527795  0.627808  0.250000  1
  Sn  Sn31  1  0.027795  0.872192  0.250000  1
  Sn  Sn32  1  0.711057  0.860998  0.750000  1
  Sn  Sn33  1  0.211057  0.639002  0.750000  1
  Sn  Sn34  1  0.281337  0.127605  0.250000  1
  Sn  Sn35  1  0.781337  0.372395  0.250000  1
