# generated using pymatgen
data_Ho16Cd4NiIr2Rh
_symmetry_space_group_name_H-M   'P 1'
_cell_length_a   9.56685973
_cell_length_b   9.56686042
_cell_length_c   9.54984104
_cell_angle_alpha   60.13505465
_cell_angle_beta   60.13505284
_cell_angle_gamma   60.22682197
_symmetry_Int_Tables_number   1
_chemical_formula_structural   Ho16Cd4NiIr2Rh
_chemical_formula_sum   'Ho16 Cd4 Ni1 Ir2 Rh1'
_cell_volume   620.36244853
_cell_formula_units_Z   1
loop_
 _symmetry_equiv_pos_site_id
 _symmetry_equiv_pos_as_xyz
  1  'x, y, z'
loop_
 _atom_site_type_symbol
 _atom_site_label
 _atom_site_symmetry_multiplicity
 _atom_site_fract_x
 _atom_site_fract_y
 _atom_site_fract_z
 _atom_site_occupancy
  Ho  Ho0  1  0.598993  0.598993  0.598832  1
  Ho  Ho1  1  0.598303  0.598303  0.203160  1
  Ho  Ho2  1  0.598387  0.202865  0.597933  1
  Ho  Ho3  1  0.202865  0.598387  0.597933  1
  Ho  Ho4  1  0.061483  0.440137  0.439427  1
  Ho  Ho5  1  0.438267  0.060008  0.060665  1
  Ho  Ho6  1  0.440137  0.061483  0.439427  1
  Ho  Ho7  1  0.060008  0.438267  0.060665  1
  Ho  Ho8  1  0.439852  0.439852  0.061783  1
  Ho  Ho9  1  0.060112  0.060112  0.438175  1
  Ho  Ho10  1  0.187956  0.813483  0.811875  1
  Ho  Ho11  1  0.814091  0.186960  0.186966  1
  Ho  Ho12  1  0.813483  0.187956  0.811875  1
  Ho  Ho13  1  0.186960  0.814091  0.186966  1
  Ho  Ho14  1  0.811826  0.811826  0.188563  1
  Ho  Ho15  1  0.186383  0.186383  0.814296  1
  Cd  Cd16  1  0.830656  0.830656  0.830465  1
  Cd  Cd17  1  0.831695  0.831695  0.505897  1
  Cd  Cd18  1  0.831637  0.505824  0.831627  1
  Cd  Cd19  1  0.505824  0.831637  0.831627  1
  Ni  Ni20  1  0.392286  0.392286  0.392206  1
  Ir  Ir21  1  0.392324  0.824207  0.392627  1
  Ir  Ir22  1  0.824207  0.392324  0.392627  1
  Rh  Rh23  1  0.392267  0.392267  0.824386  1
