# generated using pymatgen
data_Tb8GaSi11Pt4
_symmetry_space_group_name_H-M   'P 1'
_cell_length_a   8.20520600
_cell_length_b   8.19438977
_cell_length_c   8.18206100
_cell_angle_alpha   89.99759473
_cell_angle_beta   90.00000000
_cell_angle_gamma   120.04368146
_symmetry_Int_Tables_number   1
_chemical_formula_structural   Tb8GaSi11Pt4
_chemical_formula_sum   'Tb8 Ga1 Si11 Pt4'
_cell_volume   476.22053865
_cell_formula_units_Z   1
loop_
 _symmetry_equiv_pos_site_id
 _symmetry_equiv_pos_as_xyz
  1  'x, y, z'
loop_
 _atom_site_type_symbol
 _atom_site_label
 _atom_site_symmetry_multiplicity
 _atom_site_fract_x
 _atom_site_fract_y
 _atom_site_fract_z
 _atom_site_occupancy
  Tb  Tb0  1  0.997912  0.995824  0.251833  1
  Tb  Tb1  1  0.997862  0.995723  0.748096  1
  Tb  Tb2  1  0.000064  0.501570  0.249872  1
  Tb  Tb3  1  0.501507  0.501570  0.249872  1
  Tb  Tb4  1  0.500763  0.001526  0.750253  1
  Tb  Tb5  1  0.499842  0.999683  0.249811  1
  Tb  Tb6  1  0.502452  0.500701  0.750130  1
  Tb  Tb7  1  0.998247  0.500701  0.750130  1
  Ga  Ga8  1  0.164911  0.329822  0.999429  1
  Si  Si9  1  0.668452  0.834195  0.999610  1
  Si  Si10  1  0.165068  0.330134  0.500580  1
  Si  Si11  1  0.332806  0.163624  0.000448  1
  Si  Si12  1  0.165744  0.834195  0.999610  1
  Si  Si13  1  0.668571  0.834841  0.500517  1
  Si  Si14  1  0.834269  0.668539  0.000346  1
  Si  Si15  1  0.330771  0.165643  0.499482  1
  Si  Si16  1  0.166271  0.834841  0.500517  1
  Si  Si17  1  0.834694  0.669389  0.499472  1
  Si  Si18  1  0.830819  0.163624  0.000448  1
  Si  Si19  1  0.834871  0.165643  0.499482  1
  Pt  Pt20  1  0.337560  0.675119  0.998831  1
  Pt  Pt21  1  0.333031  0.666064  0.500716  1
  Pt  Pt22  1  0.666929  0.333857  0.001204  1
  Pt  Pt23  1  0.666585  0.333171  0.499313  1
