# generated using pymatgen
data_Ho10CdIn5(HgPd2)2
_symmetry_space_group_name_H-M   'P 1'
_cell_length_a   3.60760900
_cell_length_b   8.07891284
_cell_length_c   18.28966018
_cell_angle_alpha   89.90930561
_cell_angle_beta   90.00000000
_cell_angle_gamma   90.00000000
_symmetry_Int_Tables_number   1
_chemical_formula_structural   Ho10CdIn5(HgPd2)2
_chemical_formula_sum   'Ho10 Cd1 In5 Hg2 Pd4'
_cell_volume   533.06169612
_cell_formula_units_Z   1
loop_
 _symmetry_equiv_pos_site_id
 _symmetry_equiv_pos_as_xyz
  1  'x, y, z'
loop_
 _atom_site_type_symbol
 _atom_site_label
 _atom_site_symmetry_multiplicity
 _atom_site_fract_x
 _atom_site_fract_y
 _atom_site_fract_z
 _atom_site_occupancy
  Ho  Ho0  1  0.000000  0.503328  0.497620  1
  Ho  Ho1  1  0.000000  0.003019  0.001242  1
  Ho  Ho2  1  0.000000  0.744119  0.284635  1
  Ho  Ho3  1  0.000000  0.256578  0.719290  1
  Ho  Ho4  1  0.000000  0.755588  0.782621  1
  Ho  Ho5  1  0.000000  0.243858  0.215149  1
  Ho  Ho6  1  0.000000  0.610041  0.084352  1
  Ho  Ho7  1  0.000000  0.388958  0.917126  1
  Ho  Ho8  1  0.000000  0.883284  0.583766  1
  Ho  Ho9  1  0.000000  0.109679  0.415394  1
  Cd  Cd10  1  0.500000  0.713172  0.933097  1
  In  In11  1  0.500000  0.210033  0.567224  1
  In  In12  1  0.500000  0.577226  0.649105  1
  In  In13  1  0.500000  0.417556  0.350137  1
  In  In14  1  0.500000  0.919171  0.148835  1
  In  In15  1  0.500000  0.079291  0.851894  1
  Hg  Hg16  1  0.500000  0.290061  0.065745  1
  Hg  Hg17  1  0.500000  0.789306  0.433369  1
  Pd  Pd18  1  0.500000  0.530513  0.198207  1
  Pd  Pd19  1  0.500000  0.472512  0.803195  1
  Pd  Pd20  1  0.500000  0.972313  0.696621  1
  Pd  Pd21  1  0.500000  0.030393  0.301377  1
