# generated using pymatgen
data_Ta7TiNb4(BOs)12
_symmetry_space_group_name_H-M   'P 1'
_cell_length_a   3.10884000
_cell_length_b   9.09641096
_cell_length_c   15.79772425
_cell_angle_alpha   90.13088336
_cell_angle_beta   90.00000000
_cell_angle_gamma   90.00000000
_symmetry_Int_Tables_number   1
_chemical_formula_structural   Ta7TiNb4(BOs)12
_chemical_formula_sum   'Ta7 Ti1 Nb4 B12 Os12'
_cell_volume   446.74720077
_cell_formula_units_Z   1
loop_
 _symmetry_equiv_pos_site_id
 _symmetry_equiv_pos_as_xyz
  1  'x, y, z'
loop_
 _atom_site_type_symbol
 _atom_site_label
 _atom_site_symmetry_multiplicity
 _atom_site_fract_x
 _atom_site_fract_y
 _atom_site_fract_z
 _atom_site_occupancy
  Ta  Ta0  1  0.000000  0.799921  0.494985  1
  Ta  Ta1  1  0.000000  0.200031  0.504016  1
  Ta  Ta2  1  0.000000  0.298214  0.004637  1
  Ta  Ta3  1  0.000000  0.702078  0.996874  1
  Ta  Ta4  1  0.000000  0.516676  0.593765  1
  Ta  Ta5  1  0.000000  0.483909  0.405634  1
  Ta  Ta6  1  0.000000  0.016112  0.907470  1
  Ti  Ti7  1  0.000000  0.985075  0.094463  1
  Nb  Nb8  1  0.000000  0.686629  0.201384  1
  Nb  Nb9  1  0.000000  0.313247  0.798125  1
  Nb  Nb10  1  0.000000  0.186051  0.296600  1
  Nb  Nb11  1  0.000000  0.812609  0.702293  1
  B  B12  1  0.500000  0.605672  0.496925  1
  B  B13  1  0.500000  0.394364  0.502607  1
  B  B14  1  0.500000  0.102850  0.006451  1
  B  B15  1  0.500000  0.897131  0.998837  1
  B  B16  1  0.000000  0.609503  0.833325  1
  B  B17  1  0.000000  0.386303  0.166575  1
  B  B18  1  0.000000  0.109651  0.667592  1
  B  B19  1  0.000000  0.891210  0.329729  1
  B  B20  1  0.500000  0.715797  0.597695  1
  B  B21  1  0.500000  0.284601  0.401603  1
  B  B22  1  0.500000  0.214768  0.901763  1
  B  B23  1  0.500000  0.791622  0.099563  1
  Os  Os24  1  0.500000  0.718796  0.355626  1
  Os  Os25  1  0.500000  0.281369  0.644028  1
  Os  Os26  1  0.500000  0.215892  0.142576  1
  Os  Os27  1  0.500000  0.781796  0.857382  1
  Os  Os28  1  0.500000  0.515973  0.092891  1
  Os  Os29  1  0.500000  0.484279  0.907588  1
  Os  Os30  1  0.500000  0.015076  0.405915  1
  Os  Os31  1  0.500000  0.985028  0.593010  1
  Os  Os32  1  0.500000  0.560717  0.735416  1
  Os  Os33  1  0.500000  0.437944  0.264541  1
  Os  Os34  1  0.500000  0.061778  0.766140  1
  Os  Os35  1  0.500000  0.937328  0.231976  1
