# generated using pymatgen
data_DySc3(Be4Ru5)2
_symmetry_space_group_name_H-M   'P 1'
_cell_length_a   3.20504500
_cell_length_b   8.77151811
_cell_length_c   10.19089851
_cell_angle_alpha   89.89219034
_cell_angle_beta   90.00000000
_cell_angle_gamma   90.00000000
_symmetry_Int_Tables_number   1
_chemical_formula_structural   DySc3(Be4Ru5)2
_chemical_formula_sum   'Dy1 Sc3 Be8 Ru10'
_cell_volume   286.49734622
_cell_formula_units_Z   1
loop_
 _symmetry_equiv_pos_site_id
 _symmetry_equiv_pos_as_xyz
  1  'x, y, z'
loop_
 _atom_site_type_symbol
 _atom_site_label
 _atom_site_symmetry_multiplicity
 _atom_site_fract_x
 _atom_site_fract_y
 _atom_site_fract_z
 _atom_site_occupancy
  Dy  Dy0  1  0.500000  0.839652  0.182151  1
  Sc  Sc1  1  0.500000  0.171145  0.814513  1
  Sc  Sc2  1  0.500000  0.665423  0.684586  1
  Sc  Sc3  1  0.500000  0.331621  0.316024  1
  Be  Be4  1  0.500000  0.966027  0.596255  1
  Be  Be5  1  0.500000  0.036135  0.408170  1
  Be  Be6  1  0.500000  0.835594  0.903964  1
  Be  Be7  1  0.500000  0.159623  0.094715  1
  Be  Be8  1  0.500000  0.662038  0.411066  1
  Be  Be9  1  0.500000  0.338470  0.592437  1
  Be  Be10  1  0.500000  0.462733  0.905066  1
  Be  Be11  1  0.500000  0.531006  0.093768  1
  Ru  Ru12  1  0.000000  0.653528  0.950376  1
  Ru  Ru13  1  0.000000  0.340553  0.043427  1
  Ru  Ru14  1  0.000000  0.841725  0.459713  1
  Ru  Ru15  1  0.000000  0.156557  0.547356  1
  Ru  Ru16  1  0.000000  0.008301  0.988153  1
  Ru  Ru17  1  0.000000  0.411274  0.752067  1
  Ru  Ru18  1  0.000000  0.579902  0.250295  1
  Ru  Ru19  1  0.000000  0.500356  0.501057  1
  Ru  Ru20  1  0.000000  0.910036  0.747352  1
  Ru  Ru21  1  0.000000  0.098301  0.257490  1
