# generated using pymatgen
data_Zn5Cd(AsO4)4
_symmetry_space_group_name_H-M   'P 1'
_cell_length_a   8.88773745
_cell_length_b   5.34981729
_cell_length_c   9.11105742
_cell_angle_alpha   60.60353805
_cell_angle_beta   90.03145639
_cell_angle_gamma   89.75079866
_symmetry_Int_Tables_number   1
_chemical_formula_structural   Zn5Cd(AsO4)4
_chemical_formula_sum   'Zn5 Cd1 As4 O16'
_cell_volume   377.42672067
_cell_formula_units_Z   1
loop_
 _symmetry_equiv_pos_site_id
 _symmetry_equiv_pos_as_xyz
  1  'x, y, z'
loop_
 _atom_site_type_symbol
 _atom_site_label
 _atom_site_symmetry_multiplicity
 _atom_site_fract_x
 _atom_site_fract_y
 _atom_site_fract_z
 _atom_site_occupancy
  Zn  Zn0  1  0.137337  0.460722  0.112973  1
  Zn  Zn1  1  0.634485  0.513429  0.389707  1
  Zn  Zn2  1  0.862663  0.539278  0.887027  1
  Zn  Zn3  1  0.365515  0.486571  0.610293  1
  Zn  Zn4  1  0.500000  0.500000  0.000000  1
  Cd  Cd5  1  0.000000  0.500000  0.500000  1
  As  As6  1  0.312471  0.843872  0.189324  1
  As  As7  1  0.796958  0.155755  0.296124  1
  As  As8  1  0.687529  0.156128  0.810676  1
  As  As9  1  0.203042  0.844245  0.703876  1
  O  O10  1  0.073584  0.691114  0.866304  1
  O  O11  1  0.569701  0.306977  0.636655  1
  O  O12  1  0.926416  0.308886  0.133696  1
  O  O13  1  0.430299  0.693023  0.363345  1
  O  O14  1  0.207138  0.203838  0.640716  1
  O  O15  1  0.697129  0.794231  0.877389  1
  O  O16  1  0.792862  0.796162  0.359284  1
  O  O17  1  0.302871  0.205769  0.122611  1
  O  O18  1  0.155684  0.796354  0.536819  1
  O  O19  1  0.629274  0.214994  0.969907  1
  O  O20  1  0.139231  0.670775  0.244039  1
  O  O21  1  0.625543  0.336788  0.237069  1
  O  O22  1  0.860769  0.329225  0.755961  1
  O  O23  1  0.374457  0.663212  0.762931  1
  O  O24  1  0.370726  0.785006  0.030093  1
  O  O25  1  0.844316  0.203646  0.463181  1
