# generated using pymatgen
data_SrNp3O10
_symmetry_space_group_name_H-M   'P 1'
_cell_length_a   10.79909764
_cell_length_b   9.35690927
_cell_length_c   7.86961100
_cell_angle_alpha   77.10643938
_cell_angle_beta   57.62977965
_cell_angle_gamma   45.26376921
_symmetry_Int_Tables_number   1
_chemical_formula_structural   SrNp3O10
_chemical_formula_sum   'Sr2 Np6 O20'
_cell_volume   461.17391983
_cell_formula_units_Z   2
loop_
 _symmetry_equiv_pos_site_id
 _symmetry_equiv_pos_as_xyz
  1  'x, y, z'
loop_
 _atom_site_type_symbol
 _atom_site_label
 _atom_site_symmetry_multiplicity
 _atom_site_fract_x
 _atom_site_fract_y
 _atom_site_fract_z
 _atom_site_occupancy
  Sr  Sr0  1  0.005407  0.994593  0.994593  1
  Sr  Sr1  1  0.255407  0.244593  0.244593  1
  Np  Np2  1  0.505560  0.494440  0.494440  1
  Np  Np3  1  0.755560  0.744440  0.744440  1
  Np  Np4  1  0.259989  0.246256  0.739804  1
  Np  Np5  1  0.753950  0.739804  0.246256  1
  Np  Np6  1  0.510196  0.496050  0.990011  1
  Np  Np7  1  0.003744  0.990011  0.496050  1
  O  O8  1  0.154418  0.131339  0.844139  1
  O  O9  1  0.870103  0.844139  0.131339  1
  O  O10  1  0.405861  0.379897  0.095582  1
  O  O11  1  0.118661  0.095582  0.379897  1
  O  O12  1  0.809988  0.194981  0.791028  1
  O  O13  1  0.204002  0.791028  0.194981  1
  O  O14  1  0.458972  0.045998  0.440012  1
  O  O15  1  0.055019  0.440012  0.045998  1
  O  O16  1  0.845892  0.649315  0.464744  1
  O  O17  1  0.040050  0.464744  0.649315  1
  O  O18  1  0.785256  0.209950  0.404108  1
  O  O19  1  0.600685  0.404108  0.209950  1
  O  O20  1  0.634427  0.629305  0.364598  1
  O  O21  1  0.371670  0.364598  0.629305  1
  O  O22  1  0.885402  0.878330  0.615573  1
  O  O23  1  0.620695  0.615573  0.878330  1
  O  O24  1  0.476848  0.028900  0.833756  1
  O  O25  1  0.660496  0.833756  0.028900  1
  O  O26  1  0.416244  0.589504  0.773152  1
  O  O27  1  0.221100  0.773152  0.589504  1
