# generated using pymatgen
data_Ho6CrFe4Co13P12
_symmetry_space_group_name_H-M   'P 1'
_cell_length_a   3.68964200
_cell_length_b   10.55235909
_cell_length_c   12.11524317
_cell_angle_alpha   90.01725687
_cell_angle_beta   90.00000000
_cell_angle_gamma   90.00000000
_symmetry_Int_Tables_number   1
_chemical_formula_structural   Ho6CrFe4Co13P12
_chemical_formula_sum   'Ho6 Cr1 Fe4 Co13 P12'
_cell_volume   471.70003319
_cell_formula_units_Z   1
loop_
 _symmetry_equiv_pos_site_id
 _symmetry_equiv_pos_as_xyz
  1  'x, y, z'
loop_
 _atom_site_type_symbol
 _atom_site_label
 _atom_site_symmetry_multiplicity
 _atom_site_fract_x
 _atom_site_fract_y
 _atom_site_fract_z
 _atom_site_occupancy
  Ho  Ho0  1  0.000000  0.499796  0.524101  1
  Ho  Ho1  1  0.500000  0.998959  0.477118  1
  Ho  Ho2  1  0.500000  0.819277  0.204067  1
  Ho  Ho3  1  0.500000  0.181002  0.204727  1
  Ho  Ho4  1  0.000000  0.680359  0.796681  1
  Ho  Ho5  1  0.000000  0.319482  0.796517  1
  Cr  Cr6  1  0.500000  0.500372  0.153485  1
  Fe  Fe7  1  0.000000  0.499837  0.987861  1
  Fe  Fe8  1  0.500000  0.999992  0.011359  1
  Fe  Fe9  1  0.000000  0.202877  0.570474  1
  Fe  Fe10  1  0.000000  0.000162  0.843122  1
  Co  Co11  1  0.500000  0.297044  0.429750  1
  Co  Co12  1  0.500000  0.703849  0.430398  1
  Co  Co13  1  0.000000  0.796463  0.569840  1
  Co  Co14  1  0.500000  0.878800  0.709164  1
  Co  Co15  1  0.500000  0.119494  0.710315  1
  Co  Co16  1  0.000000  0.621233  0.291033  1
  Co  Co17  1  0.000000  0.379787  0.290971  1
  Co  Co18  1  0.500000  0.330904  0.993959  1
  Co  Co19  1  0.500000  0.668978  0.993478  1
  Co  Co20  1  0.000000  0.167246  0.005425  1
  Co  Co21  1  0.000000  0.832804  0.005031  1
  Co  Co22  1  0.500000  0.499502  0.700560  1
  Co  Co23  1  0.000000  0.000543  0.298509  1
  P  P24  1  0.500000  0.308513  0.616595  1
  P  P25  1  0.500000  0.689105  0.617060  1
  P  P26  1  0.000000  0.189430  0.385553  1
  P  P27  1  0.000000  0.811365  0.383708  1
  P  P28  1  0.500000  0.499585  0.883522  1
  P  P29  1  0.000000  0.000281  0.115916  1
  P  P30  1  0.500000  0.848312  0.892224  1
  P  P31  1  0.500000  0.151671  0.892858  1
  P  P32  1  0.000000  0.653963  0.105644  1
  P  P33  1  0.000000  0.346441  0.105830  1
  P  P34  1  0.500000  0.499646  0.346745  1
  P  P35  1  0.000000  0.002925  0.656397  1
