# generated using pymatgen
data_Tb3In2Rh2PbAu
_symmetry_space_group_name_H-M   'P 1'
_cell_length_a   7.81276900
_cell_length_b   7.81284698
_cell_length_c   3.81839200
_cell_angle_alpha   90.00000000
_cell_angle_beta   90.00000000
_cell_angle_gamma   119.74761286
_symmetry_Int_Tables_number   1
_chemical_formula_structural   Tb3In2Rh2PbAu
_chemical_formula_sum   'Tb3 In2 Rh2 Pb1 Au1'
_cell_volume   202.35984732
_cell_formula_units_Z   1
loop_
 _symmetry_equiv_pos_site_id
 _symmetry_equiv_pos_as_xyz
  1  'x, y, z'
loop_
 _atom_site_type_symbol
 _atom_site_label
 _atom_site_symmetry_multiplicity
 _atom_site_fract_x
 _atom_site_fract_y
 _atom_site_fract_z
 _atom_site_occupancy
  Tb  Tb0  1  0.584360  0.982365  0.500000  1
  Tb  Tb1  1  0.390866  0.410334  0.500000  1
  Tb  Tb2  1  0.020677  0.606086  0.500000  1
  In  In3  1  0.002181  0.261543  0.000000  1
  In  In4  1  0.259485  0.999519  0.000000  1
  Rh  Rh5  1  0.329603  0.666421  0.000000  1
  Rh  Rh6  1  0.006214  0.006307  0.500000  1
  Pb  Pb7  1  0.741034  0.741747  0.000000  1
  Au  Au8  1  0.665582  0.325680  0.000000  1
