# generated using pymatgen
data_LaLuMgNi9
_symmetry_space_group_name_H-M   'P 1'
_cell_length_a   8.45264720
_cell_length_b   8.45264688
_cell_length_c   8.45264726
_cell_angle_alpha   33.84942970
_cell_angle_beta   33.84943376
_cell_angle_gamma   33.84942578
_symmetry_Int_Tables_number   1
_chemical_formula_structural   LaLuMgNi9
_chemical_formula_sum   'La1 Lu1 Mg1 Ni9'
_cell_volume   166.97835896
_cell_formula_units_Z   1
loop_
 _symmetry_equiv_pos_site_id
 _symmetry_equiv_pos_as_xyz
  1  'x, y, z'
loop_
 _atom_site_type_symbol
 _atom_site_label
 _atom_site_symmetry_multiplicity
 _atom_site_fract_x
 _atom_site_fract_y
 _atom_site_fract_z
 _atom_site_occupancy
  La  La0  1  0.003265  0.003265  0.003265  1
  Lu  Lu1  1  0.855889  0.855889  0.855889  1
  Mg  Mg2  1  0.141479  0.141479  0.141479  1
  Ni  Ni3  1  0.585836  0.083775  0.585836  1
  Ni  Ni4  1  0.083775  0.585836  0.585836  1
  Ni  Ni5  1  0.585836  0.585836  0.083775  1
  Ni  Ni6  1  0.413772  0.917622  0.413772  1
  Ni  Ni7  1  0.917622  0.413772  0.413772  1
  Ni  Ni8  1  0.332557  0.332557  0.332557  1
  Ni  Ni9  1  0.413772  0.413772  0.917622  1
  Ni  Ni10  1  0.499708  0.499708  0.499708  1
  Ni  Ni11  1  0.666488  0.666488  0.666488  1
