# generated using pymatgen
data_TiAl2(O2F)2
_symmetry_space_group_name_H-M   'P 1'
_cell_length_a   4.94137700
_cell_length_b   8.68138600
_cell_length_c   9.23838800
_cell_angle_alpha   90.00000000
_cell_angle_beta   90.00000000
_cell_angle_gamma   90.00000000
_symmetry_Int_Tables_number   1
_chemical_formula_structural   TiAl2(O2F)2
_chemical_formula_sum   'Ti4 Al8 O16 F8'
_cell_volume   396.30837866
_cell_formula_units_Z   4
loop_
 _symmetry_equiv_pos_site_id
 _symmetry_equiv_pos_as_xyz
  1  'x, y, z'
loop_
 _atom_site_type_symbol
 _atom_site_label
 _atom_site_symmetry_multiplicity
 _atom_site_fract_x
 _atom_site_fract_y
 _atom_site_fract_z
 _atom_site_occupancy
  Ti  Ti0  1  0.402383  0.250000  0.559790  1
  Ti  Ti1  1  0.597617  0.750000  0.440210  1
  Ti  Ti2  1  0.902383  0.750000  0.940210  1
  Ti  Ti3  1  0.097617  0.250000  0.059790  1
  Al  Al4  1  0.587614  0.082776  0.869373  1
  Al  Al5  1  0.087614  0.917224  0.630627  1
  Al  Al6  1  0.412386  0.582776  0.130627  1
  Al  Al7  1  0.412386  0.917224  0.130627  1
  Al  Al8  1  0.912386  0.417224  0.369373  1
  Al  Al9  1  0.087614  0.582776  0.630627  1
  Al  Al10  1  0.912386  0.082776  0.369373  1
  Al  Al11  1  0.587614  0.417224  0.869373  1
  O  O12  1  0.201083  0.081710  0.510004  1
  O  O13  1  0.457977  0.250000  0.757206  1
  O  O14  1  0.798917  0.918290  0.489996  1
  O  O15  1  0.773290  0.250000  0.962324  1
  O  O16  1  0.542023  0.750000  0.242794  1
  O  O17  1  0.201083  0.418290  0.510004  1
  O  O18  1  0.298917  0.081710  0.010004  1
  O  O19  1  0.957977  0.750000  0.742794  1
  O  O20  1  0.298917  0.418290  0.010004  1
  O  O21  1  0.226710  0.750000  0.037676  1
  O  O22  1  0.701083  0.918290  0.989996  1
  O  O23  1  0.273290  0.750000  0.537676  1
  O  O24  1  0.726710  0.250000  0.462324  1
  O  O25  1  0.701083  0.581710  0.989996  1
  O  O26  1  0.798917  0.581710  0.489996  1
  O  O27  1  0.042023  0.250000  0.257206  1
  F  F28  1  0.116860  0.951286  0.251421  1
  F  F29  1  0.116860  0.548714  0.251421  1
  F  F30  1  0.383140  0.548714  0.751421  1
  F  F31  1  0.616860  0.048714  0.248579  1
  F  F32  1  0.883140  0.048714  0.748579  1
  F  F33  1  0.383140  0.951286  0.751421  1
  F  F34  1  0.616860  0.451286  0.248579  1
  F  F35  1  0.883140  0.451286  0.748579  1
