# generated using pymatgen
data_Sr4WIN4Cl
_symmetry_space_group_name_H-M   'P 1'
_cell_length_a   6.05008300
_cell_length_b   8.12935832
_cell_length_c   10.96731725
_cell_angle_alpha   78.80739446
_cell_angle_beta   90.00000000
_cell_angle_gamma   90.00000000
_symmetry_Int_Tables_number   1
_chemical_formula_structural   Sr4WIN4Cl
_chemical_formula_sum   'Sr8 W2 I2 N8 Cl2'
_cell_volume   529.14933415
_cell_formula_units_Z   2
loop_
 _symmetry_equiv_pos_site_id
 _symmetry_equiv_pos_as_xyz
  1  'x, y, z'
loop_
 _atom_site_type_symbol
 _atom_site_label
 _atom_site_symmetry_multiplicity
 _atom_site_fract_x
 _atom_site_fract_y
 _atom_site_fract_z
 _atom_site_occupancy
  Sr  Sr0  1  0.750000  0.295832  0.308018  1
  Sr  Sr1  1  0.750000  0.998009  0.618903  1
  Sr  Sr2  1  0.750000  0.438650  0.611423  1
  Sr  Sr3  1  0.750000  0.838007  0.105494  1
  Sr  Sr4  1  0.250000  0.001991  0.381097  1
  Sr  Sr5  1  0.250000  0.561350  0.388577  1
  Sr  Sr6  1  0.250000  0.161993  0.894506  1
  Sr  Sr7  1  0.250000  0.704168  0.691982  1
  W  W8  1  0.750000  0.778162  0.398076  1
  W  W9  1  0.250000  0.221838  0.601924  1
  I  I10  1  0.250000  0.356643  0.142202  1
  I  I11  1  0.750000  0.643357  0.857798  1
  N  N12  1  0.250000  0.014382  0.711668  1
  N  N13  1  0.997925  0.245521  0.497799  1
  N  N14  1  0.497925  0.754479  0.502201  1
  N  N15  1  0.002075  0.754479  0.502201  1
  N  N16  1  0.750000  0.614196  0.298691  1
  N  N17  1  0.750000  0.985618  0.288332  1
  N  N18  1  0.502075  0.245521  0.497799  1
  N  N19  1  0.250000  0.385804  0.701309  1
  Cl  Cl20  1  0.250000  0.863259  0.115221  1
  Cl  Cl21  1  0.750000  0.136741  0.884779  1
