# generated using pymatgen
data_Er3Tm7(In2Sb)2
_symmetry_space_group_name_H-M   'P 1'
_cell_length_a   8.89084900
_cell_length_b   8.88885652
_cell_length_c   6.46713300
_cell_angle_alpha   90.00000000
_cell_angle_beta   90.00000000
_cell_angle_gamma   120.00741899
_symmetry_Int_Tables_number   1
_chemical_formula_structural   Er3Tm7(In2Sb)2
_chemical_formula_sum   'Er3 Tm7 In4 Sb2'
_cell_volume   442.58743725
_cell_formula_units_Z   1
loop_
 _symmetry_equiv_pos_site_id
 _symmetry_equiv_pos_as_xyz
  1  'x, y, z'
loop_
 _atom_site_type_symbol
 _atom_site_label
 _atom_site_symmetry_multiplicity
 _atom_site_fract_x
 _atom_site_fract_y
 _atom_site_fract_z
 _atom_site_occupancy
  Er  Er0  1  0.759996  0.000000  0.750000  1
  Er  Er1  1  0.239452  0.235753  0.750000  1
  Er  Er2  1  0.003699  0.764247  0.750000  1
  Tm  Tm3  1  0.331427  0.665108  0.003644  1
  Tm  Tm4  1  0.666320  0.334892  0.496356  1
  Tm  Tm5  1  0.666320  0.334892  0.003644  1
  Tm  Tm6  1  0.331427  0.665108  0.496356  1
  Tm  Tm7  1  0.236599  0.000000  0.250000  1
  Tm  Tm8  1  0.999870  0.238552  0.250000  1
  Tm  Tm9  1  0.761318  0.761448  0.250000  1
  In  In10  1  0.603289  0.000000  0.250000  1
  In  In11  1  0.401052  0.000000  0.750000  1
  In  In12  1  0.999330  0.605827  0.250000  1
  In  In13  1  0.393503  0.394173  0.250000  1
  Sb  Sb14  1  0.606267  0.606135  0.750000  1
  Sb  Sb15  1  0.000132  0.393865  0.750000  1
