# generated using pymatgen
data_Dy3TmHf2(SnRh)6
_symmetry_space_group_name_H-M   'P 1'
_cell_length_a   7.52094131
_cell_length_b   7.45928792
_cell_length_c   7.57670800
_cell_angle_alpha   90.00000000
_cell_angle_beta   90.00000000
_cell_angle_gamma   119.76455317
_symmetry_Int_Tables_number   1
_chemical_formula_structural   Dy3TmHf2(SnRh)6
_chemical_formula_sum   'Dy3 Tm1 Hf2 Sn6 Rh6'
_cell_volume   368.98290252
_cell_formula_units_Z   1
loop_
 _symmetry_equiv_pos_site_id
 _symmetry_equiv_pos_as_xyz
  1  'x, y, z'
loop_
 _atom_site_type_symbol
 _atom_site_label
 _atom_site_symmetry_multiplicity
 _atom_site_fract_x
 _atom_site_fract_y
 _atom_site_fract_z
 _atom_site_occupancy
  Dy  Dy0  1  0.000109  0.403413  0.250000  1
  Dy  Dy1  1  0.589593  0.592968  0.250000  1
  Dy  Dy2  1  0.410873  0.003144  0.250000  1
  Tm  Tm3  1  0.002461  0.404891  0.750000  1
  Hf  Hf4  1  0.604180  0.601141  0.750000  1
  Hf  Hf5  1  0.394259  0.994562  0.750000  1
  Sn  Sn6  1  0.263031  0.262702  0.508631  1
  Sn  Sn7  1  0.999024  0.733860  0.497372  1
  Sn  Sn8  1  0.999024  0.733860  0.002628  1
  Sn  Sn9  1  0.737773  0.001528  0.509544  1
  Sn  Sn10  1  0.737773  0.001528  0.990456  1
  Sn  Sn11  1  0.263031  0.262702  0.991369  1
  Rh  Rh12  1  0.343057  0.675089  0.527625  1
  Rh  Rh13  1  0.656529  0.331635  0.532286  1
  Rh  Rh14  1  0.343057  0.675089  0.972375  1
  Rh  Rh15  1  0.000262  0.987195  0.750000  1
  Rh  Rh16  1  0.999442  0.003062  0.250000  1
  Rh  Rh17  1  0.656529  0.331635  0.967714  1
