# generated using pymatgen
data_RbBr35
_symmetry_space_group_name_H-M   'P 1'
_cell_length_a   15.98197694
_cell_length_b   11.40028128
_cell_length_c   10.79188300
_cell_angle_alpha   88.81408278
_cell_angle_beta   66.02770512
_cell_angle_gamma   92.31545406
_symmetry_Int_Tables_number   1
_chemical_formula_structural   RbBr35
_chemical_formula_sum   'Rb1 Br35'
_cell_volume   1793.71352310
_cell_formula_units_Z   1
loop_
 _symmetry_equiv_pos_site_id
 _symmetry_equiv_pos_as_xyz
  1  'x, y, z'
loop_
 _atom_site_type_symbol
 _atom_site_label
 _atom_site_symmetry_multiplicity
 _atom_site_fract_x
 _atom_site_fract_y
 _atom_site_fract_z
 _atom_site_occupancy
  Rb  Rb0  1  0.276779  0.395274  0.489350  1
  Br  Br1  1  0.479020  0.269421  0.571142  1
  Br  Br2  1  0.746287  0.577855  0.592700  1
  Br  Br3  1  0.500664  0.680761  0.751262  1
  Br  Br4  1  0.062552  0.855766  0.832623  1
  Br  Br5  1  0.928905  0.157181  0.019234  1
  Br  Br6  1  0.576515  0.352546  0.333572  1
  Br  Br7  1  0.611547  0.293359  0.876447  1
  Br  Br8  1  0.371738  0.746591  0.659562  1
  Br  Br9  1  0.362352  0.550175  0.165659  1
  Br  Br10  1  0.695028  0.134338  0.753375  1
  Br  Br11  1  0.865174  0.538846  0.365809  1
  Br  Br12  1  0.102837  0.881028  0.576945  1
  Br  Br13  1  0.929692  0.111749  0.258489  1
  Br  Br14  1  0.924042  0.214650  0.798653  1
  Br  Br15  1  0.680548  0.077826  0.143010  1
  Br  Br16  1  0.019318  0.828252  0.086031  1
  Br  Br17  1  0.368881  0.960152  0.740338  1
  Br  Br18  1  0.890838  0.319293  0.331315  1
  Br  Br19  1  0.929505  0.918500  0.594011  1
  Br  Br20  1  0.793871  0.621696  0.915603  1
  Br  Br21  1  0.352676  0.024080  0.174333  1
  Br  Br22  1  0.344385  0.311573  0.160428  1
  Br  Br23  1  0.620438  0.633694  0.828160  1
  Br  Br24  1  0.070228  0.441707  0.455673  1
  Br  Br25  1  0.775282  0.941417  0.608856  1
  Br  Br26  1  0.853249  0.429953  0.861293  1
  Br  Br27  1  0.524772  0.049193  0.164476  1
  Br  Br28  1  0.154995  0.371236  0.851594  1
  Br  Br29  1  0.668428  0.791547  0.274314  1
  Br  Br30  1  0.842959  0.808218  0.180880  1
  Br  Br31  1  0.382089  0.168241  0.807921  1
  Br  Br32  1  0.246675  0.552581  0.780716  1
  Br  Br33  1  0.621215  0.574938  0.317292  1
  Br  Br34  1  0.088771  0.639773  0.512017  1
  Br  Br35  1  0.337746  0.776592  0.166921  1
