# generated using pymatgen
data_Er3Tl3CuIrAu
_symmetry_space_group_name_H-M   'P 1'
_cell_length_a   7.93654500
_cell_length_b   7.93654647
_cell_length_c   3.65200700
_cell_angle_alpha   90.00000000
_cell_angle_beta   90.00000000
_cell_angle_gamma   119.99999803
_symmetry_Int_Tables_number   1
_chemical_formula_structural   Er3Tl3CuIrAu
_chemical_formula_sum   'Er3 Tl3 Cu1 Ir1 Au1'
_cell_volume   199.21649196
_cell_formula_units_Z   1
loop_
 _symmetry_equiv_pos_site_id
 _symmetry_equiv_pos_as_xyz
  1  'x, y, z'
loop_
 _atom_site_type_symbol
 _atom_site_label
 _atom_site_symmetry_multiplicity
 _atom_site_fract_x
 _atom_site_fract_y
 _atom_site_fract_z
 _atom_site_occupancy
  Er  Er0  1  0.579425  0.976459  0.000000  1
  Er  Er1  1  0.023541  0.602965  0.000000  1
  Er  Er2  1  0.397035  0.420575  0.000000  1
  Tl  Tl3  1  0.260098  0.003279  0.500000  1
  Tl  Tl4  1  0.996721  0.256818  0.500000  1
  Tl  Tl5  1  0.743182  0.739902  0.500000  1
  Cu  Cu6  1  0.000000  0.000000  0.000000  1
  Ir  Ir7  1  0.333333  0.666667  0.500000  1
  Au  Au8  1  0.666667  0.333333  0.500000  1
