# generated using pymatgen
data_Ho6Al19Si5Ru8
_symmetry_space_group_name_H-M   'P 1'
_cell_length_a   8.67244400
_cell_length_b   8.65880574
_cell_length_c   9.56573200
_cell_angle_alpha   90.00000000
_cell_angle_beta   90.00000000
_cell_angle_gamma   120.05212435
_symmetry_Int_Tables_number   1
_chemical_formula_structural   Ho6Al19Si5Ru8
_chemical_formula_sum   'Ho6 Al19 Si5 Ru8'
_cell_volume   621.75601197
_cell_formula_units_Z   1
loop_
 _symmetry_equiv_pos_site_id
 _symmetry_equiv_pos_as_xyz
  1  'x, y, z'
loop_
 _atom_site_type_symbol
 _atom_site_label
 _atom_site_symmetry_multiplicity
 _atom_site_fract_x
 _atom_site_fract_y
 _atom_site_fract_z
 _atom_site_occupancy
  Ho  Ho0  1  0.194727  0.389456  0.250000  1
  Ho  Ho1  1  0.805851  0.611702  0.750000  1
  Ho  Ho2  1  0.608251  0.806680  0.250000  1
  Ho  Ho3  1  0.389601  0.194871  0.750000  1
  Ho  Ho4  1  0.198428  0.806680  0.250000  1
  Ho  Ho5  1  0.805271  0.194871  0.750000  1
  Al  Al6  1  0.164728  0.329458  0.579120  1
  Al  Al7  1  0.834871  0.669741  0.420504  1
  Al  Al8  1  0.670061  0.835163  0.578347  1
  Al  Al9  1  0.834871  0.669741  0.079496  1
  Al  Al10  1  0.329455  0.165531  0.420597  1
  Al  Al11  1  0.164728  0.329458  0.920880  1
  Al  Al12  1  0.165101  0.835163  0.578347  1
  Al  Al13  1  0.329455  0.165531  0.079403  1
  Al  Al14  1  0.836078  0.165531  0.420597  1
  Al  Al15  1  0.670061  0.835163  0.921653  1
  Al  Al16  1  0.836078  0.165531  0.079403  1
  Al  Al17  1  0.165101  0.835163  0.921653  1
  Al  Al18  1  0.437378  0.874757  0.750000  1
  Al  Al19  1  0.873395  0.434026  0.250000  1
  Al  Al20  1  0.126582  0.563735  0.750000  1
  Al  Al21  1  0.560631  0.434026  0.250000  1
  Al  Al22  1  0.437153  0.563735  0.750000  1
  Al  Al23  1  0.999998  0.999995  0.250000  1
  Al  Al24  1  0.000285  0.000571  0.750000  1
  Si  Si25  1  0.332521  0.665044  0.036844  1
  Si  Si26  1  0.667382  0.334762  0.961121  1
  Si  Si27  1  0.667382  0.334762  0.538879  1
  Si  Si28  1  0.332521  0.665044  0.463156  1
  Si  Si29  1  0.563339  0.126677  0.250000  1
  Ru  Ru30  1  0.500820  0.001641  0.005927  1
  Ru  Ru31  1  0.998802  0.498889  0.000495  1
  Ru  Ru32  1  0.500820  0.001641  0.494073  1
  Ru  Ru33  1  0.500087  0.498889  0.000495  1
  Ru  Ru34  1  0.998802  0.498889  0.499505  1
  Ru  Ru35  1  0.500087  0.498889  0.499505  1
  Ru  Ru36  1  0.999649  0.999298  0.000037  1
  Ru  Ru37  1  0.999649  0.999298  0.499963  1
