# generated using pymatgen
data_TbY5(SbO7)2
_symmetry_space_group_name_H-M   'P 1'
_cell_length_a   6.49510827
_cell_length_b   6.49510457
_cell_length_c   7.50844900
_cell_angle_alpha   89.98355695
_cell_angle_beta   90.01643422
_cell_angle_gamma   109.15128653
_symmetry_Int_Tables_number   1
_chemical_formula_structural   TbY5(SbO7)2
_chemical_formula_sum   'Tb1 Y5 Sb2 O14'
_cell_volume   299.22389361
_cell_formula_units_Z   1
loop_
 _symmetry_equiv_pos_site_id
 _symmetry_equiv_pos_as_xyz
  1  'x, y, z'
loop_
 _atom_site_type_symbol
 _atom_site_label
 _atom_site_symmetry_multiplicity
 _atom_site_fract_x
 _atom_site_fract_y
 _atom_site_fract_z
 _atom_site_occupancy
  Tb  Tb0  1  0.513520  0.513520  0.250000  1
  Y  Y1  1  0.486262  0.486262  0.750000  1
  Y  Y2  1  0.999967  0.468125  0.497497  1
  Y  Y3  1  0.531887  0.000059  0.502991  1
  Y  Y4  1  0.000059  0.531887  0.997009  1
  Y  Y5  1  0.468125  0.999967  0.002503  1
  Sb  Sb6  1  0.999979  0.999979  0.250000  1
  Sb  Sb7  1  0.000034  0.000034  0.750000  1
  O  O8  1  0.065096  0.318121  0.217625  1
  O  O9  1  0.682252  0.935442  0.782463  1
  O  O10  1  0.935443  0.682252  0.717537  1
  O  O11  1  0.318121  0.065097  0.282375  1
  O  O12  1  0.676299  0.922710  0.222424  1
  O  O13  1  0.076832  0.323383  0.777624  1
  O  O14  1  0.323383  0.076833  0.722376  1
  O  O15  1  0.922711  0.676299  0.277576  1
  O  O16  1  0.369599  0.630400  0.500729  1
  O  O17  1  0.630401  0.369600  0.999271  1
  O  O18  1  0.362384  0.637669  0.999415  1
  O  O19  1  0.637669  0.362384  0.500585  1
  O  O20  1  0.929938  0.070040  0.499928  1
  O  O21  1  0.070040  0.929938  0.000072  1
