# generated using pymatgen
data_Dy5Tm3P12Ir15Pt
_symmetry_space_group_name_H-M   'P 1'
_cell_length_a   12.98665540
_cell_length_b   12.96076821
_cell_length_c   3.98756500
_cell_angle_alpha   90.00000000
_cell_angle_beta   90.00000000
_cell_angle_gamma   119.65725990
_symmetry_Int_Tables_number   1
_chemical_formula_structural   Dy5Tm3P12Ir15Pt
_chemical_formula_sum   'Dy5 Tm3 P12 Ir15 Pt1'
_cell_volume   583.25174067
_cell_formula_units_Z   1
loop_
 _symmetry_equiv_pos_site_id
 _symmetry_equiv_pos_as_xyz
  1  'x, y, z'
loop_
 _atom_site_type_symbol
 _atom_site_label
 _atom_site_symmetry_multiplicity
 _atom_site_fract_x
 _atom_site_fract_y
 _atom_site_fract_z
 _atom_site_occupancy
  Dy  Dy0  1  0.330559  0.662531  0.500000  1
  Dy  Dy1  1  0.666349  0.333322  0.500000  1
  Dy  Dy2  1  0.999488  0.814443  0.000000  1
  Dy  Dy3  1  0.188002  0.187552  0.000000  1
  Dy  Dy4  1  0.816946  0.000742  0.000000  1
  Tm  Tm5  1  0.001665  0.447592  0.500000  1
  Tm  Tm6  1  0.553976  0.554104  0.500000  1
  Tm  Tm7  1  0.446933  0.998294  0.500000  1
  P  P8  1  0.998494  0.652516  0.500000  1
  P  P9  1  0.348853  0.347738  0.500000  1
  P  P10  1  0.660014  0.007638  0.500000  1
  P  P11  1  0.518798  0.686300  0.000000  1
  P  P12  1  0.303008  0.827055  0.000000  1
  P  P13  1  0.171734  0.481617  0.000000  1
  P  P14  1  0.483757  0.170937  0.000000  1
  P  P15  1  0.688716  0.517243  0.000000  1
  P  P16  1  0.828610  0.312257  0.000000  1
  P  P17  1  0.001448  0.176759  0.500000  1
  P  P18  1  0.823401  0.824504  0.500000  1
  P  P19  1  0.175768  0.000973  0.500000  1
  Ir  Ir20  1  0.132758  0.640538  0.000000  1
  Ir  Ir21  1  0.357917  0.491492  0.000000  1
  Ir  Ir22  1  0.492485  0.356830  0.000000  1
  Ir  Ir23  1  0.865483  0.508455  0.000000  1
  Ir  Ir24  1  0.644497  0.130954  0.000000  1
  Ir  Ir25  1  0.001081  0.274529  0.000000  1
  Ir  Ir26  1  0.724469  0.726452  0.000000  1
  Ir  Ir27  1  0.273959  0.999860  0.000000  1
  Ir  Ir28  1  0.629298  0.812239  0.500000  1
  Ir  Ir29  1  0.190649  0.821080  0.500000  1
  Ir  Ir30  1  0.179302  0.369547  0.500000  1
  Ir  Ir31  1  0.370797  0.178115  0.500000  1
  Ir  Ir32  1  0.808275  0.630637  0.500000  1
  Ir  Ir33  1  0.824346  0.196380  0.500000  1
  Ir  Ir34  1  0.999537  0.000012  0.500000  1
  Pt  Pt35  1  0.498629  0.858764  0.000000  1
