# generated using pymatgen
data_CeThSi2(Os2C)2
_symmetry_space_group_name_H-M   'P 1'
_cell_length_a   3.97057400
_cell_length_b   5.94047345
_cell_length_c   7.17484900
_cell_angle_alpha   90.00000000
_cell_angle_beta   90.00000000
_cell_angle_gamma   70.47629906
_symmetry_Int_Tables_number   1
_chemical_formula_structural   CeThSi2(Os2C)2
_chemical_formula_sum   'Ce1 Th1 Si2 Os4 C2'
_cell_volume   159.50342452
_cell_formula_units_Z   1
loop_
 _symmetry_equiv_pos_site_id
 _symmetry_equiv_pos_as_xyz
  1  'x, y, z'
loop_
 _atom_site_type_symbol
 _atom_site_label
 _atom_site_symmetry_multiplicity
 _atom_site_fract_x
 _atom_site_fract_y
 _atom_site_fract_z
 _atom_site_occupancy
  Ce  Ce0  1  0.946431  0.107137  0.250001  1
  Th  Th1  1  0.052785  0.894434  0.750000  1
  Si  Si2  1  0.227805  0.544393  0.250001  1
  Si  Si3  1  0.772688  0.454622  0.750000  1
  Os  Os4  1  0.665789  0.668420  0.057461  1
  Os  Os5  1  0.665789  0.668420  0.442539  1
  Os  Os6  1  0.334526  0.330952  0.556857  1
  Os  Os7  1  0.334526  0.330952  0.943144  1
  C  C8  1  0.499834  0.000334  0.002621  1
  C  C9  1  0.499834  0.000334  0.497379  1
