# generated using pymatgen
data_Ho3Hf3Sn6Ir5Rh
_symmetry_space_group_name_H-M   'P 1'
_cell_length_a   7.46152900
_cell_length_b   7.46152867
_cell_length_c   7.55769900
_cell_angle_alpha   90.00000000
_cell_angle_beta   90.00000000
_cell_angle_gamma   120.00000588
_symmetry_Int_Tables_number   1
_chemical_formula_structural   Ho3Hf3Sn6Ir5Rh
_chemical_formula_sum   'Ho3 Hf3 Sn6 Ir5 Rh1'
_cell_volume   364.39787929
_cell_formula_units_Z   1
loop_
 _symmetry_equiv_pos_site_id
 _symmetry_equiv_pos_as_xyz
  1  'x, y, z'
loop_
 _atom_site_type_symbol
 _atom_site_label
 _atom_site_symmetry_multiplicity
 _atom_site_fract_x
 _atom_site_fract_y
 _atom_site_fract_z
 _atom_site_occupancy
  Ho  Ho0  1  0.999736  0.407259  0.750000  1
  Ho  Ho1  1  0.592741  0.592477  0.750000  1
  Ho  Ho2  1  0.407523  0.000264  0.750000  1
  Hf  Hf3  1  0.998292  0.391121  0.250000  1
  Hf  Hf4  1  0.608879  0.607171  0.250000  1
  Hf  Hf5  1  0.392829  0.001708  0.250000  1
  Sn  Sn6  1  0.266099  0.267319  0.495129  1
  Sn  Sn7  1  0.001220  0.733901  0.495129  1
  Sn  Sn8  1  0.001220  0.733901  0.004871  1
  Sn  Sn9  1  0.732681  0.998780  0.495129  1
  Sn  Sn10  1  0.732681  0.998780  0.004871  1
  Sn  Sn11  1  0.266099  0.267319  0.004871  1
  Ir  Ir12  1  0.333333  0.666667  0.460628  1
  Ir  Ir13  1  0.666667  0.333333  0.463715  1
  Ir  Ir14  1  0.333333  0.666667  0.039372  1
  Ir  Ir15  1  0.000000  0.000000  0.250000  1
  Ir  Ir16  1  0.666667  0.333333  0.036285  1
  Rh  Rh17  1  0.000000  0.000000  0.750000  1
