# generated using pymatgen
data_Dy9Er(SiB4)4
_symmetry_space_group_name_H-M   'P 1'
_cell_length_a   7.22556600
_cell_length_b   7.22556600
_cell_length_c   8.08994100
_cell_angle_alpha   90.00000000
_cell_angle_beta   90.00000000
_cell_angle_gamma   90.00000000
_symmetry_Int_Tables_number   1
_chemical_formula_structural   Dy9Er(SiB4)4
_chemical_formula_sum   'Dy9 Er1 Si4 B16'
_cell_volume   422.36614421
_cell_formula_units_Z   1
loop_
 _symmetry_equiv_pos_site_id
 _symmetry_equiv_pos_as_xyz
  1  'x, y, z'
loop_
 _atom_site_type_symbol
 _atom_site_label
 _atom_site_symmetry_multiplicity
 _atom_site_fract_x
 _atom_site_fract_y
 _atom_site_fract_z
 _atom_site_occupancy
  Dy  Dy0  1  0.680415  0.180172  0.224136  1
  Dy  Dy1  1  0.319585  0.819828  0.775864  1
  Dy  Dy2  1  0.319585  0.819828  0.224136  1
  Dy  Dy3  1  0.819828  0.680415  0.224136  1
  Dy  Dy4  1  0.819828  0.680415  0.775864  1
  Dy  Dy5  1  0.680415  0.180172  0.775864  1
  Dy  Dy6  1  0.180172  0.319585  0.775864  1
  Dy  Dy7  1  0.180172  0.319585  0.224136  1
  Dy  Dy8  1  0.500000  0.500000  0.500000  1
  Er  Er9  1  0.000000  0.000000  0.500000  1
  Si  Si10  1  0.114432  0.615941  0.500000  1
  Si  Si11  1  0.885568  0.384059  0.500000  1
  Si  Si12  1  0.384059  0.114432  0.500000  1
  Si  Si13  1  0.615941  0.885568  0.500000  1
  B  B14  1  0.172437  0.039065  0.000000  1
  B  B15  1  0.827563  0.960935  0.000000  1
  B  B16  1  0.960935  0.172437  0.000000  1
  B  B17  1  0.327557  0.539112  0.000000  1
  B  B18  1  0.039065  0.827563  0.000000  1
  B  B19  1  0.672443  0.460888  0.000000  1
  B  B20  1  0.539112  0.672443  0.000000  1
  B  B21  1  0.460888  0.327557  0.000000  1
  B  B22  1  0.089949  0.589895  0.000000  1
  B  B23  1  0.910051  0.410105  0.000000  1
  B  B24  1  0.410105  0.089949  0.000000  1
  B  B25  1  0.589895  0.910051  0.000000  1
  B  B26  1  0.000000  0.000000  0.162551  1
  B  B27  1  0.000000  0.000000  0.837449  1
  B  B28  1  0.500000  0.500000  0.837826  1
  B  B29  1  0.500000  0.500000  0.162174  1
