# generated using pymatgen
data_TcNi3(RuCl9)2
_symmetry_space_group_name_H-M   'P 1'
_cell_length_a   6.14522171
_cell_length_b   6.14378084
_cell_length_c   19.76353913
_cell_angle_alpha   90.01189171
_cell_angle_beta   90.02798339
_cell_angle_gamma   120.00169702
_symmetry_Int_Tables_number   1
_chemical_formula_structural   TcNi3(RuCl9)2
_chemical_formula_sum   'Tc1 Ni3 Ru2 Cl18'
_cell_volume   646.19126505
_cell_formula_units_Z   1
loop_
 _symmetry_equiv_pos_site_id
 _symmetry_equiv_pos_as_xyz
  1  'x, y, z'
loop_
 _atom_site_type_symbol
 _atom_site_label
 _atom_site_symmetry_multiplicity
 _atom_site_fract_x
 _atom_site_fract_y
 _atom_site_fract_z
 _atom_site_occupancy
  Tc  Tc0  1  0.222064  0.444271  0.166595  1
  Ni  Ni1  1  0.555535  0.110889  0.166589  1
  Ni  Ni2  1  0.889340  0.444658  0.500248  1
  Ni  Ni3  1  0.555800  0.444701  0.833164  1
  Ru  Ru4  1  0.555543  0.777813  0.500205  1
  Ru  Ru5  1  0.221991  0.777801  0.833205  1
  Cl  Cl6  1  0.518507  0.746228  0.765202  1
  Cl  Cl7  1  0.894303  0.745966  0.901210  1
  Cl  Cl8  1  0.518216  0.105903  0.901162  1
  Cl  Cl9  1  0.851452  0.745668  0.432197  1
  Cl  Cl10  1  0.227583  0.481606  0.432249  1
  Cl  Cl11  1  0.892441  0.139923  0.097772  1
  Cl  Cl12  1  0.526680  0.773880  0.235238  1
  Cl  Cl13  1  0.893944  0.481407  0.765122  1
  Cl  Cl14  1  0.254058  0.481605  0.901119  1
  Cl  Cl15  1  0.587631  0.481503  0.568321  1
  Cl  Cl16  1  0.852066  0.105996  0.568334  1
  Cl  Cl17  1  0.227783  0.746359  0.568265  1
  Cl  Cl18  1  0.247634  0.140029  0.235383  1
  Cl  Cl19  1  0.587610  0.105823  0.432220  1
  Cl  Cl20  1  0.892706  0.419176  0.235329  1
  Cl  Cl21  1  0.526274  0.418922  0.097849  1
  Cl  Cl22  1  0.253700  0.105975  0.765107  1
  Cl  Cl23  1  0.247142  0.773896  0.097917  1
