# generated using pymatgen
data_Pr4AsI6
_symmetry_space_group_name_H-M   'P 1'
_cell_length_a   4.42934300
_cell_length_b   14.46027400
_cell_length_c   15.30593700
_cell_angle_alpha   90.00000000
_cell_angle_beta   90.00000000
_cell_angle_gamma   90.00000000
_symmetry_Int_Tables_number   1
_chemical_formula_structural   Pr4AsI6
_chemical_formula_sum   'Pr8 As2 I12'
_cell_volume   980.33781729
_cell_formula_units_Z   2
loop_
 _symmetry_equiv_pos_site_id
 _symmetry_equiv_pos_as_xyz
  1  'x, y, z'
loop_
 _atom_site_type_symbol
 _atom_site_label
 _atom_site_symmetry_multiplicity
 _atom_site_fract_x
 _atom_site_fract_y
 _atom_site_fract_z
 _atom_site_occupancy
  Pr  Pr0  1  0.500000  0.115562  0.345911  1
  Pr  Pr1  1  0.500000  0.884438  0.654089  1
  Pr  Pr2  1  0.500000  0.615562  0.154089  1
  Pr  Pr3  1  0.500000  0.384438  0.845911  1
  Pr  Pr4  1  0.000000  0.111400  0.574082  1
  Pr  Pr5  1  0.000000  0.888600  0.425918  1
  Pr  Pr6  1  0.000000  0.611400  0.925918  1
  Pr  Pr7  1  0.000000  0.388600  0.074082  1
  As  As8  1  0.500000  0.000000  0.500000  1
  As  As9  1  0.500000  0.500000  0.000000  1
  I  I10  1  0.500000  0.245318  0.160613  1
  I  I11  1  0.500000  0.754682  0.839387  1
  I  I12  1  0.500000  0.745318  0.339387  1
  I  I13  1  0.500000  0.254682  0.660613  1
  I  I14  1  0.000000  0.259226  0.413948  1
  I  I15  1  0.000000  0.740774  0.586052  1
  I  I16  1  0.000000  0.759226  0.086052  1
  I  I17  1  0.000000  0.240774  0.913948  1
  I  I18  1  0.000000  0.999302  0.240303  1
  I  I19  1  0.000000  0.000698  0.759697  1
  I  I20  1  0.000000  0.499302  0.259697  1
  I  I21  1  0.000000  0.500698  0.740303  1
