# generated using pymatgen
data_Er5Tm3(SiI6)2
_symmetry_space_group_name_H-M   'P 1'
_cell_length_a   4.16744400
_cell_length_b   13.88960234
_cell_length_c   14.62848136
_cell_angle_alpha   89.97454621
_cell_angle_beta   90.00000000
_cell_angle_gamma   90.00000000
_symmetry_Int_Tables_number   1
_chemical_formula_structural   Er5Tm3(SiI6)2
_chemical_formula_sum   'Er5 Tm3 Si2 I12'
_cell_volume   846.75697872
_cell_formula_units_Z   1
loop_
 _symmetry_equiv_pos_site_id
 _symmetry_equiv_pos_as_xyz
  1  'x, y, z'
loop_
 _atom_site_type_symbol
 _atom_site_label
 _atom_site_symmetry_multiplicity
 _atom_site_fract_x
 _atom_site_fract_y
 _atom_site_fract_z
 _atom_site_occupancy
  Er  Er0  1  0.500000  0.114439  0.347689  1
  Er  Er1  1  0.500000  0.885474  0.652249  1
  Er  Er2  1  0.500000  0.614371  0.152148  1
  Er  Er3  1  0.500000  0.385689  0.847867  1
  Er  Er4  1  0.000000  0.109882  0.574111  1
  Tm  Tm5  1  0.000000  0.890167  0.425943  1
  Tm  Tm6  1  0.000000  0.609545  0.926150  1
  Tm  Tm7  1  0.000000  0.390467  0.073864  1
  Si  Si8  1  0.500000  0.999527  0.499669  1
  Si  Si9  1  0.500000  0.500015  0.000022  1
  I  I10  1  0.500000  0.248557  0.162642  1
  I  I11  1  0.500000  0.751380  0.837324  1
  I  I12  1  0.500000  0.748392  0.337183  1
  I  I13  1  0.500000  0.252356  0.663176  1
  I  I14  1  0.000000  0.259057  0.414901  1
  I  I15  1  0.000000  0.741081  0.584569  1
  I  I16  1  0.000000  0.758844  0.084556  1
  I  I17  1  0.000000  0.241204  0.915492  1
  I  I18  1  0.000000  0.999675  0.240087  1
  I  I19  1  0.000000  0.999725  0.760315  1
  I  I20  1  0.000000  0.499667  0.259848  1
  I  I21  1  0.000000  0.500485  0.740196  1
