# generated using pymatgen
data_DySc(BeB14)2
_symmetry_space_group_name_H-M   'P 1'
_cell_length_a   7.16864208
_cell_length_b   7.16864218
_cell_length_c   7.16864210
_cell_angle_alpha   132.60884884
_cell_angle_beta   110.45803562
_cell_angle_gamma   88.48087307
_symmetry_Int_Tables_number   1
_chemical_formula_structural   DySc(BeB14)2
_chemical_formula_sum   'Dy1 Sc1 Be2 B28'
_cell_volume   241.95366614
_cell_formula_units_Z   1
loop_
 _symmetry_equiv_pos_site_id
 _symmetry_equiv_pos_as_xyz
  1  'x, y, z'
loop_
 _atom_site_type_symbol
 _atom_site_label
 _atom_site_symmetry_multiplicity
 _atom_site_fract_x
 _atom_site_fract_y
 _atom_site_fract_z
 _atom_site_occupancy
  Dy  Dy0  1  0.394755  0.750000  0.644755  1
  Sc  Sc1  1  0.609423  0.250000  0.359423  1
  Be  Be2  1  0.999744  0.999959  0.499702  1
  Be  Be3  1  0.999744  0.500041  0.999785  1
  B  B4  1  0.632624  0.666518  0.966107  1
  B  B5  1  0.368501  0.333202  0.035297  1
  B  B6  1  0.202095  0.166798  0.035297  1
  B  B7  1  0.799590  0.833482  0.966107  1
  B  B8  1  0.787994  0.157034  0.630960  1
  B  B9  1  0.209543  0.844033  0.365510  1
  B  B10  1  0.021476  0.655967  0.365510  1
  B  B11  1  0.973927  0.342966  0.630960  1
  B  B12  1  0.923554  0.092447  0.831107  1
  B  B13  1  0.075599  0.907755  0.167843  1
  B  B14  1  0.760087  0.592245  0.167843  1
  B  B15  1  0.238662  0.407553  0.831107  1
  B  B16  1  0.399059  0.395525  0.675432  1
  B  B17  1  0.602355  0.278559  0.000561  1
  B  B18  1  0.222003  0.898206  0.000561  1
  B  B19  1  0.779907  0.776372  0.675432  1
  B  B20  1  0.602355  0.601794  0.323797  1
  B  B21  1  0.399059  0.723628  0.003535  1
  B  B22  1  0.779907  0.104475  0.003535  1
  B  B23  1  0.222003  0.221441  0.323797  1
  B  B24  1  0.033520  0.828615  0.699254  1
  B  B25  1  0.965112  0.664424  0.793169  1
  B  B26  1  0.628745  0.328057  0.793169  1
  B  B27  1  0.370640  0.165734  0.699254  1
  B  B28  1  0.965112  0.171943  0.300689  1
  B  B29  1  0.033520  0.334266  0.204905  1
  B  B30  1  0.370640  0.671385  0.204905  1
  B  B31  1  0.628745  0.835576  0.300689  1
