# generated using pymatgen
data_Tb10Pr5Nd(CdPt)4
_symmetry_space_group_name_H-M   'P 1'
_cell_length_a   9.84782811
_cell_length_b   9.84782902
_cell_length_c   9.82198200
_cell_angle_alpha   60.08678453
_cell_angle_beta   60.08678147
_cell_angle_gamma   60.23567013
_symmetry_Int_Tables_number   1
_chemical_formula_structural   Tb10Pr5Nd(CdPt)4
_chemical_formula_sum   'Tb10 Pr5 Nd1 Cd4 Pt4'
_cell_volume   675.62094390
_cell_formula_units_Z   1
loop_
 _symmetry_equiv_pos_site_id
 _symmetry_equiv_pos_as_xyz
  1  'x, y, z'
loop_
 _atom_site_type_symbol
 _atom_site_label
 _atom_site_symmetry_multiplicity
 _atom_site_fract_x
 _atom_site_fract_y
 _atom_site_fract_z
 _atom_site_occupancy
  Tb  Tb0  1  0.349792  0.349792  0.349678  1
  Tb  Tb1  1  0.349792  0.349792  0.950737  1
  Tb  Tb2  1  0.350696  0.948805  0.350249  1
  Tb  Tb3  1  0.948805  0.350696  0.350249  1
  Tb  Tb4  1  0.811423  0.188291  0.189557  1
  Tb  Tb5  1  0.188291  0.811423  0.810728  1
  Tb  Tb6  1  0.188291  0.811423  0.189557  1
  Tb  Tb7  1  0.811423  0.188291  0.810728  1
  Tb  Tb8  1  0.188519  0.188519  0.811481  1
  Tb  Tb9  1  0.811311  0.811311  0.188689  1
  Pr  Pr10  1  0.938818  0.561671  0.562531  1
  Pr  Pr11  1  0.561671  0.938818  0.936980  1
  Pr  Pr12  1  0.561671  0.938818  0.562531  1
  Pr  Pr13  1  0.938818  0.561671  0.936980  1
  Pr  Pr14  1  0.561812  0.561812  0.938188  1
  Nd  Nd15  1  0.938658  0.938658  0.561342  1
  Cd  Cd16  1  0.579559  0.579559  0.579570  1
  Cd  Cd17  1  0.579559  0.579559  0.261314  1
  Cd  Cd18  1  0.579986  0.260734  0.579641  1
  Cd  Cd19  1  0.260734  0.579986  0.579641  1
  Pt  Pt20  1  0.142750  0.142750  0.143299  1
  Pt  Pt21  1  0.142750  0.142750  0.571199  1
  Pt  Pt22  1  0.142768  0.572100  0.142566  1
  Pt  Pt23  1  0.572100  0.142768  0.142566  1
