# generated using pymatgen
data_La7SmNp4O24
_symmetry_space_group_name_H-M   'P 1'
_cell_length_a   5.77649079
_cell_length_b   8.11461038
_cell_length_c   12.31693944
_cell_angle_alpha   74.97565721
_cell_angle_beta   89.89223974
_cell_angle_gamma   89.74568852
_symmetry_Int_Tables_number   1
_chemical_formula_structural   La7SmNp4O24
_chemical_formula_sum   'La7 Sm1 Np4 O24'
_cell_volume   557.60217250
_cell_formula_units_Z   1
loop_
 _symmetry_equiv_pos_site_id
 _symmetry_equiv_pos_as_xyz
  1  'x, y, z'
loop_
 _atom_site_type_symbol
 _atom_site_label
 _atom_site_symmetry_multiplicity
 _atom_site_fract_x
 _atom_site_fract_y
 _atom_site_fract_z
 _atom_site_occupancy
  La  La0  1  0.742571  0.000700  0.747447  1
  La  La1  1  0.257229  0.000848  0.252660  1
  La  La2  1  0.191323  0.794114  0.577478  1
  La  La3  1  0.804231  0.794685  0.077537  1
  La  La4  1  0.695146  0.499333  0.748906  1
  La  La5  1  0.307191  0.498553  0.253173  1
  La  La6  1  0.197191  0.204994  0.922566  1
  Sm  Sm7  1  0.811493  0.209556  0.421090  1
  Np  Np8  1  0.252278  0.723328  0.885500  1
  Np  Np9  1  0.747621  0.722698  0.385893  1
  Np  Np10  1  0.252684  0.277244  0.611457  1
  Np  Np11  1  0.749102  0.275633  0.117249  1
  O  O12  1  0.046740  0.938373  0.894348  1
  O  O13  1  0.534214  0.851281  0.930221  1
  O  O14  1  0.942968  0.942325  0.396196  1
  O  O15  1  0.441943  0.794710  0.732759  1
  O  O16  1  0.458511  0.842471  0.430862  1
  O  O17  1  0.973180  0.710816  0.769800  1
  O  O18  1  0.556490  0.792612  0.233755  1
  O  O19  1  0.865519  0.634699  0.547235  1
  O  O20  1  0.383972  0.491564  0.884156  1
  O  O21  1  0.027711  0.712782  0.271770  1
  O  O22  1  0.382978  0.507246  0.613388  1
  O  O23  1  0.867795  0.362859  0.955609  1
  O  O24  1  0.133267  0.635056  0.046131  1
  O  O25  1  0.625440  0.487828  0.384669  1
  O  O26  1  0.975670  0.289027  0.728565  1
  O  O27  1  0.616869  0.507169  0.116356  1
  O  O28  1  0.126819  0.367410  0.451310  1
  O  O29  1  0.443867  0.205214  0.764130  1
  O  O30  1  0.027004  0.288101  0.233877  1
  O  O31  1  0.538308  0.154160  0.562986  1
  O  O32  1  0.560632  0.204800  0.271380  1
  O  O33  1  0.045175  0.065071  0.600440  1
  O  O34  1  0.464323  0.151318  0.071980  1
  O  O35  1  0.952549  0.061423  0.107126  1
