# generated using pymatgen
data_Hf2Sc3Re17Tc7
_symmetry_space_group_name_H-M   'P 1'
_cell_length_a   8.45674216
_cell_length_b   8.45674186
_cell_length_c   8.44301000
_cell_angle_alpha   109.46994019
_cell_angle_beta   109.46993877
_cell_angle_gamma   109.59974922
_symmetry_Int_Tables_number   1
_chemical_formula_structural   Hf2Sc3Re17Tc7
_chemical_formula_sum   'Hf2 Sc3 Re17 Tc7'
_cell_volume   464.09194063
_cell_formula_units_Z   1
loop_
 _symmetry_equiv_pos_site_id
 _symmetry_equiv_pos_as_xyz
  1  'x, y, z'
loop_
 _atom_site_type_symbol
 _atom_site_label
 _atom_site_symmetry_multiplicity
 _atom_site_fract_x
 _atom_site_fract_y
 _atom_site_fract_z
 _atom_site_occupancy
  Hf  Hf0  1  0.001630  0.001630  0.629893  1
  Hf  Hf1  1  0.370435  0.370435  0.370964  1
  Sc  Sc2  1  0.997484  0.997484  0.999469  1
  Sc  Sc3  1  0.627314  0.999612  0.999608  1
  Sc  Sc4  1  0.999612  0.627314  0.999608  1
  Re  Re5  1  0.999903  0.675617  0.396149  1
  Re  Re6  1  0.675617  0.999903  0.396149  1
  Re  Re7  1  0.602941  0.602941  0.277853  1
  Re  Re8  1  0.279019  0.604124  0.604042  1
  Re  Re9  1  0.604124  0.279019  0.604042  1
  Re  Re10  1  0.377793  0.195049  0.001109  1
  Re  Re11  1  0.182729  0.808049  0.807637  1
  Re  Re12  1  0.375130  0.000098  0.192234  1
  Re  Re13  1  0.195049  0.377793  0.001109  1
  Re  Re14  1  0.000098  0.375130  0.192234  1
  Re  Re15  1  0.808049  0.182729  0.807637  1
  Re  Re16  1  0.808474  0.808474  0.183621  1
  Re  Re17  1  0.000407  0.193503  0.377571  1
  Re  Re18  1  0.193503  0.000407  0.377571  1
  Re  Re19  1  0.623027  0.623027  0.814305  1
  Re  Re20  1  0.815221  0.622306  0.621961  1
  Re  Re21  1  0.622306  0.815221  0.621961  1
  Tc  Tc22  1  0.396764  0.677374  0.000361  1
  Tc  Tc23  1  0.720900  0.323040  0.323347  1
  Tc  Tc24  1  0.397620  0.000812  0.677352  1
  Tc  Tc25  1  0.677374  0.396764  0.000361  1
  Tc  Tc26  1  0.000812  0.397620  0.677352  1
  Tc  Tc27  1  0.323040  0.720900  0.323347  1
  Tc  Tc28  1  0.323624  0.323624  0.721156  1
