# generated using pymatgen
data_CeNd9Sb9Te
_symmetry_space_group_name_H-M   'P 1'
_cell_length_a   7.82249220
_cell_length_b   9.08337623
_cell_length_c   10.07742100
_cell_angle_alpha   102.78609078
_cell_angle_beta   97.55962190
_cell_angle_gamma   106.90033374
_symmetry_Int_Tables_number   1
_chemical_formula_structural   CeNd9Sb9Te
_chemical_formula_sum   'Ce1 Nd9 Sb9 Te1'
_cell_volume   653.24358337
_cell_formula_units_Z   1
loop_
 _symmetry_equiv_pos_site_id
 _symmetry_equiv_pos_as_xyz
  1  'x, y, z'
loop_
 _atom_site_type_symbol
 _atom_site_label
 _atom_site_symmetry_multiplicity
 _atom_site_fract_x
 _atom_site_fract_y
 _atom_site_fract_z
 _atom_site_occupancy
  Ce  Ce0  1  0.901086  0.549858  0.800228  1
  Nd  Nd1  1  0.695313  0.150758  0.397938  1
  Nd  Nd2  1  0.500909  0.751074  0.001180  1
  Nd  Nd3  1  0.694993  0.645465  0.397826  1
  Nd  Nd4  1  0.303217  0.353515  0.600778  1
  Nd  Nd5  1  0.101135  0.949551  0.196954  1
  Nd  Nd6  1  0.500327  0.249634  0.000507  1
  Nd  Nd7  1  0.303961  0.848631  0.599984  1
  Nd  Nd8  1  0.100022  0.449854  0.200292  1
  Nd  Nd9  1  0.899229  0.051595  0.804307  1
  Sb  Sb10  1  0.800359  0.599850  0.098206  1
  Sb  Sb11  1  0.601626  0.202147  0.700812  1
  Sb  Sb12  1  0.400816  0.800278  0.300638  1
  Sb  Sb13  1  0.799646  0.100133  0.101946  1
  Sb  Sb14  1  0.197266  0.400579  0.898509  1
  Sb  Sb15  1  0.605364  0.700279  0.701242  1
  Sb  Sb16  1  0.397163  0.298954  0.299131  1
  Sb  Sb17  1  0.197722  0.897380  0.897354  1
  Sb  Sb18  1  0.999438  0.500549  0.502400  1
  Te  Te19  1  0.000408  0.999917  0.499767  1
