# generated using pymatgen
data_Dy2Ho2Al17SiRh6
_symmetry_space_group_name_H-M   'P 1'
_cell_length_a   7.53953338
_cell_length_b   7.51945738
_cell_length_c   9.44195408
_cell_angle_alpha   89.99107737
_cell_angle_beta   89.93839352
_cell_angle_gamma   119.56052801
_symmetry_Int_Tables_number   1
_chemical_formula_structural   Dy2Ho2Al17SiRh6
_chemical_formula_sum   'Dy2 Ho2 Al17 Si1 Rh6'
_cell_volume   465.61756041
_cell_formula_units_Z   1
loop_
 _symmetry_equiv_pos_site_id
 _symmetry_equiv_pos_as_xyz
  1  'x, y, z'
loop_
 _atom_site_type_symbol
 _atom_site_label
 _atom_site_symmetry_multiplicity
 _atom_site_fract_x
 _atom_site_fract_y
 _atom_site_fract_z
 _atom_site_occupancy
  Dy  Dy0  1  0.676526  0.002480  0.746700  1
  Dy  Dy1  1  0.328590  0.005047  0.250334  1
  Ho  Ho2  1  0.994176  0.663533  0.746943  1
  Ho  Ho3  1  0.004987  0.329300  0.255270  1
  Al  Al4  1  0.127755  0.127305  0.749489  1
  Al  Al5  1  0.871137  0.873236  0.249396  1
  Al  Al6  1  0.998147  0.668843  0.423469  1
  Al  Al7  1  0.999404  0.665163  0.074384  1
  Al  Al8  1  0.334385  0.999114  0.924322  1
  Al  Al9  1  0.001987  0.335084  0.929981  1
  Al  Al10  1  0.664539  0.999431  0.074457  1
  Al  Al11  1  0.660096  0.994903  0.422873  1
  Al  Al12  1  0.333978  0.999444  0.576004  1
  Al  Al13  1  0.333947  0.333025  0.052223  1
  Al  Al14  1  0.667932  0.668282  0.947836  1
  Al  Al15  1  0.666911  0.667684  0.553188  1
  Al  Al16  1  0.336315  0.333663  0.448803  1
  Al  Al17  1  0.340556  0.550503  0.750136  1
  Al  Al18  1  0.661296  0.450474  0.250264  1
  Al  Al19  1  0.546243  0.339542  0.749842  1
  Al  Al20  1  0.449478  0.658048  0.249379  1
  Si  Si21  1  0.002504  0.335212  0.575377  1
  Rh  Rh22  1  0.680437  0.328695  0.502174  1
  Rh  Rh23  1  0.319492  0.663987  0.500148  1
  Rh  Rh24  1  0.327455  0.671285  0.999302  1
  Rh  Rh25  1  0.672666  0.328370  0.998682  1
  Rh  Rh26  1  0.998960  0.007437  0.499890  1
  Rh  Rh27  1  0.000100  0.000911  0.999138  1
