# generated using pymatgen
data_PrThSnPd2
_symmetry_space_group_name_H-M   'P 1'
_cell_length_a   7.91824000
_cell_length_b   7.88144300
_cell_length_c   3.91075400
_cell_angle_alpha   90.00000000
_cell_angle_beta   90.00000000
_cell_angle_gamma   90.00000000
_symmetry_Int_Tables_number   1
_chemical_formula_structural   PrThSnPd2
_chemical_formula_sum   'Pr2 Th2 Sn2 Pd4'
_cell_volume   244.05903973
_cell_formula_units_Z   2
loop_
 _symmetry_equiv_pos_site_id
 _symmetry_equiv_pos_as_xyz
  1  'x, y, z'
loop_
 _atom_site_type_symbol
 _atom_site_label
 _atom_site_symmetry_multiplicity
 _atom_site_fract_x
 _atom_site_fract_y
 _atom_site_fract_z
 _atom_site_occupancy
  Pr  Pr0  1  0.176906  0.322186  0.500000  1
  Pr  Pr1  1  0.676906  0.177814  0.500000  1
  Th  Th2  1  0.325302  0.826883  0.500000  1
  Th  Th3  1  0.825302  0.673117  0.500000  1
  Sn  Sn4  1  0.999448  0.002604  0.000000  1
  Sn  Sn5  1  0.499448  0.497396  0.000000  1
  Pd  Pd6  1  0.370804  0.112585  0.000000  1
  Pd  Pd7  1  0.870804  0.387415  0.000000  1
  Pd  Pd8  1  0.127540  0.640635  0.000000  1
  Pd  Pd9  1  0.627540  0.859365  0.000000  1
