# generated using pymatgen
data_Ti4Mn7Al
_symmetry_space_group_name_H-M   'P 1'
_cell_length_a   4.75429900
_cell_length_b   4.75429900
_cell_length_c   7.95390600
_cell_angle_alpha   90.00000000
_cell_angle_beta   90.00000000
_cell_angle_gamma   119.99999304
_symmetry_Int_Tables_number   1
_chemical_formula_structural   Ti4Mn7Al
_chemical_formula_sum   'Ti4 Mn7 Al1'
_cell_volume   155.69838175
_cell_formula_units_Z   1
loop_
 _symmetry_equiv_pos_site_id
 _symmetry_equiv_pos_as_xyz
  1  'x, y, z'
loop_
 _atom_site_type_symbol
 _atom_site_label
 _atom_site_symmetry_multiplicity
 _atom_site_fract_x
 _atom_site_fract_y
 _atom_site_fract_z
 _atom_site_occupancy
  Ti  Ti0  1  0.666667  0.333333  0.070817  1
  Ti  Ti1  1  0.333333  0.666667  0.929183  1
  Ti  Ti2  1  0.333333  0.666667  0.562768  1
  Ti  Ti3  1  0.666667  0.333333  0.437232  1
  Mn  Mn4  1  0.654933  0.827466  0.256250  1
  Mn  Mn5  1  0.172534  0.827466  0.256250  1
  Mn  Mn6  1  0.172534  0.345067  0.256250  1
  Mn  Mn7  1  0.345067  0.172534  0.743750  1
  Mn  Mn8  1  0.827466  0.172534  0.743750  1
  Mn  Mn9  1  0.827466  0.654933  0.743750  1
  Mn  Mn10  1  0.000000  0.000000  0.500000  1
  Al  Al11  1  0.000000  0.000000  0.000000  1
