# generated using pymatgen
data_LaPrScMoO6
_symmetry_space_group_name_H-M   'P 1'
_cell_length_a   5.68066948
_cell_length_b   5.89931200
_cell_length_c   8.15746152
_cell_angle_alpha   90.00000000
_cell_angle_beta   89.93802497
_cell_angle_gamma   90.00000000
_symmetry_Int_Tables_number   1
_chemical_formula_structural   LaPrScMoO6
_chemical_formula_sum   'La2 Pr2 Sc2 Mo2 O12'
_cell_volume   273.37303052
_cell_formula_units_Z   2
loop_
 _symmetry_equiv_pos_site_id
 _symmetry_equiv_pos_as_xyz
  1  'x, y, z'
loop_
 _atom_site_type_symbol
 _atom_site_label
 _atom_site_symmetry_multiplicity
 _atom_site_fract_x
 _atom_site_fract_y
 _atom_site_fract_z
 _atom_site_occupancy
  La  La0  1  0.985529  0.053134  0.750012  1
  La  La1  1  0.514471  0.553134  0.749988  1
  Pr  Pr2  1  0.484242  0.443906  0.249815  1
  Pr  Pr3  1  0.015758  0.943906  0.250185  1
  Sc  Sc4  1  0.500258  0.000071  0.498816  1
  Sc  Sc5  1  0.999742  0.500071  0.001184  1
  Mo  Mo6  1  0.999629  0.499794  0.499442  1
  Mo  Mo7  1  0.500371  0.999794  0.000558  1
  O  O8  1  0.694762  0.296314  0.556878  1
  O  O9  1  0.889762  0.542244  0.247610  1
  O  O10  1  0.805238  0.796314  0.943122  1
  O  O11  1  0.107476  0.459882  0.753001  1
  O  O12  1  0.298074  0.697983  0.057625  1
  O  O13  1  0.201926  0.197983  0.442375  1
  O  O14  1  0.799090  0.802662  0.555092  1
  O  O15  1  0.392524  0.959882  0.746999  1
  O  O16  1  0.304114  0.704011  0.440451  1
  O  O17  1  0.195886  0.204011  0.059549  1
  O  O18  1  0.700910  0.302662  0.944908  1
  O  O19  1  0.610238  0.042244  0.252390  1
