# generated using pymatgen
data_Dy2VGa6
_symmetry_space_group_name_H-M   'P 1'
_cell_length_a   6.26711046
_cell_length_b   6.26711014
_cell_length_c   6.26711000
_cell_angle_alpha   60.00000076
_cell_angle_beta   60.00000243
_cell_angle_gamma   59.99999995
_symmetry_Int_Tables_number   1
_chemical_formula_structural   Dy2VGa6
_chemical_formula_sum   'Dy2 V1 Ga6'
_cell_volume   174.05520165
_cell_formula_units_Z   1
loop_
 _symmetry_equiv_pos_site_id
 _symmetry_equiv_pos_as_xyz
  1  'x, y, z'
loop_
 _atom_site_type_symbol
 _atom_site_label
 _atom_site_symmetry_multiplicity
 _atom_site_fract_x
 _atom_site_fract_y
 _atom_site_fract_z
 _atom_site_occupancy
  Dy  Dy0  1  0.750000  0.750000  0.750000  1
  Dy  Dy1  1  0.250000  0.250000  0.250000  1
  V  V2  1  0.500000  0.500000  0.500000  1
  Ga  Ga3  1  0.782243  0.782243  0.217757  1
  Ga  Ga4  1  0.217757  0.782243  0.217757  1
  Ga  Ga5  1  0.782243  0.217757  0.217757  1
  Ga  Ga6  1  0.217757  0.217757  0.782243  1
  Ga  Ga7  1  0.782243  0.217757  0.782243  1
  Ga  Ga8  1  0.217757  0.782243  0.782243  1
