# generated using pymatgen
data_Dy7Sc(Si4Mo3)4
_symmetry_space_group_name_H-M   'P 1'
_cell_length_a   6.75550895
_cell_length_b   6.93322789
_cell_length_c   12.90670391
_cell_angle_alpha   89.90431689
_cell_angle_beta   89.94804434
_cell_angle_gamma   89.97959535
_symmetry_Int_Tables_number   1
_chemical_formula_structural   Dy7Sc(Si4Mo3)4
_chemical_formula_sum   'Dy7 Sc1 Si16 Mo12'
_cell_volume   604.51639664
_cell_formula_units_Z   1
loop_
 _symmetry_equiv_pos_site_id
 _symmetry_equiv_pos_as_xyz
  1  'x, y, z'
loop_
 _atom_site_type_symbol
 _atom_site_label
 _atom_site_symmetry_multiplicity
 _atom_site_fract_x
 _atom_site_fract_y
 _atom_site_fract_z
 _atom_site_occupancy
  Dy  Dy0  1  0.496828  0.332598  0.093688  1
  Dy  Dy1  1  0.997261  0.166866  0.406304  1
  Dy  Dy2  1  0.502973  0.666617  0.593907  1
  Dy  Dy3  1  0.002447  0.833026  0.908337  1
  Dy  Dy4  1  0.501989  0.667608  0.907606  1
  Dy  Dy5  1  0.002887  0.832622  0.593915  1
  Dy  Dy6  1  0.497368  0.332762  0.404499  1
  Sc  Sc7  1  0.995316  0.169898  0.096142  1
  Si  Si8  1  0.658817  0.041913  0.547473  1
  Si  Si9  1  0.158201  0.454421  0.954588  1
  Si  Si10  1  0.333822  0.962093  0.048196  1
  Si  Si11  1  0.841330  0.542770  0.451972  1
  Si  Si12  1  0.342241  0.957805  0.451592  1
  Si  Si13  1  0.842699  0.537276  0.048289  1
  Si  Si14  1  0.660559  0.042065  0.954549  1
  Si  Si15  1  0.159161  0.457861  0.547308  1
  Si  Si16  1  0.535381  0.365438  0.750371  1
  Si  Si17  1  0.034802  0.133375  0.750161  1
  Si  Si18  1  0.465490  0.635077  0.249265  1
  Si  Si19  1  0.966356  0.869780  0.247166  1
  Si  Si20  1  0.802814  0.628823  0.751160  1
  Si  Si21  1  0.302021  0.870005  0.750653  1
  Si  Si22  1  0.194372  0.367916  0.247710  1
  Si  Si23  1  0.701808  0.130330  0.247829  1
  Mo  Mo24  1  0.830700  0.335032  0.625559  1
  Mo  Mo25  1  0.330551  0.165223  0.875073  1
  Mo  Mo26  1  0.169762  0.664429  0.125020  1
  Mo  Mo27  1  0.671049  0.835418  0.373688  1
  Mo  Mo28  1  0.169169  0.666413  0.373195  1
  Mo  Mo29  1  0.669384  0.836708  0.124837  1
  Mo  Mo30  1  0.831159  0.332997  0.876259  1
  Mo  Mo31  1  0.331174  0.164296  0.625179  1
  Mo  Mo32  1  0.666110  0.998764  0.750969  1
  Mo  Mo33  1  0.166242  0.499883  0.750523  1
  Mo  Mo34  1  0.333392  0.003094  0.248217  1
  Mo  Mo35  1  0.834363  0.498800  0.248802  1
