# generated using pymatgen
data_Gd3Dy5(TcB6)4
_symmetry_space_group_name_H-M   'P 1'
_cell_length_a   3.70046400
_cell_length_b   9.18073310
_cell_length_c   11.57215612
_cell_angle_alpha   89.98318021
_cell_angle_beta   90.00000000
_cell_angle_gamma   90.00000000
_symmetry_Int_Tables_number   1
_chemical_formula_structural   Gd3Dy5(TcB6)4
_chemical_formula_sum   'Gd3 Dy5 Tc4 B24'
_cell_volume   393.14052284
_cell_formula_units_Z   1
loop_
 _symmetry_equiv_pos_site_id
 _symmetry_equiv_pos_as_xyz
  1  'x, y, z'
loop_
 _atom_site_type_symbol
 _atom_site_label
 _atom_site_symmetry_multiplicity
 _atom_site_fract_x
 _atom_site_fract_y
 _atom_site_fract_z
 _atom_site_occupancy
  Gd  Gd0  1  0.000000  0.323701  0.414135  1
  Gd  Gd1  1  0.000000  0.676222  0.586053  1
  Gd  Gd2  1  0.000000  0.823909  0.085657  1
  Dy  Dy3  1  0.000000  0.175807  0.914229  1
  Dy  Dy4  1  0.000000  0.942518  0.368780  1
  Dy  Dy5  1  0.000000  0.057590  0.631185  1
  Dy  Dy6  1  0.000000  0.442476  0.130781  1
  Dy  Dy7  1  0.000000  0.557370  0.869108  1
  Tc  Tc8  1  0.000000  0.638997  0.320016  1
  Tc  Tc9  1  0.000000  0.360790  0.680328  1
  Tc  Tc10  1  0.000000  0.139043  0.179267  1
  Tc  Tc11  1  0.000000  0.861510  0.820532  1
  B  B12  1  0.500000  0.553683  0.432396  1
  B  B13  1  0.500000  0.446202  0.567753  1
  B  B14  1  0.500000  0.053663  0.067180  1
  B  B15  1  0.500000  0.946769  0.932517  1
  B  B16  1  0.500000  0.748717  0.417978  1
  B  B17  1  0.500000  0.251236  0.582180  1
  B  B18  1  0.500000  0.248752  0.081383  1
  B  B19  1  0.500000  0.751421  0.918073  1
  B  B20  1  0.500000  0.791486  0.265330  1
  B  B21  1  0.500000  0.208231  0.735064  1
  B  B22  1  0.500000  0.291476  0.234510  1
  B  B23  1  0.500000  0.708669  0.765369  1
  B  B24  1  0.500000  0.630784  0.185705  1
  B  B25  1  0.500000  0.368913  0.814617  1
  B  B26  1  0.500000  0.130775  0.313983  1
  B  B27  1  0.500000  0.869469  0.685975  1
  B  B28  1  0.500000  0.983072  0.211576  1
  B  B29  1  0.500000  0.017493  0.788401  1
  B  B30  1  0.500000  0.482852  0.288143  1
  B  B31  1  0.500000  0.516943  0.711924  1
  B  B32  1  0.500000  0.599868  0.027856  1
  B  B33  1  0.500000  0.399508  0.971973  1
  B  B34  1  0.500000  0.099526  0.472211  1
  B  B35  1  0.500000  0.900558  0.527830  1
