# generated using pymatgen
data_Ho3Bi(Ir2O7)2
_symmetry_space_group_name_H-M   'P 1'
_cell_length_a   7.25147253
_cell_length_b   7.26981034
_cell_length_c   7.25147300
_cell_angle_alpha   60.08340060
_cell_angle_beta   59.99999329
_cell_angle_gamma   60.08340021
_symmetry_Int_Tables_number   1
_chemical_formula_structural   Ho3Bi(Ir2O7)2
_chemical_formula_sum   'Ho3 Bi1 Ir4 O14'
_cell_volume   270.64924657
_cell_formula_units_Z   1
loop_
 _symmetry_equiv_pos_site_id
 _symmetry_equiv_pos_as_xyz
  1  'x, y, z'
loop_
 _atom_site_type_symbol
 _atom_site_label
 _atom_site_symmetry_multiplicity
 _atom_site_fract_x
 _atom_site_fract_y
 _atom_site_fract_z
 _atom_site_occupancy
  Ho  Ho0  1  0.625000  0.125000  0.125000  1
  Ho  Ho1  1  0.125000  0.125000  0.625000  1
  Ho  Ho2  1  0.125000  0.125000  0.125000  1
  Bi  Bi3  1  0.125000  0.625000  0.125000  1
  Ir  Ir4  1  0.125000  0.625000  0.625000  1
  Ir  Ir5  1  0.625000  0.125000  0.625000  1
  Ir  Ir6  1  0.625000  0.625000  0.125000  1
  Ir  Ir7  1  0.625000  0.625000  0.625000  1
  O  O8  1  0.705069  0.717604  0.288664  1
  O  O9  1  0.288076  0.287302  0.712311  1
  O  O10  1  0.712311  0.287302  0.712311  1
  O  O11  1  0.288664  0.717604  0.288664  1
  O  O12  1  0.288664  0.717604  0.705069  1
  O  O13  1  0.712311  0.287302  0.288076  1
  O  O14  1  0.544931  0.532396  0.961336  1
  O  O15  1  0.961924  0.962698  0.537689  1
  O  O16  1  0.537689  0.962698  0.537689  1
  O  O17  1  0.961336  0.532396  0.961336  1
  O  O18  1  0.961336  0.532396  0.544931  1
  O  O19  1  0.537689  0.962698  0.961924  1
  O  O20  1  0.253735  0.238794  0.253735  1
  O  O21  1  0.996265  0.011206  0.996265  1
