# generated using pymatgen
data_Li30Ge5Sb3
_symmetry_space_group_name_H-M   'P 1'
_cell_length_a   9.39190748
_cell_length_b   9.40597422
_cell_length_c   9.40050646
_cell_angle_alpha   109.48664063
_cell_angle_beta   109.45578500
_cell_angle_gamma   109.45595107
_symmetry_Int_Tables_number   1
_chemical_formula_structural   Li30Ge5Sb3
_chemical_formula_sum   'Li30 Ge5 Sb3'
_cell_volume   639.39438537
_cell_formula_units_Z   1
loop_
 _symmetry_equiv_pos_site_id
 _symmetry_equiv_pos_as_xyz
  1  'x, y, z'
loop_
 _atom_site_type_symbol
 _atom_site_label
 _atom_site_symmetry_multiplicity
 _atom_site_fract_x
 _atom_site_fract_y
 _atom_site_fract_z
 _atom_site_occupancy
  Li  Li0  1  0.471256  0.166808  0.879150  1
  Li  Li1  1  0.912988  0.679646  0.030955  1
  Li  Li2  1  0.805704  0.713090  0.335424  1
  Li  Li3  1  0.768590  0.575015  0.605361  1
  Li  Li4  1  0.576933  0.602349  0.768460  1
  Li  Li5  1  0.602559  0.767760  0.576662  1
  Li  Li6  1  0.650340  0.963179  0.387464  1
  Li  Li7  1  0.415600  0.529959  0.192498  1
  Li  Li8  1  0.625819  0.382537  0.252895  1
  Li  Li9  1  0.248763  0.622995  0.372683  1
  Li  Li10  1  0.744612  0.864530  0.122293  1
  Li  Li11  1  0.121649  0.739331  0.870271  1
  Li  Li12  1  0.382306  0.253538  0.627560  1
  Li  Li13  1  0.872353  0.134031  0.752752  1
  Li  Li14  1  0.091952  0.289544  0.123329  1
  Li  Li15  1  0.687594  0.038420  0.907145  1
  Li  Li16  1  0.888055  0.472490  0.162742  1
  Li  Li17  1  0.164084  0.876900  0.467043  1
  Li  Li18  1  0.336090  0.805984  0.713553  1
  Li  Li19  1  0.725742  0.339171  0.810612  1
  Li  Li20  1  0.034076  0.904886  0.685081  1
  Li  Li21  1  0.230245  0.316448  0.850064  1
  Li  Li22  1  0.196597  0.425311  0.531639  1
  Li  Li23  1  0.971000  0.394057  0.665223  1
  Li  Li24  1  0.305102  0.832400  0.228856  1
  Li  Li25  1  0.529215  0.193784  0.423376  1
  Li  Li26  1  0.379118  0.648824  0.966151  1
  Li  Li27  1  0.131524  0.094920  0.282374  1
  Li  Li28  1  0.283097  0.132709  0.092283  1
  Li  Li29  1  0.847927  0.238377  0.315515  1
  Ge  Ge30  1  0.082858  0.499293  0.999185  1
  Ge  Ge31  1  0.000116  0.584314  0.500671  1
  Ge  Ge32  1  0.583423  0.500774  0.000514  1
  Ge  Ge33  1  0.500335  0.001287  0.584526  1
  Ge  Ge34  1  0.416360  0.416371  0.415968  1
  Sb  Sb35  1  0.917034  0.917170  0.917495  1
  Sb  Sb36  1  0.499518  0.998971  0.082567  1
  Sb  Sb37  1  0.999467  0.082828  0.499662  1
