# generated using pymatgen
data_Tb2TcOs3
_symmetry_space_group_name_H-M   'P 1'
_cell_length_a   5.38775229
_cell_length_b   5.23801384
_cell_length_c   8.92797400
_cell_angle_alpha   90.00000000
_cell_angle_beta   90.00000000
_cell_angle_gamma   119.08481457
_symmetry_Int_Tables_number   1
_chemical_formula_structural   Tb2TcOs3
_chemical_formula_sum   'Tb4 Tc2 Os6'
_cell_volume   220.18587678
_cell_formula_units_Z   2
loop_
 _symmetry_equiv_pos_site_id
 _symmetry_equiv_pos_as_xyz
  1  'x, y, z'
loop_
 _atom_site_type_symbol
 _atom_site_label
 _atom_site_symmetry_multiplicity
 _atom_site_fract_x
 _atom_site_fract_y
 _atom_site_fract_z
 _atom_site_occupancy
  Tb  Tb0  1  0.329972  0.664987  0.436910  1
  Tb  Tb1  1  0.668309  0.334154  0.566129  1
  Tb  Tb2  1  0.668309  0.334154  0.933871  1
  Tb  Tb3  1  0.329972  0.664987  0.063090  1
  Tc  Tc4  1  0.829519  0.171603  0.250000  1
  Tc  Tc5  1  0.829519  0.657916  0.250000  1
  Os  Os6  1  0.996636  0.998318  0.501289  1
  Os  Os7  1  0.996636  0.998318  0.998711  1
  Os  Os8  1  0.345992  0.172996  0.250000  1
  Os  Os9  1  0.174311  0.830416  0.750000  1
  Os  Os10  1  0.174311  0.343894  0.750000  1
  Os  Os11  1  0.656516  0.828257  0.750000  1
