# generated using pymatgen
data_Nd6SmP12Rh17
_symmetry_space_group_name_H-M   'P 1'
_cell_length_a   3.97640800
_cell_length_b   11.36036200
_cell_length_c   13.15874300
_cell_angle_alpha   90.00000000
_cell_angle_beta   90.00000000
_cell_angle_gamma   90.00000000
_symmetry_Int_Tables_number   1
_chemical_formula_structural   Nd6SmP12Rh17
_chemical_formula_sum   'Nd6 Sm1 P12 Rh17'
_cell_volume   594.42561290
_cell_formula_units_Z   1
loop_
 _symmetry_equiv_pos_site_id
 _symmetry_equiv_pos_as_xyz
  1  'x, y, z'
loop_
 _atom_site_type_symbol
 _atom_site_label
 _atom_site_symmetry_multiplicity
 _atom_site_fract_x
 _atom_site_fract_y
 _atom_site_fract_z
 _atom_site_occupancy
  Nd  Nd0  1  0.000000  0.500000  0.523912  1
  Nd  Nd1  1  0.500000  0.000000  0.477886  1
  Nd  Nd2  1  0.500000  0.817928  0.207288  1
  Nd  Nd3  1  0.500000  0.182072  0.207288  1
  Nd  Nd4  1  0.000000  0.683640  0.795837  1
  Nd  Nd5  1  0.000000  0.316360  0.795837  1
  Sm  Sm6  1  0.500000  0.500000  0.156335  1
  P  P7  1  0.500000  0.500000  0.879158  1
  P  P8  1  0.000000  0.000000  0.118043  1
  P  P9  1  0.500000  0.500000  0.364226  1
  P  P10  1  0.000000  0.000000  0.650755  1
  P  P11  1  0.500000  0.310920  0.618500  1
  P  P12  1  0.500000  0.689080  0.618500  1
  P  P13  1  0.000000  0.186991  0.386771  1
  P  P14  1  0.000000  0.813009  0.386771  1
  P  P15  1  0.500000  0.854273  0.888044  1
  P  P16  1  0.500000  0.145727  0.888044  1
  P  P17  1  0.000000  0.666253  0.097164  1
  P  P18  1  0.000000  0.333747  0.097164  1
  Rh  Rh19  1  0.000000  0.000000  0.826464  1
  Rh  Rh20  1  0.500000  0.500000  0.702194  1
  Rh  Rh21  1  0.000000  0.000000  0.296107  1
  Rh  Rh22  1  0.000000  0.500000  0.979420  1
  Rh  Rh23  1  0.500000  0.000000  0.019050  1
  Rh  Rh24  1  0.500000  0.325857  0.985129  1
  Rh  Rh25  1  0.500000  0.674143  0.985129  1
  Rh  Rh26  1  0.000000  0.160128  0.000584  1
  Rh  Rh27  1  0.000000  0.839872  0.000584  1
  Rh  Rh28  1  0.500000  0.284561  0.437917  1
  Rh  Rh29  1  0.500000  0.715439  0.437917  1
  Rh  Rh30  1  0.000000  0.202677  0.573986  1
  Rh  Rh31  1  0.000000  0.797323  0.573986  1
  Rh  Rh32  1  0.500000  0.877450  0.709356  1
  Rh  Rh33  1  0.500000  0.122550  0.709356  1
  Rh  Rh34  1  0.000000  0.626172  0.302648  1
  Rh  Rh35  1  0.000000  0.373828  0.302648  1
