# generated using pymatgen
data_Nd4NpZnRu6
_symmetry_space_group_name_H-M   'P 1'
_cell_length_a   5.33553099
_cell_length_b   5.33553172
_cell_length_c   9.15800400
_cell_angle_alpha   90.00000000
_cell_angle_beta   90.00000000
_cell_angle_gamma   115.03046976
_symmetry_Int_Tables_number   1
_chemical_formula_structural   Nd4NpZnRu6
_chemical_formula_sum   'Nd4 Np1 Zn1 Ru6'
_cell_volume   236.22405562
_cell_formula_units_Z   1
loop_
 _symmetry_equiv_pos_site_id
 _symmetry_equiv_pos_as_xyz
  1  'x, y, z'
loop_
 _atom_site_type_symbol
 _atom_site_label
 _atom_site_symmetry_multiplicity
 _atom_site_fract_x
 _atom_site_fract_y
 _atom_site_fract_z
 _atom_site_occupancy
  Nd  Nd0  1  0.330944  0.669056  0.446201  1
  Nd  Nd1  1  0.658113  0.341887  0.573458  1
  Nd  Nd2  1  0.658113  0.341887  0.926542  1
  Nd  Nd3  1  0.330944  0.669056  0.053799  1
  Np  Np4  1  0.860828  0.139172  0.250000  1
  Zn  Zn5  1  0.164398  0.835602  0.750000  1
  Ru  Ru6  1  0.984666  0.015334  0.494679  1
  Ru  Ru7  1  0.984666  0.015334  0.005321  1
  Ru  Ru8  1  0.837583  0.634025  0.250000  1
  Ru  Ru9  1  0.365975  0.162417  0.250000  1
  Ru  Ru10  1  0.155664  0.331896  0.750000  1
  Ru  Ru11  1  0.668104  0.844336  0.750000  1
