# generated using pymatgen
data_Eu4TiGe2WO14
_symmetry_space_group_name_H-M   'P 1'
_cell_length_a   7.27797640
_cell_length_b   7.37376933
_cell_length_c   7.23530200
_cell_angle_alpha   60.61927218
_cell_angle_beta   60.19378322
_cell_angle_gamma   60.67525758
_symmetry_Int_Tables_number   1
_chemical_formula_structural   Eu4TiGe2WO14
_chemical_formula_sum   'Eu4 Ti1 Ge2 W1 O14'
_cell_volume   277.62983247
_cell_formula_units_Z   1
loop_
 _symmetry_equiv_pos_site_id
 _symmetry_equiv_pos_as_xyz
  1  'x, y, z'
loop_
 _atom_site_type_symbol
 _atom_site_label
 _atom_site_symmetry_multiplicity
 _atom_site_fract_x
 _atom_site_fract_y
 _atom_site_fract_z
 _atom_site_occupancy
  Eu  Eu0  1  0.125000  0.625000  0.125000  1
  Eu  Eu1  1  0.125000  0.125000  0.625000  1
  Eu  Eu2  1  0.625000  0.125000  0.125000  1
  Eu  Eu3  1  0.125000  0.125000  0.125000  1
  Ti  Ti4  1  0.125000  0.625000  0.625000  1
  Ge  Ge5  1  0.625000  0.625000  0.125000  1
  Ge  Ge6  1  0.625000  0.625000  0.625000  1
  W  W7  1  0.625000  0.125000  0.625000  1
  O  O8  1  0.695232  0.695241  0.304764  1
  O  O9  1  0.937998  0.559189  0.554307  1
  O  O10  1  0.557540  0.944776  0.943602  1
  O  O11  1  0.941896  0.949126  0.554488  1
  O  O12  1  0.937998  0.559189  0.948505  1
  O  O13  1  0.557540  0.944776  0.554082  1
  O  O14  1  0.312002  0.690811  0.301495  1
  O  O15  1  0.312002  0.690811  0.695693  1
  O  O16  1  0.692460  0.305224  0.306398  1
  O  O17  1  0.692460  0.305224  0.695918  1
  O  O18  1  0.554768  0.554759  0.945236  1
  O  O19  1  0.308104  0.300874  0.695512  1
  O  O20  1  0.250388  0.252449  0.248582  1
  O  O21  1  0.999612  0.997551  0.001418  1
