# generated using pymatgen
data_Tb6Dy10Cd4NiIr3
_symmetry_space_group_name_H-M   'P 1'
_cell_length_a   9.60489721
_cell_length_b   9.60489668
_cell_length_c   9.60489722
_cell_angle_alpha   60.34405731
_cell_angle_beta   60.34405883
_cell_angle_gamma   60.34405615
_symmetry_Int_Tables_number   1
_chemical_formula_structural   Tb6Dy10Cd4NiIr3
_chemical_formula_sum   'Tb6 Dy10 Cd4 Ni1 Ir3'
_cell_volume   631.43754925
_cell_formula_units_Z   1
loop_
 _symmetry_equiv_pos_site_id
 _symmetry_equiv_pos_as_xyz
  1  'x, y, z'
loop_
 _atom_site_type_symbol
 _atom_site_label
 _atom_site_symmetry_multiplicity
 _atom_site_fract_x
 _atom_site_fract_y
 _atom_site_fract_z
 _atom_site_occupancy
  Tb  Tb0  1  0.189383  0.811332  0.811332  1
  Tb  Tb1  1  0.813410  0.187862  0.187862  1
  Tb  Tb2  1  0.811332  0.189383  0.811332  1
  Tb  Tb3  1  0.187862  0.813410  0.187862  1
  Tb  Tb4  1  0.811332  0.811332  0.189383  1
  Tb  Tb5  1  0.187862  0.187862  0.813410  1
  Dy  Dy6  1  0.598352  0.598352  0.598352  1
  Dy  Dy7  1  0.598305  0.598305  0.203344  1
  Dy  Dy8  1  0.598305  0.203344  0.598305  1
  Dy  Dy9  1  0.203344  0.598305  0.598305  1
  Dy  Dy10  1  0.061072  0.439920  0.439920  1
  Dy  Dy11  1  0.437713  0.060372  0.060372  1
  Dy  Dy12  1  0.439920  0.061072  0.439920  1
  Dy  Dy13  1  0.060372  0.437713  0.060372  1
  Dy  Dy14  1  0.439920  0.439920  0.061072  1
  Dy  Dy15  1  0.060372  0.060372  0.437713  1
  Cd  Cd16  1  0.830303  0.830303  0.830303  1
  Cd  Cd17  1  0.831497  0.831497  0.506337  1
  Cd  Cd18  1  0.831497  0.506337  0.831497  1
  Cd  Cd19  1  0.506337  0.831497  0.831497  1
  Ni  Ni20  1  0.392108  0.392108  0.392108  1
  Ir  Ir21  1  0.392444  0.392444  0.824519  1
  Ir  Ir22  1  0.392444  0.824519  0.392444  1
  Ir  Ir23  1  0.824519  0.392444  0.392444  1
