# generated using pymatgen
data_Nd4H12PtRh
_symmetry_space_group_name_H-M   'P 1'
_cell_length_a   7.20767267
_cell_length_b   7.20767231
_cell_length_c   5.37724445
_cell_angle_alpha   89.93156854
_cell_angle_beta   89.93156467
_cell_angle_gamma   136.49413052
_symmetry_Int_Tables_number   1
_chemical_formula_structural   Nd4H12PtRh
_chemical_formula_sum   'Nd4 H12 Pt1 Rh1'
_cell_volume   192.31213748
_cell_formula_units_Z   1
loop_
 _symmetry_equiv_pos_site_id
 _symmetry_equiv_pos_as_xyz
  1  'x, y, z'
loop_
 _atom_site_type_symbol
 _atom_site_label
 _atom_site_symmetry_multiplicity
 _atom_site_fract_x
 _atom_site_fract_y
 _atom_site_fract_z
 _atom_site_occupancy
  Nd  Nd0  1  0.641910  0.358090  0.000000  1
  Nd  Nd1  1  0.358090  0.641910  0.000000  1
  Nd  Nd2  1  0.858750  0.141250  0.500000  1
  Nd  Nd3  1  0.141250  0.858750  0.500000  1
  H  H4  1  0.871588  0.128412  0.000000  1
  H  H5  1  0.128412  0.871588  0.000000  1
  H  H6  1  0.627925  0.372075  0.500000  1
  H  H7  1  0.372075  0.627925  0.500000  1
  H  H8  1  0.999614  0.500328  0.251716  1
  H  H9  1  0.000386  0.499672  0.748284  1
  H  H10  1  0.499672  0.000386  0.748284  1
  H  H11  1  0.500328  0.999614  0.251716  1
  H  H12  1  0.238131  0.238131  0.240699  1
  H  H13  1  0.761869  0.761869  0.759301  1
  H  H14  1  0.242460  0.242460  0.760185  1
  H  H15  1  0.757540  0.757540  0.239815  1
  Pt  Pt16  1  0.500000  0.500000  0.500000  1
  Rh  Rh17  1  0.000000  0.000000  0.000000  1
