# generated using pymatgen
data_Zr6P2S
_symmetry_space_group_name_H-M   'P 1'
_cell_length_a   3.63560000
_cell_length_b   12.43609300
_cell_length_c   15.24551200
_cell_angle_alpha   90.00000000
_cell_angle_beta   90.00000000
_cell_angle_gamma   90.00000000
_symmetry_Int_Tables_number   1
_chemical_formula_structural   Zr6P2S
_chemical_formula_sum   'Zr24 P8 S4'
_cell_volume   689.29014617
_cell_formula_units_Z   4
loop_
 _symmetry_equiv_pos_site_id
 _symmetry_equiv_pos_as_xyz
  1  'x, y, z'
loop_
 _atom_site_type_symbol
 _atom_site_label
 _atom_site_symmetry_multiplicity
 _atom_site_fract_x
 _atom_site_fract_y
 _atom_site_fract_z
 _atom_site_occupancy
  Zr  Zr0  1  0.500000  0.658366  0.478165  1
  Zr  Zr1  1  0.500000  0.341634  0.521835  1
  Zr  Zr2  1  0.000000  0.841634  0.978165  1
  Zr  Zr3  1  0.000000  0.158366  0.021835  1
  Zr  Zr4  1  0.500000  0.586962  0.247596  1
  Zr  Zr5  1  0.500000  0.413038  0.752404  1
  Zr  Zr6  1  0.000000  0.913038  0.747596  1
  Zr  Zr7  1  0.000000  0.086962  0.252404  1
  Zr  Zr8  1  0.500000  0.087067  0.422080  1
  Zr  Zr9  1  0.500000  0.912933  0.577920  1
  Zr  Zr10  1  0.000000  0.412933  0.922080  1
  Zr  Zr11  1  0.000000  0.587067  0.077920  1
  Zr  Zr12  1  0.500000  0.969549  0.108543  1
  Zr  Zr13  1  0.500000  0.030451  0.891457  1
  Zr  Zr14  1  0.000000  0.530451  0.608543  1
  Zr  Zr15  1  0.000000  0.469549  0.391457  1
  Zr  Zr16  1  0.500000  0.307042  0.290038  1
  Zr  Zr17  1  0.500000  0.692958  0.709962  1
  Zr  Zr18  1  0.000000  0.192958  0.790038  1
  Zr  Zr19  1  0.000000  0.807042  0.209962  1
  Zr  Zr20  1  0.500000  0.377968  0.083741  1
  Zr  Zr21  1  0.500000  0.622032  0.916259  1
  Zr  Zr22  1  0.000000  0.122032  0.583741  1
  Zr  Zr23  1  0.000000  0.877968  0.416259  1
  P  P24  1  0.500000  0.935976  0.290179  1
  P  P25  1  0.500000  0.064024  0.709821  1
  P  P26  1  0.000000  0.564024  0.790179  1
  P  P27  1  0.000000  0.435976  0.209821  1
  P  P28  1  0.500000  0.744397  0.088300  1
  P  P29  1  0.500000  0.255603  0.911700  1
  P  P30  1  0.000000  0.755603  0.588300  1
  P  P31  1  0.000000  0.244397  0.411700  1
  S  S32  1  0.500000  0.182447  0.149448  1
  S  S33  1  0.500000  0.817553  0.850552  1
  S  S34  1  0.000000  0.317553  0.649448  1
  S  S35  1  0.000000  0.682447  0.350552  1
