# generated using pymatgen
data_Rb4Si8W2O23
_symmetry_space_group_name_H-M   'P 1'
_cell_length_a   6.98538227
_cell_length_b   7.84057302
_cell_length_c   11.19367151
_cell_angle_alpha   103.92539460
_cell_angle_beta   89.16392351
_cell_angle_gamma   107.45529045
_symmetry_Int_Tables_number   1
_chemical_formula_structural   Rb4Si8W2O23
_chemical_formula_sum   'Rb4 Si8 W2 O23'
_cell_volume   566.55176854
_cell_formula_units_Z   1
loop_
 _symmetry_equiv_pos_site_id
 _symmetry_equiv_pos_as_xyz
  1  'x, y, z'
loop_
 _atom_site_type_symbol
 _atom_site_label
 _atom_site_symmetry_multiplicity
 _atom_site_fract_x
 _atom_site_fract_y
 _atom_site_fract_z
 _atom_site_occupancy
  Rb  Rb0  1  0.321543  0.281112  0.645072  1
  Rb  Rb1  1  0.678457  0.718888  0.354928  1
  Rb  Rb2  1  0.294530  0.223012  0.990805  1
  Rb  Rb3  1  0.705470  0.776988  0.009195  1
  Si  Si4  1  0.501116  0.194752  0.300629  1
  Si  Si5  1  0.498884  0.805248  0.699371  1
  Si  Si6  1  0.943963  0.865586  0.714049  1
  Si  Si7  1  0.056037  0.134414  0.285951  1
  Si  Si8  1  0.843936  0.298542  0.501273  1
  Si  Si9  1  0.156064  0.701458  0.498727  1
  Si  Si10  1  0.166264  0.671658  0.870437  1
  Si  Si11  1  0.833736  0.328342  0.129563  1
  W  W12  1  0.788704  0.256282  0.816029  1
  W  W13  1  0.211296  0.743718  0.183971  1
  O  O14  1  0.458844  0.977299  0.245743  1
  O  O15  1  0.541156  0.022701  0.754257  1
  O  O16  1  0.625517  0.313643  0.206011  1
  O  O17  1  0.374483  0.686357  0.793989  1
  O  O18  1  0.624728  0.278296  0.437177  1
  O  O19  1  0.375272  0.721704  0.562823  1
  O  O20  1  0.293661  0.252940  0.325526  1
  O  O21  1  0.706339  0.747060  0.674474  1
  O  O22  1  0.968819  0.077455  0.781267  1
  O  O23  1  0.031181  0.922545  0.218733  1
  O  O24  1  0.027207  0.764716  0.804270  1
  O  O25  1  0.972793  0.235284  0.195730  1
  O  O26  1  0.067197  0.858345  0.587028  1
  O  O27  1  0.932803  0.141655  0.412972  1
  O  O28  1  0.000000  0.500000  0.500000  1
  O  O29  1  0.819182  0.265901  0.635827  1
  O  O30  1  0.180818  0.734099  0.364173  1
  O  O31  1  0.060540  0.454239  0.859028  1
  O  O32  1  0.939460  0.545761  0.140972  1
  O  O33  1  0.221185  0.795287  0.010941  1
  O  O34  1  0.778815  0.204713  0.989059  1
  O  O35  1  0.625888  0.398137  0.852940  1
  O  O36  1  0.374112  0.601863  0.147060  1
