# generated using pymatgen
data_Ce4P8Os7Ru
_symmetry_space_group_name_H-M   'P 1'
_cell_length_a   4.15594200
_cell_length_b   7.52154256
_cell_length_c   10.43355600
_cell_angle_alpha   90.08139380
_cell_angle_beta   90.00000000
_cell_angle_gamma   90.00000000
_symmetry_Int_Tables_number   1
_chemical_formula_structural   Ce4P8Os7Ru
_chemical_formula_sum   'Ce4 P8 Os7 Ru1'
_cell_volume   326.14318541
_cell_formula_units_Z   1
loop_
 _symmetry_equiv_pos_site_id
 _symmetry_equiv_pos_as_xyz
  1  'x, y, z'
loop_
 _atom_site_type_symbol
 _atom_site_label
 _atom_site_symmetry_multiplicity
 _atom_site_fract_x
 _atom_site_fract_y
 _atom_site_fract_z
 _atom_site_occupancy
  Ce  Ce0  1  0.250000  0.268921  0.668806  1
  Ce  Ce1  1  0.750000  0.731965  0.331694  1
  Ce  Ce2  1  0.250000  0.766913  0.830052  1
  Ce  Ce3  1  0.750000  0.232138  0.169162  1
  P  P4  1  0.250000  0.092341  0.967326  1
  P  P5  1  0.750000  0.906552  0.032387  1
  P  P6  1  0.250000  0.594430  0.531971  1
  P  P7  1  0.750000  0.407134  0.467940  1
  P  P8  1  0.250000  0.529509  0.162364  1
  P  P9  1  0.750000  0.469282  0.839244  1
  P  P10  1  0.250000  0.029575  0.337803  1
  P  P11  1  0.750000  0.971796  0.661535  1
  Os  Os12  1  0.750000  0.109181  0.450060  1
  Os  Os13  1  0.250000  0.891714  0.549921  1
  Os  Os14  1  0.750000  0.608856  0.050059  1
  Os  Os15  1  0.250000  0.390450  0.950657  1
  Os  Os16  1  0.250000  0.869443  0.133676  1
  Os  Os17  1  0.750000  0.130183  0.866436  1
  Os  Os18  1  0.250000  0.368998  0.365806  1
  Ru  Ru19  1  0.750000  0.630617  0.633099  1
