# generated using pymatgen
data_AcMnFeO5
_symmetry_space_group_name_H-M   'P 1'
_cell_length_a   5.87933900
_cell_length_b   7.93442100
_cell_length_c   8.96090100
_cell_angle_alpha   90.00000000
_cell_angle_beta   90.00000000
_cell_angle_gamma   90.00000000
_symmetry_Int_Tables_number   1
_chemical_formula_structural   AcMnFeO5
_chemical_formula_sum   'Ac4 Mn4 Fe4 O20'
_cell_volume   418.01842230
_cell_formula_units_Z   4
loop_
 _symmetry_equiv_pos_site_id
 _symmetry_equiv_pos_as_xyz
  1  'x, y, z'
loop_
 _atom_site_type_symbol
 _atom_site_label
 _atom_site_symmetry_multiplicity
 _atom_site_fract_x
 _atom_site_fract_y
 _atom_site_fract_z
 _atom_site_occupancy
  Ac  Ac0  1  0.000000  0.645209  0.327794  1
  Ac  Ac1  1  0.000000  0.354791  0.672206  1
  Ac  Ac2  1  0.000000  0.145209  0.172206  1
  Ac  Ac3  1  0.000000  0.854791  0.827794  1
  Mn  Mn4  1  0.256490  0.500000  0.000000  1
  Mn  Mn5  1  0.743510  0.000000  0.500000  1
  Mn  Mn6  1  0.743510  0.500000  0.000000  1
  Mn  Mn7  1  0.256490  0.000000  0.500000  1
  Fe  Fe8  1  0.500000  0.888065  0.140378  1
  Fe  Fe9  1  0.500000  0.111935  0.859622  1
  Fe  Fe10  1  0.500000  0.388065  0.359622  1
  Fe  Fe11  1  0.500000  0.611935  0.640378  1
  O  O12  1  0.000000  0.647649  0.048107  1
  O  O13  1  0.000000  0.352351  0.951893  1
  O  O14  1  0.000000  0.147649  0.451893  1
  O  O15  1  0.000000  0.852351  0.548107  1
  O  O16  1  0.280627  0.500000  0.500000  1
  O  O17  1  0.719373  0.000000  0.000000  1
  O  O18  1  0.719373  0.500000  0.500000  1
  O  O19  1  0.280627  0.000000  0.000000  1
  O  O20  1  0.500000  0.653985  0.061220  1
  O  O21  1  0.500000  0.346015  0.938780  1
  O  O22  1  0.500000  0.153985  0.438780  1
  O  O23  1  0.500000  0.846015  0.561220  1
  O  O24  1  0.256926  0.908905  0.295467  1
  O  O25  1  0.256926  0.091095  0.704533  1
  O  O26  1  0.743074  0.408905  0.204533  1
  O  O27  1  0.743074  0.591095  0.795467  1
  O  O28  1  0.743074  0.091095  0.704533  1
  O  O29  1  0.743074  0.908905  0.295467  1
  O  O30  1  0.256926  0.591095  0.795467  1
  O  O31  1  0.256926  0.408905  0.204533  1
