# generated using pymatgen
data_Tb19Y(Bi2P)4
_symmetry_space_group_name_H-M   'P 1'
_cell_length_a   8.05627106
_cell_length_b   9.00240600
_cell_length_c   12.27922809
_cell_angle_alpha   90.00000000
_cell_angle_beta   89.98573451
_cell_angle_gamma   90.00000000
_symmetry_Int_Tables_number   1
_chemical_formula_structural   Tb19Y(Bi2P)4
_chemical_formula_sum   'Tb19 Y1 Bi8 P4'
_cell_volume   890.56109519
_cell_formula_units_Z   1
loop_
 _symmetry_equiv_pos_site_id
 _symmetry_equiv_pos_as_xyz
  1  'x, y, z'
loop_
 _atom_site_type_symbol
 _atom_site_label
 _atom_site_symmetry_multiplicity
 _atom_site_fract_x
 _atom_site_fract_y
 _atom_site_fract_z
 _atom_site_occupancy
  Tb  Tb0  1  0.147923  0.250000  0.204900  1
  Tb  Tb1  1  0.352087  0.250000  0.705032  1
  Tb  Tb2  1  0.647883  0.750000  0.295132  1
  Tb  Tb3  1  0.376398  0.750000  0.698802  1
  Tb  Tb4  1  0.623783  0.250000  0.301117  1
  Tb  Tb5  1  0.876194  0.250000  0.801221  1
  Tb  Tb6  1  0.123788  0.750000  0.198860  1
  Tb  Tb7  1  0.959696  0.750000  0.502302  1
  Tb  Tb8  1  0.040117  0.250000  0.497668  1
  Tb  Tb9  1  0.459939  0.250000  0.997586  1
  Tb  Tb10  1  0.540291  0.750000  0.002449  1
  Tb  Tb11  1  0.683991  0.046443  0.564201  1
  Tb  Tb12  1  0.315986  0.953278  0.435806  1
  Tb  Tb13  1  0.184196  0.953397  0.935815  1
  Tb  Tb14  1  0.315986  0.546722  0.435806  1
  Tb  Tb15  1  0.815946  0.046843  0.064201  1
  Tb  Tb16  1  0.683991  0.453557  0.564201  1
  Tb  Tb17  1  0.815946  0.453157  0.064201  1
  Tb  Tb18  1  0.184196  0.546603  0.935815  1
  Y  Y19  1  0.852472  0.750000  0.795282  1
  Bi  Bi20  1  0.577560  0.491422  0.826127  1
  Bi  Bi21  1  0.422515  0.508658  0.173836  1
  Bi  Bi22  1  0.077210  0.508911  0.673967  1
  Bi  Bi23  1  0.422515  0.991342  0.173836  1
  Bi  Bi24  1  0.922520  0.491276  0.326126  1
  Bi  Bi25  1  0.577560  0.008578  0.826127  1
  Bi  Bi26  1  0.922520  0.008724  0.326126  1
  Bi  Bi27  1  0.077210  0.991089  0.673967  1
  P  P28  1  0.568930  0.750000  0.510997  1
  P  P29  1  0.430924  0.250000  0.488865  1
  P  P30  1  0.068964  0.250000  0.988817  1
  P  P31  1  0.930764  0.750000  0.010810  1
