# generated using pymatgen
data_TbYPRh6
_symmetry_space_group_name_H-M   'P 1'
_cell_length_a   5.96936635
_cell_length_b   5.96936619
_cell_length_c   5.96936500
_cell_angle_alpha   60.00000107
_cell_angle_beta   60.00000192
_cell_angle_gamma   59.99999723
_symmetry_Int_Tables_number   1
_chemical_formula_structural   TbYPRh6
_chemical_formula_sum   'Tb1 Y1 P1 Rh6'
_cell_volume   150.40753445
_cell_formula_units_Z   1
loop_
 _symmetry_equiv_pos_site_id
 _symmetry_equiv_pos_as_xyz
  1  'x, y, z'
loop_
 _atom_site_type_symbol
 _atom_site_label
 _atom_site_symmetry_multiplicity
 _atom_site_fract_x
 _atom_site_fract_y
 _atom_site_fract_z
 _atom_site_occupancy
  Tb  Tb0  1  0.750000  0.750000  0.750000  1
  Y  Y1  1  0.250000  0.250000  0.250000  1
  P  P2  1  0.000000  0.000000  0.000000  1
  Rh  Rh3  1  0.733683  0.266318  0.266318  1
  Rh  Rh4  1  0.266318  0.733683  0.266318  1
  Rh  Rh5  1  0.733682  0.733682  0.266319  1
  Rh  Rh6  1  0.266318  0.266318  0.733683  1
  Rh  Rh7  1  0.733682  0.266319  0.733682  1
  Rh  Rh8  1  0.266319  0.733682  0.733682  1
