# generated using pymatgen
data_Tb5Er5(TlBi2)2
_symmetry_space_group_name_H-M   'P 1'
_cell_length_a   9.07150300
_cell_length_b   9.08084402
_cell_length_c   6.49417300
_cell_angle_alpha   90.00000000
_cell_angle_beta   90.00000000
_cell_angle_gamma   119.73527254
_symmetry_Int_Tables_number   1
_chemical_formula_structural   Tb5Er5(TlBi2)2
_chemical_formula_sum   'Tb5 Er5 Tl2 Bi4'
_cell_volume   464.52842120
_cell_formula_units_Z   1
loop_
 _symmetry_equiv_pos_site_id
 _symmetry_equiv_pos_as_xyz
  1  'x, y, z'
loop_
 _atom_site_type_symbol
 _atom_site_label
 _atom_site_symmetry_multiplicity
 _atom_site_fract_x
 _atom_site_fract_y
 _atom_site_fract_z
 _atom_site_occupancy
  Tb  Tb0  1  0.759658  0.759339  0.750000  1
  Tb  Tb1  1  0.234674  0.997235  0.750000  1
  Tb  Tb2  1  0.997392  0.236652  0.750000  1
  Tb  Tb3  1  0.237138  0.237065  0.250000  1
  Tb  Tb4  1  0.764677  0.008128  0.250000  1
  Er  Er5  1  0.668670  0.328838  0.003324  1
  Er  Er6  1  0.329652  0.669365  0.003374  1
  Er  Er7  1  0.329652  0.669365  0.496626  1
  Er  Er8  1  0.668670  0.328838  0.496676  1
  Er  Er9  1  0.008929  0.764545  0.250000  1
  Tl  Tl10  1  0.395076  0.001384  0.250000  1
  Tl  Tl11  1  0.002316  0.397714  0.250000  1
  Bi  Bi12  1  0.393708  0.393483  0.750000  1
  Bi  Bi13  1  0.602404  0.997005  0.750000  1
  Bi  Bi14  1  0.997188  0.602356  0.750000  1
  Bi  Bi15  1  0.610197  0.608688  0.250000  1
