# generated using pymatgen
data_Tm6Fe3Co13(ReP6)2
_symmetry_space_group_name_H-M   'P 1'
_cell_length_a   3.70907700
_cell_length_b   10.52704713
_cell_length_c   12.09190628
_cell_angle_alpha   89.94702721
_cell_angle_beta   90.00000000
_cell_angle_gamma   90.00000000
_symmetry_Int_Tables_number   1
_chemical_formula_structural   Tm6Fe3Co13(ReP6)2
_chemical_formula_sum   'Tm6 Fe3 Co13 Re2 P12'
_cell_volume   472.13587756
_cell_formula_units_Z   1
loop_
 _symmetry_equiv_pos_site_id
 _symmetry_equiv_pos_as_xyz
  1  'x, y, z'
loop_
 _atom_site_type_symbol
 _atom_site_label
 _atom_site_symmetry_multiplicity
 _atom_site_fract_x
 _atom_site_fract_y
 _atom_site_fract_z
 _atom_site_occupancy
  Tm  Tm0  1  0.000000  0.500034  0.525584  1
  Tm  Tm1  1  0.500000  0.000046  0.474387  1
  Tm  Tm2  1  0.500000  0.819223  0.203313  1
  Tm  Tm3  1  0.500000  0.181041  0.203311  1
  Tm  Tm4  1  0.000000  0.680340  0.796972  1
  Tm  Tm5  1  0.000000  0.318744  0.797426  1
  Fe  Fe6  1  0.000000  0.502668  0.987273  1
  Fe  Fe7  1  0.500000  0.998981  0.012708  1
  Fe  Fe8  1  0.500000  0.331413  0.992711  1
  Co  Co9  1  0.500000  0.499951  0.699423  1
  Co  Co10  1  0.000000  0.000117  0.300701  1
  Co  Co11  1  0.500000  0.670030  0.989594  1
  Co  Co12  1  0.000000  0.165862  0.009365  1
  Co  Co13  1  0.000000  0.831300  0.010248  1
  Co  Co14  1  0.500000  0.296255  0.431190  1
  Co  Co15  1  0.500000  0.704148  0.431074  1
  Co  Co16  1  0.000000  0.204097  0.568912  1
  Co  Co17  1  0.000000  0.796028  0.568878  1
  Co  Co18  1  0.500000  0.878608  0.707273  1
  Co  Co19  1  0.500000  0.120956  0.707193  1
  Co  Co20  1  0.000000  0.621528  0.292928  1
  Co  Co21  1  0.000000  0.378317  0.291248  1
  Re  Re22  1  0.500000  0.502216  0.156487  1
  Re  Re23  1  0.000000  0.999173  0.842995  1
  P  P24  1  0.500000  0.498553  0.881842  1
  P  P25  1  0.000000  0.999540  0.119623  1
  P  P26  1  0.500000  0.499660  0.349765  1
  P  P27  1  0.000000  0.000111  0.649712  1
  P  P28  1  0.500000  0.311475  0.617612  1
  P  P29  1  0.500000  0.688391  0.617405  1
  P  P30  1  0.000000  0.188703  0.382678  1
  P  P31  1  0.000000  0.811748  0.382745  1
  P  P32  1  0.500000  0.846316  0.892857  1
  P  P33  1  0.500000  0.154939  0.894161  1
  P  P34  1  0.000000  0.654155  0.107120  1
  P  P35  1  0.000000  0.345334  0.103285  1
