# generated using pymatgen
data_La5Np5O19
_symmetry_space_group_name_H-M   'P 1'
_cell_length_a   6.93354565
_cell_length_b   7.66168671
_cell_length_c   8.63790500
_cell_angle_alpha   97.80586338
_cell_angle_beta   97.62894867
_cell_angle_gamma   107.87818199
_symmetry_Int_Tables_number   1
_chemical_formula_structural   La5Np5O19
_chemical_formula_sum   'La5 Np5 O19'
_cell_volume   425.19384759
_cell_formula_units_Z   1
loop_
 _symmetry_equiv_pos_site_id
 _symmetry_equiv_pos_as_xyz
  1  'x, y, z'
loop_
 _atom_site_type_symbol
 _atom_site_label
 _atom_site_symmetry_multiplicity
 _atom_site_fract_x
 _atom_site_fract_y
 _atom_site_fract_z
 _atom_site_occupancy
  La  La0  1  0.803721  0.106903  0.601873  1
  La  La1  1  0.385755  0.296118  0.798855  1
  La  La2  1  0.605284  0.701097  0.203993  1
  La  La3  1  0.998654  0.503447  0.995961  1
  La  La4  1  0.206569  0.907713  0.390779  1
  Np  Np5  1  0.778943  0.597592  0.600388  1
  Np  Np6  1  0.600469  0.202259  0.195191  1
  Np  Np7  1  0.995011  0.011412  0.003692  1
  Np  Np8  1  0.413684  0.806867  0.812700  1
  Np  Np9  1  0.203404  0.389618  0.392920  1
  O  O10  1  0.328861  0.047684  0.954171  1
  O  O11  1  0.438565  0.993559  0.653988  1
  O  O12  1  0.038258  0.222937  0.858813  1
  O  O13  1  0.724436  0.387051  0.736949  1
  O  O14  1  0.152662  0.178945  0.533585  1
  O  O15  1  0.363565  0.597996  0.953145  1
  O  O16  1  0.947325  0.266041  0.166760  1
  O  O17  1  0.912181  0.397973  0.470850  1
  O  O18  1  0.756733  0.856809  0.769135  1
  O  O19  1  0.548194  0.447211  0.363450  1
  O  O20  1  0.404250  0.557408  0.628739  1
  O  O21  1  0.252635  0.137484  0.234007  1
  O  O22  1  0.071337  0.702463  0.776782  1
  O  O23  1  0.640141  0.406738  0.056226  1
  O  O24  1  0.859051  0.803991  0.462810  1
  O  O25  1  0.250237  0.616688  0.271935  1
  O  O26  1  0.954646  0.786549  0.131083  1
  O  O27  1  0.570029  0.003755  0.344785  1
  O  O28  1  0.659314  0.953332  0.044676  1
