# generated using pymatgen
data_V2Ni(SeO3)4
_symmetry_space_group_name_H-M   'P 1'
_cell_length_a   8.12968100
_cell_length_b   8.24210626
_cell_length_c   8.32125065
_cell_angle_alpha   87.45534490
_cell_angle_beta   90.00000000
_cell_angle_gamma   90.00000000
_symmetry_Int_Tables_number   1
_chemical_formula_structural   V2Ni(SeO3)4
_chemical_formula_sum   'V4 Ni2 Se8 O24'
_cell_volume   557.02137108
_cell_formula_units_Z   2
loop_
 _symmetry_equiv_pos_site_id
 _symmetry_equiv_pos_as_xyz
  1  'x, y, z'
loop_
 _atom_site_type_symbol
 _atom_site_label
 _atom_site_symmetry_multiplicity
 _atom_site_fract_x
 _atom_site_fract_y
 _atom_site_fract_z
 _atom_site_occupancy
  V  V0  1  0.758737  0.750139  0.002611  1
  V  V1  1  0.736943  0.244251  0.506014  1
  V  V2  1  0.241263  0.250139  0.002611  1
  V  V3  1  0.263057  0.744251  0.506014  1
  Ni  Ni4  1  0.595342  0.346689  0.163389  1
  Ni  Ni5  1  0.404658  0.846689  0.163389  1
  Se  Se6  1  0.098520  0.557488  0.184852  1
  Se  Se7  1  0.901480  0.057488  0.184852  1
  Se  Se8  1  0.575223  0.450527  0.824645  1
  Se  Se9  1  0.319114  0.160461  0.417577  1
  Se  Se10  1  0.057664  0.417225  0.681418  1
  Se  Se11  1  0.424777  0.950527  0.824645  1
  Se  Se12  1  0.680886  0.660461  0.417577  1
  Se  Se13  1  0.942336  0.917225  0.681418  1
  O  O14  1  0.977544  0.713301  0.105280  1
  O  O15  1  0.303256  0.007339  0.990390  1
  O  O16  1  0.174146  0.259673  0.774377  1
  O  O17  1  0.666923  0.453291  0.368632  1
  O  O18  1  0.743206  0.175193  0.265667  1
  O  O19  1  0.198410  0.494001  0.017096  1
  O  O20  1  0.215598  0.515454  0.575334  1
  O  O21  1  0.629651  0.751676  0.230188  1
  O  O22  1  0.719497  0.347993  0.723292  1
  O  O23  1  0.333077  0.953291  0.368632  1
  O  O24  1  0.976477  0.312075  0.522813  1
  O  O25  1  0.486511  0.293056  0.946711  1
  O  O26  1  0.825854  0.759673  0.774377  1
  O  O27  1  0.508776  0.690867  0.525615  1
  O  O28  1  0.280503  0.847993  0.723292  1
  O  O29  1  0.256794  0.675193  0.265667  1
  O  O30  1  0.370349  0.251676  0.230188  1
  O  O31  1  0.022456  0.213301  0.105280  1
  O  O32  1  0.023523  0.812075  0.522813  1
  O  O33  1  0.513489  0.793056  0.946711  1
  O  O34  1  0.696744  0.507338  0.990390  1
  O  O35  1  0.784402  0.015454  0.575334  1
  O  O36  1  0.491224  0.190867  0.525615  1
  O  O37  1  0.801590  0.994001  0.017096  1
