# generated using pymatgen
data_Nd11In9CoPd3
_symmetry_space_group_name_H-M   'P 1'
_cell_length_a   13.44309874
_cell_length_b   13.48490002
_cell_length_c   3.80991800
_cell_angle_alpha   90.00000000
_cell_angle_beta   90.00000000
_cell_angle_gamma   111.10130909
_symmetry_Int_Tables_number   1
_chemical_formula_structural   Nd11In9CoPd3
_chemical_formula_sum   'Nd11 In9 Co1 Pd3'
_cell_volume   644.34569840
_cell_formula_units_Z   1
loop_
 _symmetry_equiv_pos_site_id
 _symmetry_equiv_pos_as_xyz
  1  'x, y, z'
loop_
 _atom_site_type_symbol
 _atom_site_label
 _atom_site_symmetry_multiplicity
 _atom_site_fract_x
 _atom_site_fract_y
 _atom_site_fract_z
 _atom_site_occupancy
  Nd  Nd0  1  0.419974  0.081380  0.000000  1
  Nd  Nd1  1  0.583001  0.930379  0.000000  1
  Nd  Nd2  1  0.071889  0.416719  0.000000  1
  Nd  Nd3  1  0.927974  0.582367  0.000000  1
  Nd  Nd4  1  0.159404  0.842055  0.000000  1
  Nd  Nd5  1  0.840071  0.158592  0.000000  1
  Nd  Nd6  1  0.370758  0.628106  0.000000  1
  Nd  Nd7  1  0.619593  0.364107  0.000000  1
  Nd  Nd8  1  0.316320  0.305527  0.000000  1
  Nd  Nd9  1  0.691495  0.690942  0.000000  1
  Nd  Nd10  1  0.000930  0.000081  0.000000  1
  In  In11  1  0.366108  0.841243  0.500000  1
  In  In12  1  0.632686  0.163043  0.500000  1
  In  In13  1  0.838383  0.366630  0.500000  1
  In  In14  1  0.160123  0.633212  0.500000  1
  In  In15  1  0.221552  0.078708  0.500000  1
  In  In16  1  0.781930  0.924620  0.500000  1
  In  In17  1  0.077399  0.218683  0.500000  1
  In  In18  1  0.924711  0.781840  0.500000  1
  In  In19  1  0.499844  0.498009  0.500000  1
  Co  Co20  1  0.446394  0.241632  0.500000  1
  Pd  Pd21  1  0.549889  0.753475  0.500000  1
  Pd  Pd22  1  0.248499  0.449351  0.500000  1
  Pd  Pd23  1  0.751075  0.549301  0.500000  1
