# generated using pymatgen
data_DyHf(Co5P3)2
_symmetry_space_group_name_H-M   'P 1'
_cell_length_a   3.62443200
_cell_length_b   10.21793100
_cell_length_c   11.67439800
_cell_angle_alpha   90.00000000
_cell_angle_beta   90.00000000
_cell_angle_gamma   90.00000000
_symmetry_Int_Tables_number   1
_chemical_formula_structural   DyHf(Co5P3)2
_chemical_formula_sum   'Dy2 Hf2 Co20 P12'
_cell_volume   432.35194477
_cell_formula_units_Z   2
loop_
 _symmetry_equiv_pos_site_id
 _symmetry_equiv_pos_as_xyz
  1  'x, y, z'
loop_
 _atom_site_type_symbol
 _atom_site_label
 _atom_site_symmetry_multiplicity
 _atom_site_fract_x
 _atom_site_fract_y
 _atom_site_fract_z
 _atom_site_occupancy
  Dy  Dy0  1  0.750000  0.417635  0.296841  1
  Dy  Dy1  1  0.750000  0.082365  0.796841  1
  Hf  Hf2  1  0.250000  0.581787  0.701311  1
  Hf  Hf3  1  0.250000  0.918213  0.201311  1
  Co  Co4  1  0.250000  0.718741  0.993271  1
  Co  Co5  1  0.250000  0.781259  0.493271  1
  Co  Co6  1  0.750000  0.281919  0.008742  1
  Co  Co7  1  0.750000  0.218081  0.508742  1
  Co  Co8  1  0.250000  0.410319  0.490915  1
  Co  Co9  1  0.250000  0.089681  0.990915  1
  Co  Co10  1  0.750000  0.593821  0.517047  1
  Co  Co11  1  0.750000  0.906179  0.017047  1
  Co  Co12  1  0.250000  0.221121  0.177864  1
  Co  Co13  1  0.250000  0.278879  0.677864  1
  Co  Co14  1  0.750000  0.775888  0.822548  1
  Co  Co15  1  0.750000  0.724112  0.322548  1
  Co  Co16  1  0.250000  0.879716  0.698559  1
  Co  Co17  1  0.250000  0.620284  0.198559  1
  Co  Co18  1  0.750000  0.112526  0.298763  1
  Co  Co19  1  0.750000  0.387474  0.798763  1
  Co  Co20  1  0.250000  0.470571  0.928128  1
  Co  Co21  1  0.250000  0.029429  0.428128  1
  Co  Co22  1  0.750000  0.535431  0.066546  1
  Co  Co23  1  0.750000  0.964569  0.566546  1
  P  P24  1  0.250000  0.419217  0.110292  1
  P  P25  1  0.250000  0.080783  0.610292  1
  P  P26  1  0.750000  0.581650  0.883995  1
  P  P27  1  0.750000  0.918350  0.383995  1
  P  P28  1  0.250000  0.270121  0.872030  1
  P  P29  1  0.250000  0.229879  0.372030  1
  P  P30  1  0.750000  0.733170  0.131861  1
  P  P31  1  0.750000  0.766830  0.631861  1
  P  P32  1  0.250000  0.602058  0.390832  1
  P  P33  1  0.250000  0.897942  0.890832  1
  P  P34  1  0.750000  0.401069  0.610456  1
  P  P35  1  0.750000  0.098931  0.110456  1
