# generated using pymatgen
data_KCrAs2O7
_symmetry_space_group_name_H-M   'P 1'
_cell_length_a   6.43731672
_cell_length_b   6.54051270
_cell_length_c   8.35575969
_cell_angle_alpha   96.48533180
_cell_angle_beta   104.00647483
_cell_angle_gamma   103.90438630
_symmetry_Int_Tables_number   1
_chemical_formula_structural   KCrAs2O7
_chemical_formula_sum   'K2 Cr2 As4 O14'
_cell_volume   325.82956642
_cell_formula_units_Z   2
loop_
 _symmetry_equiv_pos_site_id
 _symmetry_equiv_pos_as_xyz
  1  'x, y, z'
loop_
 _atom_site_type_symbol
 _atom_site_label
 _atom_site_symmetry_multiplicity
 _atom_site_fract_x
 _atom_site_fract_y
 _atom_site_fract_z
 _atom_site_occupancy
  K  K0  1  0.000000  0.500000  0.500000  1
  K  K1  1  0.000000  0.500000  0.000000  1
  Cr  Cr2  1  0.375118  0.191113  0.726467  1
  Cr  Cr3  1  0.624882  0.808887  0.273533  1
  As  As4  1  0.824629  0.034138  0.689767  1
  As  As5  1  0.483271  0.746484  0.833932  1
  As  As6  1  0.175371  0.965862  0.310233  1
  As  As7  1  0.516729  0.253516  0.166068  1
  O  O8  1  0.231632  0.116400  0.148274  1
  O  O9  1  0.310641  0.874718  0.721984  1
  O  O10  1  0.575608  0.496499  0.287715  1
  O  O11  1  0.911471  0.804081  0.218142  1
  O  O12  1  0.689359  0.125282  0.278016  1
  O  O13  1  0.768368  0.883600  0.851726  1
  O  O14  1  0.333147  0.789447  0.329151  1
  O  O15  1  0.446549  0.737770  0.028381  1
  O  O16  1  0.424392  0.503501  0.712285  1
  O  O17  1  0.208165  0.151526  0.479895  1
  O  O18  1  0.791835  0.848474  0.520105  1
  O  O19  1  0.088529  0.195919  0.781858  1
  O  O20  1  0.553451  0.262230  0.971619  1
  O  O21  1  0.666853  0.210553  0.670849  1
