# generated using pymatgen
data_Tb2Dy2Lu(SiB4)2
_symmetry_space_group_name_H-M   'P 1'
_cell_length_a   7.21686809
_cell_length_b   7.21691609
_cell_length_c   8.05950700
_cell_angle_alpha   89.99948209
_cell_angle_beta   89.99987965
_cell_angle_gamma   90.01772012
_symmetry_Int_Tables_number   1
_chemical_formula_structural   Tb2Dy2Lu(SiB4)2
_chemical_formula_sum   'Tb4 Dy4 Lu2 Si4 B16'
_cell_volume   419.76756569
_cell_formula_units_Z   2
loop_
 _symmetry_equiv_pos_site_id
 _symmetry_equiv_pos_as_xyz
  1  'x, y, z'
loop_
 _atom_site_type_symbol
 _atom_site_label
 _atom_site_symmetry_multiplicity
 _atom_site_fract_x
 _atom_site_fract_y
 _atom_site_fract_z
 _atom_site_occupancy
  Tb  Tb0  1  0.680359  0.180390  0.226310  1
  Tb  Tb1  1  0.319631  0.819669  0.773586  1
  Tb  Tb2  1  0.319661  0.819699  0.226357  1
  Tb  Tb3  1  0.819695  0.680268  0.226216  1
  Dy  Dy4  1  0.819670  0.680291  0.774781  1
  Dy  Dy5  1  0.680377  0.180413  0.774692  1
  Dy  Dy6  1  0.180347  0.319623  0.774847  1
  Dy  Dy7  1  0.180316  0.319650  0.225095  1
  Lu  Lu8  1  0.999938  0.000301  0.500305  1
  Lu  Lu9  1  0.499916  0.499685  0.500281  1
  Si  Si10  1  0.115839  0.615494  0.500326  1
  Si  Si11  1  0.884207  0.383856  0.500541  1
  Si  Si12  1  0.383960  0.116384  0.500322  1
  Si  Si13  1  0.616080  0.884271  0.500539  1
  B  B14  1  0.172265  0.039415  0.999814  1
  B  B15  1  0.827741  0.961017  0.999690  1
  B  B16  1  0.961034  0.172422  0.999766  1
  B  B17  1  0.327718  0.538747  0.999810  1
  B  B18  1  0.038949  0.827855  0.999732  1
  B  B19  1  0.672287  0.460820  0.999688  1
  B  B20  1  0.539193  0.672126  0.999761  1
  B  B21  1  0.460790  0.327601  0.999735  1
  B  B22  1  0.090005  0.589848  0.999698  1
  B  B23  1  0.910117  0.409960  0.999697  1
  B  B24  1  0.409987  0.090170  0.999698  1
  B  B25  1  0.590138  0.910024  0.999697  1
  B  B26  1  0.000180  0.000366  0.162683  1
  B  B27  1  0.999708  0.000220  0.836828  1
  B  B28  1  0.500184  0.499634  0.836823  1
  B  B29  1  0.499707  0.499780  0.162683  1
