# generated using pymatgen
data_TmLu3Al18Ir5Au
_symmetry_space_group_name_H-M   'P 1'
_cell_length_a   7.55977608
_cell_length_b   7.56004152
_cell_length_c   9.40761006
_cell_angle_alpha   89.98868397
_cell_angle_beta   90.00126501
_cell_angle_gamma   119.62368909
_symmetry_Int_Tables_number   1
_chemical_formula_structural   TmLu3Al18Ir5Au
_chemical_formula_sum   'Tm1 Lu3 Al18 Ir5 Au1'
_cell_volume   467.38784159
_cell_formula_units_Z   1
loop_
 _symmetry_equiv_pos_site_id
 _symmetry_equiv_pos_as_xyz
  1  'x, y, z'
loop_
 _atom_site_type_symbol
 _atom_site_label
 _atom_site_symmetry_multiplicity
 _atom_site_fract_x
 _atom_site_fract_y
 _atom_site_fract_z
 _atom_site_occupancy
  Tm  Tm0  1  0.996016  0.672995  0.251648  1
  Lu  Lu1  1  0.003980  0.326976  0.748201  1
  Lu  Lu2  1  0.672956  0.996059  0.251782  1
  Lu  Lu3  1  0.327016  0.003987  0.748210  1
  Al  Al4  1  0.134194  0.134300  0.255679  1
  Al  Al5  1  0.865846  0.865873  0.744348  1
  Al  Al6  1  0.000590  0.343502  0.079984  1
  Al  Al7  1  0.999429  0.656272  0.919717  1
  Al  Al8  1  0.000688  0.664708  0.575240  1
  Al  Al9  1  0.335509  0.999536  0.425099  1
  Al  Al10  1  0.999326  0.335110  0.425070  1
  Al  Al11  1  0.664701  0.000679  0.575050  1
  Al  Al12  1  0.656299  0.999427  0.919875  1
  Al  Al13  1  0.343925  0.000756  0.080000  1
  Al  Al14  1  0.332703  0.332710  0.554834  1
  Al  Al15  1  0.667125  0.667300  0.445339  1
  Al  Al16  1  0.658693  0.658867  0.061037  1
  Al  Al17  1  0.341103  0.341110  0.938790  1
  Al  Al18  1  0.339094  0.550571  0.251204  1
  Al  Al19  1  0.661005  0.449379  0.748800  1
  Al  Al20  1  0.550400  0.338817  0.251202  1
  Al  Al21  1  0.449393  0.661032  0.748800  1
  Ir  Ir22  1  0.672133  0.327771  0.999932  1
  Ir  Ir23  1  0.327856  0.672165  0.999920  1
  Ir  Ir24  1  0.327752  0.672256  0.500078  1
  Ir  Ir25  1  0.672239  0.327669  0.500092  1
  Ir  Ir26  1  0.000019  0.000130  0.500098  1
  Au  Au27  1  0.000010  0.000041  0.999971  1
