# generated using pymatgen
data_TbHo5Al24(Ru3Rh)2
_symmetry_space_group_name_H-M   'P 1'
_cell_length_a   8.78137172
_cell_length_b   8.77794348
_cell_length_c   9.53341700
_cell_angle_alpha   90.00000000
_cell_angle_beta   90.00000000
_cell_angle_gamma   119.51130853
_symmetry_Int_Tables_number   1
_chemical_formula_structural   TbHo5Al24(Ru3Rh)2
_chemical_formula_sum   'Tb1 Ho5 Al24 Ru6 Rh2'
_cell_volume   639.51686131
_cell_formula_units_Z   1
loop_
 _symmetry_equiv_pos_site_id
 _symmetry_equiv_pos_as_xyz
  1  'x, y, z'
loop_
 _atom_site_type_symbol
 _atom_site_label
 _atom_site_symmetry_multiplicity
 _atom_site_fract_x
 _atom_site_fract_y
 _atom_site_fract_z
 _atom_site_occupancy
  Tb  Tb0  1  0.189281  0.386098  0.250000  1
  Ho  Ho1  1  0.810508  0.613187  0.750000  1
  Ho  Ho2  1  0.613197  0.810582  0.250000  1
  Ho  Ho3  1  0.386877  0.189497  0.750000  1
  Ho  Ho4  1  0.194818  0.805323  0.250000  1
  Ho  Ho5  1  0.805244  0.194835  0.750000  1
  Al  Al6  1  0.332355  0.668104  0.018945  1
  Al  Al7  1  0.667847  0.332249  0.980847  1
  Al  Al8  1  0.667847  0.332249  0.519153  1
  Al  Al9  1  0.332355  0.668104  0.481055  1
  Al  Al10  1  0.161297  0.323583  0.578577  1
  Al  Al11  1  0.838688  0.676403  0.421759  1
  Al  Al12  1  0.676445  0.838707  0.578333  1
  Al  Al13  1  0.838688  0.676403  0.078241  1
  Al  Al14  1  0.323669  0.161116  0.421841  1
  Al  Al15  1  0.161297  0.323583  0.921423  1
  Al  Al16  1  0.163086  0.836937  0.577863  1
  Al  Al17  1  0.323669  0.161116  0.078159  1
  Al  Al18  1  0.836621  0.162910  0.422338  1
  Al  Al19  1  0.676445  0.838707  0.921667  1
  Al  Al20  1  0.836621  0.162910  0.077662  1
  Al  Al21  1  0.163086  0.836937  0.922137  1
  Al  Al22  1  0.560122  0.122701  0.250000  1
  Al  Al23  1  0.439858  0.877258  0.750000  1
  Al  Al24  1  0.876833  0.439961  0.250000  1
  Al  Al25  1  0.122672  0.560139  0.750000  1
  Al  Al26  1  0.561132  0.439420  0.250000  1
  Al  Al27  1  0.439396  0.560654  0.750000  1
  Al  Al28  1  0.999065  0.000126  0.250000  1
  Al  Al29  1  0.000645  0.999380  0.750000  1
  Ru  Ru30  1  0.500068  0.000190  0.999909  1
  Ru  Ru31  1  0.999858  0.500129  0.999784  1
  Ru  Ru32  1  0.500068  0.000190  0.500091  1
  Ru  Ru33  1  0.999858  0.500129  0.500216  1
  Ru  Ru34  1  0.999986  0.999994  0.999948  1
  Ru  Ru35  1  0.999986  0.999994  0.500052  1
  Rh  Rh36  1  0.500256  0.500097  0.999813  1
  Rh  Rh37  1  0.500256  0.500097  0.500187  1
