# generated using pymatgen
data_Zr6Ti7MnAl9Rh7
_symmetry_space_group_name_H-M   'P 1'
_cell_length_a   8.88833872
_cell_length_b   8.88836995
_cell_length_c   8.88742241
_cell_angle_alpha   60.05888007
_cell_angle_beta   60.05551175
_cell_angle_gamma   60.06233503
_symmetry_Int_Tables_number   1
_chemical_formula_structural   Zr6Ti7MnAl9Rh7
_chemical_formula_sum   'Zr6 Ti7 Mn1 Al9 Rh7'
_cell_volume   497.14489873
_cell_formula_units_Z   1
loop_
 _symmetry_equiv_pos_site_id
 _symmetry_equiv_pos_as_xyz
  1  'x, y, z'
loop_
 _atom_site_type_symbol
 _atom_site_label
 _atom_site_symmetry_multiplicity
 _atom_site_fract_x
 _atom_site_fract_y
 _atom_site_fract_z
 _atom_site_occupancy
  Zr  Zr0  1  0.203664  0.203642  0.794786  1
  Zr  Zr1  1  0.794815  0.203667  0.203664  1
  Zr  Zr2  1  0.203674  0.794749  0.203650  1
  Zr  Zr3  1  0.801263  0.801248  0.190812  1
  Zr  Zr4  1  0.190836  0.801253  0.801245  1
  Zr  Zr5  1  0.801276  0.190793  0.801260  1
  Ti  Ti6  1  0.379223  0.379219  0.379227  1
  Ti  Ti7  1  0.380104  0.862017  0.380127  1
  Ti  Ti8  1  0.862024  0.380122  0.380103  1
  Ti  Ti9  1  0.380102  0.380140  0.862018  1
  Ti  Ti10  1  0.835182  0.498895  0.835230  1
  Ti  Ti11  1  0.498910  0.835218  0.835169  1
  Ti  Ti12  1  0.835183  0.835251  0.498857  1
  Mn  Mn13  1  0.001932  0.001972  0.001957  1
  Al  Al14  1  0.162791  0.162743  0.162758  1
  Al  Al15  1  0.165819  0.503625  0.165791  1
  Al  Al16  1  0.503625  0.165798  0.165817  1
  Al  Al17  1  0.165813  0.165799  0.503617  1
  Al  Al18  1  0.618810  0.618779  0.618794  1
  Al  Al19  1  0.618355  0.146345  0.618350  1
  Al  Al20  1  0.146289  0.618358  0.618360  1
  Al  Al21  1  0.618362  0.618356  0.146316  1
  Al  Al22  1  0.828734  0.828693  0.828698  1
  Rh  Rh23  1  0.002642  0.002597  0.496230  1
  Rh  Rh24  1  0.496190  0.002633  0.002646  1
  Rh  Rh25  1  0.002649  0.496225  0.002622  1
  Rh  Rh26  1  0.499886  0.499972  0.001593  1
  Rh  Rh27  1  0.001566  0.499979  0.499838  1
  Rh  Rh28  1  0.499900  0.001482  0.500047  1
  Rh  Rh29  1  0.500384  0.500432  0.500419  1
