# generated using pymatgen
data_Er10Tc3Se
_symmetry_space_group_name_H-M   'P 1'
_cell_length_a   6.25704352
_cell_length_b   7.47963619
_cell_length_c   8.41432902
_cell_angle_alpha   96.85141812
_cell_angle_beta   112.03314637
_cell_angle_gamma   89.81325325
_symmetry_Int_Tables_number   1
_chemical_formula_structural   Er10Tc3Se
_chemical_formula_sum   'Er10 Tc3 Se1'
_cell_volume   362.05878790
_cell_formula_units_Z   1
loop_
 _symmetry_equiv_pos_site_id
 _symmetry_equiv_pos_as_xyz
  1  'x, y, z'
loop_
 _atom_site_type_symbol
 _atom_site_label
 _atom_site_symmetry_multiplicity
 _atom_site_fract_x
 _atom_site_fract_y
 _atom_site_fract_z
 _atom_site_occupancy
  Er  Er0  1  0.797211  0.563910  0.820360  1
  Er  Er1  1  0.983321  0.913460  0.197726  1
  Er  Er2  1  0.211247  0.420416  0.185518  1
  Er  Er3  1  0.031128  0.099583  0.820934  1
  Er  Er4  1  0.183794  0.671279  0.556737  1
  Er  Er5  1  0.639871  0.815455  0.427636  1
  Er  Er6  1  0.799269  0.315001  0.433653  1
  Er  Er7  1  0.368585  0.195846  0.563607  1
  Er  Er8  1  0.401908  0.751467  0.998532  1
  Er  Er9  1  0.590243  0.254697  0.006493  1
  Tc  Tc10  1  0.807608  0.582634  0.207898  1
  Tc  Tc11  1  0.392239  0.078640  0.220726  1
  Tc  Tc12  1  0.199603  0.423797  0.783022  1
  Se  Se13  1  0.593973  0.913817  0.777158  1
