# generated using pymatgen
data_EuAs12(OsRu)2
_symmetry_space_group_name_H-M   'P 1'
_cell_length_a   7.51212863
_cell_length_b   7.50727661
_cell_length_c   7.50727569
_cell_angle_alpha   109.44764575
_cell_angle_beta   109.43107217
_cell_angle_gamma   109.50877951
_symmetry_Int_Tables_number   1
_chemical_formula_structural   EuAs12(OsRu)2
_chemical_formula_sum   'Eu1 As12 Os2 Ru2'
_cell_volume   326.02124235
_cell_formula_units_Z   1
loop_
 _symmetry_equiv_pos_site_id
 _symmetry_equiv_pos_as_xyz
  1  'x, y, z'
loop_
 _atom_site_type_symbol
 _atom_site_label
 _atom_site_symmetry_multiplicity
 _atom_site_fract_x
 _atom_site_fract_y
 _atom_site_fract_z
 _atom_site_occupancy
  Eu  Eu0  1  0.000000  0.000000  0.000000  1
  As  As1  1  0.349331  0.198897  0.849921  1
  As  As2  1  0.650669  0.801103  0.150079  1
  As  As3  1  0.650669  0.500592  0.849566  1
  As  As4  1  0.349331  0.499408  0.150434  1
  As  As5  1  0.199726  0.850356  0.349372  1
  As  As6  1  0.800274  0.149644  0.650628  1
  As  As7  1  0.499901  0.849300  0.650600  1
  As  As8  1  0.500099  0.150700  0.349400  1
  As  As9  1  0.849524  0.348916  0.198868  1
  As  As10  1  0.150476  0.651084  0.801132  1
  As  As11  1  0.849524  0.650656  0.500608  1
  As  As12  1  0.150476  0.349344  0.499392  1
  Os  Os13  1  0.000000  0.000000  0.500000  1
  Os  Os14  1  0.000000  0.500000  0.000000  1
  Ru  Ru15  1  0.500000  0.000000  0.000000  1
  Ru  Ru16  1  0.500000  0.500000  0.500000  1
