# generated using pymatgen
data_ErLuMgB2Rh5
_symmetry_space_group_name_H-M   'P 1'
_cell_length_a   9.59693963
_cell_length_b   9.59693963
_cell_length_c   3.17236500
_cell_angle_alpha   90.00000000
_cell_angle_beta   90.00000000
_cell_angle_gamma   90.45493147
_symmetry_Int_Tables_number   1
_chemical_formula_structural   ErLuMgB2Rh5
_chemical_formula_sum   'Er2 Lu2 Mg2 B4 Rh10'
_cell_volume   292.16957266
_cell_formula_units_Z   2
loop_
 _symmetry_equiv_pos_site_id
 _symmetry_equiv_pos_as_xyz
  1  'x, y, z'
loop_
 _atom_site_type_symbol
 _atom_site_label
 _atom_site_symmetry_multiplicity
 _atom_site_fract_x
 _atom_site_fract_y
 _atom_site_fract_z
 _atom_site_occupancy
  Er  Er0  1  0.175860  0.324140  0.000000  1
  Er  Er1  1  0.824140  0.675860  0.000000  1
  Lu  Lu2  1  0.675400  0.175400  0.000000  1
  Lu  Lu3  1  0.324600  0.824600  0.000000  1
  Mg  Mg4  1  0.000000  0.000000  0.000000  1
  Mg  Mg5  1  0.500000  0.500000  0.000000  1
  B  B6  1  0.123207  0.623207  0.000000  1
  B  B7  1  0.876793  0.376793  0.000000  1
  B  B8  1  0.622846  0.877154  0.000000  1
  B  B9  1  0.377154  0.122846  0.000000  1
  Rh  Rh10  1  0.500000  0.000000  0.500000  1
  Rh  Rh11  1  0.000000  0.500000  0.500000  1
  Rh  Rh12  1  0.224094  0.069227  0.500000  1
  Rh  Rh13  1  0.775906  0.930773  0.500000  1
  Rh  Rh14  1  0.072319  0.777453  0.500000  1
  Rh  Rh15  1  0.722547  0.427681  0.500000  1
  Rh  Rh16  1  0.927681  0.222547  0.500000  1
  Rh  Rh17  1  0.277453  0.572319  0.500000  1
  Rh  Rh18  1  0.569227  0.724094  0.500000  1
  Rh  Rh19  1  0.430773  0.275906  0.500000  1
