# generated using pymatgen
data_Tb7Sm(Er3Sn4)4
_symmetry_space_group_name_H-M   'P 1'
_cell_length_a   8.00971881
_cell_length_b   8.15030430
_cell_length_c   15.39518916
_cell_angle_alpha   89.98784327
_cell_angle_beta   89.95716267
_cell_angle_gamma   90.02853218
_symmetry_Int_Tables_number   1
_chemical_formula_structural   Tb7Sm(Er3Sn4)4
_chemical_formula_sum   'Tb7 Sm1 Er12 Sn16'
_cell_volume   1005.02285512
_cell_formula_units_Z   1
loop_
 _symmetry_equiv_pos_site_id
 _symmetry_equiv_pos_as_xyz
  1  'x, y, z'
loop_
 _atom_site_type_symbol
 _atom_site_label
 _atom_site_symmetry_multiplicity
 _atom_site_fract_x
 _atom_site_fract_y
 _atom_site_fract_z
 _atom_site_occupancy
  Tb  Tb0  1  0.020499  0.179926  0.597367  1
  Tb  Tb1  1  0.479522  0.679978  0.402548  1
  Tb  Tb2  1  0.979577  0.819977  0.097456  1
  Tb  Tb3  1  0.479596  0.680104  0.097531  1
  Tb  Tb4  1  0.979528  0.820043  0.402546  1
  Tb  Tb5  1  0.520531  0.319975  0.597541  1
  Tb  Tb6  1  0.020503  0.179840  0.902546  1
  Sm  Sm7  1  0.520144  0.319989  0.902754  1
  Er  Er8  1  0.367342  0.835799  0.877817  1
  Er  Er9  1  0.867430  0.664164  0.622124  1
  Er  Er10  1  0.632582  0.164125  0.377856  1
  Er  Er11  1  0.132661  0.335937  0.122188  1
  Er  Er12  1  0.632733  0.164013  0.122302  1
  Er  Er13  1  0.132579  0.335908  0.377861  1
  Er  Er14  1  0.367425  0.835844  0.622094  1
  Er  Er15  1  0.867474  0.664313  0.877821  1
  Er  Er16  1  0.197759  0.503660  0.749839  1
  Er  Er17  1  0.698097  0.996362  0.749880  1
  Er  Er18  1  0.802051  0.496544  0.249993  1
  Er  Er19  1  0.302027  0.003470  0.250037  1
  Sn  Sn20  1  0.293560  0.035875  0.041910  1
  Sn  Sn21  1  0.793699  0.463964  0.458144  1
  Sn  Sn22  1  0.706308  0.963982  0.541844  1
  Sn  Sn23  1  0.205390  0.536725  0.958330  1
  Sn  Sn24  1  0.706707  0.963337  0.958240  1
  Sn  Sn25  1  0.206374  0.535997  0.541849  1
  Sn  Sn26  1  0.293664  0.036041  0.458135  1
  Sn  Sn27  1  0.794417  0.464348  0.042205  1
  Sn  Sn28  1  0.564881  0.620712  0.749901  1
  Sn  Sn29  1  0.064858  0.879711  0.749987  1
  Sn  Sn30  1  0.435147  0.379658  0.250018  1
  Sn  Sn31  1  0.935191  0.120282  0.249997  1
  Sn  Sn32  1  0.327958  0.145604  0.749526  1
  Sn  Sn33  1  0.829013  0.353806  0.749801  1
  Sn  Sn34  1  0.671374  0.853744  0.250012  1
  Sn  Sn35  1  0.171401  0.646242  0.249998  1
