# generated using pymatgen
data_Pa4Co3Sn2Rh
_symmetry_space_group_name_H-M   'P 1'
_cell_length_a   7.47040865
_cell_length_b   7.47040865
_cell_length_c   3.51900100
_cell_angle_alpha   90.00000000
_cell_angle_beta   90.00000000
_cell_angle_gamma   90.24912733
_symmetry_Int_Tables_number   1
_chemical_formula_structural   Pa4Co3Sn2Rh
_chemical_formula_sum   'Pa4 Co3 Sn2 Rh1'
_cell_volume   196.38305162
_cell_formula_units_Z   1
loop_
 _symmetry_equiv_pos_site_id
 _symmetry_equiv_pos_as_xyz
  1  'x, y, z'
loop_
 _atom_site_type_symbol
 _atom_site_label
 _atom_site_symmetry_multiplicity
 _atom_site_fract_x
 _atom_site_fract_y
 _atom_site_fract_z
 _atom_site_occupancy
  Pa  Pa0  1  0.340706  0.159294  0.500000  1
  Pa  Pa1  1  0.673126  0.826874  0.500000  1
  Pa  Pa2  1  0.171747  0.679342  0.500000  1
  Pa  Pa3  1  0.820658  0.328253  0.500000  1
  Co  Co4  1  0.631868  0.129545  0.000000  1
  Co  Co5  1  0.863804  0.636196  0.000000  1
  Co  Co6  1  0.370455  0.868132  0.000000  1
  Sn  Sn7  1  0.998500  0.000453  0.000000  1
  Sn  Sn8  1  0.499547  0.501500  0.000000  1
  Rh  Rh9  1  0.129589  0.370411  0.000000  1
