# generated using pymatgen
data_AgSn2(AsO4)3
_symmetry_space_group_name_H-M   'P 1'
_cell_length_a   9.66593472
_cell_length_b   9.66593368
_cell_length_c   9.66593500
_cell_angle_alpha   54.42627675
_cell_angle_beta   54.42628112
_cell_angle_gamma   54.42628044
_symmetry_Int_Tables_number   1
_chemical_formula_structural   AgSn2(AsO4)3
_chemical_formula_sum   'Ag2 Sn4 As6 O24'
_cell_volume   555.57918172
_cell_formula_units_Z   2
loop_
 _symmetry_equiv_pos_site_id
 _symmetry_equiv_pos_as_xyz
  1  'x, y, z'
loop_
 _atom_site_type_symbol
 _atom_site_label
 _atom_site_symmetry_multiplicity
 _atom_site_fract_x
 _atom_site_fract_y
 _atom_site_fract_z
 _atom_site_occupancy
  Ag  Ag0  1  0.000000  0.000000  0.000000  1
  Ag  Ag1  1  0.500000  0.500000  0.500000  1
  Sn  Sn2  1  0.149712  0.149712  0.149712  1
  Sn  Sn3  1  0.850288  0.850288  0.850288  1
  Sn  Sn4  1  0.355045  0.355045  0.355045  1
  Sn  Sn5  1  0.644955  0.644955  0.644955  1
  As  As6  1  0.963838  0.250723  0.534929  1
  As  As7  1  0.250723  0.534929  0.963838  1
  As  As8  1  0.036162  0.749277  0.465071  1
  As  As9  1  0.749277  0.465071  0.036162  1
  As  As10  1  0.534929  0.963838  0.250723  1
  As  As11  1  0.465071  0.036162  0.749277  1
  O  O12  1  0.399626  0.615839  0.747893  1
  O  O13  1  0.615839  0.747893  0.399626  1
  O  O14  1  0.747893  0.399626  0.615839  1
  O  O15  1  0.600374  0.384161  0.252107  1
  O  O16  1  0.384161  0.252107  0.600374  1
  O  O17  1  0.252107  0.600374  0.384161  1
  O  O18  1  0.302733  0.014218  0.968075  1
  O  O19  1  0.014218  0.968075  0.302733  1
  O  O20  1  0.968075  0.302733  0.014218  1
  O  O21  1  0.697267  0.985782  0.031925  1
  O  O22  1  0.985782  0.031925  0.697267  1
  O  O23  1  0.031925  0.697267  0.985782  1
  O  O24  1  0.715940  0.667730  0.021939  1
  O  O25  1  0.021939  0.715940  0.667730  1
  O  O26  1  0.667730  0.021939  0.715940  1
  O  O27  1  0.284060  0.332270  0.978061  1
  O  O28  1  0.978061  0.284060  0.332270  1
  O  O29  1  0.332270  0.978061  0.284060  1
  O  O30  1  0.122675  0.291503  0.521336  1
  O  O31  1  0.521336  0.122675  0.291503  1
  O  O32  1  0.291503  0.521336  0.122675  1
  O  O33  1  0.877325  0.708497  0.478664  1
  O  O34  1  0.478664  0.877325  0.708497  1
  O  O35  1  0.708497  0.478664  0.877325  1
