# generated using pymatgen
data_Yb8Si6Pd7Pt
_symmetry_space_group_name_H-M   'P 1'
_cell_length_a   10.73041367
_cell_length_b   10.71591541
_cell_length_c   7.79587227
_cell_angle_alpha   70.81602598
_cell_angle_beta   70.91550054
_cell_angle_gamma   30.93069313
_symmetry_Int_Tables_number   1
_chemical_formula_structural   Yb8Si6Pd7Pt
_chemical_formula_sum   'Yb8 Si6 Pd7 Pt1'
_cell_volume   433.29152655
_cell_formula_units_Z   1
loop_
 _symmetry_equiv_pos_site_id
 _symmetry_equiv_pos_as_xyz
  1  'x, y, z'
loop_
 _atom_site_type_symbol
 _atom_site_label
 _atom_site_symmetry_multiplicity
 _atom_site_fract_x
 _atom_site_fract_y
 _atom_site_fract_z
 _atom_site_occupancy
  Yb  Yb0  1  0.927833  0.205295  0.330146  1
  Yb  Yb1  1  0.072847  0.793881  0.667949  1
  Yb  Yb2  1  0.794282  0.073374  0.169075  1
  Yb  Yb3  1  0.449831  0.209873  0.904322  1
  Yb  Yb4  1  0.791274  0.549218  0.595555  1
  Yb  Yb5  1  0.207904  0.451890  0.405071  1
  Yb  Yb6  1  0.206620  0.926070  0.831288  1
  Yb  Yb7  1  0.549676  0.790979  0.095343  1
  Si  Si8  1  0.298754  0.044002  0.435366  1
  Si  Si9  1  0.373502  0.625027  0.252489  1
  Si  Si10  1  0.046546  0.296530  0.934857  1
  Si  Si11  1  0.698601  0.959966  0.564673  1
  Si  Si12  1  0.953532  0.703649  0.064648  1
  Si  Si13  1  0.628253  0.370258  0.748935  1
  Pd  Pd14  1  0.697856  0.428205  0.974630  1
  Pd  Pd15  1  0.301611  0.572437  0.025028  1
  Pd  Pd16  1  0.428974  0.697684  0.474505  1
  Pd  Pd17  1  0.639925  0.918184  0.319312  1
  Pd  Pd18  1  0.917374  0.640489  0.818647  1
  Pd  Pd19  1  0.360592  0.081743  0.680845  1
  Pd  Pd20  1  0.081218  0.361004  0.181138  1
  Pt  Pt21  1  0.572997  0.300242  0.526179  1
