# generated using pymatgen
data_La20Si11Hg
_symmetry_space_group_name_H-M   'P 1'
_cell_length_a   7.89856500
_cell_length_b   7.89856500
_cell_length_c   14.67537800
_cell_angle_alpha   90.00000000
_cell_angle_beta   90.00000000
_cell_angle_gamma   90.00000000
_symmetry_Int_Tables_number   1
_chemical_formula_structural   La20Si11Hg
_chemical_formula_sum   'La20 Si11 Hg1'
_cell_volume   915.55763635
_cell_formula_units_Z   1
loop_
 _symmetry_equiv_pos_site_id
 _symmetry_equiv_pos_as_xyz
  1  'x, y, z'
loop_
 _atom_site_type_symbol
 _atom_site_label
 _atom_site_symmetry_multiplicity
 _atom_site_fract_x
 _atom_site_fract_y
 _atom_site_fract_z
 _atom_site_occupancy
  La  La0  1  0.500000  0.000000  0.778739  1
  La  La1  1  0.328851  0.313601  0.105144  1
  La  La2  1  0.828016  0.814963  0.895033  1
  La  La3  1  0.000000  0.500000  0.224684  1
  La  La4  1  0.823560  0.176909  0.390985  1
  La  La5  1  0.171984  0.185037  0.895033  1
  La  La6  1  0.671149  0.686399  0.105144  1
  La  La7  1  0.000000  0.500000  0.724270  1
  La  La8  1  0.808316  0.839348  0.609494  1
  La  La9  1  0.323091  0.323560  0.390985  1
  La  La10  1  0.186399  0.828851  0.105144  1
  La  La11  1  0.191684  0.160652  0.609494  1
  La  La12  1  0.813601  0.171149  0.105144  1
  La  La13  1  0.339348  0.691684  0.609494  1
  La  La14  1  0.500000  0.000000  0.273722  1
  La  La15  1  0.685037  0.328016  0.895033  1
  La  La16  1  0.660652  0.308316  0.609494  1
  La  La17  1  0.314963  0.671984  0.895033  1
  La  La18  1  0.176440  0.823091  0.390985  1
  La  La19  1  0.676909  0.676440  0.390985  1
  Si  Si20  1  0.614291  0.388275  0.247882  1
  Si  Si21  1  0.888050  0.114544  0.752964  1
  Si  Si22  1  0.500000  0.000000  0.491908  1
  Si  Si23  1  0.888275  0.885709  0.247882  1
  Si  Si24  1  0.000000  0.500000  0.005653  1
  Si  Si25  1  0.111950  0.885456  0.752964  1
  Si  Si26  1  0.385456  0.388050  0.752964  1
  Si  Si27  1  0.111725  0.114291  0.247882  1
  Si  Si28  1  0.385709  0.611725  0.247882  1
  Si  Si29  1  0.614544  0.611950  0.752964  1
  Si  Si30  1  0.500000  0.000000  0.994216  1
  Hg  Hg31  1  0.000000  0.500000  0.500795  1
