# generated using pymatgen
data_Rb2Li2Zr6FeBr18
_symmetry_space_group_name_H-M   'P 1'
_cell_length_a   10.38377715
_cell_length_b   10.36131273
_cell_length_c   10.43804231
_cell_angle_alpha   119.77345520
_cell_angle_beta   104.38767184
_cell_angle_gamma   96.83542382
_symmetry_Int_Tables_number   1
_chemical_formula_structural   Rb2Li2Zr6FeBr18
_chemical_formula_sum   'Rb2 Li2 Zr6 Fe1 Br18'
_cell_volume   904.11284142
_cell_formula_units_Z   1
loop_
 _symmetry_equiv_pos_site_id
 _symmetry_equiv_pos_as_xyz
  1  'x, y, z'
loop_
 _atom_site_type_symbol
 _atom_site_label
 _atom_site_symmetry_multiplicity
 _atom_site_fract_x
 _atom_site_fract_y
 _atom_site_fract_z
 _atom_site_occupancy
  Rb  Rb0  1  0.671933  0.231269  0.526420  1
  Rb  Rb1  1  0.328067  0.768731  0.473580  1
  Li  Li2  1  0.604228  0.537190  0.183382  1
  Li  Li3  1  0.395772  0.462810  0.816618  1
  Zr  Zr4  1  0.153065  0.086442  0.267794  1
  Zr  Zr5  1  0.846935  0.913558  0.732206  1
  Zr  Zr6  1  0.855281  0.167085  0.117095  1
  Zr  Zr7  1  0.144719  0.832915  0.882905  1
  Zr  Zr8  1  0.147120  0.217331  0.016205  1
  Zr  Zr9  1  0.852880  0.782669  0.983795  1
  Fe  Fe10  1  0.000000  0.000000  0.000000  1
  Br  Br11  1  0.003680  0.422636  0.144754  1
  Br  Br12  1  0.996320  0.577364  0.855246  1
  Br  Br13  1  0.327961  0.337159  0.314221  1
  Br  Br14  1  0.672039  0.662841  0.685779  1
  Br  Br15  1  0.333227  0.474548  0.050408  1
  Br  Br16  1  0.666773  0.525452  0.949592  1
  Br  Br17  1  0.006929  0.853900  0.275481  1
  Br  Br18  1  0.993071  0.146100  0.724519  1
  Br  Br19  1  0.687604  0.348944  0.251765  1
  Br  Br20  1  0.312396  0.651056  0.748235  1
  Br  Br21  1  0.317653  0.057119  0.888942  1
  Br  Br22  1  0.682347  0.942881  0.111058  1
  Br  Br23  1  0.009920  0.275911  0.421261  1
  Br  Br24  1  0.990080  0.724089  0.578739  1
  Br  Br25  1  0.327167  0.912820  0.166934  1
  Br  Br26  1  0.672833  0.087180  0.833066  1
  Br  Br27  1  0.341311  0.180947  0.571346  1
  Br  Br28  1  0.658689  0.819053  0.428654  1
