# generated using pymatgen
data_Tb5Y11Cd3Ni4Ag
_symmetry_space_group_name_H-M   'P 1'
_cell_length_a   9.54271127
_cell_length_b   9.54994422
_cell_length_c   9.54994302
_cell_angle_alpha   60.14645997
_cell_angle_beta   60.16575151
_cell_angle_gamma   60.16575160
_symmetry_Int_Tables_number   1
_chemical_formula_structural   Tb5Y11Cd3Ni4Ag
_chemical_formula_sum   'Tb5 Y11 Cd3 Ni4 Ag1'
_cell_volume   617.62195518
_cell_formula_units_Z   1
loop_
 _symmetry_equiv_pos_site_id
 _symmetry_equiv_pos_as_xyz
  1  'x, y, z'
loop_
 _atom_site_type_symbol
 _atom_site_label
 _atom_site_symmetry_multiplicity
 _atom_site_fract_x
 _atom_site_fract_y
 _atom_site_fract_z
 _atom_site_occupancy
  Tb  Tb0  1  0.596935  0.597192  0.597192  1
  Tb  Tb1  1  0.600642  0.600739  0.199194  1
  Tb  Tb2  1  0.600642  0.199194  0.600739  1
  Tb  Tb3  1  0.199290  0.600670  0.600670  1
  Tb  Tb4  1  0.062142  0.439972  0.439972  1
  Y  Y5  1  0.438880  0.061444  0.061444  1
  Y  Y6  1  0.440227  0.061560  0.440200  1
  Y  Y7  1  0.061494  0.438907  0.061256  1
  Y  Y8  1  0.440227  0.440200  0.061560  1
  Y  Y9  1  0.061494  0.061256  0.438907  1
  Y  Y10  1  0.184619  0.813081  0.813081  1
  Y  Y11  1  0.812403  0.186366  0.186366  1
  Y  Y12  1  0.813041  0.184761  0.813027  1
  Y  Y13  1  0.186428  0.812277  0.186459  1
  Y  Y14  1  0.813041  0.813027  0.184761  1
  Y  Y15  1  0.186428  0.186459  0.812277  1
  Cd  Cd16  1  0.831097  0.831279  0.507501  1
  Cd  Cd17  1  0.831097  0.507501  0.831279  1
  Cd  Cd18  1  0.507527  0.831121  0.831121  1
  Ni  Ni19  1  0.393440  0.394346  0.394346  1
  Ni  Ni20  1  0.392187  0.392137  0.821942  1
  Ni  Ni21  1  0.392187  0.821942  0.392137  1
  Ni  Ni22  1  0.822303  0.392273  0.392273  1
  Ag  Ag23  1  0.832233  0.832297  0.832297  1
