# generated using pymatgen
data_CeTm4(MnB3)2
_symmetry_space_group_name_H-M   'P 1'
_cell_length_a   5.40842202
_cell_length_b   5.40842203
_cell_length_c   7.99835283
_cell_angle_alpha   70.23908709
_cell_angle_beta   70.23908877
_cell_angle_gamma   60.00001981
_symmetry_Int_Tables_number   1
_chemical_formula_structural   CeTm4(MnB3)2
_chemical_formula_sum   'Ce1 Tm4 Mn2 B6'
_cell_volume   186.53694304
_cell_formula_units_Z   1
loop_
 _symmetry_equiv_pos_site_id
 _symmetry_equiv_pos_as_xyz
  1  'x, y, z'
loop_
 _atom_site_type_symbol
 _atom_site_label
 _atom_site_symmetry_multiplicity
 _atom_site_fract_x
 _atom_site_fract_y
 _atom_site_fract_z
 _atom_site_occupancy
  Ce  Ce0  1  0.000000  0.000000  0.000000  1
  Tm  Tm1  1  0.251627  0.251627  0.245118  1
  Tm  Tm2  1  0.748373  0.748373  0.754882  1
  Tm  Tm3  1  0.415574  0.415574  0.753279  1
  Tm  Tm4  1  0.584426  0.584426  0.246721  1
  Mn  Mn5  1  0.109449  0.109449  0.671651  1
  Mn  Mn6  1  0.890551  0.890551  0.328349  1
  B  B7  1  0.166842  0.833158  0.500000  1
  B  B8  1  0.833158  0.500000  0.500000  1
  B  B9  1  0.500000  0.166842  0.500000  1
  B  B10  1  0.166842  0.500000  0.500000  1
  B  B11  1  0.500000  0.833158  0.500000  1
  B  B12  1  0.833158  0.166842  0.500000  1
