# generated using pymatgen
data_DyEr2(GaRh2)3
_symmetry_space_group_name_H-M   'P 1'
_cell_length_a   5.57727300
_cell_length_b   5.57727266
_cell_length_c   15.56348000
_cell_angle_alpha   90.00000000
_cell_angle_beta   90.00000000
_cell_angle_gamma   119.99999607
_symmetry_Int_Tables_number   1
_chemical_formula_structural   DyEr2(GaRh2)3
_chemical_formula_sum   'Dy2 Er4 Ga6 Rh12'
_cell_volume   419.25779000
_cell_formula_units_Z   2
loop_
 _symmetry_equiv_pos_site_id
 _symmetry_equiv_pos_as_xyz
  1  'x, y, z'
loop_
 _atom_site_type_symbol
 _atom_site_label
 _atom_site_symmetry_multiplicity
 _atom_site_fract_x
 _atom_site_fract_y
 _atom_site_fract_z
 _atom_site_occupancy
  Dy  Dy0  1  0.333333  0.666667  0.750000  1
  Dy  Dy1  1  0.666667  0.333333  0.250000  1
  Er  Er2  1  0.333333  0.666667  0.538999  1
  Er  Er3  1  0.666667  0.333333  0.461001  1
  Er  Er4  1  0.666667  0.333333  0.038999  1
  Er  Er5  1  0.333333  0.666667  0.961001  1
  Ga  Ga6  1  0.000000  0.000000  0.250000  1
  Ga  Ga7  1  0.000000  0.000000  0.750000  1
  Ga  Ga8  1  0.333333  0.666667  0.250000  1
  Ga  Ga9  1  0.666667  0.333333  0.750000  1
  Ga  Ga10  1  0.000000  0.000000  0.000000  1
  Ga  Ga11  1  0.000000  0.000000  0.500000  1
  Rh  Rh12  1  0.169080  0.338158  0.124568  1
  Rh  Rh13  1  0.830920  0.661842  0.875432  1
  Rh  Rh14  1  0.661842  0.830920  0.124568  1
  Rh  Rh15  1  0.830920  0.661842  0.624568  1
  Rh  Rh16  1  0.338158  0.169080  0.875432  1
  Rh  Rh17  1  0.169080  0.338158  0.375432  1
  Rh  Rh18  1  0.169080  0.830920  0.124568  1
  Rh  Rh19  1  0.338158  0.169080  0.624568  1
  Rh  Rh20  1  0.830920  0.169080  0.875432  1
  Rh  Rh21  1  0.661842  0.830920  0.375432  1
  Rh  Rh22  1  0.830920  0.169080  0.624568  1
  Rh  Rh23  1  0.169080  0.830920  0.375432  1
