# generated using pymatgen
data_Tb8Er10Sc2Si13Ni3
_symmetry_space_group_name_H-M   'P 1'
_cell_length_a   7.10532300
_cell_length_b   7.79270510
_cell_length_c   14.37959900
_cell_angle_alpha   90.00000000
_cell_angle_beta   90.00000000
_cell_angle_gamma   90.00925892
_symmetry_Int_Tables_number   1
_chemical_formula_structural   Tb8Er10Sc2Si13Ni3
_chemical_formula_sum   'Tb8 Er10 Sc2 Si13 Ni3'
_cell_volume   796.19388237
_cell_formula_units_Z   1
loop_
 _symmetry_equiv_pos_site_id
 _symmetry_equiv_pos_as_xyz
  1  'x, y, z'
loop_
 _atom_site_type_symbol
 _atom_site_label
 _atom_site_symmetry_multiplicity
 _atom_site_fract_x
 _atom_site_fract_y
 _atom_site_fract_z
 _atom_site_occupancy
  Tb  Tb0  1  0.009984  0.183228  0.090350  1
  Tb  Tb1  1  0.989861  0.819172  0.907054  1
  Tb  Tb2  1  0.488995  0.682807  0.906237  1
  Tb  Tb3  1  0.989861  0.819172  0.592946  1
  Tb  Tb4  1  0.512228  0.316850  0.090493  1
  Tb  Tb5  1  0.009984  0.183228  0.409650  1
  Tb  Tb6  1  0.512228  0.316850  0.409507  1
  Tb  Tb7  1  0.488995  0.682807  0.593763  1
  Er  Er8  1  0.823133  0.488879  0.250000  1
  Er  Er9  1  0.320873  0.015111  0.250000  1
  Er  Er10  1  0.313693  0.174139  0.629826  1
  Er  Er11  1  0.682223  0.828493  0.372326  1
  Er  Er12  1  0.183927  0.673566  0.372099  1
  Er  Er13  1  0.682223  0.828493  0.127674  1
  Er  Er14  1  0.830880  0.317288  0.629643  1
  Er  Er15  1  0.313693  0.174139  0.870174  1
  Er  Er16  1  0.830880  0.317288  0.870357  1
  Er  Er17  1  0.183927  0.673566  0.127901  1
  Sc  Sc18  1  0.160779  0.527288  0.750000  1
  Sc  Sc19  1  0.674151  0.981777  0.750000  1
  Si  Si20  1  0.524176  0.406467  0.750000  1
  Si  Si21  1  0.283868  0.867430  0.750000  1
  Si  Si22  1  0.729586  0.128726  0.250000  1
  Si  Si23  1  0.229791  0.375710  0.250000  1
  Si  Si24  1  0.778455  0.627635  0.750000  1
  Si  Si25  1  0.157394  0.470911  0.540958  1
  Si  Si26  1  0.841916  0.531858  0.464891  1
  Si  Si27  1  0.342019  0.970356  0.463778  1
  Si  Si28  1  0.841916  0.531858  0.035109  1
  Si  Si29  1  0.654623  0.029552  0.543062  1
  Si  Si30  1  0.157394  0.470911  0.959042  1
  Si  Si31  1  0.654623  0.029552  0.956938  1
  Si  Si32  1  0.342019  0.970356  0.036222  1
  Ni  Ni33  1  0.023067  0.080832  0.750000  1
  Ni  Ni34  1  0.966368  0.908251  0.250000  1
  Ni  Ni35  1  0.470268  0.595452  0.250000  1
