# generated using pymatgen
data_Tb3DyZr6(In2Pt)4
_symmetry_space_group_name_H-M   'P 1'
_cell_length_a   3.58598300
_cell_length_b   7.82149123
_cell_length_c   17.75590452
_cell_angle_alpha   90.02776773
_cell_angle_beta   90.00000000
_cell_angle_gamma   90.00000000
_symmetry_Int_Tables_number   1
_chemical_formula_structural   Tb3DyZr6(In2Pt)4
_chemical_formula_sum   'Tb3 Dy1 Zr6 In8 Pt4'
_cell_volume   498.01283883
_cell_formula_units_Z   1
loop_
 _symmetry_equiv_pos_site_id
 _symmetry_equiv_pos_as_xyz
  1  'x, y, z'
loop_
 _atom_site_type_symbol
 _atom_site_label
 _atom_site_symmetry_multiplicity
 _atom_site_fract_x
 _atom_site_fract_y
 _atom_site_fract_z
 _atom_site_occupancy
  Tb  Tb0  1  0.000000  0.244070  0.218098  1
  Tb  Tb1  1  0.000000  0.755928  0.781901  1
  Tb  Tb2  1  0.000000  0.255920  0.718099  1
  Dy  Dy3  1  0.000000  0.744124  0.281829  1
  Zr  Zr4  1  0.000000  0.125354  0.421180  1
  Zr  Zr5  1  0.000000  0.874591  0.578800  1
  Zr  Zr6  1  0.000000  0.374594  0.921207  1
  Zr  Zr7  1  0.000000  0.625436  0.078821  1
  Zr  Zr8  1  0.000000  0.999972  0.000006  1
  Zr  Zr9  1  0.000000  0.499981  0.500003  1
  In  In10  1  0.500000  0.422342  0.354057  1
  In  In11  1  0.500000  0.577798  0.645912  1
  In  In12  1  0.500000  0.077791  0.854078  1
  In  In13  1  0.500000  0.922126  0.145973  1
  In  In14  1  0.500000  0.295047  0.061220  1
  In  In15  1  0.500000  0.704982  0.938795  1
  In  In16  1  0.500000  0.204982  0.561206  1
  In  In17  1  0.500000  0.795004  0.438719  1
  Pt  Pt18  1  0.500000  0.035821  0.309662  1
  Pt  Pt19  1  0.500000  0.963809  0.690321  1
  Pt  Pt20  1  0.500000  0.463817  0.809672  1
  Pt  Pt21  1  0.500000  0.536512  0.190443  1
