# generated using pymatgen
data_MgBi3Os2O11
_symmetry_space_group_name_H-M   'P 1'
_cell_length_a   6.68730380
_cell_length_b   7.39525447
_cell_length_c   9.55929033
_cell_angle_alpha   100.75163998
_cell_angle_beta   92.40543514
_cell_angle_gamma   89.93722632
_symmetry_Int_Tables_number   1
_chemical_formula_structural   MgBi3Os2O11
_chemical_formula_sum   'Mg2 Bi6 Os4 O22'
_cell_volume   464.02890473
_cell_formula_units_Z   2
loop_
 _symmetry_equiv_pos_site_id
 _symmetry_equiv_pos_as_xyz
  1  'x, y, z'
loop_
 _atom_site_type_symbol
 _atom_site_label
 _atom_site_symmetry_multiplicity
 _atom_site_fract_x
 _atom_site_fract_y
 _atom_site_fract_z
 _atom_site_occupancy
  Mg  Mg0  1  0.705990  0.371332  0.489237  1
  Mg  Mg1  1  0.294010  0.628668  0.510763  1
  Bi  Bi2  1  0.749748  0.857064  0.495655  1
  Bi  Bi3  1  0.250252  0.142936  0.504345  1
  Bi  Bi4  1  0.418677  0.947668  0.823529  1
  Bi  Bi5  1  0.581323  0.052332  0.176471  1
  Bi  Bi6  1  0.410071  0.456956  0.824353  1
  Bi  Bi7  1  0.589929  0.543044  0.175647  1
  Os  Os8  1  0.923315  0.699752  0.806298  1
  Os  Os9  1  0.076685  0.300248  0.193702  1
  Os  Os10  1  0.918471  0.203949  0.805957  1
  Os  Os11  1  0.081529  0.796051  0.194043  1
  O  O12  1  0.210005  0.698602  0.739368  1
  O  O13  1  0.789995  0.301398  0.260632  1
  O  O14  1  0.632613  0.699184  0.853909  1
  O  O15  1  0.367387  0.300816  0.146091  1
  O  O16  1  0.627324  0.222866  0.843421  1
  O  O17  1  0.372676  0.777134  0.156579  1
  O  O18  1  0.870750  0.199813  0.606514  1
  O  O19  1  0.129250  0.800187  0.393486  1
  O  O20  1  0.212004  0.174936  0.755865  1
  O  O21  1  0.787996  0.825064  0.244135  1
  O  O22  1  0.847804  0.608514  0.611315  1
  O  O23  1  0.152196  0.391486  0.388685  1
  O  O24  1  0.048353  0.540672  0.162114  1
  O  O25  1  0.951647  0.459328  0.837886  1
  O  O26  1  0.009898  0.785973  0.998372  1
  O  O27  1  0.990102  0.214027  0.001628  1
  O  O28  1  0.563482  0.600356  0.399891  1
  O  O29  1  0.436518  0.399644  0.600109  1
  O  O30  1  0.111145  0.056534  0.227293  1
  O  O31  1  0.888855  0.943466  0.772707  1
  O  O32  1  0.548199  0.104041  0.399598  1
  O  O33  1  0.451801  0.895959  0.600402  1
