# generated using pymatgen
data_Ac12NiRu3
_symmetry_space_group_name_H-M   'P 1'
_cell_length_a   6.85805019
_cell_length_b   7.73492199
_cell_length_c   10.64208900
_cell_angle_alpha   90.00000000
_cell_angle_beta   90.00000000
_cell_angle_gamma   90.06198135
_symmetry_Int_Tables_number   1
_chemical_formula_structural   Ac12NiRu3
_chemical_formula_sum   'Ac12 Ni1 Ru3'
_cell_volume   564.52506481
_cell_formula_units_Z   1
loop_
 _symmetry_equiv_pos_site_id
 _symmetry_equiv_pos_as_xyz
  1  'x, y, z'
loop_
 _atom_site_type_symbol
 _atom_site_label
 _atom_site_symmetry_multiplicity
 _atom_site_fract_x
 _atom_site_fract_y
 _atom_site_fract_z
 _atom_site_occupancy
  Ac  Ac0  1  0.320319  0.672204  0.074734  1
  Ac  Ac1  1  0.176388  0.172087  0.427749  1
  Ac  Ac2  1  0.675639  0.326815  0.571567  1
  Ac  Ac3  1  0.826638  0.828875  0.928383  1
  Ac  Ac4  1  0.675639  0.326815  0.928433  1
  Ac  Ac5  1  0.826638  0.828875  0.571617  1
  Ac  Ac6  1  0.320319  0.672204  0.425266  1
  Ac  Ac7  1  0.176388  0.172087  0.072251  1
  Ac  Ac8  1  0.835486  0.545321  0.250000  1
  Ac  Ac9  1  0.660833  0.047522  0.250000  1
  Ac  Ac10  1  0.155807  0.451616  0.750000  1
  Ac  Ac11  1  0.339829  0.954031  0.750000  1
  Ni  Ni12  1  0.576395  0.616213  0.750000  1
  Ru  Ru13  1  0.054721  0.884145  0.250000  1
  Ru  Ru14  1  0.438942  0.384983  0.250000  1
  Ru  Ru15  1  0.940017  0.116205  0.750000  1
