# generated using pymatgen
data_Y8ReSi16Tc11
_symmetry_space_group_name_H-M   'P 1'
_cell_length_a   6.78801669
_cell_length_b   6.78801795
_cell_length_c   12.70405700
_cell_angle_alpha   89.77424384
_cell_angle_beta   90.22575620
_cell_angle_gamma   89.98506328
_symmetry_Int_Tables_number   1
_chemical_formula_structural   Y8ReSi16Tc11
_chemical_formula_sum   'Y8 Re1 Si16 Tc11'
_cell_volume   585.35800028
_cell_formula_units_Z   1
loop_
 _symmetry_equiv_pos_site_id
 _symmetry_equiv_pos_as_xyz
  1  'x, y, z'
loop_
 _atom_site_type_symbol
 _atom_site_label
 _atom_site_symmetry_multiplicity
 _atom_site_fract_x
 _atom_site_fract_y
 _atom_site_fract_z
 _atom_site_occupancy
  Y  Y0  1  0.337418  0.994555  0.468641  1
  Y  Y1  1  0.502741  0.838153  0.719385  1
  Y  Y2  1  0.495857  0.160650  0.218991  1
  Y  Y3  1  0.838153  0.502741  0.280615  1
  Y  Y4  1  0.160650  0.495857  0.781009  1
  Y  Y5  1  0.663181  0.004724  0.968880  1
  Y  Y6  1  0.994555  0.337418  0.531359  1
  Y  Y7  1  0.004724  0.663181  0.031120  1
  Re  Re8  1  0.335055  0.335055  0.000000  1
  Si  Si9  1  0.192359  0.115377  0.687016  1
  Si  Si10  1  0.385540  0.694270  0.936667  1
  Si  Si11  1  0.615683  0.305240  0.436978  1
  Si  Si12  1  0.694270  0.385540  0.063333  1
  Si  Si13  1  0.305240  0.615683  0.563022  1
  Si  Si14  1  0.808499  0.885775  0.187746  1
  Si  Si15  1  0.115377  0.192359  0.312984  1
  Si  Si16  1  0.885775  0.808499  0.812254  1
  Si  Si17  1  0.274354  0.979459  0.062500  1
  Si  Si18  1  0.522000  0.772564  0.313357  1
  Si  Si19  1  0.478351  0.226743  0.812701  1
  Si  Si20  1  0.772564  0.522000  0.686643  1
  Si  Si21  1  0.226743  0.478351  0.187299  1
  Si  Si22  1  0.721157  0.022605  0.563685  1
  Si  Si23  1  0.979459  0.274354  0.937500  1
  Si  Si24  1  0.022605  0.721157  0.436315  1
  Tc  Tc25  1  0.166584  0.833669  0.249870  1
  Tc  Tc26  1  0.833669  0.166584  0.750130  1
  Tc  Tc27  1  0.664275  0.664275  0.500000  1
  Tc  Tc28  1  0.186169  0.982207  0.870919  1
  Tc  Tc29  1  0.519640  0.683891  0.122189  1
  Tc  Tc30  1  0.478800  0.316303  0.620605  1
  Tc  Tc31  1  0.683891  0.519640  0.877811  1
  Tc  Tc32  1  0.316303  0.478800  0.379395  1
  Tc  Tc33  1  0.820080  0.016075  0.373952  1
  Tc  Tc34  1  0.982207  0.186169  0.129081  1
  Tc  Tc35  1  0.016075  0.820080  0.626048  1
