# generated using pymatgen
data_CsSmEr9(C2I9)2
_symmetry_space_group_name_H-M   'P 1'
_cell_length_a   11.40779326
_cell_length_b   11.43225812
_cell_length_c   11.45842499
_cell_angle_alpha   113.24270321
_cell_angle_beta   86.85095508
_cell_angle_gamma   119.88916773
_symmetry_Int_Tables_number   1
_chemical_formula_structural   CsSmEr9(C2I9)2
_chemical_formula_sum   'Cs1 Sm1 Er9 C4 I18'
_cell_volume   1171.46805149
_cell_formula_units_Z   1
loop_
 _symmetry_equiv_pos_site_id
 _symmetry_equiv_pos_as_xyz
  1  'x, y, z'
loop_
 _atom_site_type_symbol
 _atom_site_label
 _atom_site_symmetry_multiplicity
 _atom_site_fract_x
 _atom_site_fract_y
 _atom_site_fract_z
 _atom_site_occupancy
  Cs  Cs0  1  0.499819  0.999081  0.500894  1
  Sm  Sm1  1  0.892182  0.056522  0.999521  1
  Er  Er2  1  0.680546  0.725694  0.712984  1
  Er  Er3  1  0.276460  0.351513  0.016644  1
  Er  Er4  1  0.093717  0.387828  0.289899  1
  Er  Er5  1  0.966193  0.038661  0.322980  1
  Er  Er6  1  0.906714  0.610347  0.708893  1
  Er  Er7  1  0.102358  0.945692  0.000522  1
  Er  Er8  1  0.034764  0.960927  0.677085  1
  Er  Er9  1  0.321245  0.274879  0.287770  1
  Er  Er10  1  0.724441  0.647942  0.983185  1
  C  C11  1  0.154808  0.221116  0.122293  1
  C  C12  1  0.848056  0.777080  0.877710  1
  C  C13  1  0.924507  0.853898  0.801102  1
  C  C14  1  0.078587  0.144708  0.198730  1
  I  I15  1  0.451408  0.530921  0.832418  1
  I  I16  1  0.381861  0.040518  0.157425  1
  I  I17  1  0.779287  0.855708  0.501998  1
  I  I18  1  0.838827  0.317536  0.158858  1
  I  I19  1  0.549788  0.469709  0.167579  1
  I  I20  1  0.221610  0.144032  0.498372  1
  I  I21  1  0.315611  0.096411  0.830572  1
  I  I22  1  0.682316  0.900698  0.172426  1
  I  I23  1  0.974509  0.757365  0.168795  1
  I  I24  1  0.934583  0.297936  0.499563  1
  I  I25  1  0.029380  0.245437  0.828231  1
  I  I26  1  0.066226  0.702413  0.500394  1
  I  I27  1  0.259814  0.619601  0.182656  1
  I  I28  1  0.740005  0.379368  0.816924  1
  I  I29  1  0.643465  0.437048  0.502163  1
  I  I30  1  0.160911  0.691669  0.847387  1
  I  I31  1  0.610135  0.955131  0.836504  1
  I  I32  1  0.355866  0.562611  0.497522  1
