# generated using pymatgen
data_Sc5Mn9(Ni5P6)2
_symmetry_space_group_name_H-M   'P 1'
_cell_length_a   12.03526600
_cell_length_b   12.03526592
_cell_length_c   3.60848300
_cell_angle_alpha   90.00000000
_cell_angle_beta   90.00000000
_cell_angle_gamma   120.00000023
_symmetry_Int_Tables_number   1
_chemical_formula_structural   Sc5Mn9(Ni5P6)2
_chemical_formula_sum   'Sc5 Mn9 Ni10 P12'
_cell_volume   452.65432886
_cell_formula_units_Z   1
loop_
 _symmetry_equiv_pos_site_id
 _symmetry_equiv_pos_as_xyz
  1  'x, y, z'
loop_
 _atom_site_type_symbol
 _atom_site_label
 _atom_site_symmetry_multiplicity
 _atom_site_fract_x
 _atom_site_fract_y
 _atom_site_fract_z
 _atom_site_occupancy
  Sc  Sc0  1  0.333333  0.666667  0.500000  1
  Sc  Sc1  1  0.666667  0.333333  0.500000  1
  Sc  Sc2  1  0.185937  0.000000  0.000000  1
  Sc  Sc3  1  0.000000  0.185937  0.000000  1
  Sc  Sc4  1  0.814063  0.814063  0.000000  1
  Mn  Mn5  1  0.200130  0.376912  0.500000  1
  Mn  Mn6  1  0.623088  0.823218  0.500000  1
  Mn  Mn7  1  0.176782  0.799870  0.500000  1
  Mn  Mn8  1  0.823218  0.623088  0.500000  1
  Mn  Mn9  1  0.799870  0.176782  0.500000  1
  Mn  Mn10  1  0.376912  0.200130  0.500000  1
  Mn  Mn11  1  0.551677  0.000000  0.500000  1
  Mn  Mn12  1  0.000000  0.551677  0.500000  1
  Mn  Mn13  1  0.448323  0.448323  0.500000  1
  Ni  Ni14  1  0.125609  0.483745  0.000000  1
  Ni  Ni15  1  0.516255  0.641864  0.000000  1
  Ni  Ni16  1  0.358136  0.874391  0.000000  1
  Ni  Ni17  1  0.641864  0.516255  0.000000  1
  Ni  Ni18  1  0.874391  0.358136  0.000000  1
  Ni  Ni19  1  0.483745  0.125609  0.000000  1
  Ni  Ni20  1  0.716995  0.000000  0.000000  1
  Ni  Ni21  1  0.000000  0.716995  0.000000  1
  Ni  Ni22  1  0.283005  0.283005  0.000000  1
  Ni  Ni23  1  0.000000  0.000000  0.500000  1
  P  P24  1  0.353394  0.000000  0.500000  1
  P  P25  1  0.000000  0.353394  0.500000  1
  P  P26  1  0.646606  0.646606  0.500000  1
  P  P27  1  0.314095  0.483631  0.000000  1
  P  P28  1  0.516369  0.830463  0.000000  1
  P  P29  1  0.169537  0.685905  0.000000  1
  P  P30  1  0.830463  0.516369  0.000000  1
  P  P31  1  0.685905  0.169537  0.000000  1
  P  P32  1  0.483631  0.314095  0.000000  1
  P  P33  1  0.822609  0.000000  0.500000  1
  P  P34  1  0.000000  0.822609  0.500000  1
  P  P35  1  0.177391  0.177391  0.500000  1
