# generated using pymatgen
data_Li8Tb8Bi3Pb5
_symmetry_space_group_name_H-M   'P 1'
_cell_length_a   9.59031700
_cell_length_b   9.59031712
_cell_length_c   7.30446700
_cell_angle_alpha   90.00000000
_cell_angle_beta   90.00000000
_cell_angle_gamma   120.00000304
_symmetry_Int_Tables_number   1
_chemical_formula_structural   Li8Tb8Bi3Pb5
_chemical_formula_sum   'Li8 Tb8 Bi3 Pb5'
_cell_volume   581.81522324
_cell_formula_units_Z   1
loop_
 _symmetry_equiv_pos_site_id
 _symmetry_equiv_pos_as_xyz
  1  'x, y, z'
loop_
 _atom_site_type_symbol
 _atom_site_label
 _atom_site_symmetry_multiplicity
 _atom_site_fract_x
 _atom_site_fract_y
 _atom_site_fract_z
 _atom_site_occupancy
  Li  Li0  1  0.166435  0.332871  0.279028  1
  Li  Li1  1  0.166435  0.833565  0.279028  1
  Li  Li2  1  0.667129  0.833565  0.279028  1
  Li  Li3  1  0.832839  0.665679  0.785093  1
  Li  Li4  1  0.832839  0.167161  0.785093  1
  Li  Li5  1  0.334321  0.167161  0.785093  1
  Li  Li6  1  0.333333  0.666667  0.676947  1
  Li  Li7  1  0.666667  0.333333  0.184288  1
  Tb  Tb8  1  0.512435  0.024871  0.490265  1
  Tb  Tb9  1  0.512435  0.487565  0.490265  1
  Tb  Tb10  1  0.975129  0.487565  0.490265  1
  Tb  Tb11  1  0.490458  0.980918  0.997298  1
  Tb  Tb12  1  0.490458  0.509542  0.997298  1
  Tb  Tb13  1  0.019082  0.509542  0.997298  1
  Tb  Tb14  1  0.000000  0.000000  0.497883  1
  Tb  Tb15  1  0.000000  0.000000  0.007177  1
  Bi  Bi16  1  0.166810  0.333619  0.734309  1
  Bi  Bi17  1  0.166810  0.833190  0.734309  1
  Bi  Bi18  1  0.666381  0.833190  0.734309  1
  Pb  Pb19  1  0.833317  0.666633  0.233432  1
  Pb  Pb20  1  0.833317  0.166683  0.233432  1
  Pb  Pb21  1  0.333367  0.166683  0.233432  1
  Pb  Pb22  1  0.333333  0.666667  0.258598  1
  Pb  Pb23  1  0.666667  0.333333  0.758830  1
