# generated using pymatgen
data_Zr8Ti9Nb3Ge16
_symmetry_space_group_name_H-M   'P 1'
_cell_length_a   6.83539493
_cell_length_b   6.96174181
_cell_length_c   13.16963700
_cell_angle_alpha   90.00000000
_cell_angle_beta   90.00000000
_cell_angle_gamma   90.03091659
_symmetry_Int_Tables_number   1
_chemical_formula_structural   Zr8Ti9Nb3Ge16
_chemical_formula_sum   'Zr8 Ti9 Nb3 Ge16'
_cell_volume   626.69360952
_cell_formula_units_Z   1
loop_
 _symmetry_equiv_pos_site_id
 _symmetry_equiv_pos_as_xyz
  1  'x, y, z'
loop_
 _atom_site_type_symbol
 _atom_site_label
 _atom_site_symmetry_multiplicity
 _atom_site_fract_x
 _atom_site_fract_y
 _atom_site_fract_z
 _atom_site_occupancy
  Zr  Zr0  1  0.490894  0.675398  0.594104  1
  Zr  Zr1  1  0.992683  0.826508  0.905298  1
  Zr  Zr2  1  0.508090  0.325953  0.094657  1
  Zr  Zr3  1  0.008615  0.174710  0.405180  1
  Zr  Zr4  1  0.508090  0.325953  0.405343  1
  Zr  Zr5  1  0.008615  0.174710  0.094820  1
  Zr  Zr6  1  0.490894  0.675398  0.905896  1
  Zr  Zr7  1  0.992683  0.826508  0.594702  1
  Ti  Ti8  1  0.656434  0.167442  0.625438  1
  Ti  Ti9  1  0.159576  0.331134  0.874609  1
  Ti  Ti10  1  0.341650  0.831081  0.124698  1
  Ti  Ti11  1  0.842201  0.668193  0.375777  1
  Ti  Ti12  1  0.341650  0.831081  0.375302  1
  Ti  Ti13  1  0.842201  0.668193  0.124223  1
  Ti  Ti14  1  0.656434  0.167442  0.874562  1
  Ti  Ti15  1  0.159576  0.331134  0.625391  1
  Ti  Ti16  1  0.829529  0.493942  0.750000  1
  Nb  Nb17  1  0.329626  0.005044  0.750000  1
  Nb  Nb18  1  0.170750  0.506044  0.250000  1
  Nb  Nb19  1  0.670624  0.994289  0.250000  1
  Ge  Ge20  1  0.682132  0.959039  0.461307  1
  Ge  Ge21  1  0.182137  0.541427  0.038384  1
  Ge  Ge22  1  0.317731  0.042068  0.961278  1
  Ge  Ge23  1  0.817952  0.458540  0.540876  1
  Ge  Ge24  1  0.317731  0.042068  0.538722  1
  Ge  Ge25  1  0.817952  0.458540  0.959124  1
  Ge  Ge26  1  0.682132  0.959039  0.038693  1
  Ge  Ge27  1  0.182137  0.541427  0.461616  1
  Ge  Ge28  1  0.460937  0.380137  0.750000  1
  Ge  Ge29  1  0.955884  0.124790  0.750000  1
  Ge  Ge30  1  0.542809  0.622185  0.250000  1
  Ge  Ge31  1  0.042223  0.878014  0.250000  1
  Ge  Ge32  1  0.695017  0.855314  0.750000  1
  Ge  Ge33  1  0.188655  0.637212  0.750000  1
  Ge  Ge34  1  0.306834  0.139565  0.250000  1
  Ge  Ge35  1  0.806926  0.360476  0.250000  1
