# generated using pymatgen
data_Lu2NbB2Ir2Ru3
_symmetry_space_group_name_H-M   'P 1'
_cell_length_a   9.63164200
_cell_length_b   9.66490900
_cell_length_c   3.11287200
_cell_angle_alpha   90.00000000
_cell_angle_beta   90.00000000
_cell_angle_gamma   90.00000000
_symmetry_Int_Tables_number   1
_chemical_formula_structural   Lu2NbB2Ir2Ru3
_chemical_formula_sum   'Lu4 Nb2 B4 Ir4 Ru6'
_cell_volume   289.77396558
_cell_formula_units_Z   2
loop_
 _symmetry_equiv_pos_site_id
 _symmetry_equiv_pos_as_xyz
  1  'x, y, z'
loop_
 _atom_site_type_symbol
 _atom_site_label
 _atom_site_symmetry_multiplicity
 _atom_site_fract_x
 _atom_site_fract_y
 _atom_site_fract_z
 _atom_site_occupancy
  Lu  Lu0  1  0.825477  0.674561  0.000000  1
  Lu  Lu1  1  0.174523  0.325439  0.000000  1
  Lu  Lu2  1  0.325477  0.825439  0.000000  1
  Lu  Lu3  1  0.674523  0.174561  0.000000  1
  Nb  Nb4  1  0.500000  0.500000  0.000000  1
  Nb  Nb5  1  0.000000  0.000000  0.000000  1
  B  B6  1  0.623617  0.885001  0.000000  1
  B  B7  1  0.376383  0.114999  0.000000  1
  B  B8  1  0.123617  0.614999  0.000000  1
  B  B9  1  0.876383  0.385001  0.000000  1
  Ir  Ir10  1  0.571946  0.720888  0.500000  1
  Ir  Ir11  1  0.428054  0.279112  0.500000  1
  Ir  Ir12  1  0.071946  0.779112  0.500000  1
  Ir  Ir13  1  0.928054  0.220888  0.500000  1
  Ru  Ru14  1  0.282945  0.570014  0.500000  1
  Ru  Ru15  1  0.717055  0.429986  0.500000  1
  Ru  Ru16  1  0.217055  0.070014  0.500000  1
  Ru  Ru17  1  0.782945  0.929986  0.500000  1
  Ru  Ru18  1  0.500000  0.000000  0.500000  1
  Ru  Ru19  1  0.000000  0.500000  0.500000  1
