# generated using pymatgen
data_TmLu9(GaSb2)2
_symmetry_space_group_name_H-M   'P 1'
_cell_length_a   8.64238342
_cell_length_b   8.66306794
_cell_length_c   6.27831000
_cell_angle_alpha   90.00000000
_cell_angle_beta   90.00000000
_cell_angle_gamma   119.88532967
_symmetry_Int_Tables_number   1
_chemical_formula_structural   TmLu9(GaSb2)2
_chemical_formula_sum   'Tm1 Lu9 Ga2 Sb4'
_cell_volume   407.54850455
_cell_formula_units_Z   1
loop_
 _symmetry_equiv_pos_site_id
 _symmetry_equiv_pos_as_xyz
  1  'x, y, z'
loop_
 _atom_site_type_symbol
 _atom_site_label
 _atom_site_symmetry_multiplicity
 _atom_site_fract_x
 _atom_site_fract_y
 _atom_site_fract_z
 _atom_site_occupancy
  Tm  Tm0  1  0.013787  0.768868  0.750000  1
  Lu  Lu1  1  0.343055  0.685950  0.000059  1
  Lu  Lu2  1  0.657044  0.314067  0.499967  1
  Lu  Lu3  1  0.657044  0.314067  0.000033  1
  Lu  Lu4  1  0.343055  0.685950  0.499941  1
  Lu  Lu5  1  0.244766  0.000112  0.250000  1
  Lu  Lu6  1  0.755286  0.999999  0.750000  1
  Lu  Lu7  1  0.985939  0.230720  0.250000  1
  Lu  Lu8  1  0.754970  0.769173  0.250000  1
  Lu  Lu9  1  0.245074  0.231014  0.750000  1
  Ga  Ga10  1  0.603457  0.999985  0.250000  1
  Ga  Ga11  1  0.396969  0.000282  0.750000  1
  Sb  Sb12  1  0.993497  0.605581  0.250000  1
  Sb  Sb13  1  0.388033  0.394525  0.250000  1
  Sb  Sb14  1  0.611511  0.605379  0.750000  1
  Sb  Sb15  1  0.006513  0.394327  0.750000  1
