# generated using pymatgen
data_Nb3Al2CoN
_symmetry_space_group_name_H-M   'P 1'
_cell_length_a   8.20213501
_cell_length_b   8.20213579
_cell_length_c   8.20213600
_cell_angle_alpha   59.99999917
_cell_angle_beta   59.99999601
_cell_angle_gamma   60.00000283
_symmetry_Int_Tables_number   1
_chemical_formula_structural   Nb3Al2CoN
_chemical_formula_sum   'Nb12 Al8 Co4 N4'
_cell_volume   390.18074226
_cell_formula_units_Z   4
loop_
 _symmetry_equiv_pos_site_id
 _symmetry_equiv_pos_as_xyz
  1  'x, y, z'
loop_
 _atom_site_type_symbol
 _atom_site_label
 _atom_site_symmetry_multiplicity
 _atom_site_fract_x
 _atom_site_fract_y
 _atom_site_fract_z
 _atom_site_occupancy
  Nb  Nb0  1  0.560777  0.939223  0.560777  1
  Nb  Nb1  1  0.310777  0.689223  0.689223  1
  Nb  Nb2  1  0.689223  0.310777  0.310777  1
  Nb  Nb3  1  0.310777  0.689223  0.310777  1
  Nb  Nb4  1  0.689223  0.689223  0.310777  1
  Nb  Nb5  1  0.310777  0.310777  0.689223  1
  Nb  Nb6  1  0.560777  0.560777  0.939223  1
  Nb  Nb7  1  0.939223  0.560777  0.560777  1
  Nb  Nb8  1  0.560777  0.939223  0.939223  1
  Nb  Nb9  1  0.939223  0.939223  0.560777  1
  Nb  Nb10  1  0.689223  0.310777  0.689223  1
  Nb  Nb11  1  0.939223  0.560777  0.939223  1
  Al  Al12  1  0.917979  0.917979  0.917979  1
  Al  Al13  1  0.003935  0.332021  0.332021  1
  Al  Al14  1  0.332021  0.003935  0.332021  1
  Al  Al15  1  0.332021  0.332021  0.003935  1
  Al  Al16  1  0.917979  0.246065  0.917979  1
  Al  Al17  1  0.917979  0.917979  0.246065  1
  Al  Al18  1  0.246065  0.917979  0.917979  1
  Al  Al19  1  0.332021  0.332021  0.332021  1
  Co  Co20  1  0.125000  0.125000  0.125000  1
  Co  Co21  1  0.625000  0.125000  0.125000  1
  Co  Co22  1  0.125000  0.625000  0.125000  1
  Co  Co23  1  0.125000  0.125000  0.625000  1
  N  N24  1  0.625000  0.625000  0.625000  1
  N  N25  1  0.125000  0.625000  0.625000  1
  N  N26  1  0.625000  0.125000  0.625000  1
  N  N27  1  0.625000  0.625000  0.125000  1
