# generated using pymatgen
data_Lu4Al24IrPt8
_symmetry_space_group_name_H-M   'P 1'
_cell_length_a   7.49550655
_cell_length_b   7.52222024
_cell_length_c   13.11942021
_cell_angle_alpha   84.69438289
_cell_angle_beta   79.15693548
_cell_angle_gamma   59.90529331
_symmetry_Int_Tables_number   1
_chemical_formula_structural   Lu4Al24IrPt8
_chemical_formula_sum   'Lu4 Al24 Ir1 Pt8'
_cell_volume   628.56779649
_cell_formula_units_Z   1
loop_
 _symmetry_equiv_pos_site_id
 _symmetry_equiv_pos_as_xyz
  1  'x, y, z'
loop_
 _atom_site_type_symbol
 _atom_site_label
 _atom_site_symmetry_multiplicity
 _atom_site_fract_x
 _atom_site_fract_y
 _atom_site_fract_z
 _atom_site_occupancy
  Lu  Lu0  1  0.393456  0.169401  0.807851  1
  Lu  Lu1  1  0.606544  0.830599  0.192149  1
  Lu  Lu2  1  0.734836  0.498675  0.807752  1
  Lu  Lu3  1  0.265164  0.501325  0.192248  1
  Al  Al4  1  0.686174  0.830758  0.944653  1
  Al  Al5  1  0.313826  0.169242  0.055347  1
  Al  Al6  1  0.146559  0.832051  0.561896  1
  Al  Al7  1  0.853441  0.167949  0.438104  1
  Al  Al8  1  0.479761  0.166603  0.559108  1
  Al  Al9  1  0.520239  0.833397  0.440892  1
  Al  Al10  1  0.218365  0.165126  0.326940  1
  Al  Al11  1  0.781635  0.834874  0.673060  1
  Al  Al12  1  0.436369  0.506764  0.672945  1
  Al  Al13  1  0.563631  0.493236  0.327055  1
  Al  Al14  1  0.108898  0.160430  0.671149  1
  Al  Al15  1  0.891102  0.839570  0.328851  1
  Al  Al16  1  0.350732  0.498500  0.944839  1
  Al  Al17  1  0.649268  0.501500  0.055161  1
  Al  Al18  1  0.015792  0.172290  0.952646  1
  Al  Al19  1  0.984208  0.827710  0.047354  1
  Al  Al20  1  0.186554  0.499626  0.441041  1
  Al  Al21  1  0.813446  0.500374  0.558959  1
  Al  Al22  1  0.733210  0.163874  0.182826  1
  Al  Al23  1  0.266790  0.836126  0.817174  1
  Al  Al24  1  0.061134  0.628946  0.817631  1
  Al  Al25  1  0.938866  0.371054  0.182369  1
  Al  Al26  1  0.854602  0.042642  0.816561  1
  Al  Al27  1  0.145398  0.957358  0.183439  1
  Ir  Ir28  1  0.000000  0.500000  0.000000  1
  Pt  Pt29  1  0.119776  0.491314  0.639239  1
  Pt  Pt30  1  0.880224  0.508686  0.360761  1
  Pt  Pt31  1  0.657374  0.171242  0.999653  1
  Pt  Pt32  1  0.342626  0.828758  0.000347  1
  Pt  Pt33  1  0.537458  0.166903  0.361001  1
  Pt  Pt34  1  0.462542  0.833097  0.638999  1
  Pt  Pt35  1  0.778050  0.175366  0.637487  1
  Pt  Pt36  1  0.221950  0.824634  0.362513  1
