# generated using pymatgen
data_ErTh3Pb5
_symmetry_space_group_name_H-M   'P 1'
_cell_length_a   9.74504700
_cell_length_b   9.74504739
_cell_length_c   6.54420300
_cell_angle_alpha   90.00000000
_cell_angle_beta   90.00000000
_cell_angle_gamma   119.99999529
_symmetry_Int_Tables_number   1
_chemical_formula_structural   ErTh3Pb5
_chemical_formula_sum   'Er2 Th6 Pb10'
_cell_volume   538.21439396
_cell_formula_units_Z   2
loop_
 _symmetry_equiv_pos_site_id
 _symmetry_equiv_pos_as_xyz
  1  'x, y, z'
loop_
 _atom_site_type_symbol
 _atom_site_label
 _atom_site_symmetry_multiplicity
 _atom_site_fract_x
 _atom_site_fract_y
 _atom_site_fract_z
 _atom_site_occupancy
  Er  Er0  1  0.000000  0.000000  0.000000  1
  Er  Er1  1  0.000000  0.000000  0.500000  1
  Th  Th2  1  0.615481  0.000000  0.250000  1
  Th  Th3  1  0.384519  0.000000  0.750000  1
  Th  Th4  1  0.000000  0.615481  0.250000  1
  Th  Th5  1  0.000000  0.384519  0.750000  1
  Th  Th6  1  0.384519  0.384519  0.250000  1
  Th  Th7  1  0.615481  0.615481  0.750000  1
  Pb  Pb8  1  0.274721  0.000000  0.250000  1
  Pb  Pb9  1  0.725279  0.000000  0.750000  1
  Pb  Pb10  1  0.000000  0.274721  0.250000  1
  Pb  Pb11  1  0.000000  0.725279  0.750000  1
  Pb  Pb12  1  0.725279  0.725279  0.250000  1
  Pb  Pb13  1  0.274721  0.274721  0.750000  1
  Pb  Pb14  1  0.333333  0.666667  0.000000  1
  Pb  Pb15  1  0.666667  0.333333  0.000000  1
  Pb  Pb16  1  0.666667  0.333333  0.500000  1
  Pb  Pb17  1  0.333333  0.666667  0.500000  1
