# generated using pymatgen
data_Nb3IrS10
_symmetry_space_group_name_H-M   'P 1'
_cell_length_a   3.40768200
_cell_length_b   9.42060596
_cell_length_c   9.91731905
_cell_angle_alpha   67.65792187
_cell_angle_beta   90.00000000
_cell_angle_gamma   90.00000000
_symmetry_Int_Tables_number   1
_chemical_formula_structural   Nb3IrS10
_chemical_formula_sum   'Nb3 Ir1 S10'
_cell_volume   294.47024893
_cell_formula_units_Z   1
loop_
 _symmetry_equiv_pos_site_id
 _symmetry_equiv_pos_as_xyz
  1  'x, y, z'
loop_
 _atom_site_type_symbol
 _atom_site_label
 _atom_site_symmetry_multiplicity
 _atom_site_fract_x
 _atom_site_fract_y
 _atom_site_fract_z
 _atom_site_occupancy
  Nb  Nb0  1  0.000000  0.293011  0.629272  1
  Nb  Nb1  1  0.500000  0.707362  0.365117  1
  Nb  Nb2  1  0.500000  0.451936  0.910548  1
  Ir  Ir3  1  0.000000  0.546818  0.106996  1
  S  S4  1  0.500000  0.078007  0.738749  1
  S  S5  1  0.000000  0.925286  0.255622  1
  S  S6  1  0.500000  0.493800  0.627756  1
  S  S7  1  0.000000  0.510366  0.361570  1
  S  S8  1  0.500000  0.167102  0.516638  1
  S  S9  1  0.000000  0.833350  0.477119  1
  S  S10  1  0.000000  0.259209  0.900043  1
  S  S11  1  0.500000  0.727363  0.096906  1
  S  S12  1  0.000000  0.656376  0.847204  1
  S  S13  1  0.500000  0.350015  0.166463  1
