# generated using pymatgen
data_Y8Er2OsRu3
_symmetry_space_group_name_H-M   'P 1'
_cell_length_a   6.37464864
_cell_length_b   7.31893113
_cell_length_c   8.50157663
_cell_angle_alpha   96.68230756
_cell_angle_beta   112.07618218
_cell_angle_gamma   89.99998096
_symmetry_Int_Tables_number   1
_chemical_formula_structural   Y8Er2OsRu3
_chemical_formula_sum   'Y8 Er2 Os1 Ru3'
_cell_volume   364.65675918
_cell_formula_units_Z   1
loop_
 _symmetry_equiv_pos_site_id
 _symmetry_equiv_pos_as_xyz
  1  'x, y, z'
loop_
 _atom_site_type_symbol
 _atom_site_label
 _atom_site_symmetry_multiplicity
 _atom_site_fract_x
 _atom_site_fract_y
 _atom_site_fract_z
 _atom_site_occupancy
  Y  Y0  1  0.792429  0.583083  0.813607  1
  Y  Y1  1  0.975230  0.915527  0.182559  1
  Y  Y2  1  0.207058  0.415678  0.185695  1
  Y  Y3  1  0.023498  0.084089  0.814573  1
  Y  Y4  1  0.206917  0.685706  0.567311  1
  Y  Y5  1  0.639411  0.816571  0.435610  1
  Y  Y6  1  0.794482  0.315164  0.433074  1
  Y  Y7  1  0.359374  0.184116  0.565649  1
  Er  Er8  1  0.422489  0.750058  0.999485  1
  Er  Er9  1  0.578016  0.250189  0.999998  1
  Os  Os10  1  0.602482  0.925195  0.784738  1
  Ru  Ru11  1  0.819360  0.575238  0.217757  1
  Ru  Ru12  1  0.397853  0.074780  0.216767  1
  Ru  Ru13  1  0.181400  0.424604  0.783178  1
