# generated using pymatgen
data_Pu5Zn2Ru3
_symmetry_space_group_name_H-M   'P 1'
_cell_length_a   8.19652922
_cell_length_b   8.19652952
_cell_length_c   8.19652900
_cell_angle_alpha   109.47121688
_cell_angle_beta   109.47121762
_cell_angle_gamma   109.47122989
_symmetry_Int_Tables_number   1
_chemical_formula_structural   Pu5Zn2Ru3
_chemical_formula_sum   'Pu10 Zn4 Ru6'
_cell_volume   423.90454644
_cell_formula_units_Z   2
loop_
 _symmetry_equiv_pos_site_id
 _symmetry_equiv_pos_as_xyz
  1  'x, y, z'
loop_
 _atom_site_type_symbol
 _atom_site_label
 _atom_site_symmetry_multiplicity
 _atom_site_fract_x
 _atom_site_fract_y
 _atom_site_fract_z
 _atom_site_occupancy
  Pu  Pu0  1  0.250000  0.691859  0.441860  1
  Pu  Pu1  1  0.750000  0.808141  0.058141  1
  Pu  Pu2  1  0.441860  0.250000  0.691859  1
  Pu  Pu3  1  0.691859  0.441860  0.250000  1
  Pu  Pu4  1  0.058141  0.750000  0.808141  1
  Pu  Pu5  1  0.808141  0.058141  0.750000  1
  Pu  Pu6  1  0.230551  0.230551  0.230551  1
  Pu  Pu7  1  0.500001  0.000000  0.269449  1
  Pu  Pu8  1  0.269449  0.500001  0.000000  1
  Pu  Pu9  1  0.000000  0.269449  0.500001  1
  Zn  Zn10  1  0.500001  0.000000  0.905538  1
  Zn  Zn11  1  0.594462  0.594462  0.594462  1
  Zn  Zn12  1  0.905538  0.500001  0.000000  1
  Zn  Zn13  1  0.000000  0.905538  0.500001  1
  Ru  Ru14  1  0.250001  0.136317  0.886317  1
  Ru  Ru15  1  0.750000  0.363682  0.613682  1
  Ru  Ru16  1  0.886317  0.250001  0.136317  1
  Ru  Ru17  1  0.136317  0.886317  0.250001  1
  Ru  Ru18  1  0.613682  0.750000  0.363682  1
  Ru  Ru19  1  0.363682  0.613682  0.750000  1
