# generated using pymatgen
data_Hf7Fe7CoSi14W
_symmetry_space_group_name_H-M   'P 1'
_cell_length_a   9.44696078
_cell_length_b   9.44482366
_cell_length_c   9.43053653
_cell_angle_alpha   94.09739058
_cell_angle_beta   94.10804824
_cell_angle_gamma   149.05407122
_symmetry_Int_Tables_number   1
_chemical_formula_structural   Hf7Fe7CoSi14W
_chemical_formula_sum   'Hf7 Fe7 Co1 Si14 W1'
_cell_volume   416.84254469
_cell_formula_units_Z   1
loop_
 _symmetry_equiv_pos_site_id
 _symmetry_equiv_pos_as_xyz
  1  'x, y, z'
loop_
 _atom_site_type_symbol
 _atom_site_label
 _atom_site_symmetry_multiplicity
 _atom_site_fract_x
 _atom_site_fract_y
 _atom_site_fract_z
 _atom_site_occupancy
  Hf  Hf0  1  0.864148  0.864244  0.727089  1
  Hf  Hf1  1  0.137740  0.862088  0.999391  1
  Hf  Hf2  1  0.861836  0.137721  0.999360  1
  Hf  Hf3  1  0.305045  0.500799  0.804612  1
  Hf  Hf4  1  0.696006  0.503689  0.198918  1
  Hf  Hf5  1  0.502808  0.695408  0.198636  1
  Hf  Hf6  1  0.499491  0.303966  0.804034  1
  Fe  Fe7  1  0.103351  0.602118  0.205320  1
  Fe  Fe8  1  0.398735  0.897502  0.796757  1
  Fe  Fe9  1  0.898803  0.100737  0.497722  1
  Fe  Fe10  1  0.598671  0.397411  0.498223  1
  Fe  Fe11  1  0.602801  0.102971  0.203992  1
  Fe  Fe12  1  0.898074  0.398298  0.798344  1
  Fe  Fe13  1  0.101917  0.898984  0.497971  1
  Co  Co14  1  0.396044  0.599500  0.498503  1
  Si  Si15  1  0.284985  0.285897  0.571853  1
  Si  Si16  1  0.711035  0.711644  0.422390  1
  Si  Si17  1  0.292113  0.710166  0.002187  1
  Si  Si18  1  0.709986  0.292050  0.002165  1
  Si  Si19  1  0.085371  0.491700  0.590730  1
  Si  Si20  1  0.909519  0.501599  0.409908  1
  Si  Si21  1  0.506541  0.914014  0.408951  1
  Si  Si22  1  0.497233  0.090591  0.589677  1
  Si  Si23  1  0.249593  0.249600  0.005391  1
  Si  Si24  1  0.756174  0.756259  0.005750  1
  Si  Si25  1  0.297777  0.002910  0.299437  1
  Si  Si26  1  0.700568  0.000269  0.695893  1
  Si  Si27  1  0.998426  0.698468  0.697931  1
  Si  Si28  1  0.001997  0.296090  0.301117  1
  W  W29  1  0.133211  0.133305  0.267748  1
