# generated using pymatgen
data_Er3LuAl8
_symmetry_space_group_name_H-M   'P 1'
_cell_length_a   9.57585150
_cell_length_b   9.57585065
_cell_length_c   9.57585203
_cell_angle_alpha   33.50634030
_cell_angle_beta   33.50634842
_cell_angle_gamma   33.50634240
_symmetry_Int_Tables_number   1
_chemical_formula_structural   Er3LuAl8
_chemical_formula_sum   'Er3 Lu1 Al8'
_cell_volume   238.32138961
_cell_formula_units_Z   1
loop_
 _symmetry_equiv_pos_site_id
 _symmetry_equiv_pos_as_xyz
  1  'x, y, z'
loop_
 _atom_site_type_symbol
 _atom_site_label
 _atom_site_symmetry_multiplicity
 _atom_site_fract_x
 _atom_site_fract_y
 _atom_site_fract_z
 _atom_site_occupancy
  Er  Er0  1  0.312563  0.312563  0.312563  1
  Er  Er1  1  0.687563  0.687563  0.687563  1
  Er  Er2  1  0.187343  0.187343  0.187343  1
  Lu  Lu3  1  0.812506  0.812506  0.812506  1
  Al  Al4  1  0.499934  0.499934  0.499934  1
  Al  Al5  1  0.000047  0.000047  0.000047  1
  Al  Al6  1  0.250108  0.250108  0.750069  1
  Al  Al7  1  0.749920  0.749920  0.249918  1
  Al  Al8  1  0.250108  0.750069  0.250108  1
  Al  Al9  1  0.749920  0.249918  0.749920  1
  Al  Al10  1  0.750069  0.250108  0.250108  1
  Al  Al11  1  0.249918  0.749920  0.749920  1
