# generated using pymatgen
data_P(S8F)3
_symmetry_space_group_name_H-M   'P 1'
_cell_length_a   14.85153749
_cell_length_b   14.85153776
_cell_length_c   14.85153632
_cell_angle_alpha   118.67950372
_cell_angle_beta   118.67950506
_cell_angle_gamma   118.67949927
_symmetry_Int_Tables_number   1
_chemical_formula_structural   P(S8F)3
_chemical_formula_sum   'P1 S24 F3'
_cell_volume   971.75760127
_cell_formula_units_Z   1
loop_
 _symmetry_equiv_pos_site_id
 _symmetry_equiv_pos_as_xyz
  1  'x, y, z'
loop_
 _atom_site_type_symbol
 _atom_site_label
 _atom_site_symmetry_multiplicity
 _atom_site_fract_x
 _atom_site_fract_y
 _atom_site_fract_z
 _atom_site_occupancy
  P  P0  1  0.049575  0.049575  0.049575  1
  S  S1  1  0.802745  0.524096  0.524096  1
  S  S2  1  0.524096  0.524096  0.802745  1
  S  S3  1  0.524096  0.802745  0.524096  1
  S  S4  1  0.248039  0.379582  0.635990  1
  S  S5  1  0.348029  0.950429  0.348029  1
  S  S6  1  0.348029  0.348029  0.950429  1
  S  S7  1  0.950429  0.348029  0.348029  1
  S  S8  1  0.124148  0.738861  0.255326  1
  S  S9  1  0.255326  0.124148  0.738861  1
  S  S10  1  0.738861  0.255326  0.124148  1
  S  S11  1  0.738861  0.124148  0.255326  1
  S  S12  1  0.255326  0.738861  0.124148  1
  S  S13  1  0.124148  0.255326  0.738861  1
  S  S14  1  0.348713  0.881826  0.533465  1
  S  S15  1  0.533465  0.348713  0.881826  1
  S  S16  1  0.881826  0.533465  0.348713  1
  S  S17  1  0.881826  0.348713  0.533465  1
  S  S18  1  0.533465  0.881826  0.348713  1
  S  S19  1  0.348713  0.533465  0.881826  1
  S  S20  1  0.248039  0.635990  0.379582  1
  S  S21  1  0.379582  0.248039  0.635990  1
  S  S22  1  0.635990  0.379582  0.248039  1
  S  S23  1  0.635990  0.248039  0.379582  1
  S  S24  1  0.379582  0.635990  0.248039  1
  F  F25  1  0.832660  0.926868  0.926868  1
  F  F26  1  0.926868  0.926868  0.832660  1
  F  F27  1  0.926868  0.832660  0.926868  1
