# generated using pymatgen
data_CaYGa9Ru5
_symmetry_space_group_name_H-M   'P 1'
_cell_length_a   8.04574460
_cell_length_b   8.04574366
_cell_length_c   8.04574438
_cell_angle_alpha   134.50548007
_cell_angle_beta   134.82574402
_cell_angle_gamma   66.05055350
_symmetry_Int_Tables_number   1
_chemical_formula_structural   CaYGa9Ru5
_chemical_formula_sum   'Ca1 Y1 Ga9 Ru5'
_cell_volume   259.41384933
_cell_formula_units_Z   1
loop_
 _symmetry_equiv_pos_site_id
 _symmetry_equiv_pos_as_xyz
  1  'x, y, z'
loop_
 _atom_site_type_symbol
 _atom_site_label
 _atom_site_symmetry_multiplicity
 _atom_site_fract_x
 _atom_site_fract_y
 _atom_site_fract_z
 _atom_site_occupancy
  Ca  Ca0  1  0.000000  0.500000  0.500000  1
  Y  Y1  1  0.500000  0.000000  0.500000  1
  Ga  Ga2  1  0.436441  0.857878  0.998424  1
  Ga  Ga3  1  0.140546  0.142122  0.578563  1
  Ga  Ga4  1  0.859454  0.438018  0.001576  1
  Ga  Ga5  1  0.859454  0.857878  0.421437  1
  Ga  Ga6  1  0.563559  0.142122  0.001576  1
  Ga  Ga7  1  0.140546  0.561982  0.998424  1
  Ga  Ga8  1  0.563559  0.561982  0.421437  1
  Ga  Ga9  1  0.000000  0.000000  0.000000  1
  Ga  Ga10  1  0.436441  0.438018  0.578563  1
  Ru  Ru11  1  0.181962  0.181962  0.000000  1
  Ru  Ru12  1  0.818038  0.818038  0.000000  1
  Ru  Ru13  1  0.250340  0.750340  0.500000  1
  Ru  Ru14  1  0.749660  0.249660  0.500000  1
  Ru  Ru15  1  0.500000  0.500000  0.000000  1
