# generated using pymatgen
data_Tb4Al18CuPdRh4
_symmetry_space_group_name_H-M   'P 1'
_cell_length_a   7.58171275
_cell_length_b   7.58171877
_cell_length_c   9.44739241
_cell_angle_alpha   89.93115622
_cell_angle_beta   89.93131297
_cell_angle_gamma   119.52199093
_symmetry_Int_Tables_number   1
_chemical_formula_structural   Tb4Al18CuPdRh4
_chemical_formula_sum   'Tb4 Al18 Cu1 Pd1 Rh4'
_cell_volume   472.55041011
_cell_formula_units_Z   1
loop_
 _symmetry_equiv_pos_site_id
 _symmetry_equiv_pos_as_xyz
  1  'x, y, z'
loop_
 _atom_site_type_symbol
 _atom_site_label
 _atom_site_symmetry_multiplicity
 _atom_site_fract_x
 _atom_site_fract_y
 _atom_site_fract_z
 _atom_site_occupancy
  Tb  Tb0  1  0.994201  0.669204  0.249845  1
  Tb  Tb1  1  0.004597  0.330225  0.750266  1
  Tb  Tb2  1  0.669773  0.995402  0.249733  1
  Tb  Tb3  1  0.330797  0.005799  0.750156  1
  Al  Al4  1  0.126905  0.126620  0.251382  1
  Al  Al5  1  0.873380  0.873095  0.748618  1
  Al  Al6  1  0.000429  0.331374  0.077233  1
  Al  Al7  1  0.998069  0.668169  0.922705  1
  Al  Al8  1  0.000320  0.664681  0.573615  1
  Al  Al9  1  0.335318  0.999680  0.426385  1
  Al  Al10  1  0.999353  0.335018  0.426258  1
  Al  Al11  1  0.664982  0.000647  0.573742  1
  Al  Al12  1  0.668626  0.999570  0.922767  1
  Al  Al13  1  0.331832  0.001931  0.077296  1
  Al  Al14  1  0.331853  0.331690  0.548127  1
  Al  Al15  1  0.668310  0.668146  0.451872  1
  Al  Al16  1  0.668630  0.667741  0.055404  1
  Al  Al17  1  0.332260  0.331370  0.944597  1
  Al  Al18  1  0.340986  0.548043  0.254041  1
  Al  Al19  1  0.659250  0.451487  0.746374  1
  Al  Al20  1  0.548512  0.340750  0.253627  1
  Al  Al21  1  0.451957  0.659013  0.745960  1
  Cu  Cu22  1  0.672118  0.327877  0.000001  1
  Pd  Pd23  1  0.327789  0.672216  0.999999  1
  Rh  Rh24  1  0.328032  0.671971  0.500000  1
  Rh  Rh25  1  0.672044  0.327956  0.499999  1
  Rh  Rh26  1  0.999679  0.000319  0.999999  1
  Rh  Rh27  1  0.999998  0.000004  0.500000  1
