# generated using pymatgen
data_Dy5Mo2P12Ir16W
_symmetry_space_group_name_H-M   'P 1'
_cell_length_a   12.67910179
_cell_length_b   12.69077341
_cell_length_c   3.99307000
_cell_angle_alpha   90.00000000
_cell_angle_beta   90.00000000
_cell_angle_gamma   120.03045902
_symmetry_Int_Tables_number   1
_chemical_formula_structural   Dy5Mo2P12Ir16W
_chemical_formula_sum   'Dy5 Mo2 P12 Ir16 W1'
_cell_volume   556.26374600
_cell_formula_units_Z   1
loop_
 _symmetry_equiv_pos_site_id
 _symmetry_equiv_pos_as_xyz
  1  'x, y, z'
loop_
 _atom_site_type_symbol
 _atom_site_label
 _atom_site_symmetry_multiplicity
 _atom_site_fract_x
 _atom_site_fract_y
 _atom_site_fract_z
 _atom_site_occupancy
  Dy  Dy0  1  0.333383  0.666735  0.500000  1
  Dy  Dy1  1  0.666617  0.333351  0.500000  1
  Dy  Dy2  1  0.000000  0.812988  0.000000  1
  Dy  Dy3  1  0.187058  0.187175  0.000000  1
  Dy  Dy4  1  0.812942  0.000116  0.000000  1
  Mo  Mo5  1  0.546472  0.546460  0.500000  1
  Mo  Mo6  1  0.453528  0.999988  0.500000  1
  P  P7  1  0.000000  0.639472  0.500000  1
  P  P8  1  0.361301  0.361105  0.500000  1
  P  P9  1  0.638699  0.999803  0.500000  1
  P  P10  1  0.516211  0.684339  0.000000  1
  P  P11  1  0.315653  0.831981  0.000000  1
  P  P12  1  0.168231  0.483775  0.000000  1
  P  P13  1  0.483789  0.168128  0.000000  1
  P  P14  1  0.684347  0.516328  0.000000  1
  P  P15  1  0.831769  0.315544  0.000000  1
  P  P16  1  0.000000  0.176228  0.500000  1
  P  P17  1  0.823156  0.823139  0.500000  1
  P  P18  1  0.176844  0.999983  0.500000  1
  Ir  Ir19  1  0.509173  0.866546  0.000000  1
  Ir  Ir20  1  0.133447  0.641909  0.000000  1
  Ir  Ir21  1  0.357344  0.490941  0.000000  1
  Ir  Ir22  1  0.490827  0.357372  0.000000  1
  Ir  Ir23  1  0.866553  0.508461  0.000000  1
  Ir  Ir24  1  0.642656  0.133596  0.000000  1
  Ir  Ir25  1  0.000000  0.287211  0.000000  1
  Ir  Ir26  1  0.713500  0.713540  0.000000  1
  Ir  Ir27  1  0.286500  0.000040  0.000000  1
  Ir  Ir28  1  0.625740  0.804422  0.500000  1
  Ir  Ir29  1  0.195496  0.821257  0.500000  1
  Ir  Ir30  1  0.178307  0.374210  0.500000  1
  Ir  Ir31  1  0.374260  0.178682  0.500000  1
  Ir  Ir32  1  0.804504  0.625761  0.500000  1
  Ir  Ir33  1  0.821693  0.195903  0.500000  1
  Ir  Ir34  1  0.000000  0.999757  0.500000  1
  W  W35  1  0.000000  0.453756  0.500000  1
