# generated using pymatgen
data_Er18InSnIr12
_symmetry_space_group_name_H-M   'P 1'
_cell_length_a   10.76293200
_cell_length_b   10.76293200
_cell_length_c   6.24455000
_cell_angle_alpha   90.00000000
_cell_angle_beta   90.00000000
_cell_angle_gamma   90.00000000
_symmetry_Int_Tables_number   1
_chemical_formula_structural   Er18InSnIr12
_chemical_formula_sum   'Er18 In1 Sn1 Ir12'
_cell_volume   723.37307589
_cell_formula_units_Z   1
loop_
 _symmetry_equiv_pos_site_id
 _symmetry_equiv_pos_as_xyz
  1  'x, y, z'
loop_
 _atom_site_type_symbol
 _atom_site_label
 _atom_site_symmetry_multiplicity
 _atom_site_fract_x
 _atom_site_fract_y
 _atom_site_fract_z
 _atom_site_occupancy
  Er  Er0  1  0.286390  0.085614  0.379745  1
  Er  Er1  1  0.292721  0.910723  0.879250  1
  Er  Er2  1  0.707279  0.089277  0.879250  1
  Er  Er3  1  0.713610  0.914386  0.379745  1
  Er  Er4  1  0.586501  0.786629  0.880042  1
  Er  Er5  1  0.588395  0.208359  0.378510  1
  Er  Er6  1  0.411605  0.791641  0.378510  1
  Er  Er7  1  0.413499  0.213371  0.880042  1
  Er  Er8  1  0.208359  0.411605  0.621490  1
  Er  Er9  1  0.213371  0.586501  0.119958  1
  Er  Er10  1  0.786629  0.413499  0.119958  1
  Er  Er11  1  0.791641  0.588395  0.621490  1
  Er  Er12  1  0.910723  0.707279  0.120750  1
  Er  Er13  1  0.914386  0.286390  0.620255  1
  Er  Er14  1  0.085614  0.713610  0.620255  1
  Er  Er15  1  0.089277  0.292721  0.120750  1
  Er  Er16  1  0.000000  0.000000  0.000000  1
  Er  Er17  1  0.500000  0.500000  0.500000  1
  In  In18  1  0.500000  0.500000  0.000000  1
  Sn  Sn19  1  0.000000  0.000000  0.500000  1
  Ir  Ir20  1  0.846847  0.155948  0.246038  1
  Ir  Ir21  1  0.844052  0.846847  0.753962  1
  Ir  Ir22  1  0.155948  0.153153  0.753962  1
  Ir  Ir23  1  0.153153  0.844052  0.246038  1
  Ir  Ir24  1  0.657287  0.345528  0.743184  1
  Ir  Ir25  1  0.654472  0.657287  0.256816  1
  Ir  Ir26  1  0.345528  0.342713  0.256816  1
  Ir  Ir27  1  0.342713  0.654472  0.743184  1
  Ir  Ir28  1  0.500000  0.000000  0.123260  1
  Ir  Ir29  1  0.500000  0.000000  0.621743  1
  Ir  Ir30  1  0.000000  0.500000  0.876740  1
  Ir  Ir31  1  0.000000  0.500000  0.378257  1
