# generated using pymatgen
data_HfTi6Tc12Mo5
_symmetry_space_group_name_H-M   'P 1'
_cell_length_a   4.39018900
_cell_length_b   6.27200000
_cell_length_c   13.33984500
_cell_angle_alpha   90.00000000
_cell_angle_beta   90.00025077
_cell_angle_gamma   90.00000000
_symmetry_Int_Tables_number   1
_chemical_formula_structural   HfTi6Tc12Mo5
_chemical_formula_sum   'Hf1 Ti6 Tc12 Mo5'
_cell_volume   367.31617257
_cell_formula_units_Z   1
loop_
 _symmetry_equiv_pos_site_id
 _symmetry_equiv_pos_as_xyz
  1  'x, y, z'
loop_
 _atom_site_type_symbol
 _atom_site_label
 _atom_site_symmetry_multiplicity
 _atom_site_fract_x
 _atom_site_fract_y
 _atom_site_fract_z
 _atom_site_occupancy
  Hf  Hf0  1  0.000000  0.000000  0.000000  1
  Ti  Ti1  1  0.000000  0.500000  0.000000  1
  Ti  Ti2  1  0.499916  0.000000  0.168159  1
  Ti  Ti3  1  0.999913  0.500000  0.333022  1
  Ti  Ti4  1  0.500000  0.000000  0.500000  1
  Ti  Ti5  1  0.000087  0.500000  0.666978  1
  Ti  Ti6  1  0.500083  0.000000  0.831841  1
  Tc  Tc7  1  0.500000  0.257539  0.000000  1
  Tc  Tc8  1  0.500000  0.742461  0.000000  1
  Tc  Tc9  1  0.999912  0.253067  0.171384  1
  Tc  Tc10  1  0.999912  0.746933  0.171384  1
  Tc  Tc11  1  0.499922  0.249779  0.335006  1
  Tc  Tc12  1  0.499922  0.750220  0.335006  1
  Tc  Tc13  1  0.000000  0.250303  0.500000  1
  Tc  Tc14  1  0.000000  0.749697  0.500000  1
  Tc  Tc15  1  0.500079  0.249779  0.664994  1
  Tc  Tc16  1  0.500079  0.750220  0.664994  1
  Tc  Tc17  1  0.000086  0.253067  0.828616  1
  Tc  Tc18  1  0.000086  0.746933  0.828616  1
  Mo  Mo19  1  0.499915  0.500000  0.166452  1
  Mo  Mo20  1  0.999916  0.000000  0.334457  1
  Mo  Mo21  1  0.500000  0.500000  0.500000  1
  Mo  Mo22  1  0.000085  0.000000  0.665543  1
  Mo  Mo23  1  0.500085  0.500000  0.833548  1
