# generated using pymatgen
data_CaLaPr5IrBr12
_symmetry_space_group_name_H-M   'P 1'
_cell_length_a   9.71955239
_cell_length_b   9.59508970
_cell_length_c   9.72775367
_cell_angle_alpha   106.97223753
_cell_angle_beta   107.15021386
_cell_angle_gamma   107.34941026
_symmetry_Int_Tables_number   1
_chemical_formula_structural   CaLaPr5IrBr12
_chemical_formula_sum   'Ca1 La1 Pr5 Ir1 Br12'
_cell_volume   752.26169410
_cell_formula_units_Z   1
loop_
 _symmetry_equiv_pos_site_id
 _symmetry_equiv_pos_as_xyz
  1  'x, y, z'
loop_
 _atom_site_type_symbol
 _atom_site_label
 _atom_site_symmetry_multiplicity
 _atom_site_fract_x
 _atom_site_fract_y
 _atom_site_fract_z
 _atom_site_occupancy
  Ca  Ca0  1  0.500300  0.499915  0.500502  1
  La  La1  1  0.105866  0.310473  0.025896  1
  Pr  Pr2  1  0.320624  0.026670  0.109357  1
  Pr  Pr3  1  0.026317  0.108756  0.319456  1
  Pr  Pr4  1  0.973357  0.889817  0.679887  1
  Pr  Pr5  1  0.679247  0.973494  0.890652  1
  Pr  Pr6  1  0.894256  0.691369  0.973922  1
  Ir  Ir7  1  0.000923  0.003035  0.999811  1
  Br  Br8  1  0.217070  0.683472  0.072338  1
  Br  Br9  1  0.460967  0.380711  0.171365  1
  Br  Br10  1  0.685215  0.072832  0.217821  1
  Br  Br11  1  0.926441  0.779358  0.314077  1
  Br  Br12  1  0.170732  0.459927  0.382287  1
  Br  Br13  1  0.378574  0.166855  0.457517  1
  Br  Br14  1  0.621308  0.832718  0.542355  1
  Br  Br15  1  0.829864  0.540000  0.620869  1
  Br  Br16  1  0.072679  0.218381  0.682808  1
  Br  Br17  1  0.314646  0.926879  0.782150  1
  Br  Br18  1  0.541690  0.618989  0.830249  1
  Br  Br19  1  0.779929  0.316351  0.926683  1
