# generated using pymatgen
data_Y20Ir5Pt7
_symmetry_space_group_name_H-M   'P 1'
_cell_length_a   11.09816781
_cell_length_b   11.09816781
_cell_length_c   6.34918209
_cell_angle_alpha   90.01393857
_cell_angle_beta   90.01393857
_cell_angle_gamma   90.17352567
_symmetry_Int_Tables_number   1
_chemical_formula_structural   Y20Ir5Pt7
_chemical_formula_sum   'Y20 Ir5 Pt7'
_cell_volume   782.02086320
_cell_formula_units_Z   1
loop_
 _symmetry_equiv_pos_site_id
 _symmetry_equiv_pos_as_xyz
  1  'x, y, z'
loop_
 _atom_site_type_symbol
 _atom_site_label
 _atom_site_symmetry_multiplicity
 _atom_site_fract_x
 _atom_site_fract_y
 _atom_site_fract_z
 _atom_site_occupancy
  Y  Y0  1  0.295089  0.086964  0.373374  1
  Y  Y1  1  0.295360  0.908205  0.873923  1
  Y  Y2  1  0.704824  0.087450  0.873156  1
  Y  Y3  1  0.704642  0.911744  0.372514  1
  Y  Y4  1  0.584516  0.792725  0.872571  1
  Y  Y5  1  0.587897  0.206247  0.374442  1
  Y  Y6  1  0.410299  0.792096  0.377864  1
  Y  Y7  1  0.411872  0.204457  0.874187  1
  Y  Y8  1  0.207275  0.415484  0.627429  1
  Y  Y9  1  0.207904  0.589701  0.122136  1
  Y  Y10  1  0.793753  0.412103  0.125558  1
  Y  Y11  1  0.795543  0.588128  0.625813  1
  Y  Y12  1  0.913036  0.704911  0.126626  1
  Y  Y13  1  0.912550  0.295176  0.626844  1
  Y  Y14  1  0.091795  0.704640  0.626077  1
  Y  Y15  1  0.088256  0.295358  0.127486  1
  Y  Y16  1  0.999644  0.999812  0.500247  1
  Y  Y17  1  0.000188  0.000356  0.999753  1
  Y  Y18  1  0.498015  0.500929  0.999648  1
  Y  Y19  1  0.499071  0.501985  0.500352  1
  Ir  Ir20  1  0.346669  0.653331  0.750000  1
  Ir  Ir21  1  0.500133  0.000127  0.122964  1
  Ir  Ir22  1  0.500022  0.000387  0.621275  1
  Ir  Ir23  1  0.999613  0.499978  0.878725  1
  Ir  Ir24  1  0.999873  0.499867  0.377036  1
  Pt  Pt25  1  0.845970  0.154030  0.250000  1
  Pt  Pt26  1  0.845211  0.846085  0.750572  1
  Pt  Pt27  1  0.153915  0.154789  0.749428  1
  Pt  Pt28  1  0.153246  0.846754  0.250000  1
  Pt  Pt29  1  0.653389  0.346611  0.750000  1
  Pt  Pt30  1  0.655187  0.654755  0.249947  1
  Pt  Pt31  1  0.345245  0.344813  0.250053  1
