# generated using pymatgen
data_Tb5Ho11Cd4PdRu3
_symmetry_space_group_name_H-M   'P 1'
_cell_length_a   9.62730912
_cell_length_b   9.67520982
_cell_length_c   9.67534261
_cell_angle_alpha   59.62765702
_cell_angle_beta   59.43003417
_cell_angle_gamma   59.43132494
_symmetry_Int_Tables_number   1
_chemical_formula_structural   Tb5Ho11Cd4PdRu3
_chemical_formula_sum   'Tb5 Ho11 Cd4 Pd1 Ru3'
_cell_volume   629.95523336
_cell_formula_units_Z   1
loop_
 _symmetry_equiv_pos_site_id
 _symmetry_equiv_pos_as_xyz
  1  'x, y, z'
loop_
 _atom_site_type_symbol
 _atom_site_label
 _atom_site_symmetry_multiplicity
 _atom_site_fract_x
 _atom_site_fract_y
 _atom_site_fract_z
 _atom_site_occupancy
  Tb  Tb0  1  0.556152  0.939097  0.939122  1
  Tb  Tb1  1  0.556587  0.938097  0.566030  1
  Tb  Tb2  1  0.936373  0.561759  0.939028  1
  Tb  Tb3  1  0.556574  0.566047  0.938085  1
  Tb  Tb4  1  0.936355  0.939031  0.561802  1
  Ho  Ho5  1  0.344493  0.351679  0.351672  1
  Ho  Ho6  1  0.345020  0.351984  0.953531  1
  Ho  Ho7  1  0.345002  0.953546  0.351990  1
  Ho  Ho8  1  0.965521  0.345082  0.345073  1
  Ho  Ho9  1  0.816221  0.188701  0.188689  1
  Ho  Ho10  1  0.185151  0.811819  0.811844  1
  Ho  Ho11  1  0.186735  0.811218  0.189094  1
  Ho  Ho12  1  0.816446  0.189369  0.804473  1
  Ho  Ho13  1  0.186729  0.189109  0.811214  1
  Ho  Ho14  1  0.816503  0.804461  0.189327  1
  Ho  Ho15  1  0.935893  0.562166  0.562143  1
  Cd  Cd16  1  0.581702  0.579523  0.579531  1
  Cd  Cd17  1  0.581024  0.579665  0.258937  1
  Cd  Cd18  1  0.581020  0.258936  0.579674  1
  Cd  Cd19  1  0.255468  0.581118  0.581111  1
  Pd  Pd20  1  0.574305  0.142791  0.142794  1
  Ru  Ru21  1  0.146383  0.137865  0.137866  1
  Ru  Ru22  1  0.147145  0.139734  0.577242  1
  Ru  Ru23  1  0.147197  0.577203  0.139728  1
