# generated using pymatgen
data_Dy3LuTc4F28
_symmetry_space_group_name_H-M   'P 1'
_cell_length_a   5.57764427
_cell_length_b   8.87701301
_cell_length_c   11.99002827
_cell_angle_alpha   62.65072890
_cell_angle_beta   90.06802430
_cell_angle_gamma   89.99831897
_symmetry_Int_Tables_number   1
_chemical_formula_structural   Dy3LuTc4F28
_chemical_formula_sum   'Dy3 Lu1 Tc4 F28'
_cell_volume   527.30178963
_cell_formula_units_Z   1
loop_
 _symmetry_equiv_pos_site_id
 _symmetry_equiv_pos_as_xyz
  1  'x, y, z'
loop_
 _atom_site_type_symbol
 _atom_site_label
 _atom_site_symmetry_multiplicity
 _atom_site_fract_x
 _atom_site_fract_y
 _atom_site_fract_z
 _atom_site_occupancy
  Dy  Dy0  1  0.258883  0.183228  0.735535  1
  Dy  Dy1  1  0.241046  0.186495  0.235103  1
  Dy  Dy2  1  0.741004  0.812936  0.264864  1
  Lu  Lu3  1  0.759552  0.813379  0.764378  1
  Tc  Tc4  1  0.757549  0.275452  0.955662  1
  Tc  Tc5  1  0.258180  0.727226  0.545402  1
  Tc  Tc6  1  0.241985  0.727313  0.040952  1
  Tc  Tc7  1  0.742886  0.271428  0.458014  1
  F  F8  1  0.449891  0.707871  0.916790  1
  F  F9  1  0.947648  0.292812  0.582515  1
  F  F10  1  0.553571  0.294266  0.081337  1
  F  F11  1  0.053860  0.706814  0.420086  1
  F  F12  1  0.448756  0.277362  0.547015  1
  F  F13  1  0.947399  0.723961  0.949714  1
  F  F14  1  0.550048  0.721610  0.454559  1
  F  F15  1  0.051614  0.279390  0.045600  1
  F  F16  1  0.771800  0.524428  0.858016  1
  F  F17  1  0.272595  0.479248  0.641790  1
  F  F18  1  0.226546  0.479906  0.139911  1
  F  F19  1  0.727450  0.519680  0.359668  1
  F  F20  1  0.756552  0.028105  0.052165  1
  F  F21  1  0.256890  0.974155  0.447887  1
  F  F22  1  0.243851  0.974590  0.946103  1
  F  F23  1  0.743349  0.024325  0.555176  1
  F  F24  1  0.975854  0.730978  0.642616  1
  F  F25  1  0.475493  0.271146  0.859330  1
  F  F26  1  0.024704  0.270848  0.360650  1
  F  F27  1  0.523116  0.728779  0.139078  1
  F  F28  1  0.043591  0.746150  0.170515  1
  F  F29  1  0.544639  0.253341  0.328538  1
  F  F30  1  0.956216  0.254611  0.827574  1
  F  F31  1  0.462034  0.748197  0.672991  1
  F  F32  1  0.417771  0.970218  0.231731  1
  F  F33  1  0.917204  0.029277  0.268327  1
  F  F34  1  0.582924  0.022520  0.767601  1
  F  F35  1  0.073550  0.967952  0.732806  1
