# generated using pymatgen
data_Sr4Pt6ClO18
_symmetry_space_group_name_H-M   'P 1'
_cell_length_a   8.16411094
_cell_length_b   8.16444917
_cell_length_c   8.16424785
_cell_angle_alpha   109.54771631
_cell_angle_beta   109.42988394
_cell_angle_gamma   109.43849973
_symmetry_Int_Tables_number   1
_chemical_formula_structural   Sr4Pt6ClO18
_chemical_formula_sum   'Sr4 Pt6 Cl1 O18'
_cell_volume   418.90599982
_cell_formula_units_Z   1
loop_
 _symmetry_equiv_pos_site_id
 _symmetry_equiv_pos_as_xyz
  1  'x, y, z'
loop_
 _atom_site_type_symbol
 _atom_site_label
 _atom_site_symmetry_multiplicity
 _atom_site_fract_x
 _atom_site_fract_y
 _atom_site_fract_z
 _atom_site_occupancy
  Sr  Sr0  1  0.999991  0.999808  0.366755  1
  Sr  Sr1  1  0.633066  0.633223  0.633216  1
  Sr  Sr2  1  0.999959  0.366752  0.999798  1
  Sr  Sr3  1  0.366973  0.000200  0.000241  1
  Pt  Pt4  1  0.499974  0.658222  0.158201  1
  Pt  Pt5  1  0.341750  0.841708  0.500013  1
  Pt  Pt6  1  0.841815  0.500044  0.341830  1
  Pt  Pt7  1  0.499985  0.341846  0.841799  1
  Pt  Pt8  1  0.158226  0.500047  0.658256  1
  Pt  Pt9  1  0.658281  0.158240  0.499988  1
  Cl  Cl10  1  0.999991  0.999998  0.999989  1
  O  O11  1  0.650327  0.957139  0.271474  1
  O  O12  1  0.378556  0.728402  0.685469  1
  O  O13  1  0.693055  0.314449  0.042646  1
  O  O14  1  0.685609  0.378857  0.728566  1
  O  O15  1  0.042933  0.693109  0.314514  1
  O  O16  1  0.271729  0.650338  0.957250  1
  O  O17  1  0.314405  0.042928  0.693236  1
  O  O18  1  0.957109  0.271626  0.650182  1
  O  O19  1  0.728279  0.685540  0.378623  1
  O  O20  1  0.349657  0.621169  0.306825  1
  O  O21  1  0.621408  0.306902  0.349844  1
  O  O22  1  0.306932  0.349617  0.621402  1
  O  O23  1  0.642391  0.642324  0.999945  1
  O  O24  1  0.642164  0.000007  0.642187  1
  O  O25  1  0.000012  0.357630  0.357628  1
  O  O26  1  0.357806  0.999982  0.357820  1
  O  O27  1  0.000013  0.642340  0.642363  1
  O  O28  1  0.357607  0.357553  0.999938  1
