# generated using pymatgen
data_SrSc2(NiH6)2
_symmetry_space_group_name_H-M   'P 1'
_cell_length_a   4.48194700
_cell_length_b   4.48194902
_cell_length_c   7.91473800
_cell_angle_alpha   90.00000000
_cell_angle_beta   90.00000000
_cell_angle_gamma   119.99999250
_symmetry_Int_Tables_number   1
_chemical_formula_structural   SrSc2(NiH6)2
_chemical_formula_sum   'Sr1 Sc2 Ni2 H12'
_cell_volume   137.68950422
_cell_formula_units_Z   1
loop_
 _symmetry_equiv_pos_site_id
 _symmetry_equiv_pos_as_xyz
  1  'x, y, z'
loop_
 _atom_site_type_symbol
 _atom_site_label
 _atom_site_symmetry_multiplicity
 _atom_site_fract_x
 _atom_site_fract_y
 _atom_site_fract_z
 _atom_site_occupancy
  Sr  Sr0  1  0.000000  0.000000  0.000000  1
  Sc  Sc1  1  0.666667  0.333333  0.370379  1
  Sc  Sc2  1  0.333333  0.666667  0.629621  1
  Ni  Ni3  1  0.666667  0.333333  0.731075  1
  Ni  Ni4  1  0.333333  0.666667  0.268925  1
  H  H5  1  0.170978  0.829022  0.395554  1
  H  H6  1  0.658045  0.829022  0.395554  1
  H  H7  1  0.170978  0.341955  0.395554  1
  H  H8  1  0.829022  0.170978  0.604446  1
  H  H9  1  0.341955  0.170978  0.604446  1
  H  H10  1  0.829022  0.658045  0.604446  1
  H  H11  1  0.493851  0.987699  0.840216  1
  H  H12  1  0.493851  0.506149  0.840216  1
  H  H13  1  0.012301  0.506149  0.840216  1
  H  H14  1  0.506149  0.012301  0.159784  1
  H  H15  1  0.506149  0.493851  0.159784  1
  H  H16  1  0.987699  0.493851  0.159784  1
