# generated using pymatgen
data_KRb3(USe3)2
_symmetry_space_group_name_H-M   'P 1'
_cell_length_a   7.64144658
_cell_length_b   7.64144633
_cell_length_c   8.41450092
_cell_angle_alpha   81.32983536
_cell_angle_beta   81.32982444
_cell_angle_gamma   119.98963542
_symmetry_Int_Tables_number   1
_chemical_formula_structural   KRb3(USe3)2
_chemical_formula_sum   'K1 Rb3 U2 Se6'
_cell_volume   405.75949317
_cell_formula_units_Z   1
loop_
 _symmetry_equiv_pos_site_id
 _symmetry_equiv_pos_as_xyz
  1  'x, y, z'
loop_
 _atom_site_type_symbol
 _atom_site_label
 _atom_site_symmetry_multiplicity
 _atom_site_fract_x
 _atom_site_fract_y
 _atom_site_fract_z
 _atom_site_occupancy
  K  K0  1  0.500000  0.500000  0.000000  1
  Rb  Rb1  1  0.654735  0.345265  0.500000  1
  Rb  Rb2  1  0.345265  0.654735  0.500000  1
  Rb  Rb3  1  0.000000  0.000000  0.500000  1
  U  U4  1  0.832318  0.167682  0.000000  1
  U  U5  1  0.167682  0.832318  0.000000  1
  Se  Se6  1  0.809389  0.809389  0.195830  1
  Se  Se7  1  0.190611  0.190611  0.804170  1
  Se  Se8  1  0.432362  0.055018  0.199675  1
  Se  Se9  1  0.567638  0.944982  0.800325  1
  Se  Se10  1  0.944982  0.567638  0.800325  1
  Se  Se11  1  0.055018  0.432362  0.199675  1
