# generated using pymatgen
data_Ce3Sb4Pd2Au
_symmetry_space_group_name_H-M   'P 1'
_cell_length_a   8.60431104
_cell_length_b   8.60431124
_cell_length_c   8.60431000
_cell_angle_alpha   109.38252258
_cell_angle_beta   109.64876155
_cell_angle_gamma   109.38252278
_symmetry_Int_Tables_number   1
_chemical_formula_structural   Ce3Sb4Pd2Au
_chemical_formula_sum   'Ce6 Sb8 Pd4 Au2'
_cell_volume   490.36927172
_cell_formula_units_Z   2
loop_
 _symmetry_equiv_pos_site_id
 _symmetry_equiv_pos_as_xyz
  1  'x, y, z'
loop_
 _atom_site_type_symbol
 _atom_site_label
 _atom_site_symmetry_multiplicity
 _atom_site_fract_x
 _atom_site_fract_y
 _atom_site_fract_z
 _atom_site_occupancy
  Ce  Ce0  1  0.875000  0.250000  0.125000  1
  Ce  Ce1  1  0.625000  0.750000  0.375000  1
  Ce  Ce2  1  0.250000  0.127937  0.877937  1
  Ce  Ce3  1  0.750000  0.372063  0.622063  1
  Ce  Ce4  1  0.122063  0.872063  0.250000  1
  Ce  Ce5  1  0.377937  0.627937  0.750000  1
  Sb  Sb6  1  0.674064  0.505116  0.008263  1
  Sb  Sb7  1  0.503147  0.994884  0.668947  1
  Sb  Sb8  1  0.996853  0.665801  0.491737  1
  Sb  Sb9  1  0.825936  0.834199  0.831053  1
  Sb  Sb10  1  0.508263  0.005116  0.174064  1
  Sb  Sb11  1  0.168947  0.494884  0.003147  1
  Sb  Sb12  1  0.991737  0.165801  0.496853  1
  Sb  Sb13  1  0.331053  0.334199  0.325936  1
  Pd  Pd14  1  0.250000  0.625421  0.375421  1
  Pd  Pd15  1  0.750000  0.874579  0.124579  1
  Pd  Pd16  1  0.624579  0.374579  0.250000  1
  Pd  Pd17  1  0.875421  0.125421  0.750000  1
  Au  Au18  1  0.375000  0.250000  0.625000  1
  Au  Au19  1  0.125000  0.750000  0.875000  1
