# generated using pymatgen
data_HoErTh2(InNi2)2
_symmetry_space_group_name_H-M   'P 1'
_cell_length_a   7.52154853
_cell_length_b   7.52154935
_cell_length_c   3.66555600
_cell_angle_alpha   90.00000000
_cell_angle_beta   90.00000000
_cell_angle_gamma   93.00207274
_symmetry_Int_Tables_number   1
_chemical_formula_structural   HoErTh2(InNi2)2
_chemical_formula_sum   'Ho1 Er1 Th2 In2 Ni4'
_cell_volume   207.08946832
_cell_formula_units_Z   1
loop_
 _symmetry_equiv_pos_site_id
 _symmetry_equiv_pos_as_xyz
  1  'x, y, z'
loop_
 _atom_site_type_symbol
 _atom_site_label
 _atom_site_symmetry_multiplicity
 _atom_site_fract_x
 _atom_site_fract_y
 _atom_site_fract_z
 _atom_site_occupancy
  Ho  Ho0  1  0.172036  0.327964  0.500000  1
  Er  Er1  1  0.828255  0.671745  0.500000  1
  Th  Th2  1  0.675206  0.175305  0.500000  1
  Th  Th3  1  0.324695  0.824794  0.500000  1
  In  In4  1  0.500196  0.500728  0.000000  1
  In  In5  1  0.999272  0.999804  0.000000  1
  Ni  Ni6  1  0.122899  0.622940  0.000000  1
  Ni  Ni7  1  0.877060  0.377101  0.000000  1
  Ni  Ni8  1  0.620882  0.879118  0.000000  1
  Ni  Ni9  1  0.379499  0.120501  0.000000  1
