# generated using pymatgen
data_Lu2HfSc(Ga3Rh)6
_symmetry_space_group_name_H-M   'P 1'
_cell_length_a   7.50660909
_cell_length_b   7.49009978
_cell_length_c   9.40808000
_cell_angle_alpha   90.00000000
_cell_angle_beta   90.00000000
_cell_angle_gamma   119.82688463
_symmetry_Int_Tables_number   1
_chemical_formula_structural   Lu2HfSc(Ga3Rh)6
_chemical_formula_sum   'Lu2 Hf1 Sc1 Ga18 Rh6'
_cell_volume   458.89992980
_cell_formula_units_Z   1
loop_
 _symmetry_equiv_pos_site_id
 _symmetry_equiv_pos_as_xyz
  1  'x, y, z'
loop_
 _atom_site_type_symbol
 _atom_site_label
 _atom_site_symmetry_multiplicity
 _atom_site_fract_x
 _atom_site_fract_y
 _atom_site_fract_z
 _atom_site_occupancy
  Lu  Lu0  1  0.004103  0.328927  0.750000  1
  Lu  Lu1  1  0.329868  0.003478  0.750000  1
  Hf  Hf2  1  0.996797  0.669787  0.250000  1
  Sc  Sc3  1  0.670915  0.998867  0.250000  1
  Ga  Ga4  1  0.338192  0.551620  0.250000  1
  Ga  Ga5  1  0.661927  0.451598  0.750000  1
  Ga  Ga6  1  0.552802  0.339318  0.250000  1
  Ga  Ga7  1  0.450271  0.660246  0.750000  1
  Ga  Ga8  1  0.996963  0.336170  0.084893  1
  Ga  Ga9  1  0.001118  0.664703  0.921569  1
  Ga  Ga10  1  0.001118  0.664703  0.578431  1
  Ga  Ga11  1  0.333456  0.996516  0.414730  1
  Ga  Ga12  1  0.996963  0.336170  0.415107  1
  Ga  Ga13  1  0.665160  0.000310  0.579411  1
  Ga  Ga14  1  0.665160  0.000310  0.920589  1
  Ga  Ga15  1  0.333456  0.996516  0.085270  1
  Ga  Ga16  1  0.332624  0.332300  0.566223  1
  Ga  Ga17  1  0.670817  0.670481  0.426997  1
  Ga  Ga18  1  0.670817  0.670481  0.073003  1
  Ga  Ga19  1  0.332624  0.332300  0.933777  1
  Ga  Ga20  1  0.122789  0.123295  0.250000  1
  Ga  Ga21  1  0.872186  0.871679  0.750000  1
  Rh  Rh22  1  0.671978  0.328193  0.001068  1
  Rh  Rh23  1  0.328251  0.672451  0.001740  1
  Rh  Rh24  1  0.328251  0.672451  0.498260  1
  Rh  Rh25  1  0.671978  0.328193  0.498932  1
  Rh  Rh26  1  0.999709  0.999467  0.001049  1
  Rh  Rh27  1  0.999709  0.999467  0.498951  1
