# generated using pymatgen
data_Yb2Al2SiO7
_symmetry_space_group_name_H-M   'P 1'
_cell_length_a   7.67449800
_cell_length_b   5.03783557
_cell_length_c   7.70604062
_cell_angle_alpha   89.12373440
_cell_angle_beta   90.00000000
_cell_angle_gamma   90.00000000
_symmetry_Int_Tables_number   1
_chemical_formula_structural   Yb2Al2SiO7
_chemical_formula_sum   'Yb4 Al4 Si2 O14'
_cell_volume   297.90271932
_cell_formula_units_Z   2
loop_
 _symmetry_equiv_pos_site_id
 _symmetry_equiv_pos_as_xyz
  1  'x, y, z'
loop_
 _atom_site_type_symbol
 _atom_site_label
 _atom_site_symmetry_multiplicity
 _atom_site_fract_x
 _atom_site_fract_y
 _atom_site_fract_z
 _atom_site_occupancy
  Yb  Yb0  1  0.347331  0.521321  0.927958  1
  Yb  Yb1  1  0.847331  0.478679  0.072042  1
  Yb  Yb2  1  0.665440  0.510670  0.604732  1
  Yb  Yb3  1  0.165440  0.489330  0.395268  1
  Al  Al4  1  0.499737  0.001580  0.254158  1
  Al  Al5  1  0.999737  0.998420  0.745842  1
  Al  Al6  1  0.141579  0.958974  0.106766  1
  Al  Al7  1  0.641579  0.041026  0.893234  1
  Si  Si8  1  0.855477  0.947571  0.394256  1
  Si  Si9  1  0.355477  0.052429  0.605744  1
  O  O10  1  0.484941  0.187165  0.750719  1
  O  O11  1  0.984941  0.812835  0.249281  1
  O  O12  1  0.414093  0.203489  0.421788  1
  O  O13  1  0.914093  0.796511  0.578212  1
  O  O14  1  0.590435  0.200903  0.089095  1
  O  O15  1  0.090435  0.799097  0.910905  1
  O  O16  1  0.334101  0.793119  0.176761  1
  O  O17  1  0.834101  0.206881  0.823239  1
  O  O18  1  0.664985  0.808492  0.356285  1
  O  O19  1  0.164985  0.191508  0.643715  1
  O  O20  1  0.142426  0.301508  0.111636  1
  O  O21  1  0.642426  0.698492  0.888364  1
  O  O22  1  0.859455  0.267883  0.395268  1
  O  O23  1  0.359455  0.732117  0.604732  1
