# generated using pymatgen
data_Dy5HfZr2(P3Ir4)4
_symmetry_space_group_name_H-M   'P 1'
_cell_length_a   12.87577449
_cell_length_b   12.88190750
_cell_length_c   3.98166900
_cell_angle_alpha   90.00000000
_cell_angle_beta   90.00000000
_cell_angle_gamma   120.01575834
_symmetry_Int_Tables_number   1
_chemical_formula_structural   Dy5HfZr2(P3Ir4)4
_chemical_formula_sum   'Dy5 Hf1 Zr2 P12 Ir16'
_cell_volume   571.84764817
_cell_formula_units_Z   1
loop_
 _symmetry_equiv_pos_site_id
 _symmetry_equiv_pos_as_xyz
  1  'x, y, z'
loop_
 _atom_site_type_symbol
 _atom_site_label
 _atom_site_symmetry_multiplicity
 _atom_site_fract_x
 _atom_site_fract_y
 _atom_site_fract_z
 _atom_site_occupancy
  Dy  Dy0  1  0.333320  0.666702  0.500000  1
  Dy  Dy1  1  0.666680  0.333381  0.500000  1
  Dy  Dy2  1  0.000000  0.814886  0.000000  1
  Dy  Dy3  1  0.185171  0.185117  0.000000  1
  Dy  Dy4  1  0.814829  0.999947  0.000000  1
  Hf  Hf5  1  0.000000  0.449026  0.500000  1
  Zr  Zr6  1  0.550865  0.550865  0.500000  1
  Zr  Zr7  1  0.449135  0.000000  0.500000  1
  P  P8  1  0.000000  0.648998  0.500000  1
  P  P9  1  0.350529  0.350833  0.500000  1
  P  P10  1  0.649471  0.000304  0.500000  1
  P  P11  1  0.517121  0.686434  0.000000  1
  P  P12  1  0.313102  0.830346  0.000000  1
  P  P13  1  0.168827  0.482509  0.000000  1
  P  P14  1  0.482879  0.169313  0.000000  1
  P  P15  1  0.686898  0.517243  0.000000  1
  P  P16  1  0.831173  0.313682  0.000000  1
  P  P17  1  0.000000  0.175729  0.500000  1
  P  P18  1  0.824238  0.824187  0.500000  1
  P  P19  1  0.175762  0.999949  0.500000  1
  Ir  Ir20  1  0.507679  0.863947  0.000000  1
  Ir  Ir21  1  0.135031  0.642225  0.000000  1
  Ir  Ir22  1  0.355886  0.492307  0.000000  1
  Ir  Ir23  1  0.492321  0.356267  0.000000  1
  Ir  Ir24  1  0.864969  0.507193  0.000000  1
  Ir  Ir25  1  0.644114  0.136420  0.000000  1
  Ir  Ir26  1  0.000000  0.280505  0.000000  1
  Ir  Ir27  1  0.721247  0.721255  0.000000  1
  Ir  Ir28  1  0.278753  0.000008  0.000000  1
  Ir  Ir29  1  0.628997  0.807103  0.500000  1
  Ir  Ir30  1  0.192757  0.821393  0.500000  1
  Ir  Ir31  1  0.177415  0.371347  0.500000  1
  Ir  Ir32  1  0.371003  0.178106  0.500000  1
  Ir  Ir33  1  0.807243  0.628636  0.500000  1
  Ir  Ir34  1  0.822585  0.193932  0.500000  1
  Ir  Ir35  1  0.000000  0.999906  0.500000  1
