# generated using pymatgen
data_TbSm5Cd23P
_symmetry_space_group_name_H-M   'P 1'
_cell_length_a   9.99769836
_cell_length_b   9.99769756
_cell_length_c   9.99117900
_cell_angle_alpha   60.02156253
_cell_angle_beta   60.02156519
_cell_angle_gamma   59.95687266
_symmetry_Int_Tables_number   1
_chemical_formula_structural   TbSm5Cd23P
_chemical_formula_sum   'Tb1 Sm5 Cd23 P1'
_cell_volume   706.15721151
_cell_formula_units_Z   1
loop_
 _symmetry_equiv_pos_site_id
 _symmetry_equiv_pos_as_xyz
  1  'x, y, z'
loop_
 _atom_site_type_symbol
 _atom_site_label
 _atom_site_symmetry_multiplicity
 _atom_site_fract_x
 _atom_site_fract_y
 _atom_site_fract_z
 _atom_site_occupancy
  Tb  Tb0  1  0.801440  0.801440  0.198560  1
  Sm  Sm1  1  0.200417  0.799212  0.200788  1
  Sm  Sm2  1  0.799212  0.200417  0.200788  1
  Sm  Sm3  1  0.199896  0.199896  0.800104  1
  Sm  Sm4  1  0.799212  0.200417  0.799583  1
  Sm  Sm5  1  0.200417  0.799212  0.799583  1
  Cd  Cd6  1  0.834801  0.834801  0.494782  1
  Cd  Cd7  1  0.834556  0.495918  0.834763  1
  Cd  Cd8  1  0.495918  0.834556  0.834763  1
  Cd  Cd9  1  0.834801  0.834801  0.835615  1
  Cd  Cd10  1  0.165237  0.165237  0.504082  1
  Cd  Cd11  1  0.164385  0.505218  0.165199  1
  Cd  Cd12  1  0.505218  0.164385  0.165199  1
  Cd  Cd13  1  0.165237  0.165237  0.165444  1
  Cd  Cd14  1  0.621788  0.621788  0.136232  1
  Cd  Cd15  1  0.621405  0.135638  0.621479  1
  Cd  Cd16  1  0.135638  0.621405  0.621479  1
  Cd  Cd17  1  0.621788  0.621788  0.620192  1
  Cd  Cd18  1  0.378521  0.378521  0.864362  1
  Cd  Cd19  1  0.379808  0.863768  0.378212  1
  Cd  Cd20  1  0.863768  0.379808  0.378212  1
  Cd  Cd21  1  0.378521  0.378521  0.378595  1
  Cd  Cd22  1  0.999729  0.999729  0.500271  1
  Cd  Cd23  1  0.500186  0.999803  0.499814  1
  Cd  Cd24  1  0.999803  0.500186  0.499814  1
  Cd  Cd25  1  0.499729  0.499729  0.000271  1
  Cd  Cd26  1  0.999803  0.500186  0.000197  1
  Cd  Cd27  1  0.500186  0.999803  0.000197  1
  Cd  Cd28  1  0.499826  0.499826  0.500174  1
  P  P29  1  0.998752  0.998752  0.001248  1
