# generated using pymatgen
data_Sr5Np5O18
_symmetry_space_group_name_H-M   'P 1'
_cell_length_a   7.00375258
_cell_length_b   7.72726238
_cell_length_c   8.71070593
_cell_angle_alpha   100.45009987
_cell_angle_beta   97.83212769
_cell_angle_gamma   107.40432582
_symmetry_Int_Tables_number   1
_chemical_formula_structural   Sr5Np5O18
_chemical_formula_sum   'Sr5 Np5 O18'
_cell_volume   433.16396378
_cell_formula_units_Z   1
loop_
 _symmetry_equiv_pos_site_id
 _symmetry_equiv_pos_as_xyz
  1  'x, y, z'
loop_
 _atom_site_type_symbol
 _atom_site_label
 _atom_site_symmetry_multiplicity
 _atom_site_fract_x
 _atom_site_fract_y
 _atom_site_fract_z
 _atom_site_occupancy
  Sr  Sr0  1  0.803456  0.104127  0.582793  1
  Sr  Sr1  1  0.597325  0.694333  0.194313  1
  Sr  Sr2  1  0.402675  0.305667  0.805687  1
  Sr  Sr3  1  0.196544  0.895873  0.417207  1
  Sr  Sr4  1  0.000000  0.500000  0.000000  1
  Np  Np5  1  0.000000  0.000000  0.000000  1
  Np  Np6  1  0.788234  0.576811  0.584688  1
  Np  Np7  1  0.618625  0.197519  0.195536  1
  Np  Np8  1  0.381375  0.802481  0.804464  1
  Np  Np9  1  0.211766  0.423189  0.415312  1
  O  O10  1  0.825509  0.780777  0.467080  1
  O  O11  1  0.018870  0.225425  0.177060  1
  O  O12  1  0.665415  0.395247  0.071261  1
  O  O13  1  0.453842  0.998301  0.682987  1
  O  O14  1  0.862500  0.350898  0.412177  1
  O  O15  1  0.495573  0.387235  0.349244  1
  O  O16  1  0.248314  0.607863  0.281180  1
  O  O17  1  0.976717  0.825486  0.146674  1
  O  O18  1  0.668569  0.945071  0.989344  1
  O  O19  1  0.331431  0.054929  0.010656  1
  O  O20  1  0.023283  0.174514  0.853326  1
  O  O21  1  0.751686  0.392137  0.718820  1
  O  O22  1  0.504427  0.612765  0.650756  1
  O  O23  1  0.137500  0.649102  0.587823  1
  O  O24  1  0.546158  0.001699  0.317013  1
  O  O25  1  0.334585  0.604753  0.928739  1
  O  O26  1  0.981130  0.774575  0.822940  1
  O  O27  1  0.174491  0.219223  0.532920  1
