# generated using pymatgen
data_Li8Ac7PrPb8
_symmetry_space_group_name_H-M   'P 1'
_cell_length_a   9.96911200
_cell_length_b   9.96911229
_cell_length_c   8.28567300
_cell_angle_alpha   90.00000000
_cell_angle_beta   90.00000000
_cell_angle_gamma   120.00000568
_symmetry_Int_Tables_number   1
_chemical_formula_structural   Li8Ac7PrPb8
_chemical_formula_sum   'Li8 Ac7 Pr1 Pb8'
_cell_volume   713.13435561
_cell_formula_units_Z   1
loop_
 _symmetry_equiv_pos_site_id
 _symmetry_equiv_pos_as_xyz
  1  'x, y, z'
loop_
 _atom_site_type_symbol
 _atom_site_label
 _atom_site_symmetry_multiplicity
 _atom_site_fract_x
 _atom_site_fract_y
 _atom_site_fract_z
 _atom_site_occupancy
  Li  Li0  1  0.833806  0.166194  0.715304  1
  Li  Li1  1  0.833806  0.667612  0.715304  1
  Li  Li2  1  0.332388  0.166194  0.715304  1
  Li  Li3  1  0.165092  0.834908  0.207796  1
  Li  Li4  1  0.165092  0.330186  0.207796  1
  Li  Li5  1  0.669814  0.834908  0.207796  1
  Li  Li6  1  0.666667  0.333333  0.332105  1
  Li  Li7  1  0.333333  0.666667  0.835150  1
  Ac  Ac8  1  0.486570  0.513430  0.504507  1
  Ac  Ac9  1  0.486570  0.973139  0.504507  1
  Ac  Ac10  1  0.026861  0.513430  0.504507  1
  Ac  Ac11  1  0.513586  0.486414  0.004515  1
  Ac  Ac12  1  0.513586  0.027171  0.004515  1
  Ac  Ac13  1  0.972829  0.486414  0.004515  1
  Ac  Ac14  1  0.000000  0.000000  0.498015  1
  Pr  Pr15  1  0.000000  0.000000  0.995911  1
  Pb  Pb16  1  0.834290  0.165710  0.271745  1
  Pb  Pb17  1  0.834290  0.668581  0.271745  1
  Pb  Pb18  1  0.331419  0.165710  0.271745  1
  Pb  Pb19  1  0.164215  0.835785  0.780422  1
  Pb  Pb20  1  0.164215  0.328430  0.780422  1
  Pb  Pb21  1  0.671570  0.835785  0.780422  1
  Pb  Pb22  1  0.666667  0.333333  0.720104  1
  Pb  Pb23  1  0.333333  0.666667  0.223853  1
