# generated using pymatgen
data_La2Nd6Cd2OsPt
_symmetry_space_group_name_H-M   'P 1'
_cell_length_a   10.03615497
_cell_length_b   10.03615432
_cell_length_c   10.11580300
_cell_angle_alpha   59.73712105
_cell_angle_beta   59.73712320
_cell_angle_gamma   59.70734861
_symmetry_Int_Tables_number   1
_chemical_formula_structural   La2Nd6Cd2OsPt
_chemical_formula_sum   'La4 Nd12 Cd4 Os2 Pt2'
_cell_volume   716.01294501
_cell_formula_units_Z   2
loop_
 _symmetry_equiv_pos_site_id
 _symmetry_equiv_pos_as_xyz
  1  'x, y, z'
loop_
 _atom_site_type_symbol
 _atom_site_label
 _atom_site_symmetry_multiplicity
 _atom_site_fract_x
 _atom_site_fract_y
 _atom_site_fract_z
 _atom_site_occupancy
  La  La0  1  0.347595  0.347595  0.354673  1
  La  La1  1  0.347595  0.347595  0.950136  1
  La  La2  1  0.343698  0.956827  0.349738  1
  La  La3  1  0.956827  0.343698  0.349738  1
  Nd  Nd4  1  0.815218  0.188620  0.190765  1
  Nd  Nd5  1  0.188620  0.815218  0.805399  1
  Nd  Nd6  1  0.188620  0.815218  0.190765  1
  Nd  Nd7  1  0.815218  0.188620  0.805399  1
  Nd  Nd8  1  0.188374  0.188374  0.811626  1
  Nd  Nd9  1  0.806890  0.806890  0.193110  1
  Nd  Nd10  1  0.937863  0.557067  0.566171  1
  Nd  Nd11  1  0.557067  0.937863  0.938899  1
  Nd  Nd12  1  0.557067  0.937863  0.566171  1
  Nd  Nd13  1  0.937863  0.557067  0.938899  1
  Nd  Nd14  1  0.563070  0.563070  0.936930  1
  Nd  Nd15  1  0.938478  0.938478  0.561522  1
  Cd  Cd16  1  0.580058  0.580058  0.580626  1
  Cd  Cd17  1  0.580058  0.580058  0.259259  1
  Cd  Cd18  1  0.580683  0.257709  0.580805  1
  Cd  Cd19  1  0.257709  0.580683  0.580805  1
  Os  Os20  1  0.144824  0.144824  0.136684  1
  Os  Os21  1  0.144824  0.144824  0.573667  1
  Pt  Pt22  1  0.145732  0.576051  0.139108  1
  Pt  Pt23  1  0.576051  0.145732  0.139108  1
