# generated using pymatgen
data_Li3Ho2Co6P6Ir
_symmetry_space_group_name_H-M   'P 1'
_cell_length_a   3.69752500
_cell_length_b   10.30596800
_cell_length_c   12.32743500
_cell_angle_alpha   90.00000000
_cell_angle_beta   90.00000000
_cell_angle_gamma   90.00000000
_symmetry_Int_Tables_number   1
_chemical_formula_structural   Li3Ho2Co6P6Ir
_chemical_formula_sum   'Li6 Ho4 Co12 P12 Ir2'
_cell_volume   469.75631812
_cell_formula_units_Z   2
loop_
 _symmetry_equiv_pos_site_id
 _symmetry_equiv_pos_as_xyz
  1  'x, y, z'
loop_
 _atom_site_type_symbol
 _atom_site_label
 _atom_site_symmetry_multiplicity
 _atom_site_fract_x
 _atom_site_fract_y
 _atom_site_fract_z
 _atom_site_occupancy
  Li  Li0  1  0.250000  0.704548  0.992721  1
  Li  Li1  1  0.250000  0.795452  0.492721  1
  Li  Li2  1  0.750000  0.295804  0.010945  1
  Li  Li3  1  0.750000  0.204196  0.510945  1
  Li  Li4  1  0.250000  0.407441  0.492257  1
  Li  Li5  1  0.250000  0.092559  0.992257  1
  Ho  Ho6  1  0.250000  0.582916  0.713491  1
  Ho  Ho7  1  0.250000  0.917084  0.213491  1
  Ho  Ho8  1  0.750000  0.418544  0.289717  1
  Ho  Ho9  1  0.750000  0.081456  0.789717  1
  Co  Co10  1  0.250000  0.212804  0.174027  1
  Co  Co11  1  0.250000  0.287196  0.674027  1
  Co  Co12  1  0.750000  0.775789  0.819497  1
  Co  Co13  1  0.750000  0.724211  0.319497  1
  Co  Co14  1  0.250000  0.882040  0.695088  1
  Co  Co15  1  0.250000  0.617960  0.195088  1
  Co  Co16  1  0.750000  0.118520  0.304797  1
  Co  Co17  1  0.750000  0.381480  0.804797  1
  Co  Co18  1  0.250000  0.464835  0.935370  1
  Co  Co19  1  0.250000  0.035165  0.435370  1
  Co  Co20  1  0.750000  0.529974  0.067207  1
  Co  Co21  1  0.750000  0.970026  0.567207  1
  P  P22  1  0.250000  0.417740  0.113313  1
  P  P23  1  0.250000  0.082260  0.613313  1
  P  P24  1  0.750000  0.576407  0.888857  1
  P  P25  1  0.750000  0.923593  0.388857  1
  P  P26  1  0.250000  0.275640  0.852462  1
  P  P27  1  0.250000  0.224360  0.352462  1
  P  P28  1  0.750000  0.724854  0.138461  1
  P  P29  1  0.750000  0.775146  0.638461  1
  P  P30  1  0.250000  0.609971  0.376969  1
  P  P31  1  0.250000  0.890029  0.876969  1
  P  P32  1  0.750000  0.398113  0.623490  1
  P  P33  1  0.750000  0.101887  0.123490  1
  Ir  Ir34  1  0.750000  0.590133  0.511331  1
  Ir  Ir35  1  0.750000  0.909867  0.011331  1
