# generated using pymatgen
data_ErSc19GaBi11
_symmetry_space_group_name_H-M   'P 1'
_cell_length_a   7.74812372
_cell_length_b   8.98499500
_cell_length_c   11.36828900
_cell_angle_alpha   90.00000000
_cell_angle_beta   89.77317149
_cell_angle_gamma   90.00000000
_symmetry_Int_Tables_number   1
_chemical_formula_structural   ErSc19GaBi11
_chemical_formula_sum   'Er1 Sc19 Ga1 Bi11'
_cell_volume   791.41830067
_cell_formula_units_Z   1
loop_
 _symmetry_equiv_pos_site_id
 _symmetry_equiv_pos_as_xyz
  1  'x, y, z'
loop_
 _atom_site_type_symbol
 _atom_site_label
 _atom_site_symmetry_multiplicity
 _atom_site_fract_x
 _atom_site_fract_y
 _atom_site_fract_z
 _atom_site_occupancy
  Er  Er0  1  0.672877  0.250000  0.711496  1
  Sc  Sc1  1  0.032258  0.250000  0.510269  1
  Sc  Sc2  1  0.983525  0.750000  0.488665  1
  Sc  Sc3  1  0.478214  0.750000  0.011966  1
  Sc  Sc4  1  0.521946  0.250000  0.989705  1
  Sc  Sc5  1  0.353589  0.250000  0.291529  1
  Sc  Sc6  1  0.651736  0.750000  0.718835  1
  Sc  Sc7  1  0.151555  0.750000  0.781464  1
  Sc  Sc8  1  0.850571  0.250000  0.218363  1
  Sc  Sc9  1  0.192463  0.250000  0.774870  1
  Sc  Sc10  1  0.810688  0.750000  0.219507  1
  Sc  Sc11  1  0.313811  0.750000  0.279554  1
  Sc  Sc12  1  0.196339  0.066204  0.062372  1
  Sc  Sc13  1  0.803832  0.933676  0.940497  1
  Sc  Sc14  1  0.308845  0.948932  0.558712  1
  Sc  Sc15  1  0.803832  0.566324  0.940497  1
  Sc  Sc16  1  0.684845  0.074039  0.442945  1
  Sc  Sc17  1  0.196339  0.433796  0.062372  1
  Sc  Sc18  1  0.684845  0.425961  0.442945  1
  Sc  Sc19  1  0.308845  0.551068  0.558712  1
  Ga  Ga20  1  0.401689  0.250000  0.534598  1
  Bi  Bi21  1  0.592828  0.750000  0.460489  1
  Bi  Bi22  1  0.091931  0.750000  0.040325  1
  Bi  Bi23  1  0.911021  0.250000  0.958630  1
  Bi  Bi24  1  0.064291  0.003907  0.325342  1
  Bi  Bi25  1  0.939173  0.993871  0.673670  1
  Bi  Bi26  1  0.431567  0.993369  0.826544  1
  Bi  Bi27  1  0.939173  0.506129  0.673670  1
  Bi  Bi28  1  0.565756  0.005173  0.174784  1
  Bi  Bi29  1  0.064291  0.496093  0.325342  1
  Bi  Bi30  1  0.565756  0.494827  0.174784  1
  Bi  Bi31  1  0.431567  0.506631  0.826544  1
