# generated using pymatgen
data_Ce2Sm(InRh)3
_symmetry_space_group_name_H-M   'P 1'
_cell_length_a   7.55022000
_cell_length_b   7.71431775
_cell_length_c   3.94183700
_cell_angle_alpha   90.00000000
_cell_angle_beta   90.00000000
_cell_angle_gamma   119.29879290
_symmetry_Int_Tables_number   1
_chemical_formula_structural   Ce2Sm(InRh)3
_chemical_formula_sum   'Ce2 Sm1 In3 Rh3'
_cell_volume   200.22205291
_cell_formula_units_Z   1
loop_
 _symmetry_equiv_pos_site_id
 _symmetry_equiv_pos_as_xyz
  1  'x, y, z'
loop_
 _atom_site_type_symbol
 _atom_site_label
 _atom_site_symmetry_multiplicity
 _atom_site_fract_x
 _atom_site_fract_y
 _atom_site_fract_z
 _atom_site_occupancy
  Ce  Ce0  1  0.999124  0.411879  0.500000  1
  Ce  Ce1  1  0.587245  0.588121  0.500000  1
  Sm  Sm2  1  0.408471  0.000000  0.500000  1
  In  In3  1  0.738416  0.000000  0.000000  1
  In  In4  1  0.007271  0.753623  0.000000  1
  In  In5  1  0.253647  0.246377  0.000000  1
  Rh  Rh6  1  0.329781  0.643925  0.000000  1
  Rh  Rh7  1  0.685857  0.356075  0.000000  1
  Rh  Rh8  1  0.990188  0.000000  0.500000  1
