# generated using pymatgen
data_Lu16In6FeHg
_symmetry_space_group_name_H-M   'P 1'
_cell_length_a   10.33838800
_cell_length_b   10.33838744
_cell_length_c   6.77539000
_cell_angle_alpha   90.00000000
_cell_angle_beta   90.00000000
_cell_angle_gamma   120.00000178
_symmetry_Int_Tables_number   1
_chemical_formula_structural   Lu16In6FeHg
_chemical_formula_sum   'Lu16 In6 Fe1 Hg1'
_cell_volume   627.14873960
_cell_formula_units_Z   1
loop_
 _symmetry_equiv_pos_site_id
 _symmetry_equiv_pos_as_xyz
  1  'x, y, z'
loop_
 _atom_site_type_symbol
 _atom_site_label
 _atom_site_symmetry_multiplicity
 _atom_site_fract_x
 _atom_site_fract_y
 _atom_site_fract_z
 _atom_site_occupancy
  Lu  Lu0  1  0.519225  0.038451  0.530079  1
  Lu  Lu1  1  0.961549  0.480775  0.530079  1
  Lu  Lu2  1  0.519225  0.480775  0.530079  1
  Lu  Lu3  1  0.465736  0.931472  0.024202  1
  Lu  Lu4  1  0.068528  0.534264  0.024202  1
  Lu  Lu5  1  0.465736  0.534264  0.024202  1
  Lu  Lu6  1  0.177938  0.355877  0.739094  1
  Lu  Lu7  1  0.644123  0.822062  0.739094  1
  Lu  Lu8  1  0.177938  0.822062  0.739094  1
  Lu  Lu9  1  0.829303  0.658604  0.233455  1
  Lu  Lu10  1  0.341396  0.170697  0.233455  1
  Lu  Lu11  1  0.829303  0.170697  0.233455  1
  Lu  Lu12  1  0.666667  0.333333  0.869115  1
  Lu  Lu13  1  0.333333  0.666667  0.411423  1
  Lu  Lu14  1  0.000000  0.000000  0.505560  1
  Lu  Lu15  1  0.000000  0.000000  0.007804  1
  In  In16  1  0.836433  0.672866  0.759741  1
  In  In17  1  0.327134  0.163567  0.759741  1
  In  In18  1  0.836433  0.163567  0.759741  1
  In  In19  1  0.163797  0.327595  0.266559  1
  In  In20  1  0.672405  0.836203  0.266559  1
  In  In21  1  0.163797  0.836203  0.266559  1
  Fe  Fe22  1  0.333333  0.666667  0.800041  1
  Hg  Hg23  1  0.666667  0.333333  0.302347  1
