# generated using pymatgen
data_Dy5Mn15Co(TcP4)3
_symmetry_space_group_name_H-M   'P 1'
_cell_length_a   12.38248800
_cell_length_b   12.38248735
_cell_length_c   3.71002700
_cell_angle_alpha   90.00000000
_cell_angle_beta   90.00000000
_cell_angle_gamma   119.99999639
_symmetry_Int_Tables_number   1
_chemical_formula_structural   Dy5Mn15Co(TcP4)3
_chemical_formula_sum   'Dy5 Mn15 Co1 Tc3 P12'
_cell_volume   492.63302954
_cell_formula_units_Z   1
loop_
 _symmetry_equiv_pos_site_id
 _symmetry_equiv_pos_as_xyz
  1  'x, y, z'
loop_
 _atom_site_type_symbol
 _atom_site_label
 _atom_site_symmetry_multiplicity
 _atom_site_fract_x
 _atom_site_fract_y
 _atom_site_fract_z
 _atom_site_occupancy
  Dy  Dy0  1  0.666667  0.333333  0.000000  1
  Dy  Dy1  1  0.333333  0.666667  0.000000  1
  Dy  Dy2  1  0.177124  0.177124  0.500000  1
  Dy  Dy3  1  0.822876  0.000000  0.500000  1
  Dy  Dy4  1  0.000000  0.822876  0.500000  1
  Mn  Mn5  1  0.825993  0.202950  0.000000  1
  Mn  Mn6  1  0.797050  0.623043  0.000000  1
  Mn  Mn7  1  0.376957  0.174007  0.000000  1
  Mn  Mn8  1  0.202950  0.825993  0.000000  1
  Mn  Mn9  1  0.623043  0.797050  0.000000  1
  Mn  Mn10  1  0.174007  0.376957  0.000000  1
  Mn  Mn11  1  0.656707  0.126184  0.500000  1
  Mn  Mn12  1  0.873816  0.530523  0.500000  1
  Mn  Mn13  1  0.469477  0.343293  0.500000  1
  Mn  Mn14  1  0.126184  0.656707  0.500000  1
  Mn  Mn15  1  0.530523  0.873816  0.500000  1
  Mn  Mn16  1  0.343293  0.469477  0.500000  1
  Mn  Mn17  1  0.714237  0.714237  0.500000  1
  Mn  Mn18  1  0.285763  0.000000  0.500000  1
  Mn  Mn19  1  0.000000  0.285763  0.500000  1
  Co  Co20  1  0.000000  0.000000  0.000000  1
  Tc  Tc21  1  0.544147  0.544147  0.000000  1
  Tc  Tc22  1  0.455853  0.000000  0.000000  1
  Tc  Tc23  1  0.000000  0.455853  0.000000  1
  P  P24  1  0.351980  0.351980  0.000000  1
  P  P25  1  0.648020  0.000000  0.000000  1
  P  P26  1  0.000000  0.648020  0.000000  1
  P  P27  1  0.841153  0.328140  0.500000  1
  P  P28  1  0.671860  0.513012  0.500000  1
  P  P29  1  0.486988  0.158847  0.500000  1
  P  P30  1  0.328140  0.841153  0.500000  1
  P  P31  1  0.513012  0.671860  0.500000  1
  P  P32  1  0.158847  0.486988  0.500000  1
  P  P33  1  0.823628  0.823628  0.000000  1
  P  P34  1  0.176372  0.000000  0.000000  1
  P  P35  1  0.000000  0.176372  0.000000  1
