# generated using pymatgen
data_Dy7Lu13Si15Sn
_symmetry_space_group_name_H-M   'P 1'
_cell_length_a   7.39435948
_cell_length_b   7.58144791
_cell_length_c   14.42310379
_cell_angle_alpha   89.99817817
_cell_angle_beta   90.31690527
_cell_angle_gamma   90.14874999
_symmetry_Int_Tables_number   1
_chemical_formula_structural   Dy7Lu13Si15Sn
_chemical_formula_sum   'Dy7 Lu13 Si15 Sn1'
_cell_volume   808.54340189
_cell_formula_units_Z   1
loop_
 _symmetry_equiv_pos_site_id
 _symmetry_equiv_pos_as_xyz
  1  'x, y, z'
loop_
 _atom_site_type_symbol
 _atom_site_label
 _atom_site_symmetry_multiplicity
 _atom_site_fract_x
 _atom_site_fract_y
 _atom_site_fract_z
 _atom_site_occupancy
  Dy  Dy0  1  0.009152  0.180164  0.600518  1
  Dy  Dy1  1  0.497607  0.682786  0.407140  1
  Dy  Dy2  1  0.984631  0.827973  0.090944  1
  Dy  Dy3  1  0.495339  0.681866  0.092938  1
  Dy  Dy4  1  0.986611  0.827843  0.409566  1
  Dy  Dy5  1  0.507512  0.320500  0.598001  1
  Dy  Dy6  1  0.010750  0.180599  0.899805  1
  Lu  Lu7  1  0.362784  0.831256  0.878206  1
  Lu  Lu8  1  0.860569  0.668474  0.622806  1
  Lu  Lu9  1  0.641326  0.168129  0.380982  1
  Lu  Lu10  1  0.134030  0.325740  0.116993  1
  Lu  Lu11  1  0.638361  0.167116  0.118336  1
  Lu  Lu12  1  0.136496  0.323909  0.382177  1
  Lu  Lu13  1  0.361006  0.830291  0.622623  1
  Lu  Lu14  1  0.863180  0.666745  0.878221  1
  Lu  Lu15  1  0.511301  0.320338  0.900515  1
  Lu  Lu16  1  0.198037  0.497432  0.750710  1
  Lu  Lu17  1  0.696826  0.001878  0.750664  1
  Lu  Lu18  1  0.794160  0.499033  0.249737  1
  Lu  Lu19  1  0.308572  0.010873  0.249540  1
  Si  Si20  1  0.303175  0.035466  0.039998  1
  Si  Si21  1  0.806008  0.463166  0.459601  1
  Si  Si22  1  0.695192  0.963153  0.543538  1
  Si  Si23  1  0.201569  0.534068  0.956549  1
  Si  Si24  1  0.697760  0.964127  0.955898  1
  Si  Si25  1  0.193738  0.537297  0.542059  1
  Si  Si26  1  0.307080  0.035163  0.460308  1
  Si  Si27  1  0.799497  0.461788  0.040009  1
  Si  Si28  1  0.568433  0.610278  0.750428  1
  Si  Si29  1  0.068876  0.887698  0.750259  1
  Si  Si30  1  0.433710  0.374156  0.249805  1
  Si  Si31  1  0.930702  0.111269  0.249711  1
  Si  Si32  1  0.310860  0.130210  0.750629  1
  Si  Si33  1  0.807550  0.369926  0.750362  1
  Si  Si34  1  0.692309  0.871973  0.250110  1
  Sn  Sn35  1  0.185285  0.637318  0.250311  1
