# generated using pymatgen
data_Ba6Li2Ag17Hg5
_symmetry_space_group_name_H-M   'P 1'
_cell_length_a   10.07310910
_cell_length_b   10.07310972
_cell_length_c   8.55476400
_cell_angle_alpha   90.00000000
_cell_angle_beta   90.00000000
_cell_angle_gamma   120.04716087
_symmetry_Int_Tables_number   1
_chemical_formula_structural   Ba6Li2Ag17Hg5
_chemical_formula_sum   'Ba6 Li2 Ag17 Hg5'
_cell_volume   751.37922566
_cell_formula_units_Z   1
loop_
 _symmetry_equiv_pos_site_id
 _symmetry_equiv_pos_as_xyz
  1  'x, y, z'
loop_
 _atom_site_type_symbol
 _atom_site_label
 _atom_site_symmetry_multiplicity
 _atom_site_fract_x
 _atom_site_fract_y
 _atom_site_fract_z
 _atom_site_occupancy
  Ba  Ba0  1  0.522683  0.042152  0.250000  1
  Ba  Ba1  1  0.481109  0.957581  0.750000  1
  Ba  Ba2  1  0.957848  0.477317  0.250000  1
  Ba  Ba3  1  0.042419  0.518891  0.750000  1
  Ba  Ba4  1  0.520549  0.479451  0.250000  1
  Ba  Ba5  1  0.478354  0.521646  0.750000  1
  Li  Li6  1  0.997795  0.002205  0.001443  1
  Li  Li7  1  0.997795  0.002205  0.498557  1
  Ag  Ag8  1  0.163177  0.324998  0.064889  1
  Ag  Ag9  1  0.832724  0.672224  0.938756  1
  Ag  Ag10  1  0.675002  0.836823  0.064889  1
  Ag  Ag11  1  0.832724  0.672224  0.561244  1
  Ag  Ag12  1  0.327776  0.167276  0.938756  1
  Ag  Ag13  1  0.163177  0.324998  0.435111  1
  Ag  Ag14  1  0.162794  0.837206  0.071903  1
  Ag  Ag15  1  0.327776  0.167276  0.561244  1
  Ag  Ag16  1  0.837584  0.162416  0.935196  1
  Ag  Ag17  1  0.675002  0.836823  0.435111  1
  Ag  Ag18  1  0.837584  0.162416  0.564804  1
  Ag  Ag19  1  0.162794  0.837206  0.428097  1
  Ag  Ag20  1  0.898994  0.799967  0.250000  1
  Ag  Ag21  1  0.101205  0.202281  0.750000  1
  Ag  Ag22  1  0.200033  0.101006  0.250000  1
  Ag  Ag23  1  0.797719  0.898795  0.750000  1
  Ag  Ag24  1  0.898835  0.101165  0.250000  1
  Hg  Hg25  1  0.104177  0.895823  0.750000  1
  Hg  Hg26  1  0.333637  0.666363  0.058952  1
  Hg  Hg27  1  0.667550  0.332450  0.939374  1
  Hg  Hg28  1  0.667550  0.332450  0.560626  1
  Hg  Hg29  1  0.333637  0.666363  0.441048  1
