# generated using pymatgen
data_Np5Cd(Sb4Au3)2
_symmetry_space_group_name_H-M   'P 1'
_cell_length_a   8.66524796
_cell_length_b   8.66524868
_cell_length_c   8.66524826
_cell_angle_alpha   109.55037313
_cell_angle_beta   109.55037791
_cell_angle_gamma   109.31302160
_symmetry_Int_Tables_number   1
_chemical_formula_structural   Np5Cd(Sb4Au3)2
_chemical_formula_sum   'Np5 Cd1 Sb8 Au6'
_cell_volume   500.86269836
_cell_formula_units_Z   1
loop_
 _symmetry_equiv_pos_site_id
 _symmetry_equiv_pos_as_xyz
  1  'x, y, z'
loop_
 _atom_site_type_symbol
 _atom_site_label
 _atom_site_symmetry_multiplicity
 _atom_site_fract_x
 _atom_site_fract_y
 _atom_site_fract_z
 _atom_site_occupancy
  Np  Np0  1  0.874935  0.248471  0.127361  1
  Np  Np1  1  0.621110  0.747574  0.372639  1
  Np  Np2  1  0.252426  0.125065  0.873536  1
  Np  Np3  1  0.751529  0.378890  0.626464  1
  Np  Np4  1  0.125000  0.875000  0.250000  1
  Cd  Cd5  1  0.375000  0.625000  0.750000  1
  Sb  Sb6  1  0.683283  0.498861  0.002004  1
  Sb  Sb7  1  0.499793  0.011846  0.679497  1
  Sb  Sb8  1  0.996858  0.681281  0.497996  1
  Sb  Sb9  1  0.832350  0.820296  0.820503  1
  Sb  Sb10  1  0.501139  0.003142  0.184422  1
  Sb  Sb11  1  0.179704  0.500207  0.012054  1
  Sb  Sb12  1  0.988154  0.167650  0.487946  1
  Sb  Sb13  1  0.318719  0.316717  0.315578  1
  Au  Au14  1  0.372245  0.267581  0.628966  1
  Au  Au15  1  0.138616  0.743281  0.871034  1
  Au  Au16  1  0.256719  0.627755  0.395336  1
  Au  Au17  1  0.732419  0.861384  0.104664  1
  Au  Au18  1  0.625000  0.375000  0.250000  1
  Au  Au19  1  0.875000  0.125000  0.750000  1
