# generated using pymatgen
data_Li3Tb3SnPb2
_symmetry_space_group_name_H-M   'P 1'
_cell_length_a   7.39906300
_cell_length_b   7.39906230
_cell_length_c   4.65989900
_cell_angle_alpha   90.00000000
_cell_angle_beta   90.00000000
_cell_angle_gamma   119.99999867
_symmetry_Int_Tables_number   1
_chemical_formula_structural   Li3Tb3SnPb2
_chemical_formula_sum   'Li3 Tb3 Sn1 Pb2'
_cell_volume   220.93297998
_cell_formula_units_Z   1
loop_
 _symmetry_equiv_pos_site_id
 _symmetry_equiv_pos_as_xyz
  1  'x, y, z'
loop_
 _atom_site_type_symbol
 _atom_site_label
 _atom_site_symmetry_multiplicity
 _atom_site_fract_x
 _atom_site_fract_y
 _atom_site_fract_z
 _atom_site_occupancy
  Li  Li0  1  0.763213  0.768955  0.500000  1
  Li  Li1  1  0.231045  0.994259  0.500000  1
  Li  Li2  1  0.005741  0.236787  0.500000  1
  Tb  Tb3  1  0.436972  0.439499  0.000000  1
  Tb  Tb4  1  0.560501  0.997472  0.000000  1
  Tb  Tb5  1  0.002528  0.563028  0.000000  1
  Sn  Sn6  1  0.333333  0.666667  0.500000  1
  Pb  Pb7  1  0.000000  0.000000  0.000000  1
  Pb  Pb8  1  0.666667  0.333333  0.500000  1
