# generated using pymatgen
data_Ca3(CoH6)2
_symmetry_space_group_name_H-M   'P 1'
_cell_length_a   4.78708100
_cell_length_b   4.78708146
_cell_length_c   7.89225400
_cell_angle_alpha   90.00000000
_cell_angle_beta   90.00000000
_cell_angle_gamma   120.00000372
_symmetry_Int_Tables_number   1
_chemical_formula_structural   Ca3(CoH6)2
_chemical_formula_sum   'Ca3 Co2 H12'
_cell_volume   156.62939241
_cell_formula_units_Z   1
loop_
 _symmetry_equiv_pos_site_id
 _symmetry_equiv_pos_as_xyz
  1  'x, y, z'
loop_
 _atom_site_type_symbol
 _atom_site_label
 _atom_site_symmetry_multiplicity
 _atom_site_fract_x
 _atom_site_fract_y
 _atom_site_fract_z
 _atom_site_occupancy
  Ca  Ca0  1  0.000000  0.000000  0.000000  1
  Ca  Ca1  1  0.666667  0.333333  0.360663  1
  Ca  Ca2  1  0.333333  0.666667  0.639337  1
  Co  Co3  1  0.666667  0.333333  0.750392  1
  Co  Co4  1  0.333333  0.666667  0.249608  1
  H  H5  1  0.179450  0.820550  0.360038  1
  H  H6  1  0.641101  0.820550  0.360038  1
  H  H7  1  0.179450  0.358899  0.360038  1
  H  H8  1  0.820550  0.179450  0.639962  1
  H  H9  1  0.358899  0.179450  0.639962  1
  H  H10  1  0.820550  0.641101  0.639962  1
  H  H11  1  0.518927  0.037855  0.867528  1
  H  H12  1  0.518927  0.481073  0.867528  1
  H  H13  1  0.962145  0.481073  0.867528  1
  H  H14  1  0.481073  0.962145  0.132472  1
  H  H15  1  0.481073  0.518927  0.132472  1
  H  H16  1  0.037855  0.518927  0.132472  1
