# generated using pymatgen
data_ErThPd2Pb
_symmetry_space_group_name_H-M   'P 1'
_cell_length_a   8.01793600
_cell_length_b   7.98822900
_cell_length_c   3.68270900
_cell_angle_alpha   90.00000000
_cell_angle_beta   90.00000000
_cell_angle_gamma   90.00000000
_symmetry_Int_Tables_number   1
_chemical_formula_structural   ErThPd2Pb
_chemical_formula_sum   'Er2 Th2 Pd4 Pb2'
_cell_volume   235.87422970
_cell_formula_units_Z   2
loop_
 _symmetry_equiv_pos_site_id
 _symmetry_equiv_pos_as_xyz
  1  'x, y, z'
loop_
 _atom_site_type_symbol
 _atom_site_label
 _atom_site_symmetry_multiplicity
 _atom_site_fract_x
 _atom_site_fract_y
 _atom_site_fract_z
 _atom_site_occupancy
  Er  Er0  1  0.829311  0.672275  0.500000  1
  Er  Er1  1  0.329311  0.827725  0.500000  1
  Th  Th2  1  0.670292  0.166993  0.500000  1
  Th  Th3  1  0.170292  0.333007  0.500000  1
  Pd  Pd4  1  0.372382  0.124686  0.000000  1
  Pd  Pd5  1  0.126083  0.626717  0.000000  1
  Pd  Pd6  1  0.626083  0.873283  0.000000  1
  Pd  Pd7  1  0.872382  0.375314  0.000000  1
  Pb  Pb8  1  0.001933  0.990518  0.000000  1
  Pb  Pb9  1  0.501933  0.509482  0.000000  1
