# generated using pymatgen
data_SmTcI18
_symmetry_space_group_name_H-M   'P 1'
_cell_length_a   10.31761207
_cell_length_b   10.31761353
_cell_length_c   10.31761498
_cell_angle_alpha   90.25953858
_cell_angle_beta   90.25953738
_cell_angle_gamma   90.25956034
_symmetry_Int_Tables_number   1
_chemical_formula_structural   SmTcI18
_chemical_formula_sum   'Sm1 Tc1 I18'
_cell_volume   1098.30853954
_cell_formula_units_Z   1
loop_
 _symmetry_equiv_pos_site_id
 _symmetry_equiv_pos_as_xyz
  1  'x, y, z'
loop_
 _atom_site_type_symbol
 _atom_site_label
 _atom_site_symmetry_multiplicity
 _atom_site_fract_x
 _atom_site_fract_y
 _atom_site_fract_z
 _atom_site_occupancy
  Sm  Sm0  1  0.000000  0.000000  0.000000  1
  Tc  Tc1  1  0.500000  0.500000  0.500000  1
  I  I2  1  0.747059  0.139178  0.600236  1
  I  I3  1  0.994565  0.031220  0.700809  1
  I  I4  1  0.600236  0.747059  0.139178  1
  I  I5  1  0.968780  0.299191  0.005435  1
  I  I6  1  0.700809  0.994565  0.031220  1
  I  I7  1  0.031220  0.700809  0.994565  1
  I  I8  1  0.005435  0.968780  0.299191  1
  I  I9  1  0.860822  0.399764  0.252941  1
  I  I10  1  0.299191  0.005435  0.968780  1
  I  I11  1  0.252941  0.860822  0.399764  1
  I  I12  1  0.139178  0.600236  0.747059  1
  I  I13  1  0.399764  0.252941  0.860822  1
  I  I14  1  0.762751  0.524345  0.487984  1
  I  I15  1  0.524345  0.487984  0.762751  1
  I  I16  1  0.237249  0.475655  0.512016  1
  I  I17  1  0.475655  0.512016  0.237249  1
  I  I18  1  0.487984  0.762751  0.524345  1
  I  I19  1  0.512016  0.237249  0.475655  1
