# generated using pymatgen
data_Er2Tm10AlCo5
_symmetry_space_group_name_H-M   'P 1'
_cell_length_a   8.11295467
_cell_length_b   8.11295591
_cell_length_c   8.10958100
_cell_angle_alpha   110.89152089
_cell_angle_beta   110.83863410
_cell_angle_gamma   106.73582395
_symmetry_Int_Tables_number   1
_chemical_formula_structural   Er2Tm10AlCo5
_chemical_formula_sum   'Er2 Tm10 Al1 Co5'
_cell_volume   410.10595686
_cell_formula_units_Z   1
loop_
 _symmetry_equiv_pos_site_id
 _symmetry_equiv_pos_as_xyz
  1  'x, y, z'
loop_
 _atom_site_type_symbol
 _atom_site_label
 _atom_site_symmetry_multiplicity
 _atom_site_fract_x
 _atom_site_fract_y
 _atom_site_fract_z
 _atom_site_occupancy
  Er  Er0  1  0.287511  0.185759  0.473270  1
  Er  Er1  1  0.712489  0.814241  0.526730  1
  Tm  Tm2  1  0.287410  0.814220  0.101629  1
  Tm  Tm3  1  0.712590  0.185780  0.898371  1
  Tm  Tm4  1  0.619065  0.315774  0.302817  1
  Tm  Tm5  1  0.380935  0.684226  0.697183  1
  Tm  Tm6  1  0.012957  0.316248  0.697183  1
  Tm  Tm7  1  0.987043  0.683752  0.302817  1
  Tm  Tm8  1  0.216452  0.408173  0.191042  1
  Tm  Tm9  1  0.783548  0.591827  0.808958  1
  Tm  Tm10  1  0.217132  0.025410  0.808958  1
  Tm  Tm11  1  0.782868  0.974590  0.191042  1
  Al  Al12  1  0.500000  0.500000  0.000000  1
  Co  Co13  1  0.999750  0.374783  0.374532  1
  Co  Co14  1  0.000250  0.625217  0.625468  1
  Co  Co15  1  0.386042  0.886042  0.500000  1
  Co  Co16  1  0.613958  0.113958  0.500000  1
  Co  Co17  1  0.000000  0.000000  0.000000  1
