# generated using pymatgen
data_YbEr2Tm5(B6Os)4
_symmetry_space_group_name_H-M   'P 1'
_cell_length_a   3.62102300
_cell_length_b   9.09029933
_cell_length_c   11.47201401
_cell_angle_alpha   89.92453666
_cell_angle_beta   90.00000000
_cell_angle_gamma   90.00000000
_symmetry_Int_Tables_number   1
_chemical_formula_structural   YbEr2Tm5(B6Os)4
_chemical_formula_sum   'Yb1 Er2 Tm5 B24 Os4'
_cell_volume   377.61458453
_cell_formula_units_Z   1
loop_
 _symmetry_equiv_pos_site_id
 _symmetry_equiv_pos_as_xyz
  1  'x, y, z'
loop_
 _atom_site_type_symbol
 _atom_site_label
 _atom_site_symmetry_multiplicity
 _atom_site_fract_x
 _atom_site_fract_y
 _atom_site_fract_z
 _atom_site_occupancy
  Yb  Yb0  1  0.000000  0.322605  0.413448  1
  Er  Er1  1  0.000000  0.676882  0.585257  1
  Er  Er2  1  0.000000  0.821648  0.086493  1
  Tm  Tm3  1  0.000000  0.178987  0.914500  1
  Tm  Tm4  1  0.000000  0.944200  0.372037  1
  Tm  Tm5  1  0.000000  0.057644  0.627215  1
  Tm  Tm6  1  0.000000  0.443114  0.128467  1
  Tm  Tm7  1  0.000000  0.556003  0.873024  1
  B  B8  1  0.500000  0.553644  0.432828  1
  B  B9  1  0.500000  0.446254  0.567212  1
  B  B10  1  0.500000  0.053049  0.066052  1
  B  B11  1  0.500000  0.946379  0.932912  1
  B  B12  1  0.500000  0.748918  0.419537  1
  B  B13  1  0.500000  0.251562  0.580835  1
  B  B14  1  0.500000  0.248036  0.080045  1
  B  B15  1  0.500000  0.751267  0.919819  1
  B  B16  1  0.500000  0.791892  0.266007  1
  B  B17  1  0.500000  0.209040  0.734516  1
  B  B18  1  0.500000  0.290439  0.233510  1
  B  B19  1  0.500000  0.708733  0.766312  1
  B  B20  1  0.500000  0.631454  0.185526  1
  B  B21  1  0.500000  0.368820  0.815629  1
  B  B22  1  0.500000  0.130726  0.314163  1
  B  B23  1  0.500000  0.869011  0.684949  1
  B  B24  1  0.500000  0.982211  0.212083  1
  B  B25  1  0.500000  0.017971  0.787057  1
  B  B26  1  0.500000  0.482780  0.287253  1
  B  B27  1  0.500000  0.517469  0.713186  1
  B  B28  1  0.500000  0.606614  0.029732  1
  B  B29  1  0.500000  0.393288  0.970822  1
  B  B30  1  0.500000  0.103012  0.471381  1
  B  B31  1  0.500000  0.895656  0.528878  1
  Os  Os32  1  0.000000  0.639326  0.320471  1
  Os  Os33  1  0.000000  0.362238  0.680345  1
  Os  Os34  1  0.000000  0.136481  0.177288  1
  Os  Os35  1  0.000000  0.862644  0.821212  1
