# generated using pymatgen
data_SmEr3Hf4F28
_symmetry_space_group_name_H-M   'P 1'
_cell_length_a   5.71392302
_cell_length_b   9.04232307
_cell_length_c   12.14451487
_cell_angle_alpha   62.36940094
_cell_angle_beta   89.97882249
_cell_angle_gamma   90.02063611
_symmetry_Int_Tables_number   1
_chemical_formula_structural   SmEr3Hf4F28
_chemical_formula_sum   'Sm1 Er3 Hf4 F28'
_cell_volume   555.91275020
_cell_formula_units_Z   1
loop_
 _symmetry_equiv_pos_site_id
 _symmetry_equiv_pos_as_xyz
  1  'x, y, z'
loop_
 _atom_site_type_symbol
 _atom_site_label
 _atom_site_symmetry_multiplicity
 _atom_site_fract_x
 _atom_site_fract_y
 _atom_site_fract_z
 _atom_site_occupancy
  Sm  Sm0  1  0.756472  0.815633  0.766593  1
  Er  Er1  1  0.743904  0.816289  0.266358  1
  Er  Er2  1  0.243824  0.185441  0.233695  1
  Er  Er3  1  0.257082  0.188629  0.733267  1
  Hf  Hf4  1  0.743661  0.276680  0.453255  1
  Hf  Hf5  1  0.244296  0.725901  0.048575  1
  Hf  Hf6  1  0.254973  0.725922  0.541379  1
  Hf  Hf7  1  0.755561  0.270460  0.956635  1
  F  F8  1  0.461265  0.709071  0.925443  1
  F  F9  1  0.965427  0.289336  0.576648  1
  F  F10  1  0.533208  0.287548  0.078089  1
  F  F11  1  0.033025  0.710086  0.419653  1
  F  F12  1  0.455816  0.281618  0.548549  1
  F  F13  1  0.955829  0.716455  0.956727  1
  F  F14  1  0.545930  0.718986  0.449066  1
  F  F15  1  0.043698  0.278979  0.050663  1
  F  F16  1  0.769603  0.519064  0.860216  1
  F  F17  1  0.267558  0.475980  0.639515  1
  F  F18  1  0.234724  0.475533  0.143274  1
  F  F19  1  0.732937  0.525865  0.356999  1
  F  F20  1  0.759245  0.021616  0.058330  1
  F  F21  1  0.258926  0.975219  0.441202  1
  F  F22  1  0.240568  0.974330  0.943695  1
  F  F23  1  0.739680  0.027650  0.553701  1
  F  F24  1  0.985576  0.731629  0.644736  1
  F  F25  1  0.486284  0.266307  0.851548  1
  F  F26  1  0.010528  0.265764  0.349095  1
  F  F27  1  0.512618  0.734760  0.152137  1
  F  F28  1  0.033728  0.746811  0.174492  1
  F  F29  1  0.531678  0.254593  0.327719  1
  F  F30  1  0.966375  0.251451  0.829372  1
  F  F31  1  0.459223  0.743602  0.670049  1
  F  F32  1  0.432120  0.975394  0.235520  1
  F  F33  1  0.932498  0.025639  0.264663  1
  F  F34  1  0.569887  0.034890  0.765750  1
  F  F35  1  0.082274  0.976865  0.733388  1
