# generated using pymatgen
data_CeNdBeSi4Rh
_symmetry_space_group_name_H-M   'P 1'
_cell_length_a   8.65760962
_cell_length_b   8.65760891
_cell_length_c   4.04235100
_cell_angle_alpha   90.00000000
_cell_angle_beta   90.00000000
_cell_angle_gamma   151.78061411
_symmetry_Int_Tables_number   1
_chemical_formula_structural   CeNdBeSi4Rh
_chemical_formula_sum   'Ce1 Nd1 Be1 Si4 Rh1'
_cell_volume   143.26905280
_cell_formula_units_Z   1
loop_
 _symmetry_equiv_pos_site_id
 _symmetry_equiv_pos_as_xyz
  1  'x, y, z'
loop_
 _atom_site_type_symbol
 _atom_site_label
 _atom_site_symmetry_multiplicity
 _atom_site_fract_x
 _atom_site_fract_y
 _atom_site_fract_z
 _atom_site_occupancy
  Ce  Ce0  1  0.388364  0.611636  0.750000  1
  Nd  Nd1  1  0.598458  0.401542  0.250000  1
  Be  Be2  1  0.827437  0.172563  0.250000  1
  Si  Si3  1  0.959482  0.040518  0.250000  1
  Si  Si4  1  0.037605  0.962395  0.750000  1
  Si  Si5  1  0.255886  0.744114  0.250000  1
  Si  Si6  1  0.750649  0.249351  0.750000  1
  Rh  Rh7  1  0.182121  0.817879  0.750000  1
