# generated using pymatgen
data_Ba4Na2Ru2O11
_symmetry_space_group_name_H-M   'P 1'
_cell_length_a   5.89894947
_cell_length_b   5.89894964
_cell_length_c   8.72379200
_cell_angle_alpha   90.00000000
_cell_angle_beta   90.00000000
_cell_angle_gamma   90.79836651
_symmetry_Int_Tables_number   1
_chemical_formula_structural   Ba4Na2Ru2O11
_chemical_formula_sum   'Ba4 Na2 Ru2 O11'
_cell_volume   303.53760526
_cell_formula_units_Z   1
loop_
 _symmetry_equiv_pos_site_id
 _symmetry_equiv_pos_as_xyz
  1  'x, y, z'
loop_
 _atom_site_type_symbol
 _atom_site_label
 _atom_site_symmetry_multiplicity
 _atom_site_fract_x
 _atom_site_fract_y
 _atom_site_fract_z
 _atom_site_occupancy
  Ba  Ba0  1  0.014525  0.479288  0.279489  1
  Ba  Ba1  1  0.014525  0.479288  0.720511  1
  Ba  Ba2  1  0.520712  0.985475  0.279489  1
  Ba  Ba3  1  0.520712  0.985475  0.720511  1
  Na  Na4  1  0.515509  0.484491  0.500000  1
  Na  Na5  1  0.985237  0.014763  0.000000  1
  Ru  Ru6  1  0.502534  0.497466  0.000000  1
  Ru  Ru7  1  0.019320  0.980680  0.500000  1
  O  O8  1  0.247407  0.752592  0.500000  1
  O  O9  1  0.786651  0.213349  0.500000  1
  O  O10  1  0.783765  0.754346  0.500000  1
  O  O11  1  0.245654  0.216235  0.500000  1
  O  O12  1  0.022206  0.977794  0.268588  1
  O  O13  1  0.022206  0.977794  0.731412  1
  O  O14  1  0.499401  0.500599  0.775107  1
  O  O15  1  0.499401  0.500599  0.224893  1
  O  O16  1  0.718011  0.281989  0.000000  1
  O  O17  1  0.593197  0.797235  0.000000  1
  O  O18  1  0.202765  0.406803  0.000000  1
