# generated using pymatgen
data_Nd3SmAl18(Pd2Ru)2
_symmetry_space_group_name_H-M   'P 1'
_cell_length_a   7.66701412
_cell_length_b   7.67121806
_cell_length_c   9.61306700
_cell_angle_alpha   90.00000000
_cell_angle_beta   90.00000000
_cell_angle_gamma   119.49086209
_symmetry_Int_Tables_number   1
_chemical_formula_structural   Nd3SmAl18(Pd2Ru)2
_chemical_formula_sum   'Nd3 Sm1 Al18 Pd4 Ru2'
_cell_volume   492.13983159
_cell_formula_units_Z   1
loop_
 _symmetry_equiv_pos_site_id
 _symmetry_equiv_pos_as_xyz
  1  'x, y, z'
loop_
 _atom_site_type_symbol
 _atom_site_label
 _atom_site_symmetry_multiplicity
 _atom_site_fract_x
 _atom_site_fract_y
 _atom_site_fract_z
 _atom_site_occupancy
  Nd  Nd0  1  0.994716  0.667708  0.250000  1
  Nd  Nd1  1  0.005016  0.332313  0.750000  1
  Nd  Nd2  1  0.667786  0.994217  0.250000  1
  Sm  Sm3  1  0.331781  0.005686  0.750000  1
  Al  Al4  1  0.126173  0.125130  0.250000  1
  Al  Al5  1  0.874647  0.874691  0.750000  1
  Al  Al6  1  0.002397  0.328283  0.074384  1
  Al  Al7  1  0.998730  0.671864  0.923754  1
  Al  Al8  1  0.998730  0.671864  0.576246  1
  Al  Al9  1  0.328554  0.001951  0.426902  1
  Al  Al10  1  0.002397  0.328283  0.425616  1
  Al  Al11  1  0.670686  0.998330  0.576173  1
  Al  Al12  1  0.670686  0.998330  0.923827  1
  Al  Al13  1  0.328554  0.001951  0.073098  1
  Al  Al14  1  0.329207  0.328986  0.551670  1
  Al  Al15  1  0.671310  0.671161  0.452156  1
  Al  Al16  1  0.671310  0.671161  0.047844  1
  Al  Al17  1  0.329207  0.328986  0.948330  1
  Al  Al18  1  0.342919  0.544132  0.250000  1
  Al  Al19  1  0.656468  0.454736  0.750000  1
  Al  Al20  1  0.544196  0.341575  0.250000  1
  Al  Al21  1  0.455113  0.658652  0.750000  1
  Pd  Pd22  1  0.671570  0.328314  0.999369  1
  Pd  Pd23  1  0.328305  0.671672  0.999474  1
  Pd  Pd24  1  0.328305  0.671672  0.500526  1
  Pd  Pd25  1  0.671570  0.328314  0.500631  1
  Ru  Ru26  1  0.999835  0.000021  0.999521  1
  Ru  Ru27  1  0.999835  0.000021  0.500479  1
