# generated using pymatgen
data_Hf3Ti2Si2AsN
_symmetry_space_group_name_H-M   'P 1'
_cell_length_a   7.72484600
_cell_length_b   7.72319033
_cell_length_c   5.34497800
_cell_angle_alpha   90.00000000
_cell_angle_beta   90.00000000
_cell_angle_gamma   120.00709179
_symmetry_Int_Tables_number   1
_chemical_formula_structural   Hf3Ti2Si2AsN
_chemical_formula_sum   'Hf6 Ti4 Si4 As2 N2'
_cell_volume   276.14175559
_cell_formula_units_Z   2
loop_
 _symmetry_equiv_pos_site_id
 _symmetry_equiv_pos_as_xyz
  1  'x, y, z'
loop_
 _atom_site_type_symbol
 _atom_site_label
 _atom_site_symmetry_multiplicity
 _atom_site_fract_x
 _atom_site_fract_y
 _atom_site_fract_z
 _atom_site_occupancy
  Hf  Hf0  1  0.233452  0.000000  0.250000  1
  Hf  Hf1  1  0.766548  0.000000  0.750000  1
  Hf  Hf2  1  0.003637  0.241178  0.250000  1
  Hf  Hf3  1  0.996363  0.758822  0.750000  1
  Hf  Hf4  1  0.762459  0.758822  0.250000  1
  Hf  Hf5  1  0.237541  0.241178  0.750000  1
  Ti  Ti6  1  0.331994  0.663990  0.000000  1
  Ti  Ti7  1  0.668006  0.336010  0.000000  1
  Ti  Ti8  1  0.668006  0.336010  0.500000  1
  Ti  Ti9  1  0.331994  0.663990  0.500000  1
  Si  Si10  1  0.999836  0.590039  0.250000  1
  Si  Si11  1  0.000164  0.409961  0.750000  1
  Si  Si12  1  0.409797  0.409961  0.250000  1
  Si  Si13  1  0.590203  0.590039  0.750000  1
  As  As14  1  0.595223  0.000000  0.250000  1
  As  As15  1  0.404777  0.000000  0.750000  1
  N  N16  1  0.000000  0.000000  0.000000  1
  N  N17  1  0.000000  0.000000  0.500000  1
