# generated using pymatgen
data_Tb3In3HgRh2
_symmetry_space_group_name_H-M   'P 1'
_cell_length_a   7.88366600
_cell_length_b   7.88366561
_cell_length_c   3.81245300
_cell_angle_alpha   90.00000000
_cell_angle_beta   90.00000000
_cell_angle_gamma   120.00001004
_symmetry_Int_Tables_number   1
_chemical_formula_structural   Tb3In3HgRh2
_chemical_formula_sum   'Tb3 In3 Hg1 Rh2'
_cell_volume   205.20668177
_cell_formula_units_Z   1
loop_
 _symmetry_equiv_pos_site_id
 _symmetry_equiv_pos_as_xyz
  1  'x, y, z'
loop_
 _atom_site_type_symbol
 _atom_site_label
 _atom_site_symmetry_multiplicity
 _atom_site_fract_x
 _atom_site_fract_y
 _atom_site_fract_z
 _atom_site_occupancy
  Tb  Tb0  1  0.972171  0.583168  0.500000  1
  Tb  Tb1  1  0.416832  0.389003  0.500000  1
  Tb  Tb2  1  0.610997  0.027829  0.500000  1
  In  In3  1  0.745570  0.742767  0.000000  1
  In  In4  1  0.997198  0.254430  0.000000  1
  In  In5  1  0.257233  0.002802  0.000000  1
  Hg  Hg6  1  0.333333  0.666667  0.000000  1
  Rh  Rh7  1  0.000000  0.000000  0.500000  1
  Rh  Rh8  1  0.666667  0.333333  0.000000  1
