# generated using pymatgen
data_Sr2CdSn3Pd4
_symmetry_space_group_name_H-M   'P 1'
_cell_length_a   4.70353900
_cell_length_b   4.70353900
_cell_length_c   10.82527600
_cell_angle_alpha   90.00000000
_cell_angle_beta   90.00000000
_cell_angle_gamma   90.00000000
_symmetry_Int_Tables_number   1
_chemical_formula_structural   Sr2CdSn3Pd4
_chemical_formula_sum   'Sr2 Cd1 Sn3 Pd4'
_cell_volume   239.49060255
_cell_formula_units_Z   1
loop_
 _symmetry_equiv_pos_site_id
 _symmetry_equiv_pos_as_xyz
  1  'x, y, z'
loop_
 _atom_site_type_symbol
 _atom_site_label
 _atom_site_symmetry_multiplicity
 _atom_site_fract_x
 _atom_site_fract_y
 _atom_site_fract_z
 _atom_site_occupancy
  Sr  Sr0  1  0.000000  0.500001  0.243204  1
  Sr  Sr1  1  0.500001  0.000000  0.756796  1
  Cd  Cd2  1  0.000000  0.000000  0.500000  1
  Sn  Sn3  1  0.500001  0.000000  0.119597  1
  Sn  Sn4  1  0.500001  0.500001  0.500000  1
  Sn  Sn5  1  0.000000  0.500001  0.880403  1
  Pd  Pd6  1  0.000000  0.000000  0.000000  1
  Pd  Pd7  1  0.500001  0.500001  0.000000  1
  Pd  Pd8  1  0.500001  0.000000  0.366030  1
  Pd  Pd9  1  0.000000  0.500001  0.633970  1
