# generated using pymatgen
data_PrNdMoO6
_symmetry_space_group_name_H-M   'P 1'
_cell_length_a   10.27335678
_cell_length_b   10.27335653
_cell_length_c   5.61014358
_cell_angle_alpha   75.20467988
_cell_angle_beta   75.20467329
_cell_angle_gamma   68.65708924
_symmetry_Int_Tables_number   1
_chemical_formula_structural   PrNdMoO6
_chemical_formula_sum   'Pr4 Nd4 Mo4 O24'
_cell_volume   524.46751349
_cell_formula_units_Z   4
loop_
 _symmetry_equiv_pos_site_id
 _symmetry_equiv_pos_as_xyz
  1  'x, y, z'
loop_
 _atom_site_type_symbol
 _atom_site_label
 _atom_site_symmetry_multiplicity
 _atom_site_fract_x
 _atom_site_fract_y
 _atom_site_fract_z
 _atom_site_occupancy
  Pr  Pr0  1  0.711882  0.944714  0.882261  1
  Pr  Pr1  1  0.288118  0.055286  0.117739  1
  Pr  Pr2  1  0.055286  0.288118  0.617739  1
  Pr  Pr3  1  0.944714  0.711882  0.382261  1
  Nd  Nd4  1  0.632618  0.367382  0.750000  1
  Nd  Nd5  1  0.367382  0.632618  0.250000  1
  Nd  Nd6  1  0.109665  0.890335  0.750000  1
  Nd  Nd7  1  0.890335  0.109665  0.250000  1
  Mo  Mo8  1  0.508208  0.796365  0.560349  1
  Mo  Mo9  1  0.491792  0.203635  0.439651  1
  Mo  Mo10  1  0.203635  0.491792  0.939651  1
  Mo  Mo11  1  0.796365  0.508208  0.060349  1
  O  O12  1  0.686204  0.164852  0.582624  1
  O  O13  1  0.313796  0.835148  0.417376  1
  O  O14  1  0.835148  0.313796  0.917376  1
  O  O15  1  0.164852  0.686204  0.082624  1
  O  O16  1  0.386204  0.826001  0.861164  1
  O  O17  1  0.613796  0.173999  0.138836  1
  O  O18  1  0.173999  0.613796  0.638836  1
  O  O19  1  0.826001  0.386204  0.361164  1
  O  O20  1  0.675154  0.786784  0.636076  1
  O  O21  1  0.324846  0.213216  0.363924  1
  O  O22  1  0.213216  0.324846  0.863924  1
  O  O23  1  0.786784  0.675154  0.136076  1
  O  O24  1  0.474304  0.071545  0.731543  1
  O  O25  1  0.525696  0.928455  0.268457  1
  O  O26  1  0.928455  0.525696  0.768457  1
  O  O27  1  0.071545  0.474304  0.231543  1
  O  O28  1  0.545444  0.615311  0.519549  1
  O  O29  1  0.454556  0.384689  0.480451  1
  O  O30  1  0.384689  0.454556  0.980451  1
  O  O31  1  0.615311  0.545444  0.019549  1
  O  O32  1  0.892231  0.924432  0.079222  1
  O  O33  1  0.107769  0.075568  0.920778  1
  O  O34  1  0.075568  0.107769  0.420778  1
  O  O35  1  0.924432  0.892231  0.579222  1
