# generated using pymatgen
data_Y20NiHg6Os
_symmetry_space_group_name_H-M   'P 1'
_cell_length_a   9.68229500
_cell_length_b   9.68229610
_cell_length_c   9.62273900
_cell_angle_alpha   90.00000000
_cell_angle_beta   90.00000000
_cell_angle_gamma   119.99999281
_symmetry_Int_Tables_number   1
_chemical_formula_structural   Y20NiHg6Os
_chemical_formula_sum   'Y20 Ni1 Hg6 Os1'
_cell_volume   781.24282234
_cell_formula_units_Z   1
loop_
 _symmetry_equiv_pos_site_id
 _symmetry_equiv_pos_as_xyz
  1  'x, y, z'
loop_
 _atom_site_type_symbol
 _atom_site_label
 _atom_site_symmetry_multiplicity
 _atom_site_fract_x
 _atom_site_fract_y
 _atom_site_fract_z
 _atom_site_occupancy
  Y  Y0  1  0.000000  0.000000  0.499482  1
  Y  Y1  1  0.000000  0.000000  0.000518  1
  Y  Y2  1  0.540461  0.459539  0.250000  1
  Y  Y3  1  0.540461  0.080921  0.250000  1
  Y  Y4  1  0.919079  0.459539  0.250000  1
  Y  Y5  1  0.457103  0.542897  0.750000  1
  Y  Y6  1  0.457103  0.914207  0.750000  1
  Y  Y7  1  0.085793  0.542897  0.750000  1
  Y  Y8  1  0.208832  0.791168  0.439621  1
  Y  Y9  1  0.208832  0.417664  0.439621  1
  Y  Y10  1  0.582336  0.791168  0.439621  1
  Y  Y11  1  0.790216  0.209784  0.563875  1
  Y  Y12  1  0.790216  0.580432  0.563875  1
  Y  Y13  1  0.419568  0.209784  0.563875  1
  Y  Y14  1  0.790216  0.209784  0.936125  1
  Y  Y15  1  0.790216  0.580432  0.936125  1
  Y  Y16  1  0.419568  0.209784  0.936125  1
  Y  Y17  1  0.208832  0.791168  0.060379  1
  Y  Y18  1  0.208832  0.417664  0.060379  1
  Y  Y19  1  0.582336  0.791168  0.060379  1
  Ni  Ni20  1  0.666667  0.333333  0.750000  1
  Hg  Hg21  1  0.880673  0.119327  0.250000  1
  Hg  Hg22  1  0.880673  0.761346  0.250000  1
  Hg  Hg23  1  0.238654  0.119327  0.250000  1
  Hg  Hg24  1  0.119397  0.880603  0.750000  1
  Hg  Hg25  1  0.119397  0.238793  0.750000  1
  Hg  Hg26  1  0.761207  0.880603  0.750000  1
  Os  Os27  1  0.333333  0.666667  0.250000  1
