# generated using pymatgen
data_Tb2Y2TmIr2
_symmetry_space_group_name_H-M   'P 1'
_cell_length_a   6.49698082
_cell_length_b   7.20902118
_cell_length_c   8.54646737
_cell_angle_alpha   96.67622553
_cell_angle_beta   112.33972732
_cell_angle_gamma   89.99999486
_symmetry_Int_Tables_number   1
_chemical_formula_structural   Tb2Y2TmIr2
_chemical_formula_sum   'Tb4 Y4 Tm2 Ir4'
_cell_volume   367.31028581
_cell_formula_units_Z   2
loop_
 _symmetry_equiv_pos_site_id
 _symmetry_equiv_pos_as_xyz
  1  'x, y, z'
loop_
 _atom_site_type_symbol
 _atom_site_label
 _atom_site_symmetry_multiplicity
 _atom_site_fract_x
 _atom_site_fract_y
 _atom_site_fract_z
 _atom_site_occupancy
  Tb  Tb0  1  0.970425  0.918307  0.182792  1
  Tb  Tb1  1  0.787632  0.581693  0.817208  1
  Tb  Tb2  1  0.029575  0.081693  0.817208  1
  Tb  Tb3  1  0.212368  0.418307  0.182792  1
  Y  Y4  1  0.652005  0.817028  0.440354  1
  Y  Y5  1  0.211651  0.682972  0.559646  1
  Y  Y6  1  0.347995  0.182972  0.559646  1
  Y  Y7  1  0.788349  0.317028  0.440354  1
  Tm  Tm8  1  0.428821  0.750000  0.000000  1
  Tm  Tm9  1  0.571179  0.250000  0.000000  1
  Ir  Ir10  1  0.821713  0.573034  0.217005  1
  Ir  Ir11  1  0.604709  0.926966  0.782995  1
  Ir  Ir12  1  0.178288  0.426966  0.782995  1
  Ir  Ir13  1  0.395291  0.073034  0.217005  1
