# generated using pymatgen
data_SmThHgAu2
_symmetry_space_group_name_H-M   'P 1'
_cell_length_a   8.13699935
_cell_length_b   8.13699967
_cell_length_c   3.83220300
_cell_angle_alpha   90.00000000
_cell_angle_beta   90.00000000
_cell_angle_gamma   90.31929439
_symmetry_Int_Tables_number   1
_chemical_formula_structural   SmThHgAu2
_chemical_formula_sum   'Sm2 Th2 Hg2 Au4'
_cell_volume   253.72913714
_cell_formula_units_Z   2
loop_
 _symmetry_equiv_pos_site_id
 _symmetry_equiv_pos_as_xyz
  1  'x, y, z'
loop_
 _atom_site_type_symbol
 _atom_site_label
 _atom_site_symmetry_multiplicity
 _atom_site_fract_x
 _atom_site_fract_y
 _atom_site_fract_z
 _atom_site_occupancy
  Sm  Sm0  1  0.174049  0.325951  0.500000  1
  Sm  Sm1  1  0.825951  0.674049  0.500000  1
  Th  Th2  1  0.674623  0.174623  0.500000  1
  Th  Th3  1  0.325377  0.825377  0.500000  1
  Hg  Hg4  1  0.000000  0.000000  0.000000  1
  Hg  Hg5  1  0.500000  0.500000  0.000000  1
  Au  Au6  1  0.125397  0.625397  0.000000  1
  Au  Au7  1  0.874603  0.374603  0.000000  1
  Au  Au8  1  0.626462  0.873538  0.000000  1
  Au  Au9  1  0.373538  0.126462  0.000000  1
