# generated using pymatgen
data_Gd2Zn2Ag5
_symmetry_space_group_name_H-M   'P 1'
_cell_length_a   5.47078273
_cell_length_b   5.36389292
_cell_length_c   14.01466300
_cell_angle_alpha   90.00000000
_cell_angle_beta   90.00000000
_cell_angle_gamma   118.82949585
_symmetry_Int_Tables_number   1
_chemical_formula_structural   Gd2Zn2Ag5
_chemical_formula_sum   'Gd4 Zn4 Ag10'
_cell_volume   360.28432019
_cell_formula_units_Z   2
loop_
 _symmetry_equiv_pos_site_id
 _symmetry_equiv_pos_as_xyz
  1  'x, y, z'
loop_
 _atom_site_type_symbol
 _atom_site_label
 _atom_site_symmetry_multiplicity
 _atom_site_fract_x
 _atom_site_fract_y
 _atom_site_fract_z
 _atom_site_occupancy
  Gd  Gd0  1  0.320533  0.323643  0.118830  1
  Gd  Gd1  1  0.679467  0.676357  0.618830  1
  Gd  Gd2  1  0.320533  0.323643  0.381170  1
  Gd  Gd3  1  0.679467  0.676357  0.881170  1
  Zn  Zn4  1  0.830495  0.832188  0.250000  1
  Zn  Zn5  1  0.169505  0.167812  0.750000  1
  Zn  Zn6  1  0.828080  0.331685  0.250000  1
  Zn  Zn7  1  0.171920  0.668315  0.750000  1
  Ag  Ag8  1  0.332456  0.830119  0.250000  1
  Ag  Ag9  1  0.667544  0.169881  0.750000  1
  Ag  Ag10  1  0.975540  0.656356  0.078223  1
  Ag  Ag11  1  0.024460  0.343644  0.578223  1
  Ag  Ag12  1  0.671529  0.997068  0.423911  1
  Ag  Ag13  1  0.328471  0.002932  0.923911  1
  Ag  Ag14  1  0.024460  0.343644  0.921777  1
  Ag  Ag15  1  0.975540  0.656356  0.421777  1
  Ag  Ag16  1  0.328471  0.002932  0.576089  1
  Ag  Ag17  1  0.671529  0.997068  0.076089  1
