# generated using pymatgen
data_Er20Os4PdPt7
_symmetry_space_group_name_H-M   'P 1'
_cell_length_a   10.77807057
_cell_length_b   10.77807034
_cell_length_c   6.37882200
_cell_angle_alpha   90.05825229
_cell_angle_beta   90.05825229
_cell_angle_gamma   89.95202274
_symmetry_Int_Tables_number   1
_chemical_formula_structural   Er20Os4PdPt7
_chemical_formula_sum   'Er20 Os4 Pd1 Pt7'
_cell_volume   741.00633186
_cell_formula_units_Z   1
loop_
 _symmetry_equiv_pos_site_id
 _symmetry_equiv_pos_as_xyz
  1  'x, y, z'
loop_
 _atom_site_type_symbol
 _atom_site_label
 _atom_site_symmetry_multiplicity
 _atom_site_fract_x
 _atom_site_fract_y
 _atom_site_fract_z
 _atom_site_occupancy
  Er  Er0  1  0.295789  0.085445  0.368469  1
  Er  Er1  1  0.296250  0.914388  0.868067  1
  Er  Er2  1  0.702865  0.084978  0.865343  1
  Er  Er3  1  0.703080  0.912665  0.368629  1
  Er  Er4  1  0.585480  0.795886  0.868750  1
  Er  Er5  1  0.583792  0.204125  0.368465  1
  Er  Er6  1  0.414227  0.796170  0.367911  1
  Er  Er7  1  0.413906  0.203686  0.868373  1
  Er  Er8  1  0.204114  0.414520  0.631250  1
  Er  Er9  1  0.203830  0.585773  0.132089  1
  Er  Er10  1  0.795875  0.416208  0.131535  1
  Er  Er11  1  0.796314  0.586094  0.631627  1
  Er  Er12  1  0.914555  0.704211  0.131531  1
  Er  Er13  1  0.915022  0.297135  0.634657  1
  Er  Er14  1  0.085612  0.703750  0.631933  1
  Er  Er15  1  0.087335  0.296920  0.131371  1
  Er  Er16  1  0.000303  0.999603  0.499770  1
  Er  Er17  1  0.000397  0.999697  0.000230  1
  Er  Er18  1  0.499819  0.499774  0.999819  1
  Er  Er19  1  0.500226  0.500181  0.500181  1
  Os  Os20  1  0.500468  0.999849  0.121018  1
  Os  Os21  1  0.500148  0.999995  0.620570  1
  Os  Os22  1  0.000005  0.499852  0.879430  1
  Os  Os23  1  0.000151  0.499532  0.378982  1
  Pd  Pd24  1  0.845313  0.154687  0.250000  1
  Pt  Pt25  1  0.847167  0.847039  0.749933  1
  Pt  Pt26  1  0.152961  0.152833  0.750067  1
  Pt  Pt27  1  0.153529  0.846471  0.250000  1
  Pt  Pt28  1  0.653662  0.346338  0.750000  1
  Pt  Pt29  1  0.653675  0.652713  0.249353  1
  Pt  Pt30  1  0.347287  0.346325  0.250647  1
  Pt  Pt31  1  0.346842  0.653158  0.750000  1
