# generated using pymatgen
data_Tb3HoAl4IrPt3
_symmetry_space_group_name_H-M   'P 1'
_cell_length_a   4.42527701
_cell_length_b   6.85054182
_cell_length_c   7.81619289
_cell_angle_alpha   89.81704459
_cell_angle_beta   90.00021927
_cell_angle_gamma   89.99093549
_symmetry_Int_Tables_number   1
_chemical_formula_structural   Tb3HoAl4IrPt3
_chemical_formula_sum   'Tb3 Ho1 Al4 Ir1 Pt3'
_cell_volume   236.95093810
_cell_formula_units_Z   1
loop_
 _symmetry_equiv_pos_site_id
 _symmetry_equiv_pos_as_xyz
  1  'x, y, z'
loop_
 _atom_site_type_symbol
 _atom_site_label
 _atom_site_symmetry_multiplicity
 _atom_site_fract_x
 _atom_site_fract_y
 _atom_site_fract_z
 _atom_site_occupancy
  Tb  Tb0  1  0.250002  0.033888  0.678299  1
  Tb  Tb1  1  0.250002  0.530794  0.820360  1
  Tb  Tb2  1  0.750001  0.974269  0.319911  1
  Ho  Ho3  1  0.749997  0.466467  0.182477  1
  Al  Al4  1  0.250005  0.145796  0.064075  1
  Al  Al5  1  0.250001  0.638666  0.436596  1
  Al  Al6  1  0.749994  0.855266  0.939305  1
  Al  Al7  1  0.749999  0.356306  0.559824  1
  Ir  Ir8  1  0.249991  0.269712  0.380533  1
  Pt  Pt9  1  0.250011  0.771940  0.118019  1
  Pt  Pt10  1  0.750006  0.728617  0.618971  1
  Pt  Pt11  1  0.749992  0.228281  0.881629  1
