# generated using pymatgen
data_TmLu19(AlBi5)2
_symmetry_space_group_name_H-M   'P 1'
_cell_length_a   8.07746581
_cell_length_b   9.34983400
_cell_length_c   11.76828500
_cell_angle_alpha   90.00000000
_cell_angle_beta   90.02571316
_cell_angle_gamma   90.00000000
_symmetry_Int_Tables_number   1
_chemical_formula_structural   TmLu19(AlBi5)2
_chemical_formula_sum   'Tm1 Lu19 Al2 Bi10'
_cell_volume   888.77568073
_cell_formula_units_Z   1
loop_
 _symmetry_equiv_pos_site_id
 _symmetry_equiv_pos_as_xyz
  1  'x, y, z'
loop_
 _atom_site_type_symbol
 _atom_site_label
 _atom_site_symmetry_multiplicity
 _atom_site_fract_x
 _atom_site_fract_y
 _atom_site_fract_z
 _atom_site_occupancy
  Tm  Tm0  1  0.809359  0.250000  0.282317  1
  Lu  Lu1  1  0.353005  0.750000  0.206316  1
  Lu  Lu2  1  0.852840  0.750000  0.293248  1
  Lu  Lu3  1  0.653262  0.250000  0.781088  1
  Lu  Lu4  1  0.153365  0.250000  0.719487  1
  Lu  Lu5  1  0.686052  0.572698  0.056195  1
  Lu  Lu6  1  0.185482  0.927301  0.443725  1
  Lu  Lu7  1  0.307320  0.052753  0.941662  1
  Lu  Lu8  1  0.807433  0.447133  0.558402  1
  Lu  Lu9  1  0.307320  0.447247  0.941662  1
  Lu  Lu10  1  0.807433  0.052867  0.558402  1
  Lu  Lu11  1  0.686052  0.927302  0.056195  1
  Lu  Lu12  1  0.185482  0.572699  0.443725  1
  Lu  Lu13  1  0.479267  0.250000  0.490745  1
  Lu  Lu14  1  0.979487  0.250000  0.009358  1
  Lu  Lu15  1  0.535625  0.750000  0.509287  1
  Lu  Lu16  1  0.035831  0.750000  0.990782  1
  Lu  Lu17  1  0.309067  0.250000  0.216951  1
  Lu  Lu18  1  0.683611  0.750000  0.784481  1
  Lu  Lu19  1  0.183936  0.750000  0.715741  1
  Al  Al20  1  0.408497  0.750000  0.956602  1
  Al  Al21  1  0.908413  0.750000  0.543432  1
  Bi  Bi22  1  0.595470  0.250000  0.041203  1
  Bi  Bi23  1  0.096419  0.250000  0.459060  1
  Bi  Bi24  1  0.558569  0.997313  0.323419  1
  Bi  Bi25  1  0.060042  0.502688  0.176386  1
  Bi  Bi26  1  0.438255  0.498306  0.677411  1
  Bi  Bi27  1  0.938117  0.001649  0.822750  1
  Bi  Bi28  1  0.438255  0.001694  0.677411  1
  Bi  Bi29  1  0.938117  0.498351  0.822750  1
  Bi  Bi30  1  0.558569  0.502687  0.323419  1
  Bi  Bi31  1  0.060042  0.997312  0.176386  1
