# generated using pymatgen
data_Ta11NbIrPt3
_symmetry_space_group_name_H-M   'P 1'
_cell_length_a   5.18142100
_cell_length_b   5.19906300
_cell_length_c   10.39468200
_cell_angle_alpha   90.00000000
_cell_angle_beta   90.00000000
_cell_angle_gamma   90.00000000
_symmetry_Int_Tables_number   1
_chemical_formula_structural   Ta11NbIrPt3
_chemical_formula_sum   'Ta11 Nb1 Ir1 Pt3'
_cell_volume   280.01749664
_cell_formula_units_Z   1
loop_
 _symmetry_equiv_pos_site_id
 _symmetry_equiv_pos_as_xyz
  1  'x, y, z'
loop_
 _atom_site_type_symbol
 _atom_site_label
 _atom_site_symmetry_multiplicity
 _atom_site_fract_x
 _atom_site_fract_y
 _atom_site_fract_z
 _atom_site_occupancy
  Ta  Ta0  1  0.499538  0.000000  0.375244  1
  Ta  Ta1  1  0.499782  0.000000  0.874815  1
  Ta  Ta2  1  0.749368  0.500000  0.000000  1
  Ta  Ta3  1  0.751288  0.500000  0.500000  1
  Ta  Ta4  1  0.000467  0.750836  0.252710  1
  Ta  Ta5  1  0.000467  0.750836  0.747290  1
  Ta  Ta6  1  0.499782  0.000000  0.125185  1
  Ta  Ta7  1  0.499538  0.000000  0.624756  1
  Ta  Ta8  1  0.248877  0.500000  0.500000  1
  Ta  Ta9  1  0.000467  0.249164  0.252710  1
  Ta  Ta10  1  0.000467  0.249164  0.747290  1
  Nb  Nb11  1  0.250641  0.500000  0.000000  1
  Ir  Ir12  1  0.999440  0.000000  0.500000  1
  Pt  Pt13  1  0.501662  0.500000  0.250382  1
  Pt  Pt14  1  0.501662  0.500000  0.749618  1
  Pt  Pt15  1  0.996553  0.000000  0.000000  1
