# generated using pymatgen
data_NaSm(SiAu)2
_symmetry_space_group_name_H-M   'P 1'
_cell_length_a   5.68066731
_cell_length_b   5.68066767
_cell_length_c   5.68066818
_cell_angle_alpha   134.06323113
_cell_angle_beta   100.04088114
_cell_angle_gamma   97.48099921
_symmetry_Int_Tables_number   1
_chemical_formula_structural   NaSm(SiAu)2
_chemical_formula_sum   'Na1 Sm1 Si2 Au2'
_cell_volume   121.24094319
_cell_formula_units_Z   1
loop_
 _symmetry_equiv_pos_site_id
 _symmetry_equiv_pos_as_xyz
  1  'x, y, z'
loop_
 _atom_site_type_symbol
 _atom_site_label
 _atom_site_symmetry_multiplicity
 _atom_site_fract_x
 _atom_site_fract_y
 _atom_site_fract_z
 _atom_site_occupancy
  Na  Na0  1  0.284983  0.284983  0.000000  1
  Sm  Sm1  1  0.872103  0.372103  0.500000  1
  Si  Si2  1  0.484942  0.658880  0.826062  1
  Si  Si3  1  0.832819  0.658880  0.173938  1
  Au  Au4  1  0.274589  0.993476  0.281114  1
  Au  Au5  1  0.712362  0.993476  0.718886  1
