# generated using pymatgen
data_Dy8Sc12Si9Sn7
_symmetry_space_group_name_H-M   'P 1'
_cell_length_a   7.32848503
_cell_length_b   7.58651305
_cell_length_c   14.56067792
_cell_angle_alpha   90.02226423
_cell_angle_beta   89.79997953
_cell_angle_gamma   89.96497187
_symmetry_Int_Tables_number   1
_chemical_formula_structural   Dy8Sc12Si9Sn7
_chemical_formula_sum   'Dy8 Sc12 Si9 Sn7'
_cell_volume   809.53428933
_cell_formula_units_Z   1
loop_
 _symmetry_equiv_pos_site_id
 _symmetry_equiv_pos_as_xyz
  1  'x, y, z'
loop_
 _atom_site_type_symbol
 _atom_site_label
 _atom_site_symmetry_multiplicity
 _atom_site_fract_x
 _atom_site_fract_y
 _atom_site_fract_z
 _atom_site_occupancy
  Dy  Dy0  1  0.005008  0.167594  0.104085  1
  Dy  Dy1  1  0.007577  0.826658  0.896135  1
  Dy  Dy2  1  0.500777  0.680768  0.895638  1
  Dy  Dy3  1  0.004668  0.823816  0.608621  1
  Dy  Dy4  1  0.494564  0.318778  0.106059  1
  Dy  Dy5  1  0.996014  0.176477  0.390411  1
  Dy  Dy6  1  0.495226  0.323235  0.390106  1
  Dy  Dy7  1  0.504995  0.676172  0.609263  1
  Sc  Sc8  1  0.172312  0.500915  0.750568  1
  Sc  Sc9  1  0.828890  0.499002  0.248316  1
  Sc  Sc10  1  0.327003  0.001820  0.245416  1
  Sc  Sc11  1  0.672144  0.998491  0.751288  1
  Sc  Sc12  1  0.339987  0.165736  0.637402  1
  Sc  Sc13  1  0.659450  0.833708  0.362316  1
  Sc  Sc14  1  0.158573  0.666704  0.362108  1
  Sc  Sc15  1  0.651135  0.833170  0.134346  1
  Sc  Sc16  1  0.839765  0.334577  0.637984  1
  Sc  Sc17  1  0.336057  0.159047  0.869063  1
  Sc  Sc18  1  0.837419  0.332919  0.865003  1
  Sc  Sc19  1  0.169213  0.679942  0.130481  1
  Si  Si20  1  0.037439  0.119500  0.751148  1
  Si  Si21  1  0.960450  0.880146  0.248001  1
  Si  Si22  1  0.461852  0.616259  0.248752  1
  Si  Si23  1  0.534802  0.378864  0.753030  1
  Si  Si24  1  0.301679  0.864794  0.751461  1
  Si  Si25  1  0.700603  0.133237  0.247990  1
  Si  Si26  1  0.197836  0.368037  0.247511  1
  Si  Si27  1  0.802260  0.636433  0.752400  1
  Si  Si28  1  0.329679  0.961408  0.041579  1
  Sn  Sn29  1  0.180605  0.454594  0.537236  1
  Sn  Sn30  1  0.818639  0.544861  0.462252  1
  Sn  Sn31  1  0.319207  0.954633  0.461812  1
  Sn  Sn32  1  0.820195  0.543933  0.038467  1
  Sn  Sn33  1  0.680510  0.045761  0.537381  1
  Sn  Sn34  1  0.179106  0.454797  0.962579  1
  Sn  Sn35  1  0.674360  0.043210  0.963795  1
