# generated using pymatgen
data_Pr7Dy3(Sn3Br)2
_symmetry_space_group_name_H-M   'P 1'
_cell_length_a   9.47779500
_cell_length_b   9.47779504
_cell_length_c   6.78670800
_cell_angle_alpha   90.00000000
_cell_angle_beta   90.00000000
_cell_angle_gamma   120.00000335
_symmetry_Int_Tables_number   1
_chemical_formula_structural   Pr7Dy3(Sn3Br)2
_chemical_formula_sum   'Pr7 Dy3 Sn6 Br2'
_cell_volume   527.96411439
_cell_formula_units_Z   1
loop_
 _symmetry_equiv_pos_site_id
 _symmetry_equiv_pos_as_xyz
  1  'x, y, z'
loop_
 _atom_site_type_symbol
 _atom_site_label
 _atom_site_symmetry_multiplicity
 _atom_site_fract_x
 _atom_site_fract_y
 _atom_site_fract_z
 _atom_site_occupancy
  Pr  Pr0  1  0.267591  0.267561  0.749277  1
  Pr  Pr1  1  0.999970  0.732409  0.749277  1
  Pr  Pr2  1  0.732439  0.000030  0.749277  1
  Pr  Pr3  1  0.999970  0.267561  0.250723  1
  Pr  Pr4  1  0.732439  0.732409  0.250723  1
  Pr  Pr5  1  0.267591  0.000030  0.250723  1
  Pr  Pr6  1  0.666667  0.333333  0.000000  1
  Dy  Dy7  1  0.333333  0.666667  0.500000  1
  Dy  Dy8  1  0.666667  0.333333  0.500000  1
  Dy  Dy9  1  0.333333  0.666667  0.000000  1
  Sn  Sn10  1  0.608253  0.996339  0.252512  1
  Sn  Sn11  1  0.003661  0.391747  0.747488  1
  Sn  Sn12  1  0.388086  0.996339  0.747488  1
  Sn  Sn13  1  0.608253  0.611914  0.747488  1
  Sn  Sn14  1  0.003661  0.611914  0.252512  1
  Sn  Sn15  1  0.388086  0.391747  0.252512  1
  Br  Br16  1  0.000000  0.000000  0.000000  1
  Br  Br17  1  0.000000  0.000000  0.500000  1
