# generated using pymatgen
data_ErTm7Re3B24Rh
_symmetry_space_group_name_H-M   'P 1'
_cell_length_a   3.64208400
_cell_length_b   9.09649080
_cell_length_c   11.46592111
_cell_angle_alpha   90.14119322
_cell_angle_beta   90.00000000
_cell_angle_gamma   90.00000000
_symmetry_Int_Tables_number   1
_chemical_formula_structural   ErTm7Re3B24Rh
_chemical_formula_sum   'Er1 Tm7 Re3 B24 Rh1'
_cell_volume   379.86691823
_cell_formula_units_Z   1
loop_
 _symmetry_equiv_pos_site_id
 _symmetry_equiv_pos_as_xyz
  1  'x, y, z'
loop_
 _atom_site_type_symbol
 _atom_site_label
 _atom_site_symmetry_multiplicity
 _atom_site_fract_x
 _atom_site_fract_y
 _atom_site_fract_z
 _atom_site_occupancy
  Er  Er0  1  0.000000  0.317756  0.415448  1
  Tm  Tm1  1  0.000000  0.678773  0.591293  1
  Tm  Tm2  1  0.000000  0.826916  0.081092  1
  Tm  Tm3  1  0.000000  0.177654  0.912681  1
  Tm  Tm4  1  0.000000  0.943376  0.370335  1
  Tm  Tm5  1  0.000000  0.055683  0.628794  1
  Tm  Tm6  1  0.000000  0.441515  0.128659  1
  Tm  Tm7  1  0.000000  0.556602  0.871756  1
  Re  Re8  1  0.000000  0.362431  0.677828  1
  Re  Re9  1  0.000000  0.138255  0.179985  1
  Re  Re10  1  0.000000  0.861608  0.820817  1
  B  B11  1  0.500000  0.554099  0.434110  1
  B  B12  1  0.500000  0.446925  0.566266  1
  B  B13  1  0.500000  0.053223  0.066158  1
  B  B14  1  0.500000  0.947356  0.933114  1
  B  B15  1  0.500000  0.749498  0.420728  1
  B  B16  1  0.500000  0.249795  0.580673  1
  B  B17  1  0.500000  0.249977  0.080809  1
  B  B18  1  0.500000  0.750994  0.919343  1
  B  B19  1  0.500000  0.791635  0.264648  1
  B  B20  1  0.500000  0.207724  0.734494  1
  B  B21  1  0.500000  0.292555  0.235510  1
  B  B22  1  0.500000  0.707501  0.765490  1
  B  B23  1  0.500000  0.631882  0.183510  1
  B  B24  1  0.500000  0.369517  0.814804  1
  B  B25  1  0.500000  0.130553  0.315435  1
  B  B26  1  0.500000  0.868594  0.684847  1
  B  B27  1  0.500000  0.981903  0.212039  1
  B  B28  1  0.500000  0.018242  0.786994  1
  B  B29  1  0.500000  0.482771  0.287881  1
  B  B30  1  0.500000  0.518907  0.712489  1
  B  B31  1  0.500000  0.603379  0.029184  1
  B  B32  1  0.500000  0.397928  0.972258  1
  B  B33  1  0.500000  0.100946  0.471342  1
  B  B34  1  0.500000  0.895529  0.528069  1
  Rh  Rh35  1  0.000000  0.637995  0.321116  1
