# generated using pymatgen
data_PrTm2Co8P6Ru
_symmetry_space_group_name_H-M   'P 1'
_cell_length_a   3.73039500
_cell_length_b   10.59359100
_cell_length_c   12.30709700
_cell_angle_alpha   90.00000000
_cell_angle_beta   90.00000000
_cell_angle_gamma   90.00000000
_symmetry_Int_Tables_number   1
_chemical_formula_structural   PrTm2Co8P6Ru
_chemical_formula_sum   'Pr2 Tm4 Co16 P12 Ru2'
_cell_volume   486.35529168
_cell_formula_units_Z   2
loop_
 _symmetry_equiv_pos_site_id
 _symmetry_equiv_pos_as_xyz
  1  'x, y, z'
loop_
 _atom_site_type_symbol
 _atom_site_label
 _atom_site_symmetry_multiplicity
 _atom_site_fract_x
 _atom_site_fract_y
 _atom_site_fract_z
 _atom_site_occupancy
  Pr  Pr0  1  0.000000  0.500000  0.525505  1
  Pr  Pr1  1  0.500000  0.000000  0.474495  1
  Tm  Tm2  1  0.500000  0.816951  0.205319  1
  Tm  Tm3  1  0.500000  0.183049  0.205319  1
  Tm  Tm4  1  0.000000  0.683049  0.794681  1
  Tm  Tm5  1  0.000000  0.316951  0.794681  1
  Co  Co6  1  0.500000  0.500000  0.708084  1
  Co  Co7  1  0.000000  0.000000  0.291916  1
  Co  Co8  1  0.000000  0.500000  0.986560  1
  Co  Co9  1  0.500000  0.000000  0.013440  1
  Co  Co10  1  0.500000  0.332262  0.990337  1
  Co  Co11  1  0.500000  0.667738  0.990337  1
  Co  Co12  1  0.000000  0.167738  0.009663  1
  Co  Co13  1  0.000000  0.832262  0.009663  1
  Co  Co14  1  0.500000  0.296371  0.429090  1
  Co  Co15  1  0.500000  0.703629  0.429090  1
  Co  Co16  1  0.000000  0.203629  0.570910  1
  Co  Co17  1  0.000000  0.796371  0.570910  1
  Co  Co18  1  0.500000  0.878945  0.711075  1
  Co  Co19  1  0.500000  0.121055  0.711075  1
  Co  Co20  1  0.000000  0.621055  0.288925  1
  Co  Co21  1  0.000000  0.378945  0.288925  1
  P  P22  1  0.500000  0.500000  0.883091  1
  P  P23  1  0.000000  0.000000  0.116909  1
  P  P24  1  0.500000  0.500000  0.345368  1
  P  P25  1  0.000000  0.000000  0.654632  1
  P  P26  1  0.500000  0.307474  0.619159  1
  P  P27  1  0.500000  0.692526  0.619159  1
  P  P28  1  0.000000  0.192526  0.380841  1
  P  P29  1  0.000000  0.807474  0.380841  1
  P  P30  1  0.500000  0.845994  0.893896  1
  P  P31  1  0.500000  0.154006  0.893896  1
  P  P32  1  0.000000  0.654006  0.106104  1
  P  P33  1  0.000000  0.345994  0.106104  1
  Ru  Ru34  1  0.500000  0.500000  0.157104  1
  Ru  Ru35  1  0.000000  0.000000  0.842896  1
