# generated using pymatgen
data_Pr5TaRuO12
_symmetry_space_group_name_H-M   'P 1'
_cell_length_a   7.11190429
_cell_length_b   7.11190433
_cell_length_c   7.81483479
_cell_angle_alpha   74.09727384
_cell_angle_beta   74.09727183
_cell_angle_gamma   50.35218707
_symmetry_Int_Tables_number   1
_chemical_formula_structural   Pr5TaRuO12
_chemical_formula_sum   'Pr5 Ta1 Ru1 O12'
_cell_volume   290.06416220
_cell_formula_units_Z   1
loop_
 _symmetry_equiv_pos_site_id
 _symmetry_equiv_pos_as_xyz
  1  'x, y, z'
loop_
 _atom_site_type_symbol
 _atom_site_label
 _atom_site_symmetry_multiplicity
 _atom_site_fract_x
 _atom_site_fract_y
 _atom_site_fract_z
 _atom_site_occupancy
  Pr  Pr0  1  0.302788  0.310628  0.358304  1
  Pr  Pr1  1  0.689372  0.697212  0.641696  1
  Pr  Pr2  1  0.685554  0.695448  0.169079  1
  Pr  Pr3  1  0.304552  0.314446  0.830921  1
  Pr  Pr4  1  0.000017  0.999983  0.500000  1
  Ta  Ta5  1  0.785438  0.214562  0.000000  1
  Ru  Ru6  1  0.247814  0.752186  0.000000  1
  O  O7  1  0.092916  0.596449  0.577184  1
  O  O8  1  0.996811  0.001430  0.189379  1
  O  O9  1  0.403551  0.907084  0.422816  1
  O  O10  1  0.507942  0.492737  0.171019  1
  O  O11  1  0.095171  0.587626  0.079018  1
  O  O12  1  0.901400  0.408590  0.421864  1
  O  O13  1  0.998570  0.003189  0.810621  1
  O  O14  1  0.591410  0.098599  0.578136  1
  O  O15  1  0.507263  0.492058  0.828981  1
  O  O16  1  0.578819  0.101762  0.078803  1
  O  O17  1  0.412374  0.904829  0.920982  1
  O  O18  1  0.898238  0.421181  0.921197  1
