# generated using pymatgen
data_RbLa6OsBr12
_symmetry_space_group_name_H-M   'P 1'
_cell_length_a   9.76113972
_cell_length_b   9.75834920
_cell_length_c   9.75637004
_cell_angle_alpha   104.39911103
_cell_angle_beta   104.51437867
_cell_angle_gamma   104.70730137
_symmetry_Int_Tables_number   1
_chemical_formula_structural   RbLa6OsBr12
_chemical_formula_sum   'Rb1 La6 Os1 Br12'
_cell_volume   820.35703876
_cell_formula_units_Z   1
loop_
 _symmetry_equiv_pos_site_id
 _symmetry_equiv_pos_as_xyz
  1  'x, y, z'
loop_
 _atom_site_type_symbol
 _atom_site_label
 _atom_site_symmetry_multiplicity
 _atom_site_fract_x
 _atom_site_fract_y
 _atom_site_fract_z
 _atom_site_occupancy
  Rb  Rb0  1  0.500000  0.500000  0.500000  1
  La  La1  1  0.102716  0.304400  0.008451  1
  La  La2  1  0.307425  0.009557  0.103181  1
  La  La3  1  0.008749  0.102672  0.305299  1
  La  La4  1  0.991251  0.897329  0.694701  1
  La  La5  1  0.692575  0.990444  0.896819  1
  La  La6  1  0.897284  0.695600  0.991549  1
  Os  Os7  1  0.000000  0.000000  0.000000  1
  Br  Br8  1  0.211242  0.671522  0.072331  1
  Br  Br9  1  0.426581  0.334177  0.118724  1
  Br  Br10  1  0.670878  0.073501  0.210571  1
  Br  Br11  1  0.929153  0.789654  0.329091  1
  Br  Br12  1  0.117963  0.425734  0.332137  1
  Br  Br13  1  0.332885  0.117759  0.424948  1
  Br  Br14  1  0.667115  0.882241  0.575053  1
  Br  Br15  1  0.882037  0.574266  0.667863  1
  Br  Br16  1  0.070847  0.210346  0.670910  1
  Br  Br17  1  0.329122  0.926499  0.789429  1
  Br  Br18  1  0.573419  0.665823  0.881277  1
  Br  Br19  1  0.788758  0.328479  0.927669  1
