# generated using pymatgen
data_Tb7Er(Ge4Mo3)4
_symmetry_space_group_name_H-M   'P 1'
_cell_length_a   6.95556122
_cell_length_b   7.06483616
_cell_length_c   13.18694343
_cell_angle_alpha   89.97901244
_cell_angle_beta   89.97527344
_cell_angle_gamma   90.03568640
_symmetry_Int_Tables_number   1
_chemical_formula_structural   Tb7Er(Ge4Mo3)4
_chemical_formula_sum   'Tb7 Er1 Ge16 Mo12'
_cell_volume   648.00485690
_cell_formula_units_Z   1
loop_
 _symmetry_equiv_pos_site_id
 _symmetry_equiv_pos_as_xyz
  1  'x, y, z'
loop_
 _atom_site_type_symbol
 _atom_site_label
 _atom_site_symmetry_multiplicity
 _atom_site_fract_x
 _atom_site_fract_y
 _atom_site_fract_z
 _atom_site_occupancy
  Tb  Tb0  1  0.489820  0.330867  0.092374  1
  Tb  Tb1  1  0.989964  0.169138  0.407783  1
  Tb  Tb2  1  0.510258  0.668956  0.592382  1
  Tb  Tb3  1  0.009914  0.830833  0.908022  1
  Tb  Tb4  1  0.509941  0.669309  0.908014  1
  Tb  Tb5  1  0.010137  0.830780  0.592368  1
  Tb  Tb6  1  0.489740  0.330919  0.407182  1
  Er  Er7  1  0.988867  0.170052  0.092478  1
  Ge  Ge8  1  0.668502  0.047352  0.548398  1
  Ge  Ge9  1  0.168251  0.452289  0.952038  1
  Ge  Ge10  1  0.329829  0.953846  0.048645  1
  Ge  Ge11  1  0.831500  0.547308  0.451468  1
  Ge  Ge12  1  0.331655  0.952570  0.451400  1
  Ge  Ge13  1  0.831863  0.546080  0.048526  1
  Ge  Ge14  1  0.669121  0.047200  0.952076  1
  Ge  Ge15  1  0.168645  0.452743  0.548371  1
  Ge  Ge16  1  0.530303  0.365811  0.750240  1
  Ge  Ge17  1  0.030171  0.133702  0.750052  1
  Ge  Ge18  1  0.469976  0.634411  0.249787  1
  Ge  Ge19  1  0.970226  0.866985  0.249508  1
  Ge  Ge20  1  0.810950  0.642529  0.750272  1
  Ge  Ge21  1  0.310837  0.856968  0.750153  1
  Ge  Ge22  1  0.188143  0.356322  0.249270  1
  Ge  Ge23  1  0.690126  0.143110  0.249535  1
  Mo  Mo24  1  0.830509  0.343781  0.627322  1
  Mo  Mo25  1  0.330089  0.156016  0.873035  1
  Mo  Mo26  1  0.169593  0.656121  0.127183  1
  Mo  Mo27  1  0.670009  0.844167  0.372494  1
  Mo  Mo28  1  0.169464  0.656030  0.372369  1
  Mo  Mo29  1  0.670326  0.844407  0.126897  1
  Mo  Mo30  1  0.830701  0.343277  0.873206  1
  Mo  Mo31  1  0.330502  0.156003  0.627255  1
  Mo  Mo32  1  0.665934  0.005444  0.750226  1
  Mo  Mo33  1  0.166059  0.494091  0.750173  1
  Mo  Mo34  1  0.333916  0.994900  0.249708  1
  Mo  Mo35  1  0.834160  0.505682  0.249788  1
