# generated using pymatgen
data_Er2Nb3Si4
_symmetry_space_group_name_H-M   'P 1'
_cell_length_a   7.04594106
_cell_length_b   7.04596222
_cell_length_c   13.00736314
_cell_angle_alpha   90.00079134
_cell_angle_beta   90.00507058
_cell_angle_gamma   90.00019139
_symmetry_Int_Tables_number   1
_chemical_formula_structural   Er2Nb3Si4
_chemical_formula_sum   'Er8 Nb12 Si16'
_cell_volume   645.75619210
_cell_formula_units_Z   4
loop_
 _symmetry_equiv_pos_site_id
 _symmetry_equiv_pos_as_xyz
  1  'x, y, z'
loop_
 _atom_site_type_symbol
 _atom_site_label
 _atom_site_symmetry_multiplicity
 _atom_site_fract_x
 _atom_site_fract_y
 _atom_site_fract_z
 _atom_site_occupancy
  Er  Er0  1  0.342347  0.001700  0.467690  1
  Er  Er1  1  0.498273  0.842360  0.717658  1
  Er  Er2  1  0.501652  0.157644  0.217685  1
  Er  Er3  1  0.842297  0.498320  0.282320  1
  Er  Er4  1  0.157691  0.501734  0.782317  1
  Er  Er5  1  0.657622  0.998281  0.967670  1
  Er  Er6  1  0.001739  0.342401  0.532316  1
  Er  Er7  1  0.998328  0.657788  0.032358  1
  Nb  Nb8  1  0.506724  0.347102  0.623604  1
  Nb  Nb9  1  0.652872  0.493427  0.876407  1
  Nb  Nb10  1  0.347050  0.506695  0.376360  1
  Nb  Nb11  1  0.847115  0.993342  0.373632  1
  Nb  Nb12  1  0.006692  0.152755  0.126361  1
  Nb  Nb13  1  0.993439  0.847121  0.626437  1
  Nb  Nb14  1  0.328011  0.328052  0.000022  1
  Nb  Nb15  1  0.171925  0.827915  0.249946  1
  Nb  Nb16  1  0.828039  0.171949  0.750079  1
  Nb  Nb17  1  0.671948  0.672026  0.500033  1
  Nb  Nb18  1  0.152900  0.006765  0.873552  1
  Nb  Nb19  1  0.493296  0.652813  0.123618  1
  Si  Si20  1  0.204331  0.134515  0.681687  1
  Si  Si21  1  0.365483  0.704294  0.931696  1
  Si  Si22  1  0.634492  0.295676  0.431706  1
  Si  Si23  1  0.704327  0.365452  0.068292  1
  Si  Si24  1  0.295733  0.634487  0.568274  1
  Si  Si25  1  0.795646  0.865498  0.181743  1
  Si  Si26  1  0.134444  0.204262  0.318267  1
  Si  Si27  1  0.865521  0.795692  0.818278  1
  Si  Si28  1  0.293943  0.953938  0.063381  1
  Si  Si29  1  0.546041  0.793888  0.313404  1
  Si  Si30  1  0.453990  0.206108  0.813391  1
  Si  Si31  1  0.793952  0.546020  0.686607  1
  Si  Si32  1  0.206001  0.453887  0.186588  1
  Si  Si33  1  0.706150  0.046039  0.563441  1
  Si  Si34  1  0.953951  0.293965  0.936600  1
  Si  Si35  1  0.046040  0.706089  0.436579  1
