# generated using pymatgen
data_Hf5CN4
_symmetry_space_group_name_H-M   'P 1'
_cell_length_a   13.23441520
_cell_length_b   13.23441538
_cell_length_c   13.23441556
_cell_angle_alpha   14.03776972
_cell_angle_beta   14.03776675
_cell_angle_gamma   14.03776893
_symmetry_Int_Tables_number   1
_chemical_formula_structural   Hf5CN4
_chemical_formula_sum   'Hf5 C1 N4'
_cell_volume   118.70127276
_cell_formula_units_Z   1
loop_
 _symmetry_equiv_pos_site_id
 _symmetry_equiv_pos_as_xyz
  1  'x, y, z'
loop_
 _atom_site_type_symbol
 _atom_site_label
 _atom_site_symmetry_multiplicity
 _atom_site_fract_x
 _atom_site_fract_y
 _atom_site_fract_z
 _atom_site_occupancy
  Hf  Hf0  1  0.600963  0.600963  0.600963  1
  Hf  Hf1  1  0.000000  0.000000  0.000000  1
  Hf  Hf2  1  0.399037  0.399037  0.399037  1
  Hf  Hf3  1  0.199823  0.199823  0.199823  1
  Hf  Hf4  1  0.800177  0.800177  0.800177  1
  C  C5  1  0.500000  0.500000  0.500000  1
  N  N6  1  0.098843  0.098843  0.098843  1
  N  N7  1  0.700143  0.700143  0.700143  1
  N  N8  1  0.299857  0.299857  0.299857  1
  N  N9  1  0.901157  0.901157  0.901157  1
