# generated using pymatgen
data_LiPr8CdIr2
_symmetry_space_group_name_H-M   'P 1'
_cell_length_a   10.06799668
_cell_length_b   10.06799598
_cell_length_c   10.05088900
_cell_angle_alpha   60.05619465
_cell_angle_beta   60.05619693
_cell_angle_gamma   60.02004653
_symmetry_Int_Tables_number   1
_chemical_formula_structural   LiPr8CdIr2
_chemical_formula_sum   'Li2 Pr16 Cd2 Ir4'
_cell_volume   721.12376567
_cell_formula_units_Z   2
loop_
 _symmetry_equiv_pos_site_id
 _symmetry_equiv_pos_as_xyz
  1  'x, y, z'
loop_
 _atom_site_type_symbol
 _atom_site_label
 _atom_site_symmetry_multiplicity
 _atom_site_fract_x
 _atom_site_fract_y
 _atom_site_fract_z
 _atom_site_occupancy
  Li  Li0  1  0.572042  0.572042  0.576602  1
  Li  Li1  1  0.572042  0.572042  0.279313  1
  Pr  Pr2  1  0.347534  0.347534  0.348713  1
  Pr  Pr3  1  0.347534  0.347534  0.956219  1
  Pr  Pr4  1  0.346665  0.960218  0.346558  1
  Pr  Pr5  1  0.960218  0.346665  0.346558  1
  Pr  Pr6  1  0.811300  0.189065  0.189822  1
  Pr  Pr7  1  0.189065  0.811300  0.809813  1
  Pr  Pr8  1  0.189065  0.811300  0.189822  1
  Pr  Pr9  1  0.811300  0.189065  0.809813  1
  Pr  Pr10  1  0.191969  0.191969  0.808031  1
  Pr  Pr11  1  0.814700  0.814700  0.185300  1
  Pr  Pr12  1  0.938839  0.561775  0.561962  1
  Pr  Pr13  1  0.561775  0.938839  0.937424  1
  Pr  Pr14  1  0.561775  0.938839  0.561962  1
  Pr  Pr15  1  0.938839  0.561775  0.937424  1
  Pr  Pr16  1  0.562180  0.562180  0.937820  1
  Pr  Pr17  1  0.938622  0.938622  0.561378  1
  Cd  Cd18  1  0.582169  0.258636  0.579597  1
  Cd  Cd19  1  0.258636  0.582169  0.579597  1
  Ir  Ir20  1  0.142167  0.142167  0.140466  1
  Ir  Ir21  1  0.142167  0.142167  0.575199  1
  Ir  Ir22  1  0.143410  0.575984  0.140303  1
  Ir  Ir23  1  0.575984  0.143410  0.140303  1
