# generated using pymatgen
data_Hf18Cr2Re6AsS
_symmetry_space_group_name_H-M   'P 1'
_cell_length_a   8.59485901
_cell_length_b   8.59485841
_cell_length_c   8.49745300
_cell_angle_alpha   90.00000000
_cell_angle_beta   90.00000000
_cell_angle_gamma   119.99790306
_symmetry_Int_Tables_number   1
_chemical_formula_structural   Hf18Cr2Re6AsS
_chemical_formula_sum   'Hf18 Cr2 Re6 As1 S1'
_cell_volume   543.63331379
_cell_formula_units_Z   1
loop_
 _symmetry_equiv_pos_site_id
 _symmetry_equiv_pos_as_xyz
  1  'x, y, z'
loop_
 _atom_site_type_symbol
 _atom_site_label
 _atom_site_symmetry_multiplicity
 _atom_site_fract_x
 _atom_site_fract_y
 _atom_site_fract_z
 _atom_site_occupancy
  Hf  Hf0  1  0.805769  0.611535  0.551217  1
  Hf  Hf1  1  0.805730  0.194270  0.551220  1
  Hf  Hf2  1  0.388465  0.194231  0.551217  1
  Hf  Hf3  1  0.190127  0.380266  0.451311  1
  Hf  Hf4  1  0.190165  0.809835  0.451319  1
  Hf  Hf5  1  0.619734  0.809873  0.451311  1
  Hf  Hf6  1  0.190127  0.380266  0.048689  1
  Hf  Hf7  1  0.190165  0.809835  0.048681  1
  Hf  Hf8  1  0.619734  0.809873  0.048689  1
  Hf  Hf9  1  0.805769  0.611535  0.948783  1
  Hf  Hf10  1  0.805730  0.194270  0.948780  1
  Hf  Hf11  1  0.388465  0.194231  0.948783  1
  Hf  Hf12  1  0.455236  0.910441  0.750000  1
  Hf  Hf13  1  0.455202  0.544798  0.750000  1
  Hf  Hf14  1  0.089559  0.544764  0.750000  1
  Hf  Hf15  1  0.542021  0.084040  0.250000  1
  Hf  Hf16  1  0.542018  0.457982  0.250000  1
  Hf  Hf17  1  0.915960  0.457979  0.250000  1
  Cr  Cr18  1  0.999986  0.000014  0.500186  1
  Cr  Cr19  1  0.999986  0.000014  0.999814  1
  Re  Re20  1  0.107323  0.214663  0.750000  1
  Re  Re21  1  0.107346  0.892654  0.750000  1
  Re  Re22  1  0.785337  0.892677  0.750000  1
  Re  Re23  1  0.892268  0.784489  0.250000  1
  Re  Re24  1  0.892248  0.107752  0.250000  1
  Re  Re25  1  0.215511  0.107732  0.250000  1
  As  As26  1  0.333378  0.666622  0.250000  1
  S  S27  1  0.666642  0.333358  0.750000  1
