# generated using pymatgen
data_SmFeNi4P3
_symmetry_space_group_name_H-M   'P 1'
_cell_length_a   3.73094400
_cell_length_b   10.38317100
_cell_length_c   11.94537400
_cell_angle_alpha   90.00000000
_cell_angle_beta   90.00000000
_cell_angle_gamma   90.00000000
_symmetry_Int_Tables_number   1
_chemical_formula_structural   SmFeNi4P3
_chemical_formula_sum   'Sm4 Fe4 Ni16 P12'
_cell_volume   462.75219629
_cell_formula_units_Z   4
loop_
 _symmetry_equiv_pos_site_id
 _symmetry_equiv_pos_as_xyz
  1  'x, y, z'
loop_
 _atom_site_type_symbol
 _atom_site_label
 _atom_site_symmetry_multiplicity
 _atom_site_fract_x
 _atom_site_fract_y
 _atom_site_fract_z
 _atom_site_occupancy
  Sm  Sm0  1  0.250000  0.579854  0.704109  1
  Sm  Sm1  1  0.250000  0.920146  0.204109  1
  Sm  Sm2  1  0.750000  0.420146  0.295891  1
  Sm  Sm3  1  0.750000  0.079854  0.795891  1
  Fe  Fe4  1  0.250000  0.464483  0.932426  1
  Fe  Fe5  1  0.250000  0.035517  0.432426  1
  Fe  Fe6  1  0.750000  0.535517  0.067574  1
  Fe  Fe7  1  0.750000  0.964483  0.567574  1
  Ni  Ni8  1  0.250000  0.712502  0.994862  1
  Ni  Ni9  1  0.250000  0.787498  0.494862  1
  Ni  Ni10  1  0.750000  0.287498  0.005138  1
  Ni  Ni11  1  0.750000  0.212502  0.505138  1
  Ni  Ni12  1  0.250000  0.406724  0.488831  1
  Ni  Ni13  1  0.250000  0.093276  0.988831  1
  Ni  Ni14  1  0.750000  0.593276  0.511169  1
  Ni  Ni15  1  0.750000  0.906724  0.011169  1
  Ni  Ni16  1  0.250000  0.224804  0.176081  1
  Ni  Ni17  1  0.250000  0.275196  0.676081  1
  Ni  Ni18  1  0.750000  0.775196  0.823919  1
  Ni  Ni19  1  0.750000  0.724804  0.323919  1
  Ni  Ni20  1  0.250000  0.877247  0.700715  1
  Ni  Ni21  1  0.250000  0.622753  0.200715  1
  Ni  Ni22  1  0.750000  0.122753  0.299285  1
  Ni  Ni23  1  0.750000  0.377247  0.799285  1
  P  P24  1  0.250000  0.426027  0.110588  1
  P  P25  1  0.250000  0.073973  0.610588  1
  P  P26  1  0.750000  0.573973  0.889412  1
  P  P27  1  0.750000  0.926027  0.389412  1
  P  P28  1  0.250000  0.271605  0.869096  1
  P  P29  1  0.250000  0.228395  0.369096  1
  P  P30  1  0.750000  0.728395  0.130904  1
  P  P31  1  0.750000  0.771605  0.630904  1
  P  P32  1  0.250000  0.606121  0.394021  1
  P  P33  1  0.250000  0.893879  0.894021  1
  P  P34  1  0.750000  0.393879  0.605979  1
  P  P35  1  0.750000  0.106121  0.105979  1
