# generated using pymatgen
data_Zr6GaBiC4
_symmetry_space_group_name_H-M   'P 1'
_cell_length_a   3.38877700
_cell_length_b   3.38877728
_cell_length_c   19.83833700
_cell_angle_alpha   90.00000000
_cell_angle_beta   90.00000000
_cell_angle_gamma   120.00000707
_symmetry_Int_Tables_number   1
_chemical_formula_structural   Zr6GaBiC4
_chemical_formula_sum   'Zr6 Ga1 Bi1 C4'
_cell_volume   197.29763587
_cell_formula_units_Z   1
loop_
 _symmetry_equiv_pos_site_id
 _symmetry_equiv_pos_as_xyz
  1  'x, y, z'
loop_
 _atom_site_type_symbol
 _atom_site_label
 _atom_site_symmetry_multiplicity
 _atom_site_fract_x
 _atom_site_fract_y
 _atom_site_fract_z
 _atom_site_occupancy
  Zr  Zr0  1  0.000000  0.000000  0.995554  1
  Zr  Zr1  1  0.333333  0.666667  0.124818  1
  Zr  Zr2  1  0.333333  0.666667  0.375182  1
  Zr  Zr3  1  0.000000  0.000000  0.504446  1
  Zr  Zr4  1  0.666667  0.333335  0.634788  1
  Zr  Zr5  1  0.666667  0.333335  0.865212  1
  Ga  Ga6  1  0.000000  0.000000  0.750000  1
  Bi  Bi7  1  0.000000  0.000000  0.250000  1
  C  C8  1  0.666667  0.333335  0.065868  1
  C  C9  1  0.666667  0.333335  0.434132  1
  C  C10  1  0.333333  0.666667  0.575613  1
  C  C11  1  0.333333  0.666667  0.924387  1
