# generated using pymatgen
data_Nd3Ho(Lu4Bi3)4
_symmetry_space_group_name_H-M   'P 1'
_cell_length_a   8.22539369
_cell_length_b   9.39906400
_cell_length_c   11.94037099
_cell_angle_alpha   90.00000000
_cell_angle_beta   89.95330067
_cell_angle_gamma   90.00000000
_symmetry_Int_Tables_number   1
_chemical_formula_structural   Nd3Ho(Lu4Bi3)4
_chemical_formula_sum   'Nd3 Ho1 Lu16 Bi12'
_cell_volume   923.12173483
_cell_formula_units_Z   1
loop_
 _symmetry_equiv_pos_site_id
 _symmetry_equiv_pos_as_xyz
  1  'x, y, z'
loop_
 _atom_site_type_symbol
 _atom_site_label
 _atom_site_symmetry_multiplicity
 _atom_site_fract_x
 _atom_site_fract_y
 _atom_site_fract_z
 _atom_site_occupancy
  Nd  Nd0  1  0.315196  0.250000  0.218566  1
  Nd  Nd1  1  0.815136  0.250000  0.281315  1
  Nd  Nd2  1  0.685383  0.750000  0.781615  1
  Ho  Ho3  1  0.185906  0.750000  0.717380  1
  Lu  Lu4  1  0.352745  0.750000  0.218800  1
  Lu  Lu5  1  0.853400  0.750000  0.281513  1
  Lu  Lu6  1  0.646611  0.250000  0.780968  1
  Lu  Lu7  1  0.146785  0.250000  0.718894  1
  Lu  Lu8  1  0.691447  0.567580  0.060854  1
  Lu  Lu9  1  0.192264  0.932204  0.439556  1
  Lu  Lu10  1  0.308214  0.067518  0.938735  1
  Lu  Lu11  1  0.807754  0.432237  0.560952  1
  Lu  Lu12  1  0.308214  0.432482  0.938735  1
  Lu  Lu13  1  0.807754  0.067763  0.560952  1
  Lu  Lu14  1  0.691447  0.932420  0.060854  1
  Lu  Lu15  1  0.192264  0.567796  0.439556  1
  Lu  Lu16  1  0.477215  0.250000  0.490572  1
  Lu  Lu17  1  0.977865  0.250000  0.009692  1
  Lu  Lu18  1  0.522220  0.750000  0.510696  1
  Lu  Lu19  1  0.022455  0.750000  0.989537  1
  Bi  Bi20  1  0.399186  0.750000  0.961704  1
  Bi  Bi21  1  0.904648  0.750000  0.539475  1
  Bi  Bi22  1  0.599125  0.250000  0.036649  1
  Bi  Bi23  1  0.098489  0.250000  0.463082  1
  Bi  Bi24  1  0.565313  0.990567  0.327822  1
  Bi  Bi25  1  0.064990  0.508987  0.172611  1
  Bi  Bi26  1  0.431322  0.493168  0.672960  1
  Bi  Bi27  1  0.937513  0.007071  0.826280  1
  Bi  Bi28  1  0.431322  0.006832  0.672960  1
  Bi  Bi29  1  0.937513  0.492929  0.826280  1
  Bi  Bi30  1  0.565313  0.509433  0.327822  1
  Bi  Bi31  1  0.064990  0.991013  0.172611  1
