# generated using pymatgen
data_KRbFe2Ni2(PO4)4
_symmetry_space_group_name_H-M   'P 1'
_cell_length_a   14.63966200
_cell_length_b   5.16816380
_cell_length_c   9.32675500
_cell_angle_alpha   75.29505575
_cell_angle_beta   90.00000000
_cell_angle_gamma   90.00000000
_symmetry_Int_Tables_number   1
_chemical_formula_structural   KRbFe2Ni2(PO4)4
_chemical_formula_sum   'K2 Rb2 Fe4 Ni4 P8 O32'
_cell_volume   682.55046108
_cell_formula_units_Z   2
loop_
 _symmetry_equiv_pos_site_id
 _symmetry_equiv_pos_as_xyz
  1  'x, y, z'
loop_
 _atom_site_type_symbol
 _atom_site_label
 _atom_site_symmetry_multiplicity
 _atom_site_fract_x
 _atom_site_fract_y
 _atom_site_fract_z
 _atom_site_occupancy
  K  K0  1  0.676863  0.815838  0.813659  1
  K  K1  1  0.176863  0.184162  0.686341  1
  Rb  Rb2  1  0.324171  0.197850  0.187083  1
  Rb  Rb3  1  0.824171  0.802150  0.312917  1
  Fe  Fe4  1  0.128744  0.771780  0.382994  1
  Fe  Fe5  1  0.628744  0.228220  0.117006  1
  Fe  Fe6  1  0.871277  0.226416  0.617446  1
  Fe  Fe7  1  0.371277  0.773584  0.882554  1
  Ni  Ni8  1  0.044917  0.243519  0.038679  1
  Ni  Ni9  1  0.544917  0.756481  0.461321  1
  Ni  Ni10  1  0.954981  0.757049  0.961078  1
  Ni  Ni11  1  0.454981  0.242951  0.538922  1
  P  P12  1  0.170757  0.743886  0.036528  1
  P  P13  1  0.670757  0.256114  0.463472  1
  P  P14  1  0.828386  0.258907  0.961272  1
  P  P15  1  0.328386  0.741093  0.538728  1
  P  P16  1  0.006822  0.308395  0.321423  1
  P  P17  1  0.506822  0.691605  0.178577  1
  P  P18  1  0.994048  0.691073  0.679926  1
  P  P19  1  0.494048  0.308927  0.820074  1
  O  O20  1  0.244197  0.877371  0.447787  1
  O  O21  1  0.744197  0.122629  0.052213  1
  O  O22  1  0.754957  0.119199  0.554407  1
  O  O23  1  0.254957  0.880801  0.945593  1
  O  O24  1  0.187893  0.761699  0.197335  1
  O  O25  1  0.687893  0.238301  0.302665  1
  O  O26  1  0.810846  0.237170  0.801346  1
  O  O27  1  0.310846  0.762830  0.698654  1
  O  O28  1  0.085880  0.919209  0.968537  1
  O  O29  1  0.585880  0.080791  0.531463  1
  O  O30  1  0.913507  0.084814  0.029059  1
  O  O31  1  0.413507  0.915186  0.470941  1
  O  O32  1  0.162820  0.452617  0.027341  1
  O  O33  1  0.662820  0.547383  0.472659  1
  O  O34  1  0.835979  0.551239  0.969314  1
  O  O35  1  0.335979  0.448761  0.530686  1
  O  O36  1  0.986885  0.504856  0.170518  1
  O  O37  1  0.486885  0.495144  0.329482  1
  O  O38  1  0.013691  0.495504  0.830948  1
  O  O39  1  0.513691  0.504496  0.669052  1
  O  O40  1  0.047783  0.057232  0.276171  1
  O  O41  1  0.547783  0.942768  0.223829  1
  O  O42  1  0.952442  0.942332  0.724579  1
  O  O43  1  0.452442  0.057668  0.775421  1
  O  O44  1  0.079504  0.413449  0.413635  1
  O  O45  1  0.579504  0.586551  0.086365  1
  O  O46  1  0.921789  0.583579  0.588540  1
  O  O47  1  0.421789  0.416421  0.911460  1
  O  O48  1  0.919534  0.226909  0.413443  1
  O  O49  1  0.419534  0.773091  0.086557  1
  O  O50  1  0.081328  0.774630  0.588053  1
  O  O51  1  0.581328  0.225370  0.911947  1
