# generated using pymatgen
data_TbHf7Ta5Ti5(Si8W)2
_symmetry_space_group_name_H-M   'P 1'
_cell_length_a   6.85277442
_cell_length_b   6.85890374
_cell_length_c   12.63375800
_cell_angle_alpha   89.95944381
_cell_angle_beta   89.97988353
_cell_angle_gamma   89.94624776
_symmetry_Int_Tables_number   1
_chemical_formula_structural   TbHf7Ta5Ti5(Si8W)2
_chemical_formula_sum   'Tb1 Hf7 Ta5 Ti5 Si16 W2'
_cell_volume   593.81801755
_cell_formula_units_Z   1
loop_
 _symmetry_equiv_pos_site_id
 _symmetry_equiv_pos_as_xyz
  1  'x, y, z'
loop_
 _atom_site_type_symbol
 _atom_site_label
 _atom_site_symmetry_multiplicity
 _atom_site_fract_x
 _atom_site_fract_y
 _atom_site_fract_z
 _atom_site_occupancy
  Tb  Tb0  1  0.998027  0.661247  0.031066  1
  Hf  Hf1  1  0.341765  0.997797  0.469882  1
  Hf  Hf2  1  0.500454  0.843584  0.718218  1
  Hf  Hf3  1  0.496047  0.158908  0.221726  1
  Hf  Hf4  1  0.841463  0.502919  0.281228  1
  Hf  Hf5  1  0.161068  0.496177  0.779772  1
  Hf  Hf6  1  0.653661  0.002193  0.969976  1
  Hf  Hf7  1  0.998867  0.341911  0.529246  1
  Ta  Ta8  1  0.830654  0.169721  0.748987  1
  Ta  Ta9  1  0.669792  0.669518  0.499209  1
  Ta  Ta10  1  0.155715  0.002290  0.872246  1
  Ta  Ta11  1  0.496309  0.652240  0.124635  1
  Ta  Ta12  1  0.502765  0.347323  0.623348  1
  Ti  Ti13  1  0.652077  0.492199  0.874838  1
  Ti  Ti14  1  0.348180  0.502994  0.376420  1
  Ti  Ti15  1  0.847977  0.996123  0.374332  1
  Ti  Ti16  1  0.006078  0.153157  0.127754  1
  Ti  Ti17  1  0.996111  0.847539  0.624661  1
  Si  Si18  1  0.206231  0.131945  0.674634  1
  Si  Si19  1  0.372156  0.704236  0.924744  1
  Si  Si20  1  0.634722  0.291625  0.424869  1
  Si  Si21  1  0.704649  0.358181  0.072984  1
  Si  Si22  1  0.290503  0.637002  0.572347  1
  Si  Si23  1  0.791248  0.873497  0.181251  1
  Si  Si24  1  0.133334  0.206692  0.325035  1
  Si  Si25  1  0.860596  0.793580  0.819347  1
  Si  Si26  1  0.296104  0.959333  0.066302  1
  Si  Si27  1  0.541328  0.798115  0.315853  1
  Si  Si28  1  0.455303  0.205182  0.814829  1
  Si  Si29  1  0.801135  0.545529  0.685624  1
  Si  Si30  1  0.203814  0.452634  0.188706  1
  Si  Si31  1  0.705847  0.043236  0.561987  1
  Si  Si32  1  0.956171  0.293647  0.936345  1
  Si  Si33  1  0.046862  0.705171  0.434839  1
  W  W34  1  0.333669  0.328703  0.001058  1
  W  W35  1  0.169315  0.833858  0.251706  1
