# generated using pymatgen
data_Zr10Bi3Pb4
_symmetry_space_group_name_H-M   'P 1'
_cell_length_a   6.04226510
_cell_length_b   8.82380027
_cell_length_c   8.82658918
_cell_angle_alpha   119.98963481
_cell_angle_beta   90.01037031
_cell_angle_gamma   89.97925065
_symmetry_Int_Tables_number   1
_chemical_formula_structural   Zr10Bi3Pb4
_chemical_formula_sum   'Zr10 Bi3 Pb4'
_cell_volume   407.59074400
_cell_formula_units_Z   1
loop_
 _symmetry_equiv_pos_site_id
 _symmetry_equiv_pos_as_xyz
  1  'x, y, z'
loop_
 _atom_site_type_symbol
 _atom_site_label
 _atom_site_symmetry_multiplicity
 _atom_site_fract_x
 _atom_site_fract_y
 _atom_site_fract_z
 _atom_site_occupancy
  Zr  Zr0  1  0.500926  0.333408  0.667054  1
  Zr  Zr1  1  0.500926  0.666354  0.332946  1
  Zr  Zr2  1  0.997665  0.666448  0.333039  1
  Zr  Zr3  1  0.997665  0.333411  0.666960  1
  Zr  Zr4  1  0.781871  0.268167  0.000003  1
  Zr  Zr5  1  0.781179  0.731629  0.731664  1
  Zr  Zr6  1  0.781177  0.999967  0.268335  1
  Zr  Zr7  1  0.218931  0.732432  0.999999  1
  Zr  Zr8  1  0.217951  0.267758  0.265985  1
  Zr  Zr9  1  0.217953  0.001771  0.734016  1
  Bi  Bi10  1  0.258157  0.612081  0.611935  1
  Bi  Bi11  1  0.258155  0.000146  0.388061  1
  Bi  Bi12  1  0.501349  0.000519  0.000000  1
  Pb  Pb13  1  0.742753  0.613395  0.000000  1
  Pb  Pb14  1  0.742462  0.385318  0.385119  1
  Pb  Pb15  1  0.742462  0.000198  0.614886  1
  Pb  Pb16  1  0.258418  0.387001  0.999999  1
