# generated using pymatgen
data_BaHo(AsPd)2
_symmetry_space_group_name_H-M   'P 1'
_cell_length_a   4.43901600
_cell_length_b   8.14157124
_cell_length_c   7.69764344
_cell_angle_alpha   89.30908703
_cell_angle_beta   90.00000000
_cell_angle_gamma   90.00000000
_symmetry_Int_Tables_number   1
_chemical_formula_structural   BaHo(AsPd)2
_chemical_formula_sum   'Ba2 Ho2 As4 Pd4'
_cell_volume   278.17695664
_cell_formula_units_Z   2
loop_
 _symmetry_equiv_pos_site_id
 _symmetry_equiv_pos_as_xyz
  1  'x, y, z'
loop_
 _atom_site_type_symbol
 _atom_site_label
 _atom_site_symmetry_multiplicity
 _atom_site_fract_x
 _atom_site_fract_y
 _atom_site_fract_z
 _atom_site_occupancy
  Ba  Ba0  1  0.250000  0.003995  0.241110  1
  Ba  Ba1  1  0.750000  0.996005  0.758890  1
  Ho  Ho2  1  0.250000  0.504635  0.285946  1
  Ho  Ho3  1  0.750000  0.495365  0.714054  1
  As  As4  1  0.250000  0.733401  0.591030  1
  As  As5  1  0.750000  0.266599  0.408970  1
  As  As6  1  0.250000  0.302052  0.914929  1
  As  As7  1  0.750000  0.697948  0.085071  1
  Pd  Pd8  1  0.750000  0.355662  0.074069  1
  Pd  Pd9  1  0.250000  0.644338  0.925931  1
  Pd  Pd10  1  0.750000  0.723877  0.417385  1
  Pd  Pd11  1  0.250000  0.276123  0.582615  1
