# generated using pymatgen
data_Hf6CuTc2Os3
_symmetry_space_group_name_H-M   'P 1'
_cell_length_a   4.59982300
_cell_length_b   6.54057800
_cell_length_c   13.79820000
_cell_angle_alpha   90.00000000
_cell_angle_beta   89.99995017
_cell_angle_gamma   90.00000000
_symmetry_Int_Tables_number   1
_chemical_formula_structural   Hf6CuTc2Os3
_chemical_formula_sum   'Hf12 Cu2 Tc4 Os6'
_cell_volume   415.12576152
_cell_formula_units_Z   2
loop_
 _symmetry_equiv_pos_site_id
 _symmetry_equiv_pos_as_xyz
  1  'x, y, z'
loop_
 _atom_site_type_symbol
 _atom_site_label
 _atom_site_symmetry_multiplicity
 _atom_site_fract_x
 _atom_site_fract_y
 _atom_site_fract_z
 _atom_site_occupancy
  Hf  Hf0  1  0.499985  0.251233  0.001813  1
  Hf  Hf1  1  0.499985  0.748767  0.001813  1
  Hf  Hf2  1  0.999905  0.249900  0.166961  1
  Hf  Hf3  1  0.999905  0.750099  0.166961  1
  Hf  Hf4  1  0.499904  0.250101  0.333041  1
  Hf  Hf5  1  0.499904  0.749900  0.333041  1
  Hf  Hf6  1  0.999984  0.248768  0.498189  1
  Hf  Hf7  1  0.999984  0.751233  0.498189  1
  Hf  Hf8  1  0.500095  0.248428  0.665328  1
  Hf  Hf9  1  0.500095  0.751573  0.665328  1
  Hf  Hf10  1  0.000095  0.251572  0.834673  1
  Hf  Hf11  1  0.000095  0.748427  0.834673  1
  Cu  Cu12  1  0.000190  0.500000  0.665206  1
  Cu  Cu13  1  0.500198  0.000000  0.834777  1
  Tc  Tc14  1  0.999982  0.500000  0.997920  1
  Tc  Tc15  1  0.499901  0.000000  0.165590  1
  Tc  Tc16  1  0.999900  0.500000  0.334414  1
  Tc  Tc17  1  0.499981  0.000000  0.502081  1
  Os  Os18  1  0.999975  0.000000  0.996092  1
  Os  Os19  1  0.499897  0.500000  0.166250  1
  Os  Os20  1  0.999897  0.000000  0.333753  1
  Os  Os21  1  0.499974  0.500000  0.503908  1
  Os  Os22  1  0.000087  0.000000  0.669842  1
  Os  Os23  1  0.500086  0.500000  0.830160  1
