# generated using pymatgen
data_TbY3TcPt3F28
_symmetry_space_group_name_H-M   'P 1'
_cell_length_a   5.57179210
_cell_length_b   8.93254946
_cell_length_c   12.04004773
_cell_angle_alpha   62.36527037
_cell_angle_beta   90.04608025
_cell_angle_gamma   90.05290238
_symmetry_Int_Tables_number   1
_chemical_formula_structural   TbY3TcPt3F28
_chemical_formula_sum   'Tb1 Y3 Tc1 Pt3 F28'
_cell_volume   530.87722463
_cell_formula_units_Z   1
loop_
 _symmetry_equiv_pos_site_id
 _symmetry_equiv_pos_as_xyz
  1  'x, y, z'
loop_
 _atom_site_type_symbol
 _atom_site_label
 _atom_site_symmetry_multiplicity
 _atom_site_fract_x
 _atom_site_fract_y
 _atom_site_fract_z
 _atom_site_occupancy
  Tb  Tb0  1  0.239850  0.813804  0.763659  1
  Y  Y1  1  0.259592  0.813725  0.265123  1
  Y  Y2  1  0.739535  0.185716  0.736185  1
  Y  Y3  1  0.760864  0.184903  0.236587  1
  Tc  Tc4  1  0.757568  0.726140  0.043073  1
  Pt  Pt5  1  0.241016  0.272669  0.957484  1
  Pt  Pt6  1  0.259033  0.272749  0.457304  1
  Pt  Pt7  1  0.741239  0.726498  0.543066  1
  F  F8  1  0.935227  0.704317  0.415064  1
  F  F9  1  0.063946  0.295289  0.584761  1
  F  F10  1  0.436494  0.295413  0.085010  1
  F  F11  1  0.554975  0.708733  0.916864  1
  F  F12  1  0.473766  0.729518  0.138331  1
  F  F13  1  0.532377  0.272876  0.865246  1
  F  F14  1  0.967468  0.273320  0.364681  1
  F  F15  1  0.033089  0.726419  0.635023  1
  F  F16  1  0.955769  0.744752  0.171835  1
  F  F17  1  0.050602  0.256482  0.825384  1
  F  F18  1  0.450433  0.256911  0.325312  1
  F  F19  1  0.552023  0.742704  0.675286  1
  F  F20  1  0.770573  0.478745  0.140554  1
  F  F21  1  0.229372  0.520528  0.858881  1
  F  F22  1  0.269784  0.520803  0.358711  1
  F  F23  1  0.730201  0.478432  0.641731  1
  F  F24  1  0.942753  0.279970  0.043351  1
  F  F25  1  0.052166  0.720885  0.954163  1
  F  F26  1  0.442255  0.718872  0.457876  1
  F  F27  1  0.557211  0.280245  0.543037  1
  F  F28  1  0.741796  0.974465  0.449694  1
  F  F29  1  0.258646  0.024823  0.550489  1
  F  F30  1  0.241567  0.024694  0.051009  1
  F  F31  1  0.758956  0.972812  0.946546  1
  F  F32  1  0.585997  0.969209  0.232120  1
  F  F33  1  0.413825  0.031394  0.767453  1
  F  F34  1  0.086142  0.030624  0.268472  1
  F  F35  1  0.913891  0.970564  0.730633  1
