# generated using pymatgen
data_Dy3(Fe2Co)2
_symmetry_space_group_name_H-M   'P 1'
_cell_length_a   5.12008114
_cell_length_b   5.17301324
_cell_length_c   12.56271895
_cell_angle_alpha   90.16892187
_cell_angle_beta   89.59858339
_cell_angle_gamma   119.98559426
_symmetry_Int_Tables_number   1
_chemical_formula_structural   Dy3(Fe2Co)2
_chemical_formula_sum   'Dy6 Fe8 Co4'
_cell_volume   288.19536135
_cell_formula_units_Z   2
loop_
 _symmetry_equiv_pos_site_id
 _symmetry_equiv_pos_as_xyz
  1  'x, y, z'
loop_
 _atom_site_type_symbol
 _atom_site_label
 _atom_site_symmetry_multiplicity
 _atom_site_fract_x
 _atom_site_fract_y
 _atom_site_fract_z
 _atom_site_occupancy
  Dy  Dy0  1  0.332084  0.665220  0.917650  1
  Dy  Dy1  1  0.003541  0.001799  0.248682  1
  Dy  Dy2  1  0.666896  0.332608  0.582976  1
  Dy  Dy3  1  0.333104  0.667392  0.667024  1
  Dy  Dy4  1  0.996459  0.998201  0.001318  1
  Dy  Dy5  1  0.667916  0.334780  0.332350  1
  Fe  Fe6  1  0.167742  0.334664  0.457263  1
  Fe  Fe7  1  0.832258  0.665336  0.792737  1
  Fe  Fe8  1  0.335678  0.667867  0.290711  1
  Fe  Fe9  1  0.000000  0.000000  0.625000  1
  Fe  Fe10  1  0.664322  0.332133  0.959289  1
  Fe  Fe11  1  0.000000  0.500000  0.125000  1
  Fe  Fe12  1  0.667775  0.834188  0.457357  1
  Fe  Fe13  1  0.332225  0.165812  0.792643  1
  Co  Co14  1  0.500000  0.500000  0.125000  1
  Co  Co15  1  0.167204  0.834222  0.457734  1
  Co  Co16  1  0.832796  0.165778  0.792266  1
  Co  Co17  1  0.500000  0.000000  0.125000  1
