# generated using pymatgen
data_Er5Mn2P12Ir17
_symmetry_space_group_name_H-M   'P 1'
_cell_length_a   12.62618900
_cell_length_b   12.71607885
_cell_length_c   3.96128300
_cell_angle_alpha   90.00000000
_cell_angle_beta   90.00000000
_cell_angle_gamma   119.76643645
_symmetry_Int_Tables_number   1
_chemical_formula_structural   Er5Mn2P12Ir17
_chemical_formula_sum   'Er5 Mn2 P12 Ir17'
_cell_volume   552.08929510
_cell_formula_units_Z   1
loop_
 _symmetry_equiv_pos_site_id
 _symmetry_equiv_pos_as_xyz
  1  'x, y, z'
loop_
 _atom_site_type_symbol
 _atom_site_label
 _atom_site_symmetry_multiplicity
 _atom_site_fract_x
 _atom_site_fract_y
 _atom_site_fract_z
 _atom_site_occupancy
  Er  Er0  1  0.332511  0.663638  0.500000  1
  Er  Er1  1  0.668873  0.336362  0.500000  1
  Er  Er2  1  0.999955  0.811572  0.000000  1
  Er  Er3  1  0.188383  0.188428  0.000000  1
  Er  Er4  1  0.813529  0.000000  0.000000  1
  Mn  Mn5  1  0.999721  0.457994  0.500000  1
  Mn  Mn6  1  0.541728  0.542006  0.500000  1
  P  P7  1  0.999796  0.635437  0.500000  1
  P  P8  1  0.364358  0.364563  0.500000  1
  P  P9  1  0.644171  0.000000  0.500000  1
  P  P10  1  0.515251  0.683924  0.000000  1
  P  P11  1  0.309322  0.824394  0.000000  1
  P  P12  1  0.166953  0.481509  0.000000  1
  P  P13  1  0.484928  0.175606  0.000000  1
  P  P14  1  0.685443  0.518491  0.000000  1
  P  P15  1  0.831327  0.316076  0.000000  1
  P  P16  1  0.999790  0.177656  0.500000  1
  P  P17  1  0.822134  0.822344  0.500000  1
  P  P18  1  0.178833  0.000000  0.500000  1
  Ir  Ir19  1  0.505502  0.865533  0.000000  1
  Ir  Ir20  1  0.129761  0.638426  0.000000  1
  Ir  Ir21  1  0.358342  0.492075  0.000000  1
  Ir  Ir22  1  0.491336  0.361574  0.000000  1
  Ir  Ir23  1  0.866267  0.507925  0.000000  1
  Ir  Ir24  1  0.639970  0.134467  0.000000  1
  Ir  Ir25  1  0.462245  0.000000  0.500000  1
  Ir  Ir26  1  0.998128  0.282185  0.000000  1
  Ir  Ir27  1  0.715942  0.717815  0.000000  1
  Ir  Ir28  1  0.286919  0.000000  0.000000  1
  Ir  Ir29  1  0.622425  0.804473  0.500000  1
  Ir  Ir30  1  0.197745  0.821282  0.500000  1
  Ir  Ir31  1  0.178263  0.373067  0.500000  1
  Ir  Ir32  1  0.376464  0.178718  0.500000  1
  Ir  Ir33  1  0.805196  0.626933  0.500000  1
  Ir  Ir34  1  0.817952  0.195527  0.500000  1
  Ir  Ir35  1  0.000535  0.000000  0.500000  1
