# generated using pymatgen
data_Lu8Si16(MoW3)3
_symmetry_space_group_name_H-M   'P 1'
_cell_length_a   6.69434758
_cell_length_b   6.89315356
_cell_length_c   12.81169563
_cell_angle_alpha   89.97627912
_cell_angle_beta   90.02702064
_cell_angle_gamma   90.03938676
_symmetry_Int_Tables_number   1
_chemical_formula_structural   Lu8Si16(MoW3)3
_chemical_formula_sum   'Lu8 Si16 Mo3 W9'
_cell_volume   591.19756338
_cell_formula_units_Z   1
loop_
 _symmetry_equiv_pos_site_id
 _symmetry_equiv_pos_as_xyz
  1  'x, y, z'
loop_
 _atom_site_type_symbol
 _atom_site_label
 _atom_site_symmetry_multiplicity
 _atom_site_fract_x
 _atom_site_fract_y
 _atom_site_fract_z
 _atom_site_occupancy
  Lu  Lu0  1  0.496502  0.331809  0.093634  1
  Lu  Lu1  1  0.996385  0.168144  0.406391  1
  Lu  Lu2  1  0.503392  0.668279  0.593505  1
  Lu  Lu3  1  0.003485  0.831823  0.906219  1
  Lu  Lu4  1  0.503062  0.668212  0.906420  1
  Lu  Lu5  1  0.003124  0.831591  0.593289  1
  Lu  Lu6  1  0.496375  0.332062  0.406547  1
  Lu  Lu7  1  0.996935  0.168459  0.093502  1
  Si  Si8  1  0.661700  0.039354  0.546435  1
  Si  Si9  1  0.161303  0.460614  0.953401  1
  Si  Si10  1  0.338542  0.960695  0.046624  1
  Si  Si11  1  0.837919  0.539250  0.453754  1
  Si  Si12  1  0.337345  0.960879  0.453659  1
  Si  Si13  1  0.838153  0.539640  0.046695  1
  Si  Si14  1  0.662188  0.039598  0.953263  1
  Si  Si15  1  0.162719  0.460069  0.546572  1
  Si  Si16  1  0.533936  0.371495  0.749647  1
  Si  Si17  1  0.033971  0.128568  0.750527  1
  Si  Si18  1  0.466583  0.628190  0.249514  1
  Si  Si19  1  0.965568  0.872001  0.249955  1
  Si  Si20  1  0.801276  0.634554  0.750263  1
  Si  Si21  1  0.301185  0.865424  0.749687  1
  Si  Si22  1  0.199011  0.364995  0.250155  1
  Si  Si23  1  0.698682  0.134693  0.249910  1
  Mo  Mo24  1  0.671032  0.835390  0.124141  1
  Mo  Mo25  1  0.828848  0.336165  0.876229  1
  Mo  Mo26  1  0.329201  0.163997  0.623966  1
  W  W27  1  0.830699  0.334895  0.625579  1
  W  W28  1  0.330848  0.165012  0.874573  1
  W  W29  1  0.169892  0.664509  0.124864  1
  W  W30  1  0.669117  0.835321  0.374688  1
  W  W31  1  0.170716  0.663902  0.375542  1
  W  W32  1  0.666088  0.996725  0.749979  1
  W  W33  1  0.166448  0.503499  0.749788  1
  W  W34  1  0.333577  0.003176  0.250394  1
  W  W35  1  0.834195  0.497011  0.250690  1
