# generated using pymatgen
data_KPb3F13
_symmetry_space_group_name_H-M   'P 1'
_cell_length_a   6.89107800
_cell_length_b   8.19308800
_cell_length_c   10.03545700
_cell_angle_alpha   90.00000000
_cell_angle_beta   90.00000000
_cell_angle_gamma   90.00000000
_symmetry_Int_Tables_number   1
_chemical_formula_structural   KPb3F13
_chemical_formula_sum   'K2 Pb6 F26'
_cell_volume   566.59395884
_cell_formula_units_Z   2
loop_
 _symmetry_equiv_pos_site_id
 _symmetry_equiv_pos_as_xyz
  1  'x, y, z'
loop_
 _atom_site_type_symbol
 _atom_site_label
 _atom_site_symmetry_multiplicity
 _atom_site_fract_x
 _atom_site_fract_y
 _atom_site_fract_z
 _atom_site_occupancy
  K  K0  1  0.371521  0.500000  0.245391  1
  K  K1  1  0.628479  0.500000  0.745391  1
  Pb  Pb2  1  0.838367  0.271885  0.074129  1
  Pb  Pb3  1  0.838367  0.728115  0.074129  1
  Pb  Pb4  1  0.161633  0.728115  0.574129  1
  Pb  Pb5  1  0.161633  0.271885  0.574129  1
  Pb  Pb6  1  0.664673  0.000000  0.548419  1
  Pb  Pb7  1  0.335327  0.000000  0.048419  1
  F  F8  1  0.853085  0.205436  0.610029  1
  F  F9  1  0.853085  0.794564  0.610029  1
  F  F10  1  0.146915  0.794564  0.110029  1
  F  F11  1  0.146915  0.205436  0.110029  1
  F  F12  1  0.540165  0.192439  0.001394  1
  F  F13  1  0.540165  0.807561  0.001394  1
  F  F14  1  0.459835  0.807561  0.501394  1
  F  F15  1  0.459835  0.192439  0.501394  1
  F  F16  1  0.713029  0.299044  0.254265  1
  F  F17  1  0.713029  0.700956  0.254265  1
  F  F18  1  0.286971  0.700956  0.754265  1
  F  F19  1  0.286971  0.299044  0.754265  1
  F  F20  1  0.101560  0.284874  0.377647  1
  F  F21  1  0.101560  0.715126  0.377647  1
  F  F22  1  0.898440  0.715126  0.877647  1
  F  F23  1  0.898440  0.284874  0.877647  1
  F  F24  1  0.008710  0.500000  0.117647  1
  F  F25  1  0.991290  0.500000  0.617647  1
  F  F26  1  0.659730  0.500000  0.026691  1
  F  F27  1  0.340270  0.500000  0.526691  1
  F  F28  1  0.844483  0.000000  0.084098  1
  F  F29  1  0.155517  0.000000  0.584098  1
  F  F30  1  0.807963  0.000000  0.376027  1
  F  F31  1  0.192037  0.000000  0.876027  1
  F  F32  1  0.431633  0.000000  0.237277  1
  F  F33  1  0.568367  0.000000  0.737277  1
