# generated using pymatgen
data_Sc4CuSi6Ir5Rh
_symmetry_space_group_name_H-M   'P 1'
_cell_length_a   6.95470143
_cell_length_b   6.96144172
_cell_length_c   6.96144137
_cell_angle_alpha   109.54918564
_cell_angle_beta   109.37526187
_cell_angle_gamma   109.52846023
_symmetry_Int_Tables_number   1
_chemical_formula_structural   Sc4CuSi6Ir5Rh
_chemical_formula_sum   'Sc4 Cu1 Si6 Ir5 Rh1'
_cell_volume   259.32449384
_cell_formula_units_Z   1
loop_
 _symmetry_equiv_pos_site_id
 _symmetry_equiv_pos_as_xyz
  1  'x, y, z'
loop_
 _atom_site_type_symbol
 _atom_site_label
 _atom_site_symmetry_multiplicity
 _atom_site_fract_x
 _atom_site_fract_y
 _atom_site_fract_z
 _atom_site_occupancy
  Sc  Sc0  1  0.002066  0.997889  0.500107  1
  Sc  Sc1  1  0.002066  0.501959  0.004177  1
  Sc  Sc2  1  0.497631  0.997484  0.995381  1
  Sc  Sc3  1  0.497631  0.502250  0.500147  1
  Cu  Cu4  1  0.750083  0.250115  0.499969  1
  Si  Si5  1  0.682226  0.682590  0.999636  1
  Si  Si6  1  0.314051  0.997866  0.316185  1
  Si  Si7  1  0.002133  0.318976  0.316333  1
  Si  Si8  1  0.317880  0.317857  0.000023  1
  Si  Si9  1  0.681672  0.997613  0.684059  1
  Si  Si10  1  0.002133  0.685800  0.683157  1
  Ir  Ir11  1  0.506826  0.253623  0.748005  1
  Ir  Ir12  1  0.240534  0.493872  0.746663  1
  Ir  Ir13  1  0.249739  0.749857  0.499882  1
  Ir  Ir14  1  0.506826  0.758820  0.253202  1
  Ir  Ir15  1  0.999568  0.999722  0.999846  1
  Rh  Rh16  1  0.746935  0.493709  0.253226  1
