# generated using pymatgen
data_NaNd(BIr)4
_symmetry_space_group_name_H-M   'P 1'
_cell_length_a   7.09873224
_cell_length_b   6.14627984
_cell_length_c   5.51956187
_cell_angle_alpha   74.74670873
_cell_angle_beta   56.64985257
_cell_angle_gamma   48.60343344
_symmetry_Int_Tables_number   1
_chemical_formula_structural   NaNd(BIr)4
_chemical_formula_sum   'Na1 Nd1 B4 Ir4'
_cell_volume   148.95315477
_cell_formula_units_Z   1
loop_
 _symmetry_equiv_pos_site_id
 _symmetry_equiv_pos_as_xyz
  1  'x, y, z'
loop_
 _atom_site_type_symbol
 _atom_site_label
 _atom_site_symmetry_multiplicity
 _atom_site_fract_x
 _atom_site_fract_y
 _atom_site_fract_z
 _atom_site_occupancy
  Na  Na0  1  0.500000  0.500000  0.500000  1
  Nd  Nd1  1  0.750000  0.750000  0.750000  1
  B  B2  1  0.179255  0.820745  0.179255  1
  B  B3  1  0.074170  0.425830  0.074170  1
  B  B4  1  0.820745  0.179255  0.820745  1
  B  B5  1  0.425830  0.074170  0.425830  1
  Ir  Ir6  1  0.871126  0.871126  0.128874  1
  Ir  Ir7  1  0.128874  0.128874  0.871126  1
  Ir  Ir8  1  0.381791  0.381791  0.118209  1
  Ir  Ir9  1  0.118209  0.118209  0.381791  1
