# generated using pymatgen
data_Th2NbWC4
_symmetry_space_group_name_H-M   'P 1'
_cell_length_a   3.51129900
_cell_length_b   5.94810582
_cell_length_c   11.25131119
_cell_angle_alpha   89.81294067
_cell_angle_beta   90.00000000
_cell_angle_gamma   90.00000000
_symmetry_Int_Tables_number   1
_chemical_formula_structural   Th2NbWC4
_chemical_formula_sum   'Th4 Nb2 W2 C8'
_cell_volume   234.98888531
_cell_formula_units_Z   2
loop_
 _symmetry_equiv_pos_site_id
 _symmetry_equiv_pos_as_xyz
  1  'x, y, z'
loop_
 _atom_site_type_symbol
 _atom_site_label
 _atom_site_symmetry_multiplicity
 _atom_site_fract_x
 _atom_site_fract_y
 _atom_site_fract_z
 _atom_site_occupancy
  Th  Th0  1  0.250000  0.584491  0.858477  1
  Th  Th1  1  0.750000  0.415509  0.141523  1
  Th  Th2  1  0.750000  0.915700  0.362825  1
  Th  Th3  1  0.250000  0.084300  0.637175  1
  Nb  Nb4  1  0.250000  0.914460  0.109367  1
  Nb  Nb5  1  0.750000  0.085540  0.890633  1
  W  W6  1  0.750000  0.585799  0.604382  1
  W  W7  1  0.250000  0.414201  0.395618  1
  C  C8  1  0.250000  0.660240  0.254528  1
  C  C9  1  0.750000  0.339760  0.745472  1
  C  C10  1  0.750000  0.830479  0.740552  1
  C  C11  1  0.250000  0.169521  0.259448  1
  C  C12  1  0.250000  0.713860  0.519625  1
  C  C13  1  0.750000  0.286140  0.480375  1
  C  C14  1  0.750000  0.778261  0.014349  1
  C  C15  1  0.250000  0.221739  0.985651  1
