# generated using pymatgen
data_Zr24SiSe7
_symmetry_space_group_name_H-M   'P 1'
_cell_length_a   10.98944049
_cell_length_b   11.00485391
_cell_length_c   5.50965346
_cell_angle_alpha   89.79845179
_cell_angle_beta   90.10713994
_cell_angle_gamma   89.97615714
_symmetry_Int_Tables_number   1
_chemical_formula_structural   Zr24SiSe7
_chemical_formula_sum   'Zr24 Si1 Se7'
_cell_volume   666.31664404
_cell_formula_units_Z   1
loop_
 _symmetry_equiv_pos_site_id
 _symmetry_equiv_pos_as_xyz
  1  'x, y, z'
loop_
 _atom_site_type_symbol
 _atom_site_label
 _atom_site_symmetry_multiplicity
 _atom_site_fract_x
 _atom_site_fract_y
 _atom_site_fract_z
 _atom_site_occupancy
  Zr  Zr0  1  0.214816  0.682433  0.985381  1
  Zr  Zr1  1  0.784134  0.318472  0.981289  1
  Zr  Zr2  1  0.182301  0.284976  0.485479  1
  Zr  Zr3  1  0.818137  0.714143  0.484687  1
  Zr  Zr4  1  0.285495  0.817660  0.515935  1
  Zr  Zr5  1  0.712461  0.182161  0.516360  1
  Zr  Zr6  1  0.319164  0.215143  0.012938  1
  Zr  Zr7  1  0.682415  0.785073  0.016581  1
  Zr  Zr8  1  0.639950  0.524476  0.716789  1
  Zr  Zr9  1  0.360114  0.474057  0.718583  1
  Zr  Zr10  1  0.024755  0.859144  0.215844  1
  Zr  Zr11  1  0.974418  0.140024  0.217280  1
  Zr  Zr12  1  0.859153  0.974180  0.782306  1
  Zr  Zr13  1  0.140665  0.024051  0.784316  1
  Zr  Zr14  1  0.474977  0.640682  0.285334  1
  Zr  Zr15  1  0.526470  0.358190  0.280030  1
  Zr  Zr16  1  0.102664  0.585131  0.453923  1
  Zr  Zr17  1  0.896946  0.414076  0.455745  1
  Zr  Zr18  1  0.085389  0.397596  0.955977  1
  Zr  Zr19  1  0.914762  0.602854  0.956495  1
  Zr  Zr20  1  0.397017  0.914437  0.045488  1
  Zr  Zr21  1  0.601694  0.087783  0.037268  1
  Zr  Zr22  1  0.415737  0.104937  0.550844  1
  Zr  Zr23  1  0.585493  0.896356  0.545011  1
  Si  Si24  1  0.538096  0.296108  0.786716  1
  Se  Se25  1  0.706759  0.536971  0.211978  1
  Se  Se26  1  0.293690  0.461619  0.211672  1
  Se  Se27  1  0.037369  0.792731  0.710852  1
  Se  Se28  1  0.962725  0.206707  0.712266  1
  Se  Se29  1  0.791967  0.963277  0.287355  1
  Se  Se30  1  0.207462  0.037916  0.289205  1
  Se  Se31  1  0.462808  0.706632  0.790074  1
