# generated using pymatgen
data_TbY3C2Cl3
_symmetry_space_group_name_H-M   'P 1'
_cell_length_a   3.66825600
_cell_length_b   10.52711900
_cell_length_c   19.74553300
_cell_angle_alpha   90.00000000
_cell_angle_beta   90.00000000
_cell_angle_gamma   90.00000000
_symmetry_Int_Tables_number   1
_chemical_formula_structural   TbY3C2Cl3
_chemical_formula_sum   'Tb4 Y12 C8 Cl12'
_cell_volume   762.49680841
_cell_formula_units_Z   4
loop_
 _symmetry_equiv_pos_site_id
 _symmetry_equiv_pos_as_xyz
  1  'x, y, z'
loop_
 _atom_site_type_symbol
 _atom_site_label
 _atom_site_symmetry_multiplicity
 _atom_site_fract_x
 _atom_site_fract_y
 _atom_site_fract_z
 _atom_site_occupancy
  Tb  Tb0  1  0.250000  0.138365  0.573256  1
  Tb  Tb1  1  0.250000  0.638365  0.926744  1
  Tb  Tb2  1  0.750000  0.861635  0.426744  1
  Tb  Tb3  1  0.750000  0.361635  0.073256  1
  Y  Y4  1  0.250000  0.637611  0.756018  1
  Y  Y5  1  0.250000  0.137611  0.743982  1
  Y  Y6  1  0.750000  0.362389  0.243982  1
  Y  Y7  1  0.750000  0.862389  0.256018  1
  Y  Y8  1  0.250000  0.100283  0.331869  1
  Y  Y9  1  0.250000  0.600283  0.168131  1
  Y  Y10  1  0.750000  0.899717  0.668131  1
  Y  Y11  1  0.750000  0.399717  0.831869  1
  Y  Y12  1  0.250000  0.124783  0.164640  1
  Y  Y13  1  0.250000  0.624783  0.335360  1
  Y  Y14  1  0.750000  0.875217  0.835360  1
  Y  Y15  1  0.750000  0.375217  0.664640  1
  C  C16  1  0.250000  0.863939  0.347906  1
  C  C17  1  0.250000  0.363939  0.152094  1
  C  C18  1  0.750000  0.136061  0.652094  1
  C  C19  1  0.750000  0.636061  0.847906  1
  C  C20  1  0.250000  0.387941  0.750041  1
  C  C21  1  0.250000  0.887941  0.749959  1
  C  C22  1  0.750000  0.612059  0.249959  1
  C  C23  1  0.750000  0.112059  0.250041  1
  Cl  Cl24  1  0.250000  0.376986  0.952573  1
  Cl  Cl25  1  0.250000  0.876986  0.547427  1
  Cl  Cl26  1  0.750000  0.623014  0.047427  1
  Cl  Cl27  1  0.750000  0.123014  0.452573  1
  Cl  Cl28  1  0.250000  0.887847  0.944604  1
  Cl  Cl29  1  0.250000  0.387847  0.555396  1
  Cl  Cl30  1  0.750000  0.112153  0.055396  1
  Cl  Cl31  1  0.750000  0.612153  0.444604  1
  Cl  Cl32  1  0.250000  0.360598  0.353791  1
  Cl  Cl33  1  0.250000  0.860598  0.146209  1
  Cl  Cl34  1  0.750000  0.639402  0.646209  1
  Cl  Cl35  1  0.750000  0.139402  0.853791  1
