# generated using pymatgen
data_Zr6Ga6Os2Pd3Pt
_symmetry_space_group_name_H-M   'P 1'
_cell_length_a   7.40179200
_cell_length_b   7.40179331
_cell_length_c   6.72921400
_cell_angle_alpha   90.00000000
_cell_angle_beta   90.00000000
_cell_angle_gamma   119.99998519
_symmetry_Int_Tables_number   1
_chemical_formula_structural   Zr6Ga6Os2Pd3Pt
_chemical_formula_sum   'Zr6 Ga6 Os2 Pd3 Pt1'
_cell_volume   319.27790624
_cell_formula_units_Z   1
loop_
 _symmetry_equiv_pos_site_id
 _symmetry_equiv_pos_as_xyz
  1  'x, y, z'
loop_
 _atom_site_type_symbol
 _atom_site_label
 _atom_site_symmetry_multiplicity
 _atom_site_fract_x
 _atom_site_fract_y
 _atom_site_fract_z
 _atom_site_occupancy
  Zr  Zr0  1  0.400752  0.391549  0.750557  1
  Zr  Zr1  1  0.990796  0.599248  0.750557  1
  Zr  Zr2  1  0.608451  0.009204  0.750557  1
  Zr  Zr3  1  0.611820  0.012977  0.249468  1
  Zr  Zr4  1  0.987023  0.598843  0.249468  1
  Zr  Zr5  1  0.401157  0.388180  0.249468  1
  Ga  Ga6  1  0.272461  0.999199  0.999920  1
  Ga  Ga7  1  0.726737  0.727539  0.999920  1
  Ga  Ga8  1  0.000801  0.273263  0.999920  1
  Ga  Ga9  1  0.725958  0.727621  0.500167  1
  Ga  Ga10  1  0.272379  0.998338  0.500167  1
  Ga  Ga11  1  0.001662  0.274042  0.500167  1
  Os  Os12  1  0.666667  0.333333  0.998578  1
  Os  Os13  1  0.666667  0.333333  0.501447  1
  Pd  Pd14  1  0.000000  0.000000  0.750324  1
  Pd  Pd15  1  0.333333  0.666667  0.495171  1
  Pd  Pd16  1  0.000000  0.000000  0.249725  1
  Pt  Pt17  1  0.333333  0.666667  0.004418  1
