# generated using pymatgen
data_YbY7(Si4Mo3)4
_symmetry_space_group_name_H-M   'P 1'
_cell_length_a   6.77748158
_cell_length_b   6.96499418
_cell_length_c   12.95369657
_cell_angle_alpha   90.05875475
_cell_angle_beta   89.97759115
_cell_angle_gamma   90.03094698
_symmetry_Int_Tables_number   1
_chemical_formula_structural   YbY7(Si4Mo3)4
_chemical_formula_sum   'Yb1 Y7 Si16 Mo12'
_cell_volume   611.48034061
_cell_formula_units_Z   1
loop_
 _symmetry_equiv_pos_site_id
 _symmetry_equiv_pos_as_xyz
  1  'x, y, z'
loop_
 _atom_site_type_symbol
 _atom_site_label
 _atom_site_symmetry_multiplicity
 _atom_site_fract_x
 _atom_site_fract_y
 _atom_site_fract_z
 _atom_site_occupancy
  Yb  Yb0  1  0.997096  0.165872  0.091970  1
  Y  Y1  1  0.498512  0.331885  0.094531  1
  Y  Y2  1  0.998110  0.167707  0.405440  1
  Y  Y3  1  0.503002  0.667315  0.594152  1
  Y  Y4  1  0.002297  0.834385  0.907422  1
  Y  Y5  1  0.502244  0.667273  0.906393  1
  Y  Y6  1  0.002511  0.832749  0.594274  1
  Y  Y7  1  0.497485  0.332570  0.405174  1
  Si  Si8  1  0.659569  0.043200  0.546733  1
  Si  Si9  1  0.158163  0.456641  0.952896  1
  Si  Si10  1  0.340777  0.958171  0.047655  1
  Si  Si11  1  0.840829  0.542968  0.452928  1
  Si  Si12  1  0.340320  0.956780  0.452961  1
  Si  Si13  1  0.841973  0.540846  0.047924  1
  Si  Si14  1  0.658106  0.043357  0.953163  1
  Si  Si15  1  0.159343  0.456835  0.546858  1
  Si  Si16  1  0.534335  0.365019  0.750144  1
  Si  Si17  1  0.034518  0.135530  0.750563  1
  Si  Si18  1  0.465241  0.634488  0.250064  1
  Si  Si19  1  0.965664  0.866495  0.249588  1
  Si  Si20  1  0.803953  0.628904  0.750539  1
  Si  Si21  1  0.302996  0.871401  0.750204  1
  Si  Si22  1  0.194974  0.370457  0.248518  1
  Si  Si23  1  0.698512  0.127888  0.248727  1
  Mo  Mo24  1  0.829939  0.335850  0.625343  1
  Mo  Mo25  1  0.330831  0.164096  0.874484  1
  Mo  Mo26  1  0.169567  0.666231  0.126112  1
  Mo  Mo27  1  0.669360  0.835988  0.374194  1
  Mo  Mo28  1  0.169834  0.663770  0.374932  1
  Mo  Mo29  1  0.669433  0.833531  0.125272  1
  Mo  Mo30  1  0.829391  0.336396  0.874159  1
  Mo  Mo31  1  0.330372  0.164349  0.625419  1
  Mo  Mo32  1  0.665809  0.000433  0.749824  1
  Mo  Mo33  1  0.166208  0.499935  0.750119  1
  Mo  Mo34  1  0.334497  0.998781  0.250643  1
  Mo  Mo35  1  0.834226  0.501898  0.250678  1
