# generated using pymatgen
data_RbCu2F6
_symmetry_space_group_name_H-M   'P 1'
_cell_length_a   7.27186094
_cell_length_b   7.27186059
_cell_length_c   7.27186000
_cell_angle_alpha   59.99999360
_cell_angle_beta   59.99999517
_cell_angle_gamma   59.99999784
_symmetry_Int_Tables_number   1
_chemical_formula_structural   RbCu2F6
_chemical_formula_sum   'Rb2 Cu4 F12'
_cell_volume   271.90774438
_cell_formula_units_Z   2
loop_
 _symmetry_equiv_pos_site_id
 _symmetry_equiv_pos_as_xyz
  1  'x, y, z'
loop_
 _atom_site_type_symbol
 _atom_site_label
 _atom_site_symmetry_multiplicity
 _atom_site_fract_x
 _atom_site_fract_y
 _atom_site_fract_z
 _atom_site_occupancy
  Rb  Rb0  1  0.250000  0.250000  0.250000  1
  Rb  Rb1  1  0.000000  0.000000  0.000000  1
  Cu  Cu2  1  0.125000  0.625000  0.625000  1
  Cu  Cu3  1  0.625000  0.625000  0.125000  1
  Cu  Cu4  1  0.625000  0.125000  0.625000  1
  Cu  Cu5  1  0.625000  0.625000  0.625000  1
  F  F6  1  0.947605  0.552395  0.552395  1
  F  F7  1  0.302395  0.302395  0.697605  1
  F  F8  1  0.697605  0.697605  0.302395  1
  F  F9  1  0.552395  0.947605  0.947605  1
  F  F10  1  0.302395  0.697605  0.697605  1
  F  F11  1  0.947605  0.947605  0.552395  1
  F  F12  1  0.552395  0.947605  0.552395  1
  F  F13  1  0.697605  0.302395  0.697605  1
  F  F14  1  0.302395  0.697605  0.302395  1
  F  F15  1  0.947605  0.552395  0.947605  1
  F  F16  1  0.697605  0.302395  0.302395  1
  F  F17  1  0.552395  0.552395  0.947605  1
