# generated using pymatgen
data_Hf4Zr3(CuNi4)2
_symmetry_space_group_name_H-M   'P 1'
_cell_length_a   7.68944195
_cell_length_b   7.68944208
_cell_length_c   9.23750894
_cell_angle_alpha   89.93928797
_cell_angle_beta   89.93927849
_cell_angle_gamma   107.14701300
_symmetry_Int_Tables_number   1
_chemical_formula_structural   Hf4Zr3(CuNi4)2
_chemical_formula_sum   'Hf8 Zr6 Cu4 Ni16'
_cell_volume   521.91273790
_cell_formula_units_Z   2
loop_
 _symmetry_equiv_pos_site_id
 _symmetry_equiv_pos_as_xyz
  1  'x, y, z'
loop_
 _atom_site_type_symbol
 _atom_site_label
 _atom_site_symmetry_multiplicity
 _atom_site_fract_x
 _atom_site_fract_y
 _atom_site_fract_z
 _atom_site_occupancy
  Hf  Hf0  1  0.700869  0.299131  0.500000  1
  Hf  Hf1  1  0.200808  0.799192  0.000000  1
  Hf  Hf2  1  0.506020  0.006501  0.750323  1
  Hf  Hf3  1  0.993499  0.493980  0.249677  1
  Hf  Hf4  1  0.006135  0.506448  0.749655  1
  Hf  Hf5  1  0.493551  0.993864  0.250345  1
  Hf  Hf6  1  0.000259  0.999741  0.500000  1
  Hf  Hf7  1  0.500261  0.499739  0.000000  1
  Zr  Zr8  1  0.812393  0.812484  0.811139  1
  Zr  Zr9  1  0.187516  0.187607  0.188861  1
  Zr  Zr10  1  0.312467  0.312475  0.688736  1
  Zr  Zr11  1  0.687525  0.687533  0.311264  1
  Zr  Zr12  1  0.300110  0.699890  0.500000  1
  Zr  Zr13  1  0.800143  0.199857  0.000000  1
  Cu  Cu14  1  0.606257  0.604765  0.602106  1
  Cu  Cu15  1  0.395235  0.393743  0.397894  1
  Cu  Cu16  1  0.106244  0.104816  0.897940  1
  Cu  Cu17  1  0.895184  0.893756  0.102060  1
  Ni  Ni18  1  0.368685  0.656541  0.792686  1
  Ni  Ni19  1  0.343459  0.631315  0.207314  1
  Ni  Ni20  1  0.868538  0.156526  0.707199  1
  Ni  Ni21  1  0.843474  0.131462  0.292801  1
  Ni  Ni22  1  0.156077  0.869421  0.709056  1
  Ni  Ni23  1  0.130579  0.843923  0.290944  1
  Ni  Ni24  1  0.655995  0.369381  0.790860  1
  Ni  Ni25  1  0.630619  0.344005  0.209140  1
  Ni  Ni26  1  0.646409  0.938248  0.507553  1
  Ni  Ni27  1  0.061752  0.353591  0.492447  1
  Ni  Ni28  1  0.146508  0.438307  0.992483  1
  Ni  Ni29  1  0.561693  0.853492  0.007517  1
  Ni  Ni30  1  0.935491  0.644727  0.506937  1
  Ni  Ni31  1  0.355273  0.064509  0.493063  1
  Ni  Ni32  1  0.435643  0.144671  0.993346  1
  Ni  Ni33  1  0.855329  0.564357  0.006654  1
