# generated using pymatgen
data_TmLu2AuO7
_symmetry_space_group_name_H-M   'P 1'
_cell_length_a   6.37837640
_cell_length_b   6.37837786
_cell_length_c   7.30400200
_cell_angle_alpha   90.00000000
_cell_angle_beta   90.00000000
_cell_angle_gamma   108.65532455
_symmetry_Int_Tables_number   1
_chemical_formula_structural   TmLu2AuO7
_chemical_formula_sum   'Tm2 Lu4 Au2 O14'
_cell_volume   281.54132277
_cell_formula_units_Z   2
loop_
 _symmetry_equiv_pos_site_id
 _symmetry_equiv_pos_as_xyz
  1  'x, y, z'
loop_
 _atom_site_type_symbol
 _atom_site_label
 _atom_site_symmetry_multiplicity
 _atom_site_fract_x
 _atom_site_fract_y
 _atom_site_fract_z
 _atom_site_occupancy
  Tm  Tm0  1  0.504121  0.504121  0.500000  1
  Tm  Tm1  1  0.495879  0.495879  0.000000  1
  Lu  Lu2  1  0.001811  0.471514  0.748603  1
  Lu  Lu3  1  0.998189  0.528486  0.248603  1
  Lu  Lu4  1  0.528486  0.998189  0.751397  1
  Lu  Lu5  1  0.471514  0.001811  0.251397  1
  Au  Au6  1  0.999236  0.999236  0.500000  1
  Au  Au7  1  0.000764  0.000764  0.000000  1
  O  O8  1  0.640393  0.359607  0.750000  1
  O  O9  1  0.359607  0.640393  0.250000  1
  O  O10  1  0.915576  0.084424  0.750000  1
  O  O11  1  0.084424  0.915576  0.250000  1
  O  O12  1  0.914686  0.663966  0.523757  1
  O  O13  1  0.085314  0.336034  0.023757  1
  O  O14  1  0.336034  0.085314  0.976243  1
  O  O15  1  0.663966  0.914686  0.476243  1
  O  O16  1  0.365716  0.634284  0.750000  1
  O  O17  1  0.634284  0.365716  0.250000  1
  O  O18  1  0.917734  0.665929  0.974036  1
  O  O19  1  0.082266  0.334071  0.474036  1
  O  O20  1  0.334071  0.082266  0.525964  1
  O  O21  1  0.665929  0.917734  0.025964  1
