# generated using pymatgen
data_CuAg2(PO4)2
_symmetry_space_group_name_H-M   'P 1'
_cell_length_a   4.78084641
_cell_length_b   5.86821970
_cell_length_c   6.78036250
_cell_angle_alpha   74.59842214
_cell_angle_beta   87.14872981
_cell_angle_gamma   71.15929097
_symmetry_Int_Tables_number   1
_chemical_formula_structural   CuAg2(PO4)2
_chemical_formula_sum   'Cu1 Ag2 P2 O8'
_cell_volume   173.43070388
_cell_formula_units_Z   1
loop_
 _symmetry_equiv_pos_site_id
 _symmetry_equiv_pos_as_xyz
  1  'x, y, z'
loop_
 _atom_site_type_symbol
 _atom_site_label
 _atom_site_symmetry_multiplicity
 _atom_site_fract_x
 _atom_site_fract_y
 _atom_site_fract_z
 _atom_site_occupancy
  Cu  Cu0  1  0.999902  0.000021  0.999960  1
  Ag  Ag1  1  0.283939  0.264437  0.309973  1
  Ag  Ag2  1  0.716362  0.735755  0.690017  1
  P  P3  1  0.622654  0.693579  0.211280  1
  P  P4  1  0.377246  0.306364  0.788733  1
  O  O5  1  0.768544  0.792553  0.003448  1
  O  O6  1  0.301850  0.712642  0.151165  1
  O  O7  1  0.778820  0.417287  0.312596  1
  O  O8  1  0.633599  0.863046  0.350470  1
  O  O9  1  0.366558  0.136770  0.649584  1
  O  O10  1  0.221044  0.582566  0.687287  1
  O  O11  1  0.698085  0.287413  0.848947  1
  O  O12  1  0.231395  0.207566  0.996537  1
