# generated using pymatgen
data_Li2CaLuSi4
_symmetry_space_group_name_H-M   'P 1'
_cell_length_a   3.76348900
_cell_length_b   7.74662389
_cell_length_c   10.32206563
_cell_angle_alpha   89.20062316
_cell_angle_beta   90.00000000
_cell_angle_gamma   90.00000000
_symmetry_Int_Tables_number   1
_chemical_formula_structural   Li2CaLuSi4
_chemical_formula_sum   'Li4 Ca2 Lu2 Si8'
_cell_volume   300.90365887
_cell_formula_units_Z   2
loop_
 _symmetry_equiv_pos_site_id
 _symmetry_equiv_pos_as_xyz
  1  'x, y, z'
loop_
 _atom_site_type_symbol
 _atom_site_label
 _atom_site_symmetry_multiplicity
 _atom_site_fract_x
 _atom_site_fract_y
 _atom_site_fract_z
 _atom_site_occupancy
  Li  Li0  1  0.250000  0.999173  0.389393  1
  Li  Li1  1  0.750000  0.000827  0.610607  1
  Li  Li2  1  0.250000  0.489546  0.109237  1
  Li  Li3  1  0.750000  0.510454  0.890763  1
  Ca  Ca4  1  0.250000  0.637320  0.635378  1
  Ca  Ca5  1  0.750000  0.362680  0.364622  1
  Lu  Lu6  1  0.250000  0.128551  0.864744  1
  Lu  Lu7  1  0.750000  0.871449  0.135256  1
  Si  Si8  1  0.750000  0.258710  0.058466  1
  Si  Si9  1  0.250000  0.741290  0.941534  1
  Si  Si10  1  0.750000  0.774368  0.425090  1
  Si  Si11  1  0.250000  0.225632  0.574910  1
  Si  Si12  1  0.750000  0.847560  0.828327  1
  Si  Si13  1  0.250000  0.152440  0.171673  1
  Si  Si14  1  0.750000  0.331169  0.686522  1
  Si  Si15  1  0.250000  0.668831  0.313478  1
