# generated using pymatgen
data_Tb10Ga3CoBi2
_symmetry_space_group_name_H-M   'P 1'
_cell_length_a   8.64498257
_cell_length_b   8.64498322
_cell_length_c   8.81643715
_cell_angle_alpha   124.71156645
_cell_angle_beta   124.71157018
_cell_angle_gamma   80.70728138
_symmetry_Int_Tables_number   1
_chemical_formula_structural   Tb10Ga3CoBi2
_chemical_formula_sum   'Tb10 Ga3 Co1 Bi2'
_cell_volume   432.12825431
_cell_formula_units_Z   1
loop_
 _symmetry_equiv_pos_site_id
 _symmetry_equiv_pos_as_xyz
  1  'x, y, z'
loop_
 _atom_site_type_symbol
 _atom_site_label
 _atom_site_symmetry_multiplicity
 _atom_site_fract_x
 _atom_site_fract_y
 _atom_site_fract_z
 _atom_site_occupancy
  Tb  Tb0  1  0.703278  0.517119  0.500000  1
  Tb  Tb1  1  0.481053  0.000401  0.203267  1
  Tb  Tb2  1  0.777786  0.297134  0.796733  1
  Tb  Tb3  1  0.499599  0.018947  0.796733  1
  Tb  Tb4  1  0.996830  0.998383  0.995212  1
  Tb  Tb5  1  0.047987  0.191255  0.500000  1
  Tb  Tb6  1  0.308745  0.452013  0.500000  1
  Tb  Tb7  1  0.202866  0.722214  0.203267  1
  Tb  Tb8  1  0.982881  0.796722  0.500000  1
  Tb  Tb9  1  0.501617  0.503170  0.004788  1
  Ga  Ga10  1  0.141380  0.641976  0.783355  1
  Ga  Ga11  1  0.858024  0.358620  0.216645  1
  Ga  Ga12  1  0.632414  0.867586  0.500000  1
  Co  Co13  1  0.378974  0.121026  0.500000  1
  Bi  Bi14  1  0.243283  0.256717  0.000000  1
  Bi  Bi15  1  0.743283  0.756717  0.000000  1
