# generated using pymatgen
data_K3PaO4
_symmetry_space_group_name_H-M   'P 1'
_cell_length_a   7.55788100
_cell_length_b   6.34465393
_cell_length_c   6.69364589
_cell_angle_alpha   70.21845462
_cell_angle_beta   90.00000000
_cell_angle_gamma   90.00000000
_symmetry_Int_Tables_number   1
_chemical_formula_structural   K3PaO4
_chemical_formula_sum   'K6 Pa2 O8'
_cell_volume   302.03387095
_cell_formula_units_Z   2
loop_
 _symmetry_equiv_pos_site_id
 _symmetry_equiv_pos_as_xyz
  1  'x, y, z'
loop_
 _atom_site_type_symbol
 _atom_site_label
 _atom_site_symmetry_multiplicity
 _atom_site_fract_x
 _atom_site_fract_y
 _atom_site_fract_z
 _atom_site_occupancy
  K  K0  1  0.623850  0.250000  0.000000  1
  K  K1  1  0.376150  0.750000  0.000000  1
  K  K2  1  0.613831  0.750000  0.500000  1
  K  K3  1  0.386169  0.250000  0.500000  1
  K  K4  1  0.876009  0.750000  0.000000  1
  K  K5  1  0.123991  0.250000  0.000000  1
  Pa  Pa6  1  0.880279  0.250000  0.500000  1
  Pa  Pa7  1  0.119721  0.750000  0.500000  1
  O  O8  1  0.089154  0.001710  0.678907  1
  O  O9  1  0.089154  0.498290  0.321093  1
  O  O10  1  0.685607  0.437454  0.288925  1
  O  O11  1  0.685607  0.062546  0.711075  1
  O  O12  1  0.314393  0.562546  0.711075  1
  O  O13  1  0.314393  0.937454  0.288925  1
  O  O14  1  0.910846  0.998290  0.321093  1
  O  O15  1  0.910846  0.501710  0.678907  1
