# generated using pymatgen
data_Ce12Al6HgOs5
_symmetry_space_group_name_H-M   'P 1'
_cell_length_a   7.95129931
_cell_length_b   7.95129950
_cell_length_c   9.78842400
_cell_angle_alpha   89.33887848
_cell_angle_beta   89.33888567
_cell_angle_gamma   119.54559626
_symmetry_Int_Tables_number   1
_chemical_formula_structural   Ce12Al6HgOs5
_chemical_formula_sum   'Ce12 Al6 Hg1 Os5'
_cell_volume   538.23996733
_cell_formula_units_Z   1
loop_
 _symmetry_equiv_pos_site_id
 _symmetry_equiv_pos_as_xyz
  1  'x, y, z'
loop_
 _atom_site_type_symbol
 _atom_site_label
 _atom_site_symmetry_multiplicity
 _atom_site_fract_x
 _atom_site_fract_y
 _atom_site_fract_z
 _atom_site_occupancy
  Ce  Ce0  1  0.996481  0.590908  0.500575  1
  Ce  Ce1  1  0.590908  0.996481  0.500575  1
  Ce  Ce2  1  0.396020  0.396020  0.497844  1
  Ce  Ce3  1  0.991640  0.410232  0.008425  1
  Ce  Ce4  1  0.410232  0.991640  0.008425  1
  Ce  Ce5  1  0.630240  0.630240  0.029381  1
  Ce  Ce6  1  0.003649  0.738094  0.174664  1
  Ce  Ce7  1  0.738094  0.003649  0.174664  1
  Ce  Ce8  1  0.263615  0.263615  0.179256  1
  Ce  Ce9  1  0.988978  0.262503  0.659389  1
  Ce  Ce10  1  0.262503  0.988978  0.659389  1
  Ce  Ce11  1  0.735999  0.735999  0.675079  1
  Al  Al12  1  0.667808  0.334699  0.276001  1
  Al  Al13  1  0.334699  0.667808  0.276001  1
  Al  Al14  1  0.334285  0.676854  0.775712  1
  Al  Al15  1  0.676854  0.334285  0.775712  1
  Al  Al16  1  0.994489  0.994489  0.418431  1
  Al  Al17  1  0.990033  0.990033  0.915597  1
  Hg  Hg18  1  0.333116  0.333116  0.844703  1
  Os  Os19  1  0.999436  0.336138  0.334437  1
  Os  Os20  1  0.336138  0.999436  0.334437  1
  Os  Os21  1  0.660923  0.660923  0.339984  1
  Os  Os22  1  0.001090  0.662770  0.835283  1
  Os  Os23  1  0.662770  0.001090  0.835283  1
