# generated using pymatgen
data_SrNdHfThSb5
_symmetry_space_group_name_H-M   'P 1'
_cell_length_a   9.70539139
_cell_length_b   9.67176804
_cell_length_c   6.31710600
_cell_angle_alpha   90.00000000
_cell_angle_beta   90.00000000
_cell_angle_gamma   120.42689564
_symmetry_Int_Tables_number   1
_chemical_formula_structural   SrNdHfThSb5
_chemical_formula_sum   'Sr2 Nd2 Hf2 Th2 Sb10'
_cell_volume   511.30896275
_cell_formula_units_Z   2
loop_
 _symmetry_equiv_pos_site_id
 _symmetry_equiv_pos_as_xyz
  1  'x, y, z'
loop_
 _atom_site_type_symbol
 _atom_site_label
 _atom_site_symmetry_multiplicity
 _atom_site_fract_x
 _atom_site_fract_y
 _atom_site_fract_z
 _atom_site_occupancy
  Sr  Sr0  1  0.997548  0.612865  0.250000  1
  Sr  Sr1  1  0.002452  0.387135  0.750000  1
  Nd  Nd2  1  0.378977  0.383800  0.250000  1
  Nd  Nd3  1  0.621023  0.616200  0.750000  1
  Hf  Hf4  1  0.000000  0.000000  0.000000  1
  Hf  Hf5  1  0.000000  0.000000  0.500000  1
  Th  Th6  1  0.628034  0.009455  0.250000  1
  Th  Th7  1  0.371966  0.990545  0.750000  1
  Sb  Sb8  1  0.265576  0.006037  0.250000  1
  Sb  Sb9  1  0.734424  0.993963  0.750000  1
  Sb  Sb10  1  0.002989  0.257333  0.250000  1
  Sb  Sb11  1  0.997011  0.742667  0.750000  1
  Sb  Sb12  1  0.737898  0.744160  0.250000  1
  Sb  Sb13  1  0.262102  0.255840  0.750000  1
  Sb  Sb14  1  0.350295  0.678407  0.002159  1
  Sb  Sb15  1  0.649705  0.321593  0.997841  1
  Sb  Sb16  1  0.649705  0.321593  0.502159  1
  Sb  Sb17  1  0.350295  0.678407  0.497841  1
