# generated using pymatgen
data_Er8Si15GeW12
_symmetry_space_group_name_H-M   'P 1'
_cell_length_a   6.74983520
_cell_length_b   6.91633599
_cell_length_c   12.88407877
_cell_angle_alpha   90.06883687
_cell_angle_beta   89.96160093
_cell_angle_gamma   90.01126077
_symmetry_Int_Tables_number   1
_chemical_formula_structural   Er8Si15GeW12
_chemical_formula_sum   'Er8 Si15 Ge1 W12'
_cell_volume   601.48140264
_cell_formula_units_Z   1
loop_
 _symmetry_equiv_pos_site_id
 _symmetry_equiv_pos_as_xyz
  1  'x, y, z'
loop_
 _atom_site_type_symbol
 _atom_site_label
 _atom_site_symmetry_multiplicity
 _atom_site_fract_x
 _atom_site_fract_y
 _atom_site_fract_z
 _atom_site_occupancy
  Er  Er0  1  0.495397  0.332024  0.093288  1
  Er  Er1  1  0.994130  0.168074  0.406230  1
  Er  Er2  1  0.508894  0.670175  0.594207  1
  Er  Er3  1  0.004403  0.832135  0.906998  1
  Er  Er4  1  0.504237  0.667785  0.907030  1
  Er  Er5  1  0.005048  0.831938  0.593456  1
  Er  Er6  1  0.496042  0.330681  0.405333  1
  Er  Er7  1  0.995521  0.168274  0.093521  1
  Si  Si8  1  0.804399  0.634244  0.750545  1
  Si  Si9  1  0.302779  0.863734  0.750872  1
  Si  Si10  1  0.196717  0.366337  0.249794  1
  Si  Si11  1  0.697080  0.134735  0.249402  1
  Si  Si12  1  0.535380  0.371061  0.750610  1
  Si  Si13  1  0.035828  0.129031  0.750105  1
  Si  Si14  1  0.463286  0.629274  0.249871  1
  Si  Si15  1  0.963110  0.872769  0.248693  1
  Si  Si16  1  0.663683  0.042068  0.546090  1
  Si  Si17  1  0.161575  0.457959  0.953780  1
  Si  Si18  1  0.337429  0.958568  0.046953  1
  Si  Si19  1  0.833838  0.542943  0.452476  1
  Si  Si20  1  0.337103  0.957971  0.453613  1
  Si  Si21  1  0.838075  0.541368  0.046767  1
  Si  Si22  1  0.661735  0.040985  0.953344  1
  Ge  Ge23  1  0.169545  0.458693  0.545776  1
  W  W24  1  0.667290  0.999158  0.750203  1
  W  W25  1  0.166719  0.499731  0.751337  1
  W  W26  1  0.332712  0.001682  0.249935  1
  W  W27  1  0.832781  0.499491  0.250346  1
  W  W28  1  0.829278  0.335772  0.626377  1
  W  W29  1  0.331225  0.162686  0.875142  1
  W  W30  1  0.168260  0.663335  0.124198  1
  W  W31  1  0.667969  0.838125  0.374387  1
  W  W32  1  0.165276  0.667665  0.371465  1
  W  W33  1  0.667438  0.836014  0.125451  1
  W  W34  1  0.830965  0.336128  0.875511  1
  W  W35  1  0.334853  0.157388  0.626899  1
