# generated using pymatgen
data_Yb12Dy7YSi16
_symmetry_space_group_name_H-M   'P 1'
_cell_length_a   7.43074300
_cell_length_b   7.79795700
_cell_length_c   15.13061500
_cell_angle_alpha   90.00000000
_cell_angle_beta   90.00000000
_cell_angle_gamma   90.00000000
_symmetry_Int_Tables_number   1
_chemical_formula_structural   Yb12Dy7YSi16
_chemical_formula_sum   'Yb12 Dy7 Y1 Si16'
_cell_volume   876.73765169
_cell_formula_units_Z   1
loop_
 _symmetry_equiv_pos_site_id
 _symmetry_equiv_pos_as_xyz
  1  'x, y, z'
loop_
 _atom_site_type_symbol
 _atom_site_label
 _atom_site_symmetry_multiplicity
 _atom_site_fract_x
 _atom_site_fract_y
 _atom_site_fract_z
 _atom_site_occupancy
  Yb  Yb0  1  0.970378  0.815514  0.403069  1
  Yb  Yb1  1  0.470378  0.684486  0.096931  1
  Yb  Yb2  1  0.529622  0.315514  0.596931  1
  Yb  Yb3  1  0.029622  0.184486  0.903069  1
  Yb  Yb4  1  0.029622  0.184486  0.596931  1
  Yb  Yb5  1  0.529622  0.315514  0.903069  1
  Yb  Yb6  1  0.470378  0.684486  0.403069  1
  Yb  Yb7  1  0.970378  0.815514  0.096931  1
  Yb  Yb8  1  0.354924  0.019071  0.750000  1
  Yb  Yb9  1  0.854924  0.480929  0.750000  1
  Yb  Yb10  1  0.145076  0.519071  0.250000  1
  Yb  Yb11  1  0.645076  0.980929  0.250000  1
  Dy  Dy12  1  0.813849  0.322901  0.378965  1
  Dy  Dy13  1  0.186151  0.677099  0.878965  1
  Dy  Dy14  1  0.686151  0.822901  0.621035  1
  Dy  Dy15  1  0.313849  0.177099  0.378965  1
  Dy  Dy16  1  0.813849  0.322901  0.121035  1
  Dy  Dy17  1  0.186151  0.677099  0.621035  1
  Dy  Dy18  1  0.686151  0.822901  0.878965  1
  Y  Y19  1  0.313849  0.177099  0.121035  1
  Si  Si20  1  0.858826  0.533101  0.538574  1
  Si  Si21  1  0.358826  0.966899  0.961426  1
  Si  Si22  1  0.641174  0.033101  0.461426  1
  Si  Si23  1  0.141174  0.466899  0.038574  1
  Si  Si24  1  0.141174  0.466899  0.461426  1
  Si  Si25  1  0.641174  0.033101  0.038574  1
  Si  Si26  1  0.358826  0.966899  0.538574  1
  Si  Si27  1  0.858826  0.533101  0.961426  1
  Si  Si28  1  0.978651  0.885456  0.750000  1
  Si  Si29  1  0.478651  0.614544  0.750000  1
  Si  Si30  1  0.521349  0.385456  0.250000  1
  Si  Si31  1  0.021349  0.114544  0.250000  1
  Si  Si32  1  0.249134  0.393869  0.750000  1
  Si  Si33  1  0.749134  0.106131  0.750000  1
  Si  Si34  1  0.250866  0.893869  0.250000  1
  Si  Si35  1  0.750866  0.606131  0.250000  1
