# generated using pymatgen
data_Tb8TmLuSi6
_symmetry_space_group_name_H-M   'P 1'
_cell_length_a   8.46406800
_cell_length_b   8.46406685
_cell_length_c   6.35353800
_cell_angle_alpha   90.00000000
_cell_angle_beta   90.00000000
_cell_angle_gamma   120.00001232
_symmetry_Int_Tables_number   1
_chemical_formula_structural   Tb8TmLuSi6
_chemical_formula_sum   'Tb8 Tm1 Lu1 Si6'
_cell_volume   394.18894291
_cell_formula_units_Z   1
loop_
 _symmetry_equiv_pos_site_id
 _symmetry_equiv_pos_as_xyz
  1  'x, y, z'
loop_
 _atom_site_type_symbol
 _atom_site_label
 _atom_site_symmetry_multiplicity
 _atom_site_fract_x
 _atom_site_fract_y
 _atom_site_fract_z
 _atom_site_occupancy
  Tb  Tb0  1  0.666667  0.333333  0.500000  1
  Tb  Tb1  1  0.333333  0.666667  0.500000  1
  Tb  Tb2  1  0.755304  0.755417  0.247892  1
  Tb  Tb3  1  0.244583  0.999887  0.247892  1
  Tb  Tb4  1  0.000113  0.244696  0.247892  1
  Tb  Tb5  1  0.244583  0.244696  0.752108  1
  Tb  Tb6  1  0.755304  0.999887  0.752108  1
  Tb  Tb7  1  0.000113  0.755417  0.752108  1
  Tm  Tm8  1  0.666667  0.333333  0.000000  1
  Lu  Lu9  1  0.333333  0.666667  0.000000  1
  Si  Si10  1  0.394317  0.394662  0.244009  1
  Si  Si11  1  0.605338  0.999655  0.244009  1
  Si  Si12  1  0.000345  0.605683  0.244009  1
  Si  Si13  1  0.605338  0.605683  0.755991  1
  Si  Si14  1  0.394317  0.999655  0.755991  1
  Si  Si15  1  0.000345  0.394662  0.755991  1
