# generated using pymatgen
data_Lu4MnZn2Ru5
_symmetry_space_group_name_H-M   'P 1'
_cell_length_a   5.31625158
_cell_length_b   5.22285088
_cell_length_c   8.77854100
_cell_angle_alpha   90.00000000
_cell_angle_beta   90.00000000
_cell_angle_gamma   121.66809663
_symmetry_Int_Tables_number   1
_chemical_formula_structural   Lu4MnZn2Ru5
_chemical_formula_sum   'Lu4 Mn1 Zn2 Ru5'
_cell_volume   207.45213292
_cell_formula_units_Z   1
loop_
 _symmetry_equiv_pos_site_id
 _symmetry_equiv_pos_as_xyz
  1  'x, y, z'
loop_
 _atom_site_type_symbol
 _atom_site_label
 _atom_site_symmetry_multiplicity
 _atom_site_fract_x
 _atom_site_fract_y
 _atom_site_fract_z
 _atom_site_occupancy
  Lu  Lu0  1  0.329646  0.667371  0.441299  1
  Lu  Lu1  1  0.667940  0.338156  0.567602  1
  Lu  Lu2  1  0.667940  0.338156  0.932398  1
  Lu  Lu3  1  0.329646  0.667371  0.058701  1
  Mn  Mn4  1  0.164070  0.326146  0.750000  1
  Zn  Zn5  1  0.341594  0.165702  0.250000  1
  Zn  Zn6  1  0.836802  0.661563  0.250000  1
  Ru  Ru7  1  0.175862  0.824440  0.750000  1
  Ru  Ru8  1  0.654174  0.827817  0.750000  1
  Ru  Ru9  1  0.998503  0.009883  0.997899  1
  Ru  Ru10  1  0.835320  0.163516  0.250000  1
  Ru  Ru11  1  0.998503  0.009883  0.502101  1
