# generated using pymatgen
data_Rb8Tm6BBr20
_symmetry_space_group_name_H-M   'P 1'
_cell_length_a   12.25160014
_cell_length_b   12.25160032
_cell_length_c   12.25160000
_cell_angle_alpha   60.00000086
_cell_angle_beta   60.00000038
_cell_angle_gamma   60.00000229
_symmetry_Int_Tables_number   1
_chemical_formula_structural   Rb8Tm6BBr20
_chemical_formula_sum   'Rb8 Tm6 B1 Br20'
_cell_volume   1300.35956816
_cell_formula_units_Z   1
loop_
 _symmetry_equiv_pos_site_id
 _symmetry_equiv_pos_as_xyz
  1  'x, y, z'
loop_
 _atom_site_type_symbol
 _atom_site_label
 _atom_site_symmetry_multiplicity
 _atom_site_fract_x
 _atom_site_fract_y
 _atom_site_fract_z
 _atom_site_occupancy
  Rb  Rb0  1  0.359432  0.359432  0.359432  1
  Rb  Rb1  1  0.640568  0.640568  0.640568  1
  Rb  Rb2  1  0.359432  0.359432  0.921705  1
  Rb  Rb3  1  0.359432  0.921705  0.359432  1
  Rb  Rb4  1  0.640568  0.640568  0.078295  1
  Rb  Rb5  1  0.640568  0.078295  0.640568  1
  Rb  Rb6  1  0.921705  0.359432  0.359432  1
  Rb  Rb7  1  0.078295  0.640568  0.640568  1
  Tm  Tm8  1  0.851518  0.148482  0.148482  1
  Tm  Tm9  1  0.148482  0.851518  0.851518  1
  Tm  Tm10  1  0.148482  0.851518  0.148482  1
  Tm  Tm11  1  0.851518  0.148482  0.851518  1
  Tm  Tm12  1  0.148482  0.148482  0.851518  1
  Tm  Tm13  1  0.851518  0.851518  0.148482  1
  B  B14  1  0.000000  0.000000  0.000000  1
  Br  Br15  1  0.325348  0.000000  0.000000  1
  Br  Br16  1  0.674652  0.000000  0.000000  1
  Br  Br17  1  0.000000  0.325348  0.674652  1
  Br  Br18  1  0.000000  0.674652  0.325348  1
  Br  Br19  1  0.000000  0.325348  0.000000  1
  Br  Br20  1  0.674652  0.000000  0.325348  1
  Br  Br21  1  0.000000  0.674652  0.000000  1
  Br  Br22  1  0.325348  0.000000  0.674652  1
  Br  Br23  1  0.000000  0.000000  0.325348  1
  Br  Br24  1  0.000000  0.000000  0.674652  1
  Br  Br25  1  0.674652  0.325348  0.000000  1
  Br  Br26  1  0.325348  0.674652  0.000000  1
  Br  Br27  1  0.685536  0.314464  0.314464  1
  Br  Br28  1  0.314464  0.685536  0.685536  1
  Br  Br29  1  0.314464  0.685536  0.314464  1
  Br  Br30  1  0.685536  0.314464  0.685536  1
  Br  Br31  1  0.314464  0.314464  0.685536  1
  Br  Br32  1  0.685536  0.685536  0.314464  1
  Br  Br33  1  0.250000  0.250000  0.250000  1
  Br  Br34  1  0.750000  0.750000  0.750000  1
