# generated using pymatgen
data_Er6Tm2Ti9Si16W3
_symmetry_space_group_name_H-M   'P 1'
_cell_length_a   6.96387905
_cell_length_b   6.96382672
_cell_length_c   12.80669503
_cell_angle_alpha   90.01571042
_cell_angle_beta   89.99483916
_cell_angle_gamma   89.96222831
_symmetry_Int_Tables_number   1
_chemical_formula_structural   Er6Tm2Ti9Si16W3
_chemical_formula_sum   'Er6 Tm2 Ti9 Si16 W3'
_cell_volume   621.06367738
_cell_formula_units_Z   1
loop_
 _symmetry_equiv_pos_site_id
 _symmetry_equiv_pos_as_xyz
  1  'x, y, z'
loop_
 _atom_site_type_symbol
 _atom_site_label
 _atom_site_symmetry_multiplicity
 _atom_site_fract_x
 _atom_site_fract_y
 _atom_site_fract_z
 _atom_site_occupancy
  Er  Er0  1  0.500284  0.158181  0.216723  1
  Er  Er1  1  0.842134  0.498643  0.281949  1
  Er  Er2  1  0.158224  0.500336  0.783293  1
  Er  Er3  1  0.658985  0.999582  0.967037  1
  Er  Er4  1  0.002046  0.340744  0.533335  1
  Er  Er5  1  0.999580  0.658996  0.032910  1
  Tm  Tm6  1  0.340836  0.001851  0.466652  1
  Tm  Tm7  1  0.498774  0.842238  0.718029  1
  Ti  Ti8  1  0.672444  0.672578  0.500028  1
  Ti  Ti9  1  0.151994  0.008297  0.875633  1
  Ti  Ti10  1  0.491537  0.652393  0.124784  1
  Ti  Ti11  1  0.507184  0.347104  0.626712  1
  Ti  Ti12  1  0.652338  0.491571  0.875179  1
  Ti  Ti13  1  0.347078  0.507285  0.373293  1
  Ti  Ti14  1  0.849159  0.992321  0.374373  1
  Ti  Ti15  1  0.008373  0.151944  0.124339  1
  Ti  Ti16  1  0.992365  0.849144  0.625636  1
  Si  Si17  1  0.202425  0.131114  0.683568  1
  Si  Si18  1  0.368415  0.701453  0.933598  1
  Si  Si19  1  0.631547  0.296957  0.433622  1
  Si  Si20  1  0.701394  0.368405  0.066357  1
  Si  Si21  1  0.297158  0.631889  0.566428  1
  Si  Si22  1  0.798224  0.868576  0.183951  1
  Si  Si23  1  0.131316  0.202201  0.316475  1
  Si  Si24  1  0.868428  0.798262  0.816018  1
  Si  Si25  1  0.292345  0.953419  0.065008  1
  Si  Si26  1  0.545747  0.791643  0.314986  1
  Si  Si27  1  0.453154  0.207886  0.815243  1
  Si  Si28  1  0.791486  0.545937  0.685076  1
  Si  Si29  1  0.208069  0.453142  0.184720  1
  Si  Si30  1  0.707228  0.047809  0.565875  1
  Si  Si31  1  0.953428  0.292322  0.934979  1
  Si  Si32  1  0.048019  0.707541  0.434156  1
  W  W33  1  0.327236  0.327241  0.999995  1
  W  W34  1  0.173510  0.827625  0.249354  1
  W  W35  1  0.827536  0.173373  0.750689  1
