# generated using pymatgen
data_SmDy2Np7O20
_symmetry_space_group_name_H-M   'P 1'
_cell_length_a   6.58748307
_cell_length_b   7.59834021
_cell_length_c   8.49762024
_cell_angle_alpha   102.72874353
_cell_angle_beta   97.31086079
_cell_angle_gamma   106.85627768
_symmetry_Int_Tables_number   1
_chemical_formula_structural   SmDy2Np7O20
_chemical_formula_sum   'Sm1 Dy2 Np7 O20'
_cell_volume   388.64814769
_cell_formula_units_Z   1
loop_
 _symmetry_equiv_pos_site_id
 _symmetry_equiv_pos_as_xyz
  1  'x, y, z'
loop_
 _atom_site_type_symbol
 _atom_site_label
 _atom_site_symmetry_multiplicity
 _atom_site_fract_x
 _atom_site_fract_y
 _atom_site_fract_z
 _atom_site_occupancy
  Sm  Sm0  1  0.999653  0.999784  0.999802  1
  Dy  Dy1  1  0.799378  0.599008  0.598772  1
  Dy  Dy2  1  0.600698  0.201262  0.200988  1
  Np  Np3  1  0.999718  0.499967  0.000003  1
  Np  Np4  1  0.798913  0.100030  0.598844  1
  Np  Np5  1  0.400256  0.800382  0.801354  1
  Np  Np6  1  0.199986  0.399617  0.399049  1
  Np  Np7  1  0.600211  0.699298  0.200480  1
  Np  Np8  1  0.400622  0.299310  0.800322  1
  Np  Np9  1  0.200666  0.901294  0.400220  1
  O  O10  1  0.857892  0.320378  0.454601  1
  O  O11  1  0.638929  0.913205  0.051413  1
  O  O12  1  0.950570  0.766134  0.155228  1
  O  O13  1  0.440845  0.520379  0.653834  1
  O  O14  1  0.855953  0.832621  0.447775  1
  O  O15  1  0.649429  0.431332  0.046347  1
  O  O16  1  0.742618  0.367681  0.752358  1
  O  O17  1  0.250169  0.126345  0.261169  1
  O  O18  1  0.956698  0.289195  0.152337  1
  O  O19  1  0.446138  0.026850  0.646095  1
  O  O20  1  0.549347  0.969289  0.355472  1
  O  O21  1  0.057186  0.715267  0.849451  1
  O  O22  1  0.737221  0.877703  0.743032  1
  O  O23  1  0.350284  0.571309  0.953035  1
  O  O24  1  0.253126  0.628748  0.247632  1
  O  O25  1  0.544962  0.481950  0.348397  1
  O  O26  1  0.151517  0.172929  0.552683  1
  O  O27  1  0.051313  0.233561  0.843580  1
  O  O28  1  0.357657  0.076715  0.940976  1
  O  O29  1  0.158047  0.678456  0.544750  1
