# generated using pymatgen
data_Nd5Ho11(CdIr)4
_symmetry_space_group_name_H-M   'P 1'
_cell_length_a   9.70843719
_cell_length_b   9.69760530
_cell_length_c   9.69760433
_cell_angle_alpha   60.15427362
_cell_angle_beta   59.96303933
_cell_angle_gamma   59.96304067
_symmetry_Int_Tables_number   1
_chemical_formula_structural   Nd5Ho11(CdIr)4
_chemical_formula_sum   'Nd5 Ho11 Cd4 Ir4'
_cell_volume   645.98684717
_cell_formula_units_Z   1
loop_
 _symmetry_equiv_pos_site_id
 _symmetry_equiv_pos_as_xyz
  1  'x, y, z'
loop_
 _atom_site_type_symbol
 _atom_site_label
 _atom_site_symmetry_multiplicity
 _atom_site_fract_x
 _atom_site_fract_y
 _atom_site_fract_z
 _atom_site_occupancy
  Nd  Nd0  1  0.557313  0.942687  0.942687  1
  Nd  Nd1  1  0.562766  0.938050  0.558623  1
  Nd  Nd2  1  0.940560  0.558623  0.938050  1
  Nd  Nd3  1  0.562766  0.558623  0.938050  1
  Nd  Nd4  1  0.940560  0.938050  0.558623  1
  Ho  Ho5  1  0.348203  0.348302  0.348302  1
  Ho  Ho6  1  0.345572  0.351053  0.957803  1
  Ho  Ho7  1  0.345572  0.957803  0.351053  1
  Ho  Ho8  1  0.955193  0.348302  0.348302  1
  Ho  Ho9  1  0.812801  0.187199  0.187199  1
  Ho  Ho10  1  0.186927  0.813073  0.813073  1
  Ho  Ho11  1  0.188424  0.811223  0.187906  1
  Ho  Ho12  1  0.812446  0.187906  0.811223  1
  Ho  Ho13  1  0.188424  0.187906  0.811223  1
  Ho  Ho14  1  0.812446  0.811223  0.187906  1
  Ho  Ho15  1  0.944855  0.555145  0.555145  1
  Cd  Cd16  1  0.582454  0.578833  0.578833  1
  Cd  Cd17  1  0.579690  0.580158  0.260460  1
  Cd  Cd18  1  0.579690  0.260460  0.580158  1
  Cd  Cd19  1  0.259880  0.578833  0.578833  1
  Ir  Ir20  1  0.140785  0.141904  0.141904  1
  Ir  Ir21  1  0.138631  0.146757  0.575979  1
  Ir  Ir22  1  0.138631  0.575979  0.146757  1
  Ir  Ir23  1  0.575406  0.141904  0.141904  1
