# generated using pymatgen
data_NaSmPt3Rh
_symmetry_space_group_name_H-M   'P 1'
_cell_length_a   5.39580248
_cell_length_b   5.39580282
_cell_length_c   5.39580299
_cell_angle_alpha   60.05673643
_cell_angle_beta   60.05673826
_cell_angle_gamma   60.05673403
_symmetry_Int_Tables_number   1
_chemical_formula_structural   NaSmPt3Rh
_chemical_formula_sum   'Na1 Sm1 Pt3 Rh1'
_cell_volume   111.22727497
_cell_formula_units_Z   1
loop_
 _symmetry_equiv_pos_site_id
 _symmetry_equiv_pos_as_xyz
  1  'x, y, z'
loop_
 _atom_site_type_symbol
 _atom_site_label
 _atom_site_symmetry_multiplicity
 _atom_site_fract_x
 _atom_site_fract_y
 _atom_site_fract_z
 _atom_site_occupancy
  Na  Na0  1  0.750031  0.750031  0.750031  1
  Sm  Sm1  1  0.499910  0.499910  0.499910  1
  Pt  Pt2  1  0.625821  0.124713  0.124713  1
  Pt  Pt3  1  0.124713  0.625821  0.124713  1
  Pt  Pt4  1  0.124713  0.124713  0.625821  1
  Rh  Rh5  1  0.124814  0.124814  0.124814  1
