# generated using pymatgen
data_TbTm5TiAl23Ru8
_symmetry_space_group_name_H-M   'P 1'
_cell_length_a   8.79349929
_cell_length_b   8.79349912
_cell_length_c   9.57281206
_cell_angle_alpha   90.01100239
_cell_angle_beta   89.98899506
_cell_angle_gamma   119.94221671
_symmetry_Int_Tables_number   1
_chemical_formula_structural   TbTm5TiAl23Ru8
_chemical_formula_sum   'Tb1 Tm5 Ti1 Al23 Ru8'
_cell_volume   641.42545322
_cell_formula_units_Z   1
loop_
 _symmetry_equiv_pos_site_id
 _symmetry_equiv_pos_as_xyz
  1  'x, y, z'
loop_
 _atom_site_type_symbol
 _atom_site_label
 _atom_site_symmetry_multiplicity
 _atom_site_fract_x
 _atom_site_fract_y
 _atom_site_fract_z
 _atom_site_occupancy
  Tb  Tb0  1  0.807610  0.192390  0.749968  1
  Tm  Tm1  1  0.193743  0.806257  0.250881  1
  Tm  Tm2  1  0.388047  0.194006  0.749821  1
  Tm  Tm3  1  0.612113  0.806214  0.250792  1
  Tm  Tm4  1  0.805994  0.611953  0.749821  1
  Tm  Tm5  1  0.193786  0.387887  0.250792  1
  Ti  Ti6  1  0.666438  0.333562  0.002664  1
  Al  Al7  1  0.333346  0.666654  0.019646  1
  Al  Al8  1  0.333207  0.666793  0.479224  1
  Al  Al9  1  0.666488  0.333512  0.519359  1
  Al  Al10  1  0.837945  0.162055  0.421634  1
  Al  Al11  1  0.162714  0.837286  0.576278  1
  Al  Al12  1  0.323799  0.162036  0.422314  1
  Al  Al13  1  0.162500  0.837500  0.922007  1
  Al  Al14  1  0.674014  0.836495  0.576164  1
  Al  Al15  1  0.840712  0.159288  0.078770  1
  Al  Al16  1  0.837964  0.676201  0.422314  1
  Al  Al17  1  0.674364  0.836699  0.922122  1
  Al  Al18  1  0.163505  0.325986  0.576164  1
  Al  Al19  1  0.318143  0.159106  0.077814  1
  Al  Al20  1  0.163301  0.325636  0.922122  1
  Al  Al21  1  0.840894  0.681857  0.077814  1
  Al  Al22  1  0.438174  0.561826  0.748289  1
  Al  Al23  1  0.560052  0.439948  0.249799  1
  Al  Al24  1  0.124515  0.562831  0.748403  1
  Al  Al25  1  0.879733  0.440164  0.249749  1
  Al  Al26  1  0.437169  0.875485  0.748403  1
  Al  Al27  1  0.559836  0.120267  0.249749  1
  Al  Al28  1  0.001431  0.998569  0.750024  1
  Al  Al29  1  0.999884  0.000116  0.249993  1
  Ru  Ru30  1  0.501942  0.498058  0.997860  1
  Ru  Ru31  1  0.996659  0.498995  0.998429  1
  Ru  Ru32  1  0.500356  0.499644  0.497740  1
  Ru  Ru33  1  0.501005  0.003341  0.998429  1
  Ru  Ru34  1  0.999221  0.500189  0.497476  1
  Ru  Ru35  1  0.499811  0.000779  0.497476  1
  Ru  Ru36  1  0.999752  0.000248  0.998632  1
  Ru  Ru37  1  0.999836  0.000164  0.501065  1
