# generated using pymatgen
data_Dy13Er7(Bi2Pt)4
_symmetry_space_group_name_H-M   'P 1'
_cell_length_a   8.05328131
_cell_length_b   9.00951410
_cell_length_c   12.46448549
_cell_angle_alpha   90.01220536
_cell_angle_beta   89.97026367
_cell_angle_gamma   90.01142390
_symmetry_Int_Tables_number   1
_chemical_formula_structural   Dy13Er7(Bi2Pt)4
_chemical_formula_sum   'Dy13 Er7 Bi8 Pt4'
_cell_volume   904.37493721
_cell_formula_units_Z   1
loop_
 _symmetry_equiv_pos_site_id
 _symmetry_equiv_pos_as_xyz
  1  'x, y, z'
loop_
 _atom_site_type_symbol
 _atom_site_label
 _atom_site_symmetry_multiplicity
 _atom_site_fract_x
 _atom_site_fract_y
 _atom_site_fract_z
 _atom_site_occupancy
  Dy  Dy0  1  0.664265  0.750046  0.710165  1
  Dy  Dy1  1  0.335720  0.249963  0.289753  1
  Dy  Dy2  1  0.164581  0.249836  0.789704  1
  Dy  Dy3  1  0.835670  0.750020  0.210354  1
  Dy  Dy4  1  0.131960  0.750092  0.806331  1
  Dy  Dy5  1  0.868451  0.249795  0.193739  1
  Dy  Dy6  1  0.631678  0.249948  0.693471  1
  Dy  Dy7  1  0.368388  0.750032  0.306426  1
  Dy  Dy8  1  0.550136  0.750199  0.999396  1
  Dy  Dy9  1  0.449347  0.249842  0.000714  1
  Dy  Dy10  1  0.050591  0.249993  0.500673  1
  Dy  Dy11  1  0.949547  0.750009  0.499345  1
  Dy  Dy12  1  0.822810  0.454059  0.931151  1
  Er  Er13  1  0.176219  0.546154  0.068780  1
  Er  Er14  1  0.324139  0.546074  0.568583  1
  Er  Er15  1  0.175857  0.953835  0.068665  1
  Er  Er16  1  0.675916  0.453913  0.431426  1
  Er  Er17  1  0.824068  0.046007  0.931419  1
  Er  Er18  1  0.675904  0.046078  0.431414  1
  Er  Er19  1  0.324135  0.953917  0.568605  1
  Bi  Bi20  1  0.935980  0.007702  0.672804  1
  Bi  Bi21  1  0.064143  0.992274  0.327294  1
  Bi  Bi22  1  0.435979  0.992259  0.827214  1
  Bi  Bi23  1  0.064142  0.507708  0.327226  1
  Bi  Bi24  1  0.564175  0.007705  0.172807  1
  Bi  Bi25  1  0.936091  0.492339  0.672586  1
  Bi  Bi26  1  0.564307  0.492300  0.172773  1
  Bi  Bi27  1  0.435429  0.507789  0.827060  1
  Pt  Pt28  1  0.924433  0.750202  0.990042  1
  Pt  Pt29  1  0.075899  0.249900  0.010065  1
  Pt  Pt30  1  0.424279  0.250018  0.509997  1
  Pt  Pt31  1  0.575761  0.749993  0.490018  1
