# generated using pymatgen
data_TbDy3MnCo13B6
_symmetry_space_group_name_H-M   'P 1'
_cell_length_a   5.05531400
_cell_length_b   5.05531487
_cell_length_c   12.72591600
_cell_angle_alpha   90.00000000
_cell_angle_beta   90.00000000
_cell_angle_gamma   120.00027428
_symmetry_Int_Tables_number   1
_chemical_formula_structural   TbDy3MnCo13B6
_chemical_formula_sum   'Tb1 Dy3 Mn1 Co13 B6'
_cell_volume   281.65329110
_cell_formula_units_Z   1
loop_
 _symmetry_equiv_pos_site_id
 _symmetry_equiv_pos_as_xyz
  1  'x, y, z'
loop_
 _atom_site_type_symbol
 _atom_site_label
 _atom_site_symmetry_multiplicity
 _atom_site_fract_x
 _atom_site_fract_y
 _atom_site_fract_z
 _atom_site_occupancy
  Tb  Tb0  1  0.000004  0.999996  0.000000  1
  Dy  Dy1  1  0.000000  0.000000  0.260943  1
  Dy  Dy2  1  0.000000  0.000000  0.500000  1
  Dy  Dy3  1  0.000000  0.000000  0.739057  1
  Mn  Mn4  1  0.333330  0.666670  0.000000  1
  Co  Co5  1  0.499920  0.999839  0.614867  1
  Co  Co6  1  0.501047  0.002096  0.843112  1
  Co  Co7  1  0.501047  0.498953  0.843109  1
  Co  Co8  1  0.499920  0.500080  0.385133  1
  Co  Co9  1  0.000161  0.500080  0.614867  1
  Co  Co10  1  0.997904  0.498953  0.156888  1
  Co  Co11  1  0.997904  0.498953  0.843112  1
  Co  Co12  1  0.501047  0.498953  0.156891  1
  Co  Co13  1  0.499920  0.999839  0.385133  1
  Co  Co14  1  0.501047  0.002096  0.156888  1
  Co  Co15  1  0.499920  0.500080  0.614867  1
  Co  Co16  1  0.666671  0.333329  0.000000  1
  Co  Co17  1  0.000161  0.500080  0.385133  1
  B  B18  1  0.666666  0.333334  0.730546  1
  B  B19  1  0.333334  0.666666  0.731231  1
  B  B20  1  0.333334  0.666666  0.268769  1
  B  B21  1  0.666666  0.333334  0.500000  1
  B  B22  1  0.666666  0.333334  0.269454  1
  B  B23  1  0.333334  0.666666  0.500000  1
