# generated using pymatgen
data_Dy2YHf(Co4P3)2
_symmetry_space_group_name_H-M   'P 1'
_cell_length_a   3.71398800
_cell_length_b   10.68239000
_cell_length_c   12.39630000
_cell_angle_alpha   90.00000000
_cell_angle_beta   90.00000000
_cell_angle_gamma   90.00000000
_symmetry_Int_Tables_number   1
_chemical_formula_structural   Dy2YHf(Co4P3)2
_chemical_formula_sum   'Dy4 Y2 Hf2 Co16 P12'
_cell_volume   491.81413177
_cell_formula_units_Z   2
loop_
 _symmetry_equiv_pos_site_id
 _symmetry_equiv_pos_as_xyz
  1  'x, y, z'
loop_
 _atom_site_type_symbol
 _atom_site_label
 _atom_site_symmetry_multiplicity
 _atom_site_fract_x
 _atom_site_fract_y
 _atom_site_fract_z
 _atom_site_occupancy
  Dy  Dy0  1  0.500000  0.821827  0.204662  1
  Dy  Dy1  1  0.500000  0.178173  0.204662  1
  Dy  Dy2  1  0.000000  0.678173  0.795338  1
  Dy  Dy3  1  0.000000  0.321827  0.795338  1
  Y  Y4  1  0.000000  0.500000  0.528297  1
  Y  Y5  1  0.500000  0.000000  0.471703  1
  Hf  Hf6  1  0.500000  0.500000  0.157348  1
  Hf  Hf7  1  0.000000  0.000000  0.842652  1
  Co  Co8  1  0.500000  0.500000  0.703655  1
  Co  Co9  1  0.000000  0.000000  0.296345  1
  Co  Co10  1  0.000000  0.500000  0.986955  1
  Co  Co11  1  0.500000  0.000000  0.013045  1
  Co  Co12  1  0.500000  0.332069  0.993465  1
  Co  Co13  1  0.500000  0.667931  0.993465  1
  Co  Co14  1  0.000000  0.167931  0.006535  1
  Co  Co15  1  0.000000  0.832069  0.006535  1
  Co  Co16  1  0.500000  0.295189  0.432963  1
  Co  Co17  1  0.500000  0.704811  0.432963  1
  Co  Co18  1  0.000000  0.204811  0.567037  1
  Co  Co19  1  0.000000  0.795189  0.567037  1
  Co  Co20  1  0.500000  0.877945  0.703182  1
  Co  Co21  1  0.500000  0.122055  0.703182  1
  Co  Co22  1  0.000000  0.622055  0.296818  1
  Co  Co23  1  0.000000  0.377945  0.296818  1
  P  P24  1  0.500000  0.500000  0.883780  1
  P  P25  1  0.000000  0.000000  0.116220  1
  P  P26  1  0.500000  0.500000  0.361384  1
  P  P27  1  0.000000  0.000000  0.638616  1
  P  P28  1  0.500000  0.309839  0.615706  1
  P  P29  1  0.500000  0.690161  0.615706  1
  P  P30  1  0.000000  0.190161  0.384294  1
  P  P31  1  0.000000  0.809839  0.384294  1
  P  P32  1  0.500000  0.838540  0.893350  1
  P  P33  1  0.500000  0.161460  0.893350  1
  P  P34  1  0.000000  0.661460  0.106650  1
  P  P35  1  0.000000  0.338540  0.106650  1
