# generated using pymatgen
data_Sr6Sb2O11
_symmetry_space_group_name_H-M   'P 1'
_cell_length_a   6.04297912
_cell_length_b   6.02038956
_cell_length_c   24.02120004
_cell_angle_alpha   58.73668798
_cell_angle_beta   59.17495608
_cell_angle_gamma   60.10818904
_symmetry_Int_Tables_number   1
_chemical_formula_structural   Sr6Sb2O11
_chemical_formula_sum   'Sr12 Sb4 O22'
_cell_volume   608.48105605
_cell_formula_units_Z   2
loop_
 _symmetry_equiv_pos_site_id
 _symmetry_equiv_pos_as_xyz
  1  'x, y, z'
loop_
 _atom_site_type_symbol
 _atom_site_label
 _atom_site_symmetry_multiplicity
 _atom_site_fract_x
 _atom_site_fract_y
 _atom_site_fract_z
 _atom_site_occupancy
  Sr  Sr0  1  0.116350  0.330907  0.078694  1
  Sr  Sr1  1  0.440971  0.612359  0.109330  1
  Sr  Sr2  1  0.180283  0.356543  0.291424  1
  Sr  Sr3  1  0.369270  0.545433  0.386993  1
  Sr  Sr4  1  0.631056  0.803364  0.204265  1
  Sr  Sr5  1  0.221580  0.242354  0.578866  1
  Sr  Sr6  1  0.504261  0.512169  0.609915  1
  Sr  Sr7  1  0.225090  0.290227  0.792607  1
  Sr  Sr8  1  0.649330  0.862588  0.418316  1
  Sr  Sr9  1  0.457003  0.477296  0.887740  1
  Sr  Sr10  1  0.684896  0.743346  0.705817  1
  Sr  Sr11  1  0.727632  0.761438  0.917734  1
  Sb  Sb12  1  0.000362  0.046572  0.998308  1
  Sb  Sb13  1  0.907324  0.080451  0.248395  1
  Sb  Sb14  1  0.936209  0.969097  0.498386  1
  Sb  Sb15  1  0.964894  0.012692  0.748425  1
  O  O16  1  0.090629  0.379827  0.184410  1
  O  O17  1  0.207407  0.847795  0.190722  1
  O  O18  1  0.802301  0.374185  0.027529  1
  O  O19  1  0.782550  0.825649  0.080508  1
  O  O20  1  0.687215  0.235525  0.187479  1
  O  O21  1  0.610145  0.326741  0.302214  1
  O  O22  1  0.156666  0.187710  0.416083  1
  O  O23  1  0.118768  0.922706  0.311698  1
  O  O24  1  0.732298  0.774387  0.312971  1
  O  O25  1  0.610124  0.173583  0.467865  1
  O  O26  1  0.716260  0.066209  0.580949  1
  O  O27  1  0.144275  0.789640  0.686152  1
  O  O28  1  0.261105  0.719073  0.529308  1
  O  O29  1  0.331104  0.045201  0.999061  1
  O  O30  1  0.936130  0.637143  0.498203  1
  O  O31  1  0.759806  0.327026  0.683518  1
  O  O32  1  0.261315  0.185963  0.694065  1
  O  O33  1  0.782293  0.228060  0.811274  1
  O  O34  1  0.249098  0.721275  0.968075  1
  O  O35  1  0.185687  0.704416  0.811197  1
  O  O36  1  0.657671  0.847887  0.805291  1
  O  O37  1  0.896145  0.264659  0.916434  1
