# generated using pymatgen
data_Tb2Y2(Zn3Cd)3
_symmetry_space_group_name_H-M   'P 1'
_cell_length_a   4.42791600
_cell_length_b   7.17208736
_cell_length_c   10.03859435
_cell_angle_alpha   89.93720185
_cell_angle_beta   90.00000000
_cell_angle_gamma   90.00000000
_symmetry_Int_Tables_number   1
_chemical_formula_structural   Tb2Y2(Zn3Cd)3
_chemical_formula_sum   'Tb2 Y2 Zn9 Cd3'
_cell_volume   318.79946854
_cell_formula_units_Z   1
loop_
 _symmetry_equiv_pos_site_id
 _symmetry_equiv_pos_as_xyz
  1  'x, y, z'
loop_
 _atom_site_type_symbol
 _atom_site_label
 _atom_site_symmetry_multiplicity
 _atom_site_fract_x
 _atom_site_fract_y
 _atom_site_fract_z
 _atom_site_occupancy
  Tb  Tb0  1  0.250000  0.302922  0.672294  1
  Tb  Tb1  1  0.750000  0.697666  0.330013  1
  Y  Y2  1  0.250000  0.807143  0.822200  1
  Y  Y3  1  0.750000  0.195810  0.173482  1
  Zn  Zn4  1  0.750000  0.965570  0.600086  1
  Zn  Zn5  1  0.750000  0.299652  0.466195  1
  Zn  Zn6  1  0.250000  0.693302  0.537351  1
  Zn  Zn7  1  0.750000  0.812903  0.036031  1
  Zn  Zn8  1  0.250000  0.186142  0.962150  1
  Zn  Zn9  1  0.750000  0.594835  0.642667  1
  Zn  Zn10  1  0.250000  0.413872  0.358864  1
  Zn  Zn11  1  0.750000  0.085528  0.846793  1
  Zn  Zn12  1  0.250000  0.913751  0.145382  1
  Cd  Cd13  1  0.250000  0.532284  0.098906  1
  Cd  Cd14  1  0.750000  0.467228  0.899667  1
  Cd  Cd15  1  0.250000  0.031390  0.407922  1
