# generated using pymatgen
data_Sc4B8Ru7W3
_symmetry_space_group_name_H-M   'P 1'
_cell_length_a   3.05436700
_cell_length_b   8.65139106
_cell_length_c   10.03313917
_cell_angle_alpha   90.32962354
_cell_angle_beta   90.00000000
_cell_angle_gamma   90.00000000
_symmetry_Int_Tables_number   1
_chemical_formula_structural   Sc4B8Ru7W3
_chemical_formula_sum   'Sc4 B8 Ru7 W3'
_cell_volume   265.11653291
_cell_formula_units_Z   1
loop_
 _symmetry_equiv_pos_site_id
 _symmetry_equiv_pos_as_xyz
  1  'x, y, z'
loop_
 _atom_site_type_symbol
 _atom_site_label
 _atom_site_symmetry_multiplicity
 _atom_site_fract_x
 _atom_site_fract_y
 _atom_site_fract_z
 _atom_site_occupancy
  Sc  Sc0  1  0.500000  0.839742  0.180503  1
  Sc  Sc1  1  0.500000  0.158586  0.819099  1
  Sc  Sc2  1  0.500000  0.656850  0.680653  1
  Sc  Sc3  1  0.500000  0.340436  0.317959  1
  B  B4  1  0.500000  0.968084  0.588925  1
  B  B5  1  0.500000  0.036672  0.413173  1
  B  B6  1  0.500000  0.854590  0.899005  1
  B  B7  1  0.500000  0.147570  0.102035  1
  B  B8  1  0.500000  0.649547  0.399852  1
  B  B9  1  0.500000  0.351300  0.599374  1
  B  B10  1  0.500000  0.464227  0.913325  1
  B  B11  1  0.500000  0.534127  0.086296  1
  Ru  Ru12  1  0.000000  0.164468  0.548882  1
  Ru  Ru13  1  0.000000  0.000169  0.000290  1
  Ru  Ru14  1  0.000000  0.404159  0.759299  1
  Ru  Ru15  1  0.000000  0.593314  0.239089  1
  Ru  Ru16  1  0.000000  0.497734  0.499273  1
  Ru  Ru17  1  0.000000  0.905284  0.737402  1
  Ru  Ru18  1  0.000000  0.092989  0.262715  1
  W  W19  1  0.000000  0.662947  0.951071  1
  W  W20  1  0.000000  0.336369  0.048078  1
  W  W21  1  0.000000  0.840834  0.453703  1
