# generated using pymatgen
data_Y2ErCoSn3Ir2
_symmetry_space_group_name_H-M   'P 1'
_cell_length_a   7.45313351
_cell_length_b   7.49918190
_cell_length_c   3.87361700
_cell_angle_alpha   90.00000000
_cell_angle_beta   90.00000000
_cell_angle_gamma   120.20458767
_symmetry_Int_Tables_number   1
_chemical_formula_structural   Y2ErCoSn3Ir2
_chemical_formula_sum   'Y2 Er1 Co1 Sn3 Ir2'
_cell_volume   187.11175727
_cell_formula_units_Z   1
loop_
 _symmetry_equiv_pos_site_id
 _symmetry_equiv_pos_as_xyz
  1  'x, y, z'
loop_
 _atom_site_type_symbol
 _atom_site_label
 _atom_site_symmetry_multiplicity
 _atom_site_fract_x
 _atom_site_fract_y
 _atom_site_fract_z
 _atom_site_occupancy
  Y  Y0  1  0.406688  0.406641  0.500000  1
  Y  Y1  1  0.593312  0.999954  0.500000  1
  Er  Er2  1  0.000000  0.592869  0.500000  1
  Co  Co3  1  0.000000  0.998483  0.500000  1
  Sn  Sn4  1  0.750542  0.749576  0.000000  1
  Sn  Sn5  1  0.249458  0.999034  0.000000  1
  Sn  Sn6  1  0.000000  0.250446  0.000000  1
  Ir  Ir7  1  0.671543  0.337270  0.000000  1
  Ir  Ir8  1  0.328457  0.665728  0.000000  1
