# generated using pymatgen
data_HfZr19Si15Sb
_symmetry_space_group_name_H-M   'P 1'
_cell_length_a   7.21263500
_cell_length_b   7.18593924
_cell_length_c   13.09036843
_cell_angle_alpha   89.94194482
_cell_angle_beta   89.73111568
_cell_angle_gamma   90.20368910
_symmetry_Int_Tables_number   1
_chemical_formula_structural   HfZr19Si15Sb
_chemical_formula_sum   'Hf1 Zr19 Si15 Sb1'
_cell_volume   678.45587698
_cell_formula_units_Z   1
loop_
 _symmetry_equiv_pos_site_id
 _symmetry_equiv_pos_as_xyz
  1  'x, y, z'
loop_
 _atom_site_type_symbol
 _atom_site_label
 _atom_site_symmetry_multiplicity
 _atom_site_fract_x
 _atom_site_fract_y
 _atom_site_fract_z
 _atom_site_occupancy
  Hf  Hf0  1  0.998050  0.145703  0.622842  1
  Zr  Zr1  1  0.676237  0.324259  0.748882  1
  Zr  Zr2  1  0.325102  0.676112  0.251172  1
  Zr  Zr3  1  0.823980  0.824551  0.500709  1
  Zr  Zr4  1  0.180437  0.174623  0.998387  1
  Zr  Zr5  1  0.499158  0.149827  0.535580  1
  Zr  Zr6  1  0.494821  0.843762  0.032256  1
  Zr  Zr7  1  0.648481  0.999280  0.290250  1
  Zr  Zr8  1  0.346281  0.995263  0.782630  1
  Zr  Zr9  1  0.850811  0.508183  0.961444  1
  Zr  Zr10  1  0.151238  0.498395  0.465646  1
  Zr  Zr11  1  0.000085  0.650775  0.713798  1
  Zr  Zr12  1  0.012152  0.358352  0.222149  1
  Zr  Zr13  1  0.489585  0.361531  0.125564  1
  Zr  Zr14  1  0.501085  0.644901  0.626533  1
  Zr  Zr15  1  0.853116  0.000446  0.873347  1
  Zr  Zr16  1  0.147962  0.999944  0.378154  1
  Zr  Zr17  1  0.647631  0.501874  0.374226  1
  Zr  Zr18  1  0.352173  0.498893  0.871233  1
  Zr  Zr19  1  0.011729  0.842684  0.125730  1
  Si  Si20  1  0.205376  0.856003  0.574012  1
  Si  Si21  1  0.643916  0.705236  0.821103  1
  Si  Si22  1  0.358350  0.294844  0.323974  1
  Si  Si23  1  0.855871  0.205675  0.428599  1
  Si  Si24  1  0.143296  0.794056  0.925795  1
  Si  Si25  1  0.704779  0.647720  0.178537  1
  Si  Si26  1  0.292800  0.353531  0.675428  1
  Si  Si27  1  0.540278  0.197639  0.930105  1
  Si  Si28  1  0.447939  0.798818  0.438984  1
  Si  Si29  1  0.699032  0.950099  0.686251  1
  Si  Si30  1  0.302399  0.051692  0.188206  1
  Si  Si31  1  0.801261  0.448552  0.562627  1
  Si  Si32  1  0.198723  0.549475  0.060382  1
  Si  Si33  1  0.949121  0.702264  0.315044  1
  Si  Si34  1  0.049892  0.299743  0.811008  1
  Sb  Sb35  1  0.796856  0.145298  0.079419  1
