# generated using pymatgen
data_CaNd(AgO2)4
_symmetry_space_group_name_H-M   'P 1'
_cell_length_a   6.70623222
_cell_length_b   6.70623228
_cell_length_c   6.70623234
_cell_angle_alpha   126.14925740
_cell_angle_beta   126.14925583
_cell_angle_gamma   79.64296673
_symmetry_Int_Tables_number   1
_chemical_formula_structural   CaNd(AgO2)4
_chemical_formula_sum   'Ca1 Nd1 Ag4 O8'
_cell_volume   189.99891382
_cell_formula_units_Z   1
loop_
 _symmetry_equiv_pos_site_id
 _symmetry_equiv_pos_as_xyz
  1  'x, y, z'
loop_
 _atom_site_type_symbol
 _atom_site_label
 _atom_site_symmetry_multiplicity
 _atom_site_fract_x
 _atom_site_fract_y
 _atom_site_fract_z
 _atom_site_occupancy
  Ca  Ca0  1  0.000000  0.000000  0.000000  1
  Nd  Nd1  1  0.750000  0.250000  0.500000  1
  Ag  Ag2  1  0.374495  0.124711  0.748255  1
  Ag  Ag3  1  0.376456  0.626240  0.251745  1
  Ag  Ag4  1  0.875289  0.623544  0.249784  1
  Ag  Ag5  1  0.373760  0.625505  0.750216  1
  O  O6  1  0.043465  0.998042  0.646057  1
  O  O7  1  0.602592  0.956535  0.954577  1
  O  O8  1  0.001958  0.648014  0.045423  1
  O  O9  1  0.401118  0.855549  0.149971  1
  O  O10  1  0.748853  0.598882  0.454431  1
  O  O11  1  0.144451  0.294422  0.545569  1
  O  O12  1  0.351986  0.397408  0.353943  1
  O  O13  1  0.705578  0.251147  0.850029  1
