# generated using pymatgen
data_La5Yb3(MgOs)2
_symmetry_space_group_name_H-M   'P 1'
_cell_length_a   10.03869894
_cell_length_b   10.03869898
_cell_length_c   10.03869900
_cell_angle_alpha   59.99999663
_cell_angle_beta   59.99999652
_cell_angle_gamma   59.99999589
_symmetry_Int_Tables_number   1
_chemical_formula_structural   La5Yb3(MgOs)2
_chemical_formula_sum   'La10 Yb6 Mg4 Os4'
_cell_volume   715.34782390
_cell_formula_units_Z   2
loop_
 _symmetry_equiv_pos_site_id
 _symmetry_equiv_pos_as_xyz
  1  'x, y, z'
loop_
 _atom_site_type_symbol
 _atom_site_label
 _atom_site_symmetry_multiplicity
 _atom_site_fract_x
 _atom_site_fract_y
 _atom_site_fract_z
 _atom_site_occupancy
  La  La0  1  0.806186  0.191977  0.191975  1
  La  La1  1  0.187325  0.811051  0.811049  1
  La  La2  1  0.191982  0.806187  0.191974  1
  La  La3  1  0.191978  0.191975  0.806190  1
  La  La4  1  0.811053  0.187328  0.811053  1
  La  La5  1  0.811051  0.811047  0.187331  1
  La  La6  1  0.344323  0.344323  0.344320  1
  La  La7  1  0.342197  0.342203  0.970346  1
  La  La8  1  0.970353  0.342199  0.342201  1
  La  La9  1  0.342203  0.970350  0.342201  1
  Yb  Yb10  1  0.943309  0.557539  0.557539  1
  Yb  Yb11  1  0.555845  0.943164  0.943163  1
  Yb  Yb12  1  0.557536  0.943311  0.557538  1
  Yb  Yb13  1  0.557536  0.557540  0.943309  1
  Yb  Yb14  1  0.943160  0.555848  0.943164  1
  Yb  Yb15  1  0.943161  0.943165  0.555846  1
  Mg  Mg16  1  0.577795  0.577796  0.577795  1
  Mg  Mg17  1  0.577189  0.577190  0.266540  1
  Mg  Mg18  1  0.266545  0.577185  0.577186  1
  Mg  Mg19  1  0.577192  0.266540  0.577197  1
  Os  Os20  1  0.136779  0.136774  0.136779  1
  Os  Os21  1  0.135742  0.135746  0.593812  1
  Os  Os22  1  0.593813  0.135745  0.135745  1
  Os  Os23  1  0.135741  0.593813  0.135742  1
