# generated using pymatgen
data_Hf2Np2H15
_symmetry_space_group_name_H-M   'P 1'
_cell_length_a   7.20172017
_cell_length_b   7.20171991
_cell_length_c   7.20172018
_cell_angle_alpha   109.43845591
_cell_angle_beta   109.43845716
_cell_angle_gamma   109.43845402
_symmetry_Int_Tables_number   1
_chemical_formula_structural   Hf2Np2H15
_chemical_formula_sum   'Hf4 Np4 H30'
_cell_volume   287.88069546
_cell_formula_units_Z   2
loop_
 _symmetry_equiv_pos_site_id
 _symmetry_equiv_pos_as_xyz
  1  'x, y, z'
loop_
 _atom_site_type_symbol
 _atom_site_label
 _atom_site_symmetry_multiplicity
 _atom_site_fract_x
 _atom_site_fract_y
 _atom_site_fract_z
 _atom_site_occupancy
  Hf  Hf0  1  0.906087  0.906087  0.906087  1
  Hf  Hf1  1  0.499110  0.993139  0.090436  1
  Hf  Hf2  1  0.993139  0.090436  0.499110  1
  Hf  Hf3  1  0.090436  0.499110  0.993139  1
  Np  Np4  1  0.001515  0.593011  0.504401  1
  Np  Np5  1  0.593011  0.504401  0.001515  1
  Np  Np6  1  0.504401  0.001515  0.593011  1
  Np  Np7  1  0.406806  0.406806  0.406806  1
  H  H8  1  0.658700  0.960141  0.369640  1
  H  H9  1  0.206959  0.306740  0.835034  1
  H  H10  1  0.176802  0.392149  0.535923  1
  H  H11  1  0.080541  0.273300  0.105549  1
  H  H12  1  0.273300  0.105549  0.080541  1
  H  H13  1  0.105549  0.080541  0.273300  1
  H  H14  1  0.474721  0.147481  0.892613  1
  H  H15  1  0.742995  0.356798  0.819312  1
  H  H16  1  0.626375  0.370377  0.246022  1
  H  H17  1  0.246022  0.626375  0.370377  1
  H  H18  1  0.751374  0.875033  0.123782  1
  H  H19  1  0.123782  0.751374  0.875033  1
  H  H20  1  0.370377  0.246022  0.626375  1
  H  H21  1  0.875033  0.123782  0.751374  1
  H  H22  1  0.783679  0.603208  0.641939  1
  H  H23  1  0.306740  0.835034  0.206959  1
  H  H24  1  0.369640  0.658700  0.960141  1
  H  H25  1  0.960141  0.369640  0.658700  1
  H  H26  1  0.535923  0.176802  0.392149  1
  H  H27  1  0.392149  0.535923  0.176802  1
  H  H28  1  0.835034  0.206959  0.306740  1
  H  H29  1  0.923248  0.695171  0.029892  1
  H  H30  1  0.819312  0.742995  0.356798  1
  H  H31  1  0.147481  0.892613  0.474721  1
  H  H32  1  0.695171  0.029892  0.923248  1
  H  H33  1  0.356798  0.819312  0.742995  1
  H  H34  1  0.892613  0.474721  0.147481  1
  H  H35  1  0.641939  0.783679  0.603208  1
  H  H36  1  0.603208  0.641939  0.783679  1
  H  H37  1  0.029892  0.923248  0.695171  1
