# generated using pymatgen
data_Sc5Si12Ir16Rh3
_symmetry_space_group_name_H-M   'P 1'
_cell_length_a   12.73312900
_cell_length_b   12.73312909
_cell_length_c   3.93677700
_cell_angle_alpha   90.00000000
_cell_angle_beta   90.00000000
_cell_angle_gamma   120.00000236
_symmetry_Int_Tables_number   1
_chemical_formula_structural   Sc5Si12Ir16Rh3
_chemical_formula_sum   'Sc5 Si12 Ir16 Rh3'
_cell_volume   552.76650261
_cell_formula_units_Z   1
loop_
 _symmetry_equiv_pos_site_id
 _symmetry_equiv_pos_as_xyz
  1  'x, y, z'
loop_
 _atom_site_type_symbol
 _atom_site_label
 _atom_site_symmetry_multiplicity
 _atom_site_fract_x
 _atom_site_fract_y
 _atom_site_fract_z
 _atom_site_occupancy
  Sc  Sc0  1  0.333333  0.666667  0.000000  1
  Sc  Sc1  1  0.666667  0.333333  0.000000  1
  Sc  Sc2  1  0.816435  0.000000  0.500000  1
  Sc  Sc3  1  0.000000  0.816435  0.500000  1
  Sc  Sc4  1  0.183565  0.183565  0.500000  1
  Si  Si5  1  0.179772  0.000000  0.000000  1
  Si  Si6  1  0.000000  0.179772  0.000000  1
  Si  Si7  1  0.820228  0.820228  0.000000  1
  Si  Si8  1  0.170070  0.482485  0.500000  1
  Si  Si9  1  0.517515  0.687584  0.500000  1
  Si  Si10  1  0.312416  0.829930  0.500000  1
  Si  Si11  1  0.687584  0.517515  0.500000  1
  Si  Si12  1  0.829930  0.312416  0.500000  1
  Si  Si13  1  0.482485  0.170070  0.500000  1
  Si  Si14  1  0.633074  0.000000  0.000000  1
  Si  Si15  1  0.000000  0.633074  0.000000  1
  Si  Si16  1  0.366926  0.366926  0.000000  1
  Ir  Ir17  1  0.360797  0.487991  0.500000  1
  Ir  Ir18  1  0.512009  0.872806  0.500000  1
  Ir  Ir19  1  0.127194  0.639203  0.500000  1
  Ir  Ir20  1  0.872806  0.512009  0.500000  1
  Ir  Ir21  1  0.639203  0.127194  0.500000  1
  Ir  Ir22  1  0.487991  0.360797  0.500000  1
  Ir  Ir23  1  0.182786  0.375088  0.000000  1
  Ir  Ir24  1  0.624912  0.807698  0.000000  1
  Ir  Ir25  1  0.192302  0.817214  0.000000  1
  Ir  Ir26  1  0.807698  0.624912  0.000000  1
  Ir  Ir27  1  0.817214  0.192302  0.000000  1
  Ir  Ir28  1  0.375088  0.182786  0.000000  1
  Ir  Ir29  1  0.280828  0.000000  0.500000  1
  Ir  Ir30  1  0.000000  0.280828  0.500000  1
  Ir  Ir31  1  0.719172  0.719172  0.500000  1
  Ir  Ir32  1  0.000000  0.000000  0.000000  1
  Rh  Rh33  1  0.447147  0.000000  0.000000  1
  Rh  Rh34  1  0.000000  0.447147  0.000000  1
  Rh  Rh35  1  0.552853  0.552853  0.000000  1
