# generated using pymatgen
data_HoSc6Co6Sn22Au
_symmetry_space_group_name_H-M   'P 1'
_cell_length_a   9.52347500
_cell_length_b   9.52347401
_cell_length_c   9.78239200
_cell_angle_alpha   90.00000000
_cell_angle_beta   90.00000000
_cell_angle_gamma   119.99999303
_symmetry_Int_Tables_number   1
_chemical_formula_structural   HoSc6Co6Sn22Au
_chemical_formula_sum   'Ho1 Sc6 Co6 Sn22 Au1'
_cell_volume   768.36322524
_cell_formula_units_Z   1
loop_
 _symmetry_equiv_pos_site_id
 _symmetry_equiv_pos_as_xyz
  1  'x, y, z'
loop_
 _atom_site_type_symbol
 _atom_site_label
 _atom_site_symmetry_multiplicity
 _atom_site_fract_x
 _atom_site_fract_y
 _atom_site_fract_z
 _atom_site_occupancy
  Ho  Ho0  1  0.000000  0.000000  0.000000  1
  Sc  Sc1  1  0.516911  0.483089  0.691299  1
  Sc  Sc2  1  0.516911  0.033820  0.691299  1
  Sc  Sc3  1  0.966180  0.483089  0.691299  1
  Sc  Sc4  1  0.033820  0.516911  0.308701  1
  Sc  Sc5  1  0.483089  0.966180  0.308701  1
  Sc  Sc6  1  0.483089  0.516911  0.308701  1
  Co  Co7  1  0.169251  0.830749  0.800756  1
  Co  Co8  1  0.169251  0.338502  0.800756  1
  Co  Co9  1  0.661498  0.830749  0.800756  1
  Co  Co10  1  0.338502  0.169251  0.199244  1
  Co  Co11  1  0.830749  0.661498  0.199244  1
  Co  Co12  1  0.830749  0.169251  0.199244  1
  Sn  Sn13  1  0.666667  0.333333  0.178228  1
  Sn  Sn14  1  0.666667  0.333333  0.860901  1
  Sn  Sn15  1  0.333333  0.666667  0.139099  1
  Sn  Sn16  1  0.347644  0.347644  0.000000  1
  Sn  Sn17  1  0.000000  0.652356  0.000000  1
  Sn  Sn18  1  0.652356  0.000000  0.000000  1
  Sn  Sn19  1  0.652356  0.652356  0.000000  1
  Sn  Sn20  1  0.333333  0.666667  0.821772  1
  Sn  Sn21  1  0.438763  0.219383  0.456403  1
  Sn  Sn22  1  0.219383  0.780617  0.543597  1
  Sn  Sn23  1  0.219383  0.438763  0.543597  1
  Sn  Sn24  1  0.561237  0.780617  0.543597  1
  Sn  Sn25  1  0.117003  0.882997  0.279684  1
  Sn  Sn26  1  0.780617  0.561237  0.456403  1
  Sn  Sn27  1  0.780617  0.219383  0.456403  1
  Sn  Sn28  1  0.347644  0.000000  0.000000  1
  Sn  Sn29  1  0.117003  0.234006  0.279684  1
  Sn  Sn30  1  0.765994  0.882997  0.279684  1
  Sn  Sn31  1  0.234006  0.117003  0.720316  1
  Sn  Sn32  1  0.882997  0.765994  0.720316  1
  Sn  Sn33  1  0.882997  0.117003  0.720316  1
  Sn  Sn34  1  0.000000  0.347644  0.000000  1
  Au  Au35  1  0.000000  0.000000  0.500000  1
