# generated using pymatgen
data_Pr20Si15Ru
_symmetry_space_group_name_H-M   'P 1'
_cell_length_a   7.92316451
_cell_length_b   7.93397804
_cell_length_c   15.30088056
_cell_angle_alpha   90.23958015
_cell_angle_beta   89.85247250
_cell_angle_gamma   90.28048651
_symmetry_Int_Tables_number   1
_chemical_formula_structural   Pr20Si15Ru
_chemical_formula_sum   'Pr20 Si15 Ru1'
_cell_volume   961.82414388
_cell_formula_units_Z   1
loop_
 _symmetry_equiv_pos_site_id
 _symmetry_equiv_pos_as_xyz
  1  'x, y, z'
loop_
 _atom_site_type_symbol
 _atom_site_label
 _atom_site_symmetry_multiplicity
 _atom_site_fract_x
 _atom_site_fract_y
 _atom_site_fract_z
 _atom_site_occupancy
  Pr  Pr0  1  0.305331  0.306723  0.997971  1
  Pr  Pr1  1  0.191256  0.809006  0.249546  1
  Pr  Pr2  1  0.823317  0.188428  0.749749  1
  Pr  Pr3  1  0.695125  0.689296  0.502120  1
  Pr  Pr4  1  0.372036  0.010974  0.449931  1
  Pr  Pr5  1  0.487840  0.879633  0.696714  1
  Pr  Pr6  1  0.510453  0.123428  0.198132  1
  Pr  Pr7  1  0.875793  0.487947  0.300389  1
  Pr  Pr8  1  0.126103  0.505418  0.799050  1
  Pr  Pr9  1  0.625793  0.988454  0.948567  1
  Pr  Pr10  1  0.006422  0.377485  0.551990  1
  Pr  Pr11  1  0.987977  0.624550  0.050627  1
  Pr  Pr12  1  0.134118  0.984260  0.873239  1
  Pr  Pr13  1  0.516806  0.630377  0.126110  1
  Pr  Pr14  1  0.471326  0.359248  0.628474  1
  Pr  Pr15  1  0.627251  0.515854  0.873981  1
  Pr  Pr16  1  0.374933  0.484218  0.373522  1
  Pr  Pr17  1  0.873285  0.020883  0.376943  1
  Pr  Pr18  1  0.981985  0.126684  0.124165  1
  Pr  Pr19  1  0.027015  0.882238  0.626694  1
  Si  Si20  1  0.333035  0.694534  0.950742  1
  Si  Si21  1  0.664700  0.302588  0.451739  1
  Si  Si22  1  0.696945  0.334928  0.050246  1
  Si  Si23  1  0.303939  0.667805  0.547610  1
  Si  Si24  1  0.805324  0.832502  0.203340  1
  Si  Si25  1  0.168095  0.198078  0.298073  1
  Si  Si26  1  0.833364  0.801862  0.799856  1
  Si  Si27  1  0.287830  0.921705  0.058434  1
  Si  Si28  1  0.580312  0.787849  0.310814  1
  Si  Si29  1  0.423884  0.207359  0.811224  1
  Si  Si30  1  0.779014  0.583323  0.691232  1
  Si  Si31  1  0.212424  0.421745  0.190461  1
  Si  Si32  1  0.704762  0.074477  0.558564  1
  Si  Si33  1  0.918981  0.287648  0.941890  1
  Si  Si34  1  0.079887  0.715499  0.441041  1
  Ru  Ru35  1  0.193340  0.172995  0.696822  1
