# generated using pymatgen
data_CeTmNi17H3
_symmetry_space_group_name_H-M   'P 1'
_cell_length_a   6.28788716
_cell_length_b   6.28788735
_cell_length_c   6.28788800
_cell_angle_alpha   83.52875090
_cell_angle_beta   83.52874154
_cell_angle_gamma   83.52874310
_symmetry_Int_Tables_number   1
_chemical_formula_structural   CeTmNi17H3
_chemical_formula_sum   'Ce1 Tm1 Ni17 H3'
_cell_volume   244.18729876
_cell_formula_units_Z   1
loop_
 _symmetry_equiv_pos_site_id
 _symmetry_equiv_pos_as_xyz
  1  'x, y, z'
loop_
 _atom_site_type_symbol
 _atom_site_label
 _atom_site_symmetry_multiplicity
 _atom_site_fract_x
 _atom_site_fract_y
 _atom_site_fract_z
 _atom_site_occupancy
  Ce  Ce0  1  0.338940  0.338940  0.338940  1
  Tm  Tm1  1  0.662723  0.662723  0.662723  1
  Ni  Ni2  1  0.000305  0.000305  0.498982  1
  Ni  Ni3  1  0.498982  0.000305  0.000305  1
  Ni  Ni4  1  0.000305  0.498982  0.000305  1
  Ni  Ni5  1  0.709634  0.290541  0.999526  1
  Ni  Ni6  1  0.999526  0.709634  0.290541  1
  Ni  Ni7  1  0.290541  0.999526  0.709634  1
  Ni  Ni8  1  0.999526  0.290541  0.709634  1
  Ni  Ni9  1  0.709634  0.999526  0.290541  1
  Ni  Ni10  1  0.290541  0.709634  0.999526  1
  Ni  Ni11  1  0.348113  0.348113  0.846668  1
  Ni  Ni12  1  0.846668  0.348113  0.348113  1
  Ni  Ni13  1  0.348113  0.846668  0.348113  1
  Ni  Ni14  1  0.653914  0.653914  0.149049  1
  Ni  Ni15  1  0.149049  0.653914  0.653914  1
  Ni  Ni16  1  0.653914  0.149049  0.653914  1
  Ni  Ni17  1  0.900127  0.900127  0.900127  1
  Ni  Ni18  1  0.100318  0.100318  0.100318  1
  H  H19  1  0.504163  0.504163  0.990796  1
  H  H20  1  0.990796  0.504163  0.504163  1
  H  H21  1  0.504163  0.990796  0.504163  1
