# generated using pymatgen
data_LaTb3YBi3
_symmetry_space_group_name_H-M   'P 1'
_cell_length_a   12.30994900
_cell_length_b   9.64728400
_cell_length_c   8.41484100
_cell_angle_alpha   90.00000000
_cell_angle_beta   90.00000000
_cell_angle_gamma   90.00000000
_symmetry_Int_Tables_number   1
_chemical_formula_structural   LaTb3YBi3
_chemical_formula_sum   'La4 Tb12 Y4 Bi12'
_cell_volume   999.32610300
_cell_formula_units_Z   4
loop_
 _symmetry_equiv_pos_site_id
 _symmetry_equiv_pos_as_xyz
  1  'x, y, z'
loop_
 _atom_site_type_symbol
 _atom_site_label
 _atom_site_symmetry_multiplicity
 _atom_site_fract_x
 _atom_site_fract_y
 _atom_site_fract_z
 _atom_site_occupancy
  La  La0  1  0.724473  0.250000  0.670203  1
  La  La1  1  0.224473  0.250000  0.829797  1
  La  La2  1  0.275527  0.750000  0.329797  1
  La  La3  1  0.775527  0.750000  0.170203  1
  Tb  Tb4  1  0.563659  0.061072  0.310174  1
  Tb  Tb5  1  0.063659  0.438928  0.189826  1
  Tb  Tb6  1  0.436341  0.561072  0.689826  1
  Tb  Tb7  1  0.936341  0.938928  0.810174  1
  Tb  Tb8  1  0.436341  0.938928  0.689826  1
  Tb  Tb9  1  0.936341  0.561072  0.810174  1
  Tb  Tb10  1  0.563659  0.438928  0.310174  1
  Tb  Tb11  1  0.063659  0.061072  0.189826  1
  Tb  Tb12  1  0.502341  0.250000  0.978097  1
  Tb  Tb13  1  0.002341  0.250000  0.521903  1
  Tb  Tb14  1  0.497659  0.750000  0.021903  1
  Tb  Tb15  1  0.997659  0.750000  0.478097  1
  Y  Y16  1  0.788672  0.250000  0.164011  1
  Y  Y17  1  0.288672  0.250000  0.335989  1
  Y  Y18  1  0.211328  0.750000  0.835989  1
  Y  Y19  1  0.711328  0.750000  0.664011  1
  Bi  Bi20  1  0.966056  0.250000  0.904953  1
  Bi  Bi21  1  0.466056  0.250000  0.595047  1
  Bi  Bi22  1  0.033944  0.750000  0.095047  1
  Bi  Bi23  1  0.533944  0.750000  0.404953  1
  Bi  Bi24  1  0.829889  0.006273  0.434891  1
  Bi  Bi25  1  0.329889  0.493727  0.065109  1
  Bi  Bi26  1  0.170111  0.506273  0.565109  1
  Bi  Bi27  1  0.670111  0.993727  0.934891  1
  Bi  Bi28  1  0.170111  0.993727  0.565109  1
  Bi  Bi29  1  0.670111  0.506273  0.934891  1
  Bi  Bi30  1  0.829889  0.493727  0.434891  1
  Bi  Bi31  1  0.329889  0.006273  0.065109  1
