# generated using pymatgen
data_Pa4Nb3WC8
_symmetry_space_group_name_H-M   'P 1'
_cell_length_a   3.36033800
_cell_length_b   5.82840501
_cell_length_c   11.23882302
_cell_angle_alpha   90.00778736
_cell_angle_beta   90.00000000
_cell_angle_gamma   90.00000000
_symmetry_Int_Tables_number   1
_chemical_formula_structural   Pa4Nb3WC8
_chemical_formula_sum   'Pa4 Nb3 W1 C8'
_cell_volume   220.11696436
_cell_formula_units_Z   1
loop_
 _symmetry_equiv_pos_site_id
 _symmetry_equiv_pos_as_xyz
  1  'x, y, z'
loop_
 _atom_site_type_symbol
 _atom_site_label
 _atom_site_symmetry_multiplicity
 _atom_site_fract_x
 _atom_site_fract_y
 _atom_site_fract_z
 _atom_site_occupancy
  Pa  Pa0  1  0.250000  0.082951  0.857891  1
  Pa  Pa1  1  0.250000  0.582219  0.640826  1
  Pa  Pa2  1  0.750000  0.916693  0.141511  1
  Pa  Pa3  1  0.750000  0.418911  0.360198  1
  Nb  Nb4  1  0.250000  0.414675  0.103251  1
  Nb  Nb5  1  0.250000  0.917409  0.398619  1
  Nb  Nb6  1  0.750000  0.584372  0.894447  1
  W  W7  1  0.750000  0.084605  0.603485  1
  C  C8  1  0.250000  0.162722  0.246863  1
  C  C9  1  0.250000  0.662123  0.255420  1
  C  C10  1  0.750000  0.841164  0.750088  1
  C  C11  1  0.750000  0.333536  0.741940  1
  C  C12  1  0.250000  0.747348  0.992073  1
  C  C13  1  0.250000  0.241498  0.512169  1
  C  C14  1  0.750000  0.252996  0.005984  1
  C  C15  1  0.750000  0.756777  0.495235  1
