# generated using pymatgen
data_NaTm9Se10
_symmetry_space_group_name_H-M   'P 1'
_cell_length_a   6.91878919
_cell_length_b   8.06901127
_cell_length_c   9.05863529
_cell_angle_alpha   103.76957110
_cell_angle_beta   96.94961678
_cell_angle_gamma   106.58358716
_symmetry_Int_Tables_number   1
_chemical_formula_structural   NaTm9Se10
_chemical_formula_sum   'Na1 Tm9 Se10'
_cell_volume   460.96001295
_cell_formula_units_Z   1
loop_
 _symmetry_equiv_pos_site_id
 _symmetry_equiv_pos_as_xyz
  1  'x, y, z'
loop_
 _atom_site_type_symbol
 _atom_site_label
 _atom_site_symmetry_multiplicity
 _atom_site_fract_x
 _atom_site_fract_y
 _atom_site_fract_z
 _atom_site_occupancy
  Na  Na0  1  0.000000  0.500000  0.000000  1
  Tm  Tm1  1  0.798428  0.601434  0.600073  1
  Tm  Tm2  1  0.604200  0.201542  0.207900  1
  Tm  Tm3  1  0.395800  0.798458  0.792100  1
  Tm  Tm4  1  0.600795  0.705967  0.207549  1
  Tm  Tm5  1  0.201572  0.398566  0.399927  1
  Tm  Tm6  1  0.399205  0.294033  0.792451  1
  Tm  Tm7  1  0.000000  0.000000  0.000000  1
  Tm  Tm8  1  0.203443  0.903391  0.406860  1
  Tm  Tm9  1  0.796557  0.096609  0.593140  1
  Se  Se10  1  0.694598  0.650419  0.902031  1
  Se  Se11  1  0.501858  0.251998  0.500052  1
  Se  Se12  1  0.697445  0.147950  0.901159  1
  Se  Se13  1  0.302555  0.852050  0.098841  1
  Se  Se14  1  0.498142  0.748002  0.499948  1
  Se  Se15  1  0.096855  0.448129  0.698948  1
  Se  Se16  1  0.305402  0.349581  0.097969  1
  Se  Se17  1  0.905844  0.049802  0.298645  1
  Se  Se18  1  0.094156  0.950198  0.701355  1
  Se  Se19  1  0.903145  0.551871  0.301052  1
