# generated using pymatgen
data_Re2NOF6
_symmetry_space_group_name_H-M   'P 1'
_cell_length_a   6.94288332
_cell_length_b   7.69907238
_cell_length_c   8.49830381
_cell_angle_alpha   98.23295733
_cell_angle_beta   110.38397308
_cell_angle_gamma   109.53135237
_symmetry_Int_Tables_number   1
_chemical_formula_structural   Re2NOF6
_chemical_formula_sum   'Re4 N2 O2 F12'
_cell_volume   383.59356719
_cell_formula_units_Z   2
loop_
 _symmetry_equiv_pos_site_id
 _symmetry_equiv_pos_as_xyz
  1  'x, y, z'
loop_
 _atom_site_type_symbol
 _atom_site_label
 _atom_site_symmetry_multiplicity
 _atom_site_fract_x
 _atom_site_fract_y
 _atom_site_fract_z
 _atom_site_occupancy
  Re  Re0  1  0.995672  0.010445  0.200233  1
  Re  Re1  1  0.004328  0.989555  0.799767  1
  Re  Re2  1  0.867037  0.627625  0.396182  1
  Re  Re3  1  0.132963  0.372375  0.603818  1
  N  N4  1  0.938335  0.824864  0.306156  1
  N  N5  1  0.061665  0.175136  0.693844  1
  O  O6  1  0.053594  0.204767  0.385077  1
  O  O7  1  0.946406  0.795233  0.614923  1
  F  F8  1  0.306565  0.070312  0.269371  1
  F  F9  1  0.693435  0.929688  0.730629  1
  F  F10  1  0.955309  0.824249  0.978197  1
  F  F11  1  0.044691  0.175751  0.021803  1
  F  F12  1  0.691757  0.962679  0.071237  1
  F  F13  1  0.308243  0.037321  0.928763  1
  F  F14  1  0.172494  0.612067  0.489511  1
  F  F15  1  0.827506  0.387933  0.510489  1
  F  F16  1  0.795563  0.435268  0.192978  1
  F  F17  1  0.204437  0.564732  0.807022  1
  F  F18  1  0.558649  0.571093  0.325749  1
  F  F19  1  0.441351  0.428907  0.674251  1
