# generated using pymatgen
data_Tb2Y4Al24Os5Pt3
_symmetry_space_group_name_H-M   'P 1'
_cell_length_a   8.82341542
_cell_length_b   8.84304607
_cell_length_c   9.54456914
_cell_angle_alpha   90.12598915
_cell_angle_beta   89.73083533
_cell_angle_gamma   119.56716591
_symmetry_Int_Tables_number   1
_chemical_formula_structural   Tb2Y4Al24Os5Pt3
_chemical_formula_sum   'Tb2 Y4 Al24 Os5 Pt3'
_cell_volume   647.73667653
_cell_formula_units_Z   1
loop_
 _symmetry_equiv_pos_site_id
 _symmetry_equiv_pos_as_xyz
  1  'x, y, z'
loop_
 _atom_site_type_symbol
 _atom_site_label
 _atom_site_symmetry_multiplicity
 _atom_site_fract_x
 _atom_site_fract_y
 _atom_site_fract_z
 _atom_site_occupancy
  Tb  Tb0  1  0.187684  0.382514  0.250677  1
  Tb  Tb1  1  0.812316  0.617486  0.749323  1
  Y  Y2  1  0.613988  0.813417  0.252125  1
  Y  Y3  1  0.386012  0.186583  0.747875  1
  Y  Y4  1  0.194561  0.809004  0.251042  1
  Y  Y5  1  0.805439  0.190996  0.748958  1
  Al  Al6  1  0.335298  0.671256  0.029639  1
  Al  Al7  1  0.664702  0.328744  0.970361  1
  Al  Al8  1  0.669318  0.331269  0.528131  1
  Al  Al9  1  0.330682  0.668731  0.471869  1
  Al  Al10  1  0.158229  0.325821  0.574708  1
  Al  Al11  1  0.841771  0.674179  0.425292  1
  Al  Al12  1  0.673118  0.840730  0.575330  1
  Al  Al13  1  0.836726  0.675811  0.077642  1
  Al  Al14  1  0.326882  0.159270  0.424670  1
  Al  Al15  1  0.163274  0.324189  0.922358  1
  Al  Al16  1  0.164180  0.835141  0.575478  1
  Al  Al17  1  0.325961  0.158886  0.075909  1
  Al  Al18  1  0.835820  0.164859  0.424522  1
  Al  Al19  1  0.674039  0.841114  0.924091  1
  Al  Al20  1  0.831491  0.159271  0.077316  1
  Al  Al21  1  0.168509  0.840729  0.922684  1
  Al  Al22  1  0.560771  0.124646  0.249821  1
  Al  Al23  1  0.439229  0.875354  0.750179  1
  Al  Al24  1  0.873788  0.437612  0.252774  1
  Al  Al25  1  0.126212  0.562388  0.747226  1
  Al  Al26  1  0.562720  0.436273  0.249753  1
  Al  Al27  1  0.437280  0.563727  0.750247  1
  Al  Al28  1  0.998658  0.002831  0.250200  1
  Al  Al29  1  0.001342  0.997169  0.749800  1
  Os  Os30  1  0.500000  0.000000  0.000000  1
  Os  Os31  1  0.500000  0.000000  0.500000  1
  Os  Os32  1  0.000000  0.500000  0.500000  1
  Os  Os33  1  0.000000  0.000000  0.000000  1
  Os  Os34  1  0.000000  0.000000  0.500000  1
  Pt  Pt35  1  0.000000  0.500000  0.000000  1
  Pt  Pt36  1  0.500000  0.500000  0.000000  1
  Pt  Pt37  1  0.500000  0.500000  0.500000  1
