# generated using pymatgen
data_Ca7TiNbGeN9
_symmetry_space_group_name_H-M   'P 1'
_cell_length_a   10.20862500
_cell_length_b   6.12941468
_cell_length_c   9.17139958
_cell_angle_alpha   87.07157340
_cell_angle_beta   90.00000000
_cell_angle_gamma   90.00000000
_symmetry_Int_Tables_number   1
_chemical_formula_structural   Ca7TiNbGeN9
_chemical_formula_sum   'Ca14 Ti2 Nb2 Ge2 N18'
_cell_volume   573.13161882
_cell_formula_units_Z   2
loop_
 _symmetry_equiv_pos_site_id
 _symmetry_equiv_pos_as_xyz
  1  'x, y, z'
loop_
 _atom_site_type_symbol
 _atom_site_label
 _atom_site_symmetry_multiplicity
 _atom_site_fract_x
 _atom_site_fract_y
 _atom_site_fract_z
 _atom_site_occupancy
  Ca  Ca0  1  0.935697  0.425180  0.162834  1
  Ca  Ca1  1  0.077580  0.246685  0.490760  1
  Ca  Ca2  1  0.250000  0.086159  0.798163  1
  Ca  Ca3  1  0.441457  0.566604  0.831567  1
  Ca  Ca4  1  0.575085  0.753273  0.503211  1
  Ca  Ca5  1  0.576618  0.062495  0.829188  1
  Ca  Ca6  1  0.923382  0.062495  0.829188  1
  Ca  Ca7  1  0.424334  0.928336  0.168165  1
  Ca  Ca8  1  0.422420  0.246685  0.490760  1
  Ca  Ca9  1  0.075666  0.928336  0.168165  1
  Ca  Ca10  1  0.924915  0.753273  0.503211  1
  Ca  Ca11  1  0.058543  0.566604  0.831567  1
  Ca  Ca12  1  0.750000  0.914879  0.200872  1
  Ca  Ca13  1  0.564303  0.425180  0.162834  1
  Ti  Ti14  1  0.250000  0.328216  0.062209  1
  Ti  Ti15  1  0.750000  0.459857  0.725053  1
  Nb  Nb16  1  0.750000  0.279587  0.436542  1
  Nb  Nb17  1  0.250000  0.721346  0.565978  1
  Ge  Ge18  1  0.750000  0.679554  0.946320  1
  Ge  Ge19  1  0.250000  0.548227  0.281447  1
  N  N20  1  0.406960  0.228638  0.974675  1
  N  N21  1  0.250000  0.228992  0.269537  1
  N  N22  1  0.899234  0.116169  0.342357  1
  N  N23  1  0.604828  0.362354  0.622313  1
  N  N24  1  0.750000  0.556308  0.330182  1
  N  N25  1  0.250000  0.648176  0.075565  1
  N  N26  1  0.895172  0.362354  0.622313  1
  N  N27  1  0.395901  0.641545  0.375855  1
  N  N28  1  0.750000  0.358571  0.932616  1
  N  N29  1  0.100718  0.881932  0.658827  1
  N  N30  1  0.750000  0.778832  0.737009  1
  N  N31  1  0.104099  0.641545  0.375855  1
  N  N32  1  0.592345  0.771092  0.024828  1
  N  N33  1  0.250000  0.442688  0.669343  1
  N  N34  1  0.399282  0.881932  0.658827  1
  N  N35  1  0.600766  0.116169  0.342357  1
  N  N36  1  0.093040  0.228638  0.974675  1
  N  N37  1  0.907655  0.771092  0.024828  1
