# generated using pymatgen
data_Zr6Ti6Si5As
_symmetry_space_group_name_H-M   'P 1'
_cell_length_a   7.95485315
_cell_length_b   7.95842279
_cell_length_c   7.95485904
_cell_angle_alpha   127.56308114
_cell_angle_beta   124.09326168
_cell_angle_gamma   80.19347333
_symmetry_Int_Tables_number   1
_chemical_formula_structural   Zr6Ti6Si5As
_chemical_formula_sum   'Zr6 Ti6 Si5 As1'
_cell_volume   319.11988772
_cell_formula_units_Z   1
loop_
 _symmetry_equiv_pos_site_id
 _symmetry_equiv_pos_as_xyz
  1  'x, y, z'
loop_
 _atom_site_type_symbol
 _atom_site_label
 _atom_site_symmetry_multiplicity
 _atom_site_fract_x
 _atom_site_fract_y
 _atom_site_fract_z
 _atom_site_occupancy
  Zr  Zr0  1  0.451575  0.660596  0.706407  1
  Zr  Zr1  1  0.544972  0.252502  0.204624  1
  Zr  Zr2  1  0.749301  0.847071  0.595005  1
  Zr  Zr3  1  0.251893  0.846887  0.097769  1
  Zr  Zr4  1  0.047657  0.252312  0.707535  1
  Zr  Zr5  1  0.954395  0.660728  0.208915  1
  Ti  Ti6  1  0.500066  0.501286  0.001155  1
  Ti  Ti7  1  0.000886  0.499408  0.498432  1
  Ti  Ti8  1  0.124055  0.253625  0.130378  1
  Ti  Ti9  1  0.876294  0.009121  0.132221  1
  Ti  Ti10  1  0.376514  0.004800  0.628966  1
  Ti  Ti11  1  0.622439  0.251077  0.628107  1
  Si  Si12  1  0.250585  0.253162  0.503569  1
  Si  Si13  1  0.749527  0.253016  0.002560  1
  Si  Si14  1  0.333194  0.586396  0.253109  1
  Si  Si15  1  0.667028  0.920520  0.253576  1
  Si  Si16  1  0.166204  0.919808  0.753373  1
  As  As17  1  0.833414  0.587283  0.753902  1
