# generated using pymatgen
data_Sc4S5
_symmetry_space_group_name_H-M   'P 1'
_cell_length_a   6.35898331
_cell_length_b   6.35936247
_cell_length_c   6.35517116
_cell_angle_alpha   80.29509360
_cell_angle_beta   80.43817596
_cell_angle_gamma   131.67009519
_symmetry_Int_Tables_number   1
_chemical_formula_structural   Sc4S5
_chemical_formula_sum   'Sc4 S5'
_cell_volume   175.20032933
_cell_formula_units_Z   1
loop_
 _symmetry_equiv_pos_site_id
 _symmetry_equiv_pos_as_xyz
  1  'x, y, z'
loop_
 _atom_site_type_symbol
 _atom_site_label
 _atom_site_symmetry_multiplicity
 _atom_site_fract_x
 _atom_site_fract_y
 _atom_site_fract_z
 _atom_site_occupancy
  Sc  Sc0  1  0.091809  0.166484  0.346353  1
  Sc  Sc1  1  0.694257  0.972663  0.936754  1
  Sc  Sc2  1  0.503397  0.371511  0.732886  1
  Sc  Sc3  1  0.898518  0.562813  0.142926  1
  S  S4  1  0.198247  0.466302  0.939945  1
  S  S5  1  0.802044  0.273163  0.539719  1
  S  S6  1  0.995281  0.867640  0.743594  1
  S  S7  1  0.599462  0.669695  0.335773  1
  S  S8  1  0.395492  0.070490  0.139079  1
