# generated using pymatgen
data_TmLu11Co4BiRh
_symmetry_space_group_name_H-M   'P 1'
_cell_length_a   8.14448502
_cell_length_b   8.14174839
_cell_length_c   8.14448338
_cell_angle_alpha   110.97558000
_cell_angle_beta   111.16826489
_cell_angle_gamma   106.32804452
_symmetry_Int_Tables_number   1
_chemical_formula_structural   TmLu11Co4BiRh
_chemical_formula_sum   'Tm1 Lu11 Co4 Bi1 Rh1'
_cell_volume   414.73853910
_cell_formula_units_Z   1
loop_
 _symmetry_equiv_pos_site_id
 _symmetry_equiv_pos_as_xyz
  1  'x, y, z'
loop_
 _atom_site_type_symbol
 _atom_site_label
 _atom_site_symmetry_multiplicity
 _atom_site_fract_x
 _atom_site_fract_y
 _atom_site_fract_z
 _atom_site_occupancy
  Tm  Tm0  1  0.786694  0.985230  0.198537  1
  Lu  Lu1  1  0.286405  0.183838  0.469962  1
  Lu  Lu2  1  0.713925  0.816290  0.530403  1
  Lu  Lu3  1  0.285887  0.816290  0.102364  1
  Lu  Lu4  1  0.713876  0.183838  0.897434  1
  Lu  Lu5  1  0.619728  0.311565  0.308610  1
  Lu  Lu6  1  0.380012  0.688547  0.691308  1
  Lu  Lu7  1  0.002956  0.311565  0.691838  1
  Lu  Lu8  1  0.997239  0.688547  0.308535  1
  Lu  Lu9  1  0.213033  0.411575  0.198543  1
  Lu  Lu10  1  0.787054  0.588297  0.801242  1
  Lu  Lu11  1  0.212888  0.014378  0.801491  1
  Co  Co12  1  0.000205  0.375621  0.375416  1
  Co  Co13  1  0.999942  0.624685  0.624743  1
  Co  Co14  1  0.387914  0.887915  0.500002  1
  Co  Co15  1  0.611974  0.112053  0.500079  1
  Bi  Bi16  1  0.499888  0.499759  0.999871  1
  Rh  Rh17  1  0.000382  0.000007  0.999625  1
