# generated using pymatgen
data_Be6Ni2OsW3
_symmetry_space_group_name_H-M   'P 1'
_cell_length_a   4.52451700
_cell_length_b   4.52451668
_cell_length_c   7.22079000
_cell_angle_alpha   90.00000000
_cell_angle_beta   90.00000000
_cell_angle_gamma   120.00000967
_symmetry_Int_Tables_number   1
_chemical_formula_structural   Be6Ni2OsW3
_chemical_formula_sum   'Be6 Ni2 Os1 W3'
_cell_volume   128.01466431
_cell_formula_units_Z   1
loop_
 _symmetry_equiv_pos_site_id
 _symmetry_equiv_pos_as_xyz
  1  'x, y, z'
loop_
 _atom_site_type_symbol
 _atom_site_label
 _atom_site_symmetry_multiplicity
 _atom_site_fract_x
 _atom_site_fract_y
 _atom_site_fract_z
 _atom_site_occupancy
  Be  Be0  1  0.830625  0.169375  0.251829  1
  Be  Be1  1  0.830625  0.661250  0.251829  1
  Be  Be2  1  0.338750  0.169375  0.251829  1
  Be  Be3  1  0.169362  0.830638  0.749434  1
  Be  Be4  1  0.169362  0.338722  0.749434  1
  Be  Be5  1  0.661278  0.830638  0.749434  1
  Ni  Ni6  1  0.000000  0.000000  0.502482  1
  Ni  Ni7  1  0.000000  0.000000  0.004415  1
  Os  Os8  1  0.333333  0.666667  0.425214  1
  W  W9  1  0.666667  0.333333  0.564319  1
  W  W10  1  0.666667  0.333333  0.929706  1
  W  W11  1  0.333333  0.666667  0.070076  1
