# generated using pymatgen
data_La5Y3ZnPd24
_symmetry_space_group_name_H-M   'P 1'
_cell_length_a   8.51309277
_cell_length_b   8.51309277
_cell_length_c   8.47404389
_cell_angle_alpha   89.91316400
_cell_angle_beta   89.91316400
_cell_angle_gamma   89.83018844
_symmetry_Int_Tables_number   1
_chemical_formula_structural   La5Y3ZnPd24
_chemical_formula_sum   'La5 Y3 Zn1 Pd24'
_cell_volume   614.13314779
_cell_formula_units_Z   1
loop_
 _symmetry_equiv_pos_site_id
 _symmetry_equiv_pos_as_xyz
  1  'x, y, z'
loop_
 _atom_site_type_symbol
 _atom_site_label
 _atom_site_symmetry_multiplicity
 _atom_site_fract_x
 _atom_site_fract_y
 _atom_site_fract_z
 _atom_site_occupancy
  La  La0  1  0.748773  0.251192  0.748777  1
  La  La1  1  0.250946  0.250946  0.749879  1
  La  La2  1  0.251187  0.748913  0.251283  1
  La  La3  1  0.251192  0.748773  0.748777  1
  La  La4  1  0.748913  0.251187  0.251283  1
  Y  Y5  1  0.250615  0.250615  0.250164  1
  Y  Y6  1  0.749434  0.749434  0.750132  1
  Y  Y7  1  0.749228  0.749228  0.250110  1
  Zn  Zn8  1  0.999770  0.999770  0.999878  1
  Pd  Pd9  1  0.261618  0.497986  0.002793  1
  Pd  Pd10  1  0.738259  0.504454  0.000051  1
  Pd  Pd11  1  0.003690  0.261847  0.498078  1
  Pd  Pd12  1  0.497986  0.261618  0.002793  1
  Pd  Pd13  1  0.993153  0.738111  0.499791  1
  Pd  Pd14  1  0.504454  0.738259  0.000051  1
  Pd  Pd15  1  0.500403  0.999874  0.261610  1
  Pd  Pd16  1  0.261847  0.003690  0.498078  1
  Pd  Pd17  1  0.502032  0.997144  0.738306  1
  Pd  Pd18  1  0.738111  0.993153  0.499791  1
  Pd  Pd19  1  0.999874  0.500403  0.261610  1
  Pd  Pd20  1  0.997144  0.502032  0.738306  1
  Pd  Pd21  1  0.253722  0.496864  0.497457  1
  Pd  Pd22  1  0.746247  0.506036  0.499851  1
  Pd  Pd23  1  0.496864  0.253722  0.497457  1
  Pd  Pd24  1  0.506036  0.746247  0.499851  1
  Pd  Pd25  1  0.500252  0.500252  0.253677  1
  Pd  Pd26  1  0.502633  0.502633  0.746322  1
  Pd  Pd27  1  0.296295  0.002926  0.002342  1
  Pd  Pd28  1  0.704373  0.994489  0.000041  1
  Pd  Pd29  1  0.002926  0.296295  0.002342  1
  Pd  Pd30  1  0.994489  0.704373  0.000041  1
  Pd  Pd31  1  0.999879  0.999879  0.296162  1
  Pd  Pd32  1  0.997656  0.997656  0.702915  1
