# generated using pymatgen
data_Th3Zn2GaRu3
_symmetry_space_group_name_H-M   'P 1'
_cell_length_a   7.29351274
_cell_length_b   7.27003824
_cell_length_c   3.99186700
_cell_angle_alpha   90.00000000
_cell_angle_beta   90.00000000
_cell_angle_gamma   119.89359159
_symmetry_Int_Tables_number   1
_chemical_formula_structural   Th3Zn2GaRu3
_chemical_formula_sum   'Th3 Zn2 Ga1 Ru3'
_cell_volume   183.50369195
_cell_formula_units_Z   1
loop_
 _symmetry_equiv_pos_site_id
 _symmetry_equiv_pos_as_xyz
  1  'x, y, z'
loop_
 _atom_site_type_symbol
 _atom_site_label
 _atom_site_symmetry_multiplicity
 _atom_site_fract_x
 _atom_site_fract_y
 _atom_site_fract_z
 _atom_site_occupancy
  Th  Th0  1  0.412209  0.411910  0.500000  1
  Th  Th1  1  0.587791  0.999701  0.500000  1
  Th  Th2  1  0.000000  0.583321  0.500000  1
  Zn  Zn3  1  0.764463  0.760920  0.000000  1
  Zn  Zn4  1  0.235537  0.996456  0.000000  1
  Ga  Ga5  1  0.000000  0.238483  0.000000  1
  Ru  Ru6  1  0.669506  0.330445  0.000000  1
  Ru  Ru7  1  0.330494  0.660939  0.000000  1
  Ru  Ru8  1  0.000000  0.017824  0.500000  1
