# generated using pymatgen
data_Cs4NdDy3(SiSe4)4
_symmetry_space_group_name_H-M   'P 1'
_cell_length_a   7.09416960
_cell_length_b   9.90553147
_cell_length_c   13.43538768
_cell_angle_alpha   71.33788187
_cell_angle_beta   89.79389541
_cell_angle_gamma   89.91699458
_symmetry_Int_Tables_number   1
_chemical_formula_structural   Cs4NdDy3(SiSe4)4
_chemical_formula_sum   'Cs4 Nd1 Dy3 Si4 Se16'
_cell_volume   894.47912169
_cell_formula_units_Z   1
loop_
 _symmetry_equiv_pos_site_id
 _symmetry_equiv_pos_as_xyz
  1  'x, y, z'
loop_
 _atom_site_type_symbol
 _atom_site_label
 _atom_site_symmetry_multiplicity
 _atom_site_fract_x
 _atom_site_fract_y
 _atom_site_fract_z
 _atom_site_occupancy
  Cs  Cs0  1  0.251863  0.437331  0.383310  1
  Cs  Cs1  1  0.751942  0.562605  0.116920  1
  Cs  Cs2  1  0.749734  0.563510  0.613943  1
  Cs  Cs3  1  0.247990  0.437014  0.884197  1
  Nd  Nd4  1  0.304159  0.952714  0.865501  1
  Dy  Dy5  1  0.187729  0.954088  0.365389  1
  Dy  Dy6  1  0.688869  0.046606  0.135101  1
  Dy  Dy7  1  0.811729  0.047072  0.633297  1
  Si  Si8  1  0.742056  0.160621  0.356472  1
  Si  Si9  1  0.242016  0.837888  0.146682  1
  Si  Si10  1  0.257652  0.837572  0.641686  1
  Si  Si11  1  0.758026  0.163854  0.855341  1
  Se  Se12  1  0.028450  0.196427  0.755136  1
  Se  Se13  1  0.781747  0.930085  0.460804  1
  Se  Se14  1  0.530459  0.203305  0.727935  1
  Se  Se15  1  0.729095  0.932409  0.960649  1
  Se  Se16  1  0.757386  0.307305  0.456134  1
  Se  Se17  1  0.967456  0.810334  0.242605  1
  Se  Se18  1  0.256930  0.686021  0.050743  1
  Se  Se19  1  0.218770  0.069509  0.539488  1
  Se  Se20  1  0.741389  0.308213  0.956819  1
  Se  Se21  1  0.472528  0.799792  0.272283  1
  Se  Se22  1  0.022941  0.796000  0.766947  1
  Se  Se23  1  0.243368  0.692203  0.541309  1
  Se  Se24  1  0.468817  0.189298  0.260186  1
  Se  Se25  1  0.971509  0.199957  0.229135  1
  Se  Se26  1  0.532297  0.808138  0.737248  1
  Se  Se27  1  0.283094  0.070130  0.044737  1
