# generated using pymatgen
data_Ho2HgPdAu
_symmetry_space_group_name_H-M   'P 1'
_cell_length_a   7.81777300
_cell_length_b   7.75362400
_cell_length_c   3.73997500
_cell_angle_alpha   90.00000000
_cell_angle_beta   90.00000000
_cell_angle_gamma   90.00000000
_symmetry_Int_Tables_number   1
_chemical_formula_structural   Ho2HgPdAu
_chemical_formula_sum   'Ho4 Hg2 Pd2 Au2'
_cell_volume   226.70259522
_cell_formula_units_Z   2
loop_
 _symmetry_equiv_pos_site_id
 _symmetry_equiv_pos_as_xyz
  1  'x, y, z'
loop_
 _atom_site_type_symbol
 _atom_site_label
 _atom_site_symmetry_multiplicity
 _atom_site_fract_x
 _atom_site_fract_y
 _atom_site_fract_z
 _atom_site_occupancy
  Ho  Ho0  1  0.681012  0.170219  0.500000  1
  Ho  Ho1  1  0.160088  0.324626  0.500000  1
  Ho  Ho2  1  0.818988  0.670219  0.500000  1
  Ho  Ho3  1  0.339912  0.824626  0.500000  1
  Hg  Hg4  1  0.992596  0.002710  0.000000  1
  Hg  Hg5  1  0.507404  0.502710  0.000000  1
  Pd  Pd6  1  0.629309  0.873380  0.000000  1
  Pd  Pd7  1  0.870691  0.373380  0.000000  1
  Au  Au8  1  0.375057  0.129065  0.000000  1
  Au  Au9  1  0.124943  0.629065  0.000000  1
