# generated using pymatgen
data_CsTh3Se4
_symmetry_space_group_name_H-M   'P 1'
_cell_length_a   4.27074700
_cell_length_b   4.27074727
_cell_length_c   30.54353500
_cell_angle_alpha   90.00000000
_cell_angle_beta   90.00000000
_cell_angle_gamma   119.99999013
_symmetry_Int_Tables_number   1
_chemical_formula_structural   CsTh3Se4
_chemical_formula_sum   'Cs2 Th6 Se8'
_cell_volume   482.45597690
_cell_formula_units_Z   2
loop_
 _symmetry_equiv_pos_site_id
 _symmetry_equiv_pos_as_xyz
  1  'x, y, z'
loop_
 _atom_site_type_symbol
 _atom_site_label
 _atom_site_symmetry_multiplicity
 _atom_site_fract_x
 _atom_site_fract_y
 _atom_site_fract_z
 _atom_site_occupancy
  Cs  Cs0  1  0.666667  0.333333  0.250000  1
  Cs  Cs1  1  0.333333  0.666667  0.750000  1
  Th  Th2  1  0.666667  0.333333  0.608246  1
  Th  Th3  1  0.666667  0.333333  0.891754  1
  Th  Th4  1  0.333333  0.666667  0.391754  1
  Th  Th5  1  0.333333  0.666667  0.108246  1
  Th  Th6  1  0.000000  0.000000  0.500000  1
  Th  Th7  1  0.000000  0.000000  0.000000  1
  Se  Se8  1  0.000000  0.000000  0.164595  1
  Se  Se9  1  0.666667  0.333333  0.445477  1
  Se  Se10  1  0.000000  0.000000  0.664595  1
  Se  Se11  1  0.333333  0.666667  0.945477  1
  Se  Se12  1  0.333333  0.666667  0.554523  1
  Se  Se13  1  0.000000  0.000000  0.335405  1
  Se  Se14  1  0.666667  0.333333  0.054523  1
  Se  Se15  1  0.000000  0.000000  0.835405  1
