# generated using pymatgen
data_Tb12Os2RuRh
_symmetry_space_group_name_H-M   'P 1'
_cell_length_a   6.38466873
_cell_length_b   7.34649643
_cell_length_c   9.20422600
_cell_angle_alpha   90.00000000
_cell_angle_beta   90.00000000
_cell_angle_gamma   90.29593666
_symmetry_Int_Tables_number   1
_chemical_formula_structural   Tb12Os2RuRh
_chemical_formula_sum   'Tb12 Os2 Ru1 Rh1'
_cell_volume   431.71796533
_cell_formula_units_Z   1
loop_
 _symmetry_equiv_pos_site_id
 _symmetry_equiv_pos_as_xyz
  1  'x, y, z'
loop_
 _atom_site_type_symbol
 _atom_site_label
 _atom_site_symmetry_multiplicity
 _atom_site_fract_x
 _atom_site_fract_y
 _atom_site_fract_z
 _atom_site_occupancy
  Tb  Tb0  1  0.330917  0.675534  0.063232  1
  Tb  Tb1  1  0.172197  0.176758  0.432798  1
  Tb  Tb2  1  0.667283  0.326037  0.562343  1
  Tb  Tb3  1  0.829049  0.821544  0.935854  1
  Tb  Tb4  1  0.667283  0.326037  0.937657  1
  Tb  Tb5  1  0.829049  0.821544  0.564146  1
  Tb  Tb6  1  0.330917  0.675534  0.436768  1
  Tb  Tb7  1  0.172197  0.176758  0.067202  1
  Tb  Tb8  1  0.867229  0.539630  0.250000  1
  Tb  Tb9  1  0.635272  0.038456  0.250000  1
  Tb  Tb10  1  0.132549  0.462267  0.750000  1
  Tb  Tb11  1  0.368132  0.960149  0.750000  1
  Os  Os12  1  0.458849  0.383135  0.250000  1
  Os  Os13  1  0.542683  0.616081  0.750000  1
  Ru  Ru14  1  0.039985  0.884665  0.250000  1
  Rh  Rh15  1  0.956411  0.115873  0.750000  1
