# generated using pymatgen
data_LuNp3(GeIr)4
_symmetry_space_group_name_H-M   'P 1'
_cell_length_a   4.38839600
_cell_length_b   6.83039985
_cell_length_c   7.55059597
_cell_angle_alpha   90.24343507
_cell_angle_beta   90.00000000
_cell_angle_gamma   90.00000000
_symmetry_Int_Tables_number   1
_chemical_formula_structural   LuNp3(GeIr)4
_chemical_formula_sum   'Lu1 Np3 Ge4 Ir4'
_cell_volume   226.32329130
_cell_formula_units_Z   1
loop_
 _symmetry_equiv_pos_site_id
 _symmetry_equiv_pos_as_xyz
  1  'x, y, z'
loop_
 _atom_site_type_symbol
 _atom_site_label
 _atom_site_symmetry_multiplicity
 _atom_site_fract_x
 _atom_site_fract_y
 _atom_site_fract_z
 _atom_site_occupancy
  Lu  Lu0  1  0.250000  0.513510  0.199099  1
  Np  Np1  1  0.750000  0.485558  0.805043  1
  Np  Np2  1  0.250000  0.020189  0.300967  1
  Np  Np3  1  0.750000  0.984753  0.696997  1
  Ge  Ge4  1  0.250000  0.673852  0.577473  1
  Ge  Ge5  1  0.250000  0.175204  0.919721  1
  Ge  Ge6  1  0.750000  0.331635  0.415700  1
  Ge  Ge7  1  0.750000  0.819425  0.084372  1
  Ir  Ir8  1  0.250000  0.777878  0.906904  1
  Ir  Ir9  1  0.250000  0.280322  0.590646  1
  Ir  Ir10  1  0.750000  0.719888  0.410361  1
  Ir  Ir11  1  0.750000  0.217786  0.092717  1
