# generated using pymatgen
data_NbIrRh5W
_symmetry_space_group_name_H-M   'P 1'
_cell_length_a   5.54491700
_cell_length_b   5.55042696
_cell_length_c   4.42467900
_cell_angle_alpha   90.00000000
_cell_angle_beta   90.00000000
_cell_angle_gamma   119.96717282
_symmetry_Int_Tables_number   1
_chemical_formula_structural   NbIrRh5W
_chemical_formula_sum   'Nb1 Ir1 Rh5 W1'
_cell_volume   117.97158309
_cell_formula_units_Z   1
loop_
 _symmetry_equiv_pos_site_id
 _symmetry_equiv_pos_as_xyz
  1  'x, y, z'
loop_
 _atom_site_type_symbol
 _atom_site_label
 _atom_site_symmetry_multiplicity
 _atom_site_fract_x
 _atom_site_fract_y
 _atom_site_fract_z
 _atom_site_occupancy
  Nb  Nb0  1  0.332187  0.664377  0.250000  1
  Ir  Ir1  1  0.833094  0.666186  0.250000  1
  Rh  Rh2  1  0.164965  0.836113  0.750000  1
  Rh  Rh3  1  0.671148  0.836113  0.750000  1
  Rh  Rh4  1  0.333442  0.165686  0.250000  1
  Rh  Rh5  1  0.832245  0.165686  0.250000  1
  Rh  Rh6  1  0.165484  0.330970  0.750000  1
  W  W7  1  0.667435  0.334868  0.750000  1
