# generated using pymatgen
data_KAl3NiCl12
_symmetry_space_group_name_H-M   'P 1'
_cell_length_a   12.21289500
_cell_length_b   12.69074895
_cell_length_c   13.82127700
_cell_angle_alpha   73.16265451
_cell_angle_beta   90.00000000
_cell_angle_gamma   90.00000000
_symmetry_Int_Tables_number   1
_chemical_formula_structural   KAl3NiCl12
_chemical_formula_sum   'K4 Al12 Ni4 Cl48'
_cell_volume   2050.33764554
_cell_formula_units_Z   4
loop_
 _symmetry_equiv_pos_site_id
 _symmetry_equiv_pos_as_xyz
  1  'x, y, z'
loop_
 _atom_site_type_symbol
 _atom_site_label
 _atom_site_symmetry_multiplicity
 _atom_site_fract_x
 _atom_site_fract_y
 _atom_site_fract_z
 _atom_site_occupancy
  K  K0  1  0.208206  0.518027  0.707267  1
  K  K1  1  0.791794  0.481973  0.292733  1
  K  K2  1  0.291794  0.018027  0.707267  1
  K  K3  1  0.708206  0.981973  0.292733  1
  Al  Al4  1  0.992617  0.174283  0.279954  1
  Al  Al5  1  0.754501  0.619299  0.013760  1
  Al  Al6  1  0.078581  0.685387  0.385752  1
  Al  Al7  1  0.492617  0.325717  0.720046  1
  Al  Al8  1  0.745499  0.119299  0.013760  1
  Al  Al9  1  0.421419  0.185387  0.385752  1
  Al  Al10  1  0.578581  0.814613  0.614248  1
  Al  Al11  1  0.921419  0.314613  0.614248  1
  Al  Al12  1  0.507383  0.674283  0.279954  1
  Al  Al13  1  0.254501  0.880701  0.986240  1
  Al  Al14  1  0.007383  0.825717  0.720046  1
  Al  Al15  1  0.245499  0.380701  0.986240  1
  Ni  Ni16  1  0.739838  0.257380  0.785007  1
  Ni  Ni17  1  0.239838  0.242620  0.214993  1
  Ni  Ni18  1  0.260162  0.742620  0.214993  1
  Ni  Ni19  1  0.760162  0.757380  0.785007  1
  Cl  Cl20  1  0.116040  0.253923  0.350251  1
  Cl  Cl21  1  0.609844  0.661530  0.732853  1
  Cl  Cl22  1  0.339905  0.235383  0.067063  1
  Cl  Cl23  1  0.831063  0.581151  0.884623  1
  Cl  Cl24  1  0.883960  0.746077  0.649749  1
  Cl  Cl25  1  0.910103  0.640317  0.402158  1
  Cl  Cl26  1  0.616040  0.246077  0.649749  1
  Cl  Cl27  1  0.097333  0.137572  0.165246  1
  Cl  Cl28  1  0.149082  0.008621  0.903436  1
  Cl  Cl29  1  0.410103  0.859683  0.597842  1
  Cl  Cl30  1  0.390156  0.338470  0.267147  1
  Cl  Cl31  1  0.890156  0.161530  0.732853  1
  Cl  Cl32  1  0.383960  0.753923  0.350251  1
  Cl  Cl33  1  0.902667  0.862428  0.834754  1
  Cl  Cl34  1  0.853184  0.294649  0.478677  1
  Cl  Cl35  1  0.350918  0.508621  0.903436  1
  Cl  Cl36  1  0.134943  0.716580  0.792993  1
  Cl  Cl37  1  0.324455  0.074958  0.323404  1
  Cl  Cl38  1  0.353184  0.205351  0.521323  1
  Cl  Cl39  1  0.675545  0.925042  0.676596  1
  Cl  Cl40  1  0.175545  0.574958  0.323404  1
  Cl  Cl41  1  0.668937  0.081151  0.884623  1
  Cl  Cl42  1  0.120306  0.342300  0.894537  1
  Cl  Cl43  1  0.069843  0.972340  0.617507  1
  Cl  Cl44  1  0.168937  0.418849  0.115377  1
  Cl  Cl45  1  0.146816  0.705351  0.521323  1
  Cl  Cl46  1  0.160095  0.735383  0.067063  1
  Cl  Cl47  1  0.930157  0.027660  0.382493  1
  Cl  Cl48  1  0.365057  0.216580  0.792993  1
  Cl  Cl49  1  0.620306  0.157700  0.105463  1
  Cl  Cl50  1  0.569843  0.527660  0.382493  1
  Cl  Cl51  1  0.865057  0.283420  0.207007  1
  Cl  Cl52  1  0.850918  0.991379  0.096564  1
  Cl  Cl53  1  0.879694  0.657700  0.105463  1
  Cl  Cl54  1  0.402667  0.637572  0.165246  1
  Cl  Cl55  1  0.379694  0.842300  0.894537  1
  Cl  Cl56  1  0.331063  0.918849  0.115377  1
  Cl  Cl57  1  0.649082  0.491379  0.096564  1
  Cl  Cl58  1  0.824455  0.425042  0.676596  1
  Cl  Cl59  1  0.839905  0.264617  0.932937  1
  Cl  Cl60  1  0.646816  0.794649  0.478677  1
  Cl  Cl61  1  0.589897  0.140317  0.402158  1
  Cl  Cl62  1  0.597333  0.362428  0.834754  1
  Cl  Cl63  1  0.430157  0.472340  0.617507  1
  Cl  Cl64  1  0.660095  0.764617  0.932937  1
  Cl  Cl65  1  0.634943  0.783420  0.207007  1
  Cl  Cl66  1  0.109844  0.838470  0.267147  1
  Cl  Cl67  1  0.089897  0.359683  0.597842  1
