# generated using pymatgen
data_CeHoAlRu2
_symmetry_space_group_name_H-M   'P 1'
_cell_length_a   5.74205955
_cell_length_b   5.74205858
_cell_length_c   6.97173775
_cell_angle_alpha   86.45411193
_cell_angle_beta   93.54588515
_cell_angle_gamma   118.09519507
_symmetry_Int_Tables_number   1
_chemical_formula_structural   CeHoAlRu2
_chemical_formula_sum   'Ce2 Ho2 Al2 Ru4'
_cell_volume   202.25278959
_cell_formula_units_Z   2
loop_
 _symmetry_equiv_pos_site_id
 _symmetry_equiv_pos_as_xyz
  1  'x, y, z'
loop_
 _atom_site_type_symbol
 _atom_site_label
 _atom_site_symmetry_multiplicity
 _atom_site_fract_x
 _atom_site_fract_y
 _atom_site_fract_z
 _atom_site_occupancy
  Ce  Ce0  1  0.166643  0.833357  0.580206  1
  Ce  Ce1  1  0.833357  0.166643  0.419794  1
  Ho  Ho2  1  0.344189  0.655811  0.085769  1
  Ho  Ho3  1  0.655811  0.344189  0.914231  1
  Al  Al4  1  0.000000  0.000000  0.000000  1
  Al  Al5  1  0.500000  0.500000  0.500000  1
  Ru  Ru6  1  0.867457  0.636658  0.263543  1
  Ru  Ru7  1  0.636658  0.867457  0.736457  1
  Ru  Ru8  1  0.132543  0.363342  0.736457  1
  Ru  Ru9  1  0.363342  0.132543  0.263543  1
