# generated using pymatgen
data_Dy4YEr15Sn16
_symmetry_space_group_name_H-M   'P 1'
_cell_length_a   8.00196040
_cell_length_b   8.11772374
_cell_length_c   15.35925470
_cell_angle_alpha   90.01782745
_cell_angle_beta   89.90582332
_cell_angle_gamma   89.93889402
_symmetry_Int_Tables_number   1
_chemical_formula_structural   Dy4YEr15Sn16
_chemical_formula_sum   'Dy4 Y1 Er15 Sn16'
_cell_volume   997.69995500
_cell_formula_units_Z   1
loop_
 _symmetry_equiv_pos_site_id
 _symmetry_equiv_pos_as_xyz
  1  'x, y, z'
loop_
 _atom_site_type_symbol
 _atom_site_label
 _atom_site_symmetry_multiplicity
 _atom_site_fract_x
 _atom_site_fract_y
 _atom_site_fract_z
 _atom_site_occupancy
  Dy  Dy0  1  0.979619  0.821036  0.096621  1
  Dy  Dy1  1  0.479290  0.678135  0.096334  1
  Dy  Dy2  1  0.978753  0.821404  0.403460  1
  Dy  Dy3  1  0.521109  0.321642  0.596667  1
  Y  Y4  1  0.020053  0.178767  0.903638  1
  Er  Er5  1  0.366522  0.837458  0.876927  1
  Er  Er6  1  0.867360  0.662005  0.622425  1
  Er  Er7  1  0.632109  0.162125  0.377381  1
  Er  Er8  1  0.132986  0.337827  0.122886  1
  Er  Er9  1  0.632382  0.162735  0.122968  1
  Er  Er10  1  0.131684  0.337652  0.377722  1
  Er  Er11  1  0.368528  0.837728  0.622647  1
  Er  Er12  1  0.867447  0.662288  0.877124  1
  Er  Er13  1  0.521901  0.321476  0.902732  1
  Er  Er14  1  0.022120  0.178670  0.597214  1
  Er  Er15  1  0.477711  0.678404  0.402859  1
  Er  Er16  1  0.198960  0.504053  0.749754  1
  Er  Er17  1  0.698776  0.996292  0.749905  1
  Er  Er18  1  0.801122  0.495866  0.250176  1
  Er  Er19  1  0.301186  0.003935  0.250351  1
  Sn  Sn20  1  0.294631  0.038542  0.041502  1
  Sn  Sn21  1  0.792074  0.462925  0.458201  1
  Sn  Sn22  1  0.707963  0.963539  0.541991  1
  Sn  Sn23  1  0.207246  0.537004  0.958161  1
  Sn  Sn24  1  0.704567  0.961880  0.958376  1
  Sn  Sn25  1  0.206492  0.538442  0.541318  1
  Sn  Sn26  1  0.293170  0.038132  0.458836  1
  Sn  Sn27  1  0.793944  0.460918  0.040988  1
  Sn  Sn28  1  0.565304  0.618114  0.749935  1
  Sn  Sn29  1  0.064564  0.881532  0.749411  1
  Sn  Sn30  1  0.434908  0.381218  0.250583  1
  Sn  Sn31  1  0.935156  0.118813  0.250166  1
  Sn  Sn32  1  0.331851  0.149155  0.750434  1
  Sn  Sn33  1  0.832147  0.350980  0.749626  1
  Sn  Sn34  1  0.667465  0.850800  0.250332  1
  Sn  Sn35  1  0.168898  0.648511  0.250348  1
