# generated using pymatgen
data_Dy3Tm2Sc3(P3Ir4)4
_symmetry_space_group_name_H-M   'P 1'
_cell_length_a   12.85648800
_cell_length_b   12.85774754
_cell_length_c   3.96221600
_cell_angle_alpha   90.00000000
_cell_angle_beta   90.00000000
_cell_angle_gamma   119.99676472
_symmetry_Int_Tables_number   1
_chemical_formula_structural   Dy3Tm2Sc3(P3Ir4)4
_chemical_formula_sum   'Dy3 Tm2 Sc3 P12 Ir16'
_cell_volume   567.24435081
_cell_formula_units_Z   1
loop_
 _symmetry_equiv_pos_site_id
 _symmetry_equiv_pos_as_xyz
  1  'x, y, z'
loop_
 _atom_site_type_symbol
 _atom_site_label
 _atom_site_symmetry_multiplicity
 _atom_site_fract_x
 _atom_site_fract_y
 _atom_site_fract_z
 _atom_site_occupancy
  Dy  Dy0  1  0.333322  0.666680  0.500000  1
  Dy  Dy1  1  0.666643  0.333320  0.500000  1
  Dy  Dy2  1  0.811943  0.000000  0.000000  1
  Tm  Tm3  1  0.999997  0.811794  0.000000  1
  Tm  Tm4  1  0.188203  0.188206  0.000000  1
  Sc  Sc5  1  0.999951  0.444852  0.500000  1
  Sc  Sc6  1  0.555099  0.555148  0.500000  1
  Sc  Sc7  1  0.444774  0.000000  0.500000  1
  P  P8  1  0.999992  0.646182  0.500000  1
  P  P9  1  0.353809  0.353818  0.500000  1
  P  P10  1  0.645685  0.000000  0.500000  1
  P  P11  1  0.516905  0.686535  0.000000  1
  P  P12  1  0.313439  0.830301  0.000000  1
  P  P13  1  0.169645  0.483180  0.000000  1
  P  P14  1  0.483138  0.169699  0.000000  1
  P  P15  1  0.686465  0.516820  0.000000  1
  P  P16  1  0.830369  0.313465  0.000000  1
  P  P17  1  0.000238  0.176554  0.500000  1
  P  P18  1  0.823684  0.823446  0.500000  1
  P  P19  1  0.176381  0.000000  0.500000  1
  Ir  Ir20  1  0.510029  0.867869  0.000000  1
  Ir  Ir21  1  0.132176  0.642231  0.000000  1
  Ir  Ir22  1  0.357801  0.489963  0.000000  1
  Ir  Ir23  1  0.489946  0.357769  0.000000  1
  Ir  Ir24  1  0.867840  0.510037  0.000000  1
  Ir  Ir25  1  0.642161  0.132131  0.000000  1
  Ir  Ir26  1  0.000329  0.277967  0.000000  1
  Ir  Ir27  1  0.722363  0.722033  0.000000  1
  Ir  Ir28  1  0.277511  0.000000  0.000000  1
  Ir  Ir29  1  0.627877  0.806731  0.500000  1
  Ir  Ir30  1  0.192544  0.821124  0.500000  1
  Ir  Ir31  1  0.178988  0.371449  0.500000  1
  Ir  Ir32  1  0.371421  0.178876  0.500000  1
  Ir  Ir33  1  0.807540  0.628551  0.500000  1
  Ir  Ir34  1  0.821146  0.193269  0.500000  1
  Ir  Ir35  1  0.000646  0.000000  0.500000  1
