# generated using pymatgen
data_Zr6Zn12GaCu11
_symmetry_space_group_name_H-M   'P 1'
_cell_length_a   8.62010290
_cell_length_b   8.61437243
_cell_length_c   8.60774200
_cell_angle_alpha   60.02545799
_cell_angle_beta   60.04742375
_cell_angle_gamma   60.03305148
_symmetry_Int_Tables_number   1
_chemical_formula_structural   Zr6Zn12GaCu11
_chemical_formula_sum   'Zr6 Zn12 Ga1 Cu11'
_cell_volume   452.33248645
_cell_formula_units_Z   1
loop_
 _symmetry_equiv_pos_site_id
 _symmetry_equiv_pos_as_xyz
  1  'x, y, z'
loop_
 _atom_site_type_symbol
 _atom_site_label
 _atom_site_symmetry_multiplicity
 _atom_site_fract_x
 _atom_site_fract_y
 _atom_site_fract_z
 _atom_site_occupancy
  Zr  Zr0  1  0.726735  0.273712  0.285130  1
  Zr  Zr1  1  0.267559  0.726562  0.725124  1
  Zr  Zr2  1  0.267559  0.726562  0.280755  1
  Zr  Zr3  1  0.726735  0.273712  0.714424  1
  Zr  Zr4  1  0.279896  0.279709  0.720197  1
  Zr  Zr5  1  0.732666  0.719756  0.273790  1
  Zn  Zn6  1  0.877270  0.369733  0.876498  1
  Zn  Zn7  1  0.626175  0.124382  0.124721  1
  Zn  Zn8  1  0.375284  0.874455  0.875129  1
  Zn  Zn9  1  0.334032  0.339953  0.338174  1
  Zn  Zn10  1  0.661266  0.662879  0.657186  1
  Zn  Zn11  1  0.334032  0.339953  0.987842  1
  Zn  Zn12  1  0.334163  0.988232  0.338804  1
  Zn  Zn13  1  0.661266  0.662879  0.018668  1
  Zn  Zn14  1  0.669358  0.002193  0.664224  1
  Zn  Zn15  1  0.003342  0.332478  0.332090  1
  Zn  Zn16  1  0.001994  0.670125  0.663940  1
  Zn  Zn17  1  0.002744  0.991107  0.003074  1
  Ga  Ga18  1  0.498125  0.507759  0.497059  1
  Cu  Cu19  1  0.122636  0.123435  0.121159  1
  Cu  Cu20  1  0.875250  0.877185  0.877681  1
  Cu  Cu21  1  0.122636  0.123435  0.632770  1
  Cu  Cu22  1  0.126444  0.625465  0.124046  1
  Cu  Cu23  1  0.875250  0.877185  0.369883  1
  Cu  Cu24  1  0.498728  0.002543  0.999463  1
  Cu  Cu25  1  0.998445  0.500476  0.501745  1
  Cu  Cu26  1  0.998445  0.500476  0.999335  1
  Cu  Cu27  1  0.498728  0.002543  0.499267  1
  Cu  Cu28  1  0.000523  0.001864  0.498806  1
  Cu  Cu29  1  0.502710  0.499254  0.999018  1
