# generated using pymatgen
data_PrAl10ReIr
_symmetry_space_group_name_H-M   'P 1'
_cell_length_a   6.93135724
_cell_length_b   6.93135664
_cell_length_c   9.27525802
_cell_angle_alpha   90.22648993
_cell_angle_beta   89.77350679
_cell_angle_gamma   96.52908986
_symmetry_Int_Tables_number   1
_chemical_formula_structural   PrAl10ReIr
_chemical_formula_sum   'Pr2 Al20 Re2 Ir2'
_cell_volume   442.72142148
_cell_formula_units_Z   2
loop_
 _symmetry_equiv_pos_site_id
 _symmetry_equiv_pos_as_xyz
  1  'x, y, z'
loop_
 _atom_site_type_symbol
 _atom_site_label
 _atom_site_symmetry_multiplicity
 _atom_site_fract_x
 _atom_site_fract_y
 _atom_site_fract_z
 _atom_site_occupancy
  Pr  Pr0  1  0.873821  0.126179  0.751133  1
  Pr  Pr1  1  0.126179  0.873821  0.248867  1
  Al  Al2  1  0.410442  0.141968  0.750741  1
  Al  Al3  1  0.141968  0.410442  0.249259  1
  Al  Al4  1  0.589558  0.858032  0.249259  1
  Al  Al5  1  0.858032  0.589558  0.750741  1
  Al  Al6  1  0.516962  0.779286  0.751131  1
  Al  Al7  1  0.779286  0.516962  0.248869  1
  Al  Al8  1  0.483038  0.220714  0.248869  1
  Al  Al9  1  0.220714  0.483038  0.751131  1
  Al  Al10  1  0.839059  0.160941  0.395301  1
  Al  Al11  1  0.160941  0.839059  0.604699  1
  Al  Al12  1  0.838052  0.161948  0.102060  1
  Al  Al13  1  0.161948  0.838052  0.897940  1
  Al  Al14  1  0.620642  0.379358  0.551417  1
  Al  Al15  1  0.379358  0.620642  0.448583  1
  Al  Al16  1  0.622539  0.377461  0.951506  1
  Al  Al17  1  0.377461  0.622539  0.048494  1
  Al  Al18  1  0.773207  0.773207  0.000000  1
  Al  Al19  1  0.773597  0.773597  0.500000  1
  Al  Al20  1  0.226793  0.226793  0.000000  1
  Al  Al21  1  0.226403  0.226403  0.500000  1
  Re  Re22  1  0.500000  0.000000  0.000000  1
  Re  Re23  1  0.000000  0.500000  0.000000  1
  Ir  Ir24  1  0.500000  0.000000  0.500000  1
  Ir  Ir25  1  0.000000  0.500000  0.500000  1
