# generated using pymatgen
data_Zr2Nb2GeAs
_symmetry_space_group_name_H-M   'P 1'
_cell_length_a   3.65844300
_cell_length_b   7.09839500
_cell_length_c   8.64157300
_cell_angle_alpha   90.00000000
_cell_angle_beta   90.00000000
_cell_angle_gamma   90.00000000
_symmetry_Int_Tables_number   1
_chemical_formula_structural   Zr2Nb2GeAs
_chemical_formula_sum   'Zr4 Nb4 Ge2 As2'
_cell_volume   224.41364438
_cell_formula_units_Z   2
loop_
 _symmetry_equiv_pos_site_id
 _symmetry_equiv_pos_as_xyz
  1  'x, y, z'
loop_
 _atom_site_type_symbol
 _atom_site_label
 _atom_site_symmetry_multiplicity
 _atom_site_fract_x
 _atom_site_fract_y
 _atom_site_fract_z
 _atom_site_occupancy
  Zr  Zr0  1  0.250000  0.544986  0.833922  1
  Zr  Zr1  1  0.750000  0.955014  0.333922  1
  Zr  Zr2  1  0.250000  0.043108  0.667698  1
  Zr  Zr3  1  0.750000  0.456892  0.167698  1
  Nb  Nb4  1  0.250000  0.134727  0.059706  1
  Nb  Nb5  1  0.750000  0.870318  0.940193  1
  Nb  Nb6  1  0.250000  0.629682  0.440193  1
  Nb  Nb7  1  0.750000  0.365273  0.559706  1
  Ge  Ge8  1  0.750000  0.745156  0.640384  1
  Ge  Ge9  1  0.250000  0.754844  0.140384  1
  As  As10  1  0.750000  0.248109  0.858098  1
  As  As11  1  0.250000  0.251891  0.358098  1
