# generated using pymatgen
data_Er3Sn3HgRu2
_symmetry_space_group_name_H-M   'P 1'
_cell_length_a   7.69508000
_cell_length_b   7.69507970
_cell_length_c   3.87610500
_cell_angle_alpha   90.00000000
_cell_angle_beta   90.00000000
_cell_angle_gamma   119.99999267
_symmetry_Int_Tables_number   1
_chemical_formula_structural   Er3Sn3HgRu2
_chemical_formula_sum   'Er3 Sn3 Hg1 Ru2'
_cell_volume   198.77074189
_cell_formula_units_Z   1
loop_
 _symmetry_equiv_pos_site_id
 _symmetry_equiv_pos_as_xyz
  1  'x, y, z'
loop_
 _atom_site_type_symbol
 _atom_site_label
 _atom_site_symmetry_multiplicity
 _atom_site_fract_x
 _atom_site_fract_y
 _atom_site_fract_z
 _atom_site_occupancy
  Er  Er0  1  0.387998  0.414476  0.000000  1
  Er  Er1  1  0.026478  0.612002  0.000000  1
  Er  Er2  1  0.585524  0.973522  0.000000  1
  Sn  Sn3  1  0.738178  0.748953  0.500000  1
  Sn  Sn4  1  0.010774  0.261822  0.500000  1
  Sn  Sn5  1  0.251047  0.989226  0.500000  1
  Hg  Hg6  1  0.666667  0.333333  0.500000  1
  Ru  Ru7  1  0.000000  0.000000  0.000000  1
  Ru  Ru8  1  0.333333  0.666667  0.500000  1
