# generated using pymatgen
data_La15Yb5(SiSb2)4
_symmetry_space_group_name_H-M   'P 1'
_cell_length_a   8.34182567
_cell_length_b   9.46058846
_cell_length_c   12.64165200
_cell_angle_alpha   89.98539836
_cell_angle_beta   89.94628837
_cell_angle_gamma   90.01016082
_symmetry_Int_Tables_number   1
_chemical_formula_structural   La15Yb5(SiSb2)4
_chemical_formula_sum   'La15 Yb5 Si4 Sb8'
_cell_volume   997.66073308
_cell_formula_units_Z   1
loop_
 _symmetry_equiv_pos_site_id
 _symmetry_equiv_pos_as_xyz
  1  'x, y, z'
loop_
 _atom_site_type_symbol
 _atom_site_label
 _atom_site_symmetry_multiplicity
 _atom_site_fract_x
 _atom_site_fract_y
 _atom_site_fract_z
 _atom_site_occupancy
  La  La0  1  0.862520  0.751181  0.790566  1
  La  La1  1  0.137743  0.248994  0.209087  1
  La  La2  1  0.361939  0.249489  0.709738  1
  La  La3  1  0.637246  0.749745  0.292000  1
  La  La4  1  0.310807  0.457972  0.434908  1
  La  La5  1  0.190673  0.458460  0.935189  1
  La  La6  1  0.309687  0.042747  0.436004  1
  La  La7  1  0.809691  0.541396  0.064498  1
  La  La8  1  0.690992  0.961154  0.564382  1
  La  La9  1  0.809820  0.958529  0.063535  1
  La  La10  1  0.190053  0.041925  0.936363  1
  La  La11  1  0.339189  0.749316  0.712459  1
  La  La12  1  0.662218  0.248659  0.288002  1
  La  La13  1  0.836441  0.250881  0.787065  1
  La  La14  1  0.162274  0.749700  0.211713  1
  Yb  Yb15  1  0.044638  0.748079  0.499260  1
  Yb  Yb16  1  0.952568  0.252629  0.500967  1
  Yb  Yb17  1  0.544039  0.249630  0.000637  1
  Yb  Yb18  1  0.456303  0.749755  0.998802  1
  Yb  Yb19  1  0.686613  0.541106  0.565982  1
  Si  Si20  1  0.071986  0.749557  0.979894  1
  Si  Si21  1  0.928704  0.250431  0.018756  1
  Si  Si22  1  0.572059  0.251047  0.521154  1
  Si  Si23  1  0.424979  0.749722  0.479634  1
  Sb  Sb24  1  0.572874  0.509437  0.831530  1
  Sb  Sb25  1  0.430421  0.490424  0.169779  1
  Sb  Sb26  1  0.070386  0.491814  0.669368  1
  Sb  Sb27  1  0.430789  0.008440  0.169607  1
  Sb  Sb28  1  0.931558  0.508669  0.329111  1
  Sb  Sb29  1  0.570265  0.990707  0.829749  1
  Sb  Sb30  1  0.928810  0.989868  0.331030  1
  Sb  Sb31  1  0.071716  0.008536  0.669228  1
