# generated using pymatgen
data_Zr2BiRh5
_symmetry_space_group_name_H-M   'P 1'
_cell_length_a   5.74249275
_cell_length_b   5.74249257
_cell_length_c   8.32857500
_cell_angle_alpha   90.00000000
_cell_angle_beta   90.00000000
_cell_angle_gamma   97.51895863
_symmetry_Int_Tables_number   1
_chemical_formula_structural   Zr2BiRh5
_chemical_formula_sum   'Zr4 Bi2 Rh10'
_cell_volume   272.28343530
_cell_formula_units_Z   2
loop_
 _symmetry_equiv_pos_site_id
 _symmetry_equiv_pos_as_xyz
  1  'x, y, z'
loop_
 _atom_site_type_symbol
 _atom_site_label
 _atom_site_symmetry_multiplicity
 _atom_site_fract_x
 _atom_site_fract_y
 _atom_site_fract_z
 _atom_site_occupancy
  Zr  Zr0  1  0.789261  0.210739  0.500000  1
  Zr  Zr1  1  0.210739  0.789261  0.000000  1
  Zr  Zr2  1  0.210739  0.789261  0.500000  1
  Zr  Zr3  1  0.789261  0.210739  0.000000  1
  Bi  Bi4  1  0.501535  0.501535  0.750000  1
  Bi  Bi5  1  0.498465  0.498465  0.250000  1
  Rh  Rh6  1  0.731720  0.731720  0.000982  1
  Rh  Rh7  1  0.731720  0.731720  0.499018  1
  Rh  Rh8  1  0.268280  0.268280  0.999018  1
  Rh  Rh9  1  0.268280  0.268280  0.500982  1
  Rh  Rh10  1  0.500084  0.000150  0.750000  1
  Rh  Rh11  1  0.499916  0.999850  0.250000  1
  Rh  Rh12  1  0.000275  0.000275  0.250000  1
  Rh  Rh13  1  0.999725  0.999725  0.750000  1
  Rh  Rh14  1  0.000150  0.500084  0.750000  1
  Rh  Rh15  1  0.999850  0.499916  0.250000  1
