# generated using pymatgen
data_NdSm2WO7
_symmetry_space_group_name_H-M   'P 1'
_cell_length_a   6.61749188
_cell_length_b   6.61749145
_cell_length_c   7.69475800
_cell_angle_alpha   90.00000000
_cell_angle_beta   90.00000000
_cell_angle_gamma   109.26358158
_symmetry_Int_Tables_number   1
_chemical_formula_structural   NdSm2WO7
_chemical_formula_sum   'Nd2 Sm4 W2 O14'
_cell_volume   318.09640008
_cell_formula_units_Z   2
loop_
 _symmetry_equiv_pos_site_id
 _symmetry_equiv_pos_as_xyz
  1  'x, y, z'
loop_
 _atom_site_type_symbol
 _atom_site_label
 _atom_site_symmetry_multiplicity
 _atom_site_fract_x
 _atom_site_fract_y
 _atom_site_fract_z
 _atom_site_occupancy
  Nd  Nd0  1  0.500000  0.500000  0.500000  1
  Nd  Nd1  1  0.500000  0.500000  0.000000  1
  Sm  Sm2  1  0.534343  0.000128  0.750000  1
  Sm  Sm3  1  0.000128  0.534343  0.250000  1
  Sm  Sm4  1  0.465657  0.999872  0.250000  1
  Sm  Sm5  1  0.999872  0.465657  0.750000  1
  W  W6  1  0.000000  0.000000  0.500000  1
  W  W7  1  0.000000  0.000000  0.000000  1
  O  O8  1  0.682778  0.928018  0.472062  1
  O  O9  1  0.928018  0.682778  0.527938  1
  O  O10  1  0.682778  0.928018  0.027938  1
  O  O11  1  0.928018  0.682778  0.972062  1
  O  O12  1  0.317222  0.071982  0.527938  1
  O  O13  1  0.071982  0.317222  0.472062  1
  O  O14  1  0.317222  0.071982  0.972062  1
  O  O15  1  0.071982  0.317222  0.027938  1
  O  O16  1  0.931989  0.068011  0.750000  1
  O  O17  1  0.068011  0.931989  0.250000  1
  O  O18  1  0.367611  0.632388  0.750000  1
  O  O19  1  0.632388  0.367611  0.250000  1
  O  O20  1  0.637465  0.362535  0.750000  1
  O  O21  1  0.362535  0.637465  0.250000  1
