# generated using pymatgen
data_Tb3Y(GaPd2)4
_symmetry_space_group_name_H-M   'P 1'
_cell_length_a   5.63553208
_cell_length_b   7.17741300
_cell_length_c   7.41625111
_cell_angle_alpha   90.00000000
_cell_angle_beta   89.98065099
_cell_angle_gamma   90.00000000
_symmetry_Int_Tables_number   1
_chemical_formula_structural   Tb3Y(GaPd2)4
_chemical_formula_sum   'Tb3 Y1 Ga4 Pd8'
_cell_volume   299.97652141
_cell_formula_units_Z   1
loop_
 _symmetry_equiv_pos_site_id
 _symmetry_equiv_pos_as_xyz
  1  'x, y, z'
loop_
 _atom_site_type_symbol
 _atom_site_label
 _atom_site_symmetry_multiplicity
 _atom_site_fract_x
 _atom_site_fract_y
 _atom_site_fract_z
 _atom_site_occupancy
  Tb  Tb0  1  0.354859  0.750000  0.031513  1
  Tb  Tb1  1  0.144946  0.750000  0.531578  1
  Tb  Tb2  1  0.645200  0.250000  0.968383  1
  Y  Y3  1  0.855249  0.250000  0.468480  1
  Ga  Ga4  1  0.643947  0.750000  0.385427  1
  Ga  Ga5  1  0.856237  0.750000  0.885460  1
  Ga  Ga6  1  0.356215  0.250000  0.614565  1
  Ga  Ga7  1  0.143709  0.250000  0.114731  1
  Pd  Pd8  1  0.910420  0.551279  0.182872  1
  Pd  Pd9  1  0.589619  0.948659  0.682948  1
  Pd  Pd10  1  0.089467  0.051303  0.817025  1
  Pd  Pd11  1  0.410313  0.448747  0.317087  1
  Pd  Pd12  1  0.089467  0.448697  0.817025  1
  Pd  Pd13  1  0.410313  0.051253  0.317087  1
  Pd  Pd14  1  0.910420  0.948721  0.182872  1
  Pd  Pd15  1  0.589619  0.551341  0.682948  1
