# generated using pymatgen
data_Y3Si3Pt
_symmetry_space_group_name_H-M   'P 1'
_cell_length_a   4.25923100
_cell_length_b   10.70202300
_cell_length_c   12.36916500
_cell_angle_alpha   90.00000000
_cell_angle_beta   90.00000000
_cell_angle_gamma   90.00000000
_symmetry_Int_Tables_number   1
_chemical_formula_structural   Y3Si3Pt
_chemical_formula_sum   'Y12 Si12 Pt4'
_cell_volume   563.81607980
_cell_formula_units_Z   4
loop_
 _symmetry_equiv_pos_site_id
 _symmetry_equiv_pos_as_xyz
  1  'x, y, z'
loop_
 _atom_site_type_symbol
 _atom_site_label
 _atom_site_symmetry_multiplicity
 _atom_site_fract_x
 _atom_site_fract_y
 _atom_site_fract_z
 _atom_site_occupancy
  Y  Y0  1  0.250000  0.879023  0.021117  1
  Y  Y1  1  0.250000  0.620977  0.521117  1
  Y  Y2  1  0.750000  0.120977  0.978883  1
  Y  Y3  1  0.750000  0.379023  0.478883  1
  Y  Y4  1  0.250000  0.919429  0.601994  1
  Y  Y5  1  0.250000  0.580571  0.101994  1
  Y  Y6  1  0.750000  0.080571  0.398006  1
  Y  Y7  1  0.750000  0.419429  0.898006  1
  Y  Y8  1  0.250000  0.661337  0.801643  1
  Y  Y9  1  0.250000  0.838663  0.301643  1
  Y  Y10  1  0.750000  0.338663  0.198357  1
  Y  Y11  1  0.750000  0.161337  0.698357  1
  Si  Si12  1  0.250000  0.015152  0.822859  1
  Si  Si13  1  0.250000  0.484848  0.322859  1
  Si  Si14  1  0.750000  0.984848  0.177141  1
  Si  Si15  1  0.750000  0.515152  0.677141  1
  Si  Si16  1  0.250000  0.245195  0.843085  1
  Si  Si17  1  0.250000  0.254805  0.343085  1
  Si  Si18  1  0.750000  0.754805  0.156915  1
  Si  Si19  1  0.750000  0.745195  0.656915  1
  Si  Si20  1  0.250000  0.195678  0.540585  1
  Si  Si21  1  0.250000  0.304322  0.040585  1
  Si  Si22  1  0.750000  0.804322  0.459415  1
  Si  Si23  1  0.750000  0.695678  0.959415  1
  Pt  Pt24  1  0.250000  0.389592  0.681855  1
  Pt  Pt25  1  0.250000  0.110408  0.181855  1
  Pt  Pt26  1  0.750000  0.610408  0.318145  1
  Pt  Pt27  1  0.750000  0.889592  0.818145  1
