# generated using pymatgen
data_TbB2IrRu
_symmetry_space_group_name_H-M   'P 1'
_cell_length_a   6.81714198
_cell_length_b   5.99736929
_cell_length_c   5.54573131
_cell_angle_alpha   72.27649689
_cell_angle_beta   56.92875979
_cell_angle_gamma   50.79475589
_symmetry_Int_Tables_number   1
_chemical_formula_structural   TbB2IrRu
_chemical_formula_sum   'Tb2 B4 Ir2 Ru2'
_cell_volume   146.94471009
_cell_formula_units_Z   2
loop_
 _symmetry_equiv_pos_site_id
 _symmetry_equiv_pos_as_xyz
  1  'x, y, z'
loop_
 _atom_site_type_symbol
 _atom_site_label
 _atom_site_symmetry_multiplicity
 _atom_site_fract_x
 _atom_site_fract_y
 _atom_site_fract_z
 _atom_site_occupancy
  Tb  Tb0  1  0.500000  0.500000  0.500000  1
  Tb  Tb1  1  0.750000  0.750000  0.750000  1
  B  B2  1  0.180685  0.819315  0.180685  1
  B  B3  1  0.062238  0.437762  0.062238  1
  B  B4  1  0.819315  0.180684  0.819315  1
  B  B5  1  0.437762  0.062238  0.437762  1
  Ir  Ir6  1  0.384864  0.384864  0.115136  1
  Ir  Ir7  1  0.115136  0.115136  0.384864  1
  Ru  Ru8  1  0.864578  0.864578  0.135422  1
  Ru  Ru9  1  0.135422  0.135422  0.864578  1
