# generated using pymatgen
data_Tb2Y6Ti12Si15P
_symmetry_space_group_name_H-M   'P 1'
_cell_length_a   7.04592160
_cell_length_b   7.05189158
_cell_length_c   12.96450801
_cell_angle_alpha   89.97303750
_cell_angle_beta   89.94068858
_cell_angle_gamma   89.93060628
_symmetry_Int_Tables_number   1
_chemical_formula_structural   Tb2Y6Ti12Si15P
_chemical_formula_sum   'Tb2 Y6 Ti12 Si15 P1'
_cell_volume   644.16759656
_cell_formula_units_Z   1
loop_
 _symmetry_equiv_pos_site_id
 _symmetry_equiv_pos_as_xyz
  1  'x, y, z'
loop_
 _atom_site_type_symbol
 _atom_site_label
 _atom_site_symmetry_multiplicity
 _atom_site_fract_x
 _atom_site_fract_y
 _atom_site_fract_z
 _atom_site_occupancy
  Tb  Tb0  1  0.003991  0.339171  0.534620  1
  Tb  Tb1  1  0.997286  0.659979  0.033015  1
  Y  Y2  1  0.340088  0.003214  0.467849  1
  Y  Y3  1  0.494069  0.844010  0.716811  1
  Y  Y4  1  0.502554  0.159463  0.216304  1
  Y  Y5  1  0.839849  0.497104  0.283491  1
  Y  Y6  1  0.159676  0.498311  0.782330  1
  Y  Y7  1  0.660330  0.995640  0.966618  1
  Ti  Ti8  1  0.326082  0.326691  0.999354  1
  Ti  Ti9  1  0.172943  0.827199  0.249966  1
  Ti  Ti10  1  0.827600  0.173054  0.749502  1
  Ti  Ti11  1  0.672923  0.672952  0.500266  1
  Ti  Ti12  1  0.154376  0.010276  0.872890  1
  Ti  Ti13  1  0.491067  0.653028  0.125824  1
  Ti  Ti14  1  0.506889  0.344702  0.627545  1
  Ti  Ti15  1  0.654171  0.493638  0.873761  1
  Ti  Ti16  1  0.347147  0.508252  0.373828  1
  Ti  Ti17  1  0.847321  0.991376  0.376342  1
  Ti  Ti18  1  0.008526  0.152486  0.123647  1
  Ti  Ti19  1  0.994024  0.849173  0.624918  1
  Si  Si20  1  0.369381  0.702227  0.933872  1
  Si  Si21  1  0.629597  0.298279  0.435873  1
  Si  Si22  1  0.701942  0.370692  0.064864  1
  Si  Si23  1  0.298140  0.629618  0.565381  1
  Si  Si24  1  0.797425  0.870485  0.184986  1
  Si  Si25  1  0.129931  0.202074  0.315440  1
  Si  Si26  1  0.870832  0.796822  0.814750  1
  Si  Si27  1  0.290379  0.953142  0.063876  1
  Si  Si28  1  0.546294  0.790900  0.314887  1
  Si  Si29  1  0.459070  0.211334  0.817602  1
  Si  Si30  1  0.789280  0.547509  0.684784  1
  Si  Si31  1  0.209309  0.452938  0.185144  1
  Si  Si32  1  0.709538  0.045998  0.564610  1
  Si  Si33  1  0.953437  0.290213  0.935320  1
  Si  Si34  1  0.046677  0.709078  0.435642  1
  P  P35  1  0.197855  0.128970  0.684090  1
