# generated using pymatgen
data_Dy5ErMg2(Co4P3)4
_symmetry_space_group_name_H-M   'P 1'
_cell_length_a   3.71938800
_cell_length_b   10.59793400
_cell_length_c   12.23467900
_cell_angle_alpha   89.99730008
_cell_angle_beta   90.00000000
_cell_angle_gamma   90.00000000
_symmetry_Int_Tables_number   1
_chemical_formula_structural   Dy5ErMg2(Co4P3)4
_chemical_formula_sum   'Dy5 Er1 Mg2 Co16 P12'
_cell_volume   482.26447885
_cell_formula_units_Z   1
loop_
 _symmetry_equiv_pos_site_id
 _symmetry_equiv_pos_as_xyz
  1  'x, y, z'
loop_
 _atom_site_type_symbol
 _atom_site_label
 _atom_site_symmetry_multiplicity
 _atom_site_fract_x
 _atom_site_fract_y
 _atom_site_fract_z
 _atom_site_occupancy
  Dy  Dy0  1  0.750000  0.250066  0.473825  1
  Dy  Dy1  1  0.250000  0.750055  0.525997  1
  Dy  Dy2  1  0.250000  0.927827  0.793614  1
  Dy  Dy3  1  0.250000  0.572096  0.793375  1
  Dy  Dy4  1  0.750000  0.072465  0.206603  1
  Er  Er5  1  0.750000  0.427625  0.206369  1
  Mg  Mg6  1  0.250000  0.250121  0.843707  1
  Mg  Mg7  1  0.750000  0.749820  0.156318  1
  Co  Co8  1  0.250000  0.250748  0.294519  1
  Co  Co9  1  0.750000  0.749850  0.705258  1
  Co  Co10  1  0.750000  0.250421  0.011746  1
  Co  Co11  1  0.250000  0.749616  0.988906  1
  Co  Co12  1  0.250000  0.417545  0.003564  1
  Co  Co13  1  0.250000  0.082795  0.003507  1
  Co  Co14  1  0.750000  0.582137  0.997232  1
  Co  Co15  1  0.750000  0.917440  0.996897  1
  Co  Co16  1  0.250000  0.453529  0.567458  1
  Co  Co17  1  0.250000  0.046556  0.567977  1
  Co  Co18  1  0.750000  0.546332  0.431432  1
  Co  Co19  1  0.750000  0.953641  0.432062  1
  Co  Co20  1  0.250000  0.871988  0.294454  1
  Co  Co21  1  0.250000  0.627296  0.293793  1
  Co  Co22  1  0.750000  0.127911  0.705693  1
  Co  Co23  1  0.750000  0.372090  0.705437  1
  P  P24  1  0.250000  0.250614  0.115204  1
  P  P25  1  0.750000  0.749777  0.885421  1
  P  P26  1  0.250000  0.250037  0.644654  1
  P  P27  1  0.750000  0.750081  0.355219  1
  P  P28  1  0.250000  0.440216  0.383737  1
  P  P29  1  0.250000  0.059802  0.384607  1
  P  P30  1  0.750000  0.559489  0.614979  1
  P  P31  1  0.750000  0.940412  0.615431  1
  P  P32  1  0.250000  0.911037  0.107278  1
  P  P33  1  0.250000  0.588379  0.107857  1
  P  P34  1  0.750000  0.089116  0.893049  1
  P  P35  1  0.750000  0.411070  0.892822  1
