# generated using pymatgen
data_Hf8MnCoTe8
_symmetry_space_group_name_H-M   'P 1'
_cell_length_a   5.40234800
_cell_length_b   11.01749500
_cell_length_c   19.71146200
_cell_angle_alpha   90.00000000
_cell_angle_beta   90.00000000
_cell_angle_gamma   90.00000000
_symmetry_Int_Tables_number   1
_chemical_formula_structural   Hf8MnCoTe8
_chemical_formula_sum   'Hf16 Mn2 Co2 Te16'
_cell_volume   1173.23296110
_cell_formula_units_Z   2
loop_
 _symmetry_equiv_pos_site_id
 _symmetry_equiv_pos_as_xyz
  1  'x, y, z'
loop_
 _atom_site_type_symbol
 _atom_site_label
 _atom_site_symmetry_multiplicity
 _atom_site_fract_x
 _atom_site_fract_y
 _atom_site_fract_z
 _atom_site_occupancy
  Hf  Hf0  1  0.496745  0.564376  0.389307  1
  Hf  Hf1  1  0.496745  0.435624  0.610693  1
  Hf  Hf2  1  0.503255  0.064376  0.110693  1
  Hf  Hf3  1  0.503255  0.935624  0.889307  1
  Hf  Hf4  1  0.496577  0.698219  0.535959  1
  Hf  Hf5  1  0.496577  0.301781  0.464041  1
  Hf  Hf6  1  0.503423  0.198219  0.964041  1
  Hf  Hf7  1  0.503423  0.801781  0.035959  1
  Hf  Hf8  1  0.003351  0.685346  0.447172  1
  Hf  Hf9  1  0.003351  0.314654  0.552828  1
  Hf  Hf10  1  0.996649  0.185346  0.052828  1
  Hf  Hf11  1  0.996649  0.814654  0.947172  1
  Hf  Hf12  1  0.003212  0.405919  0.396281  1
  Hf  Hf13  1  0.003212  0.594081  0.603719  1
  Hf  Hf14  1  0.996788  0.905919  0.103719  1
  Hf  Hf15  1  0.996788  0.094081  0.896281  1
  Mn  Mn16  1  0.250584  0.500000  0.500000  1
  Mn  Mn17  1  0.749416  0.000000  0.000000  1
  Co  Co18  1  0.750327  0.500000  0.500000  1
  Co  Co19  1  0.249673  0.000000  0.000000  1
  Te  Te20  1  0.996795  0.846231  0.563344  1
  Te  Te21  1  0.996795  0.153769  0.436656  1
  Te  Te22  1  0.003205  0.346231  0.936656  1
  Te  Te23  1  0.003205  0.653769  0.063344  1
  Te  Te24  1  0.503399  0.334357  0.318368  1
  Te  Te25  1  0.503399  0.665643  0.681632  1
  Te  Te26  1  0.496601  0.834357  0.181632  1
  Te  Te27  1  0.496601  0.165643  0.818368  1
  Te  Te28  1  0.503283  0.825319  0.407508  1
  Te  Te29  1  0.503283  0.174681  0.592492  1
  Te  Te30  1  0.496717  0.325319  0.092492  1
  Te  Te31  1  0.496717  0.674681  0.907508  1
  Te  Te32  1  0.996817  0.613026  0.305883  1
  Te  Te33  1  0.996817  0.386974  0.694117  1
  Te  Te34  1  0.003183  0.113026  0.194117  1
  Te  Te35  1  0.003183  0.886974  0.805883  1
