# generated using pymatgen
data_DyNi3As2
_symmetry_space_group_name_H-M   'P 1'
_cell_length_a   3.89395600
_cell_length_b   10.83950600
_cell_length_c   12.71693900
_cell_angle_alpha   90.00000000
_cell_angle_beta   90.00000000
_cell_angle_gamma   90.00000000
_symmetry_Int_Tables_number   1
_chemical_formula_structural   DyNi3As2
_chemical_formula_sum   'Dy6 Ni18 As12'
_cell_volume   536.76367549
_cell_formula_units_Z   6
loop_
 _symmetry_equiv_pos_site_id
 _symmetry_equiv_pos_as_xyz
  1  'x, y, z'
loop_
 _atom_site_type_symbol
 _atom_site_label
 _atom_site_symmetry_multiplicity
 _atom_site_fract_x
 _atom_site_fract_y
 _atom_site_fract_z
 _atom_site_occupancy
  Dy  Dy0  1  0.000000  0.500000  0.523766  1
  Dy  Dy1  1  0.500000  0.000000  0.476234  1
  Dy  Dy2  1  0.500000  0.816385  0.206194  1
  Dy  Dy3  1  0.500000  0.183615  0.206194  1
  Dy  Dy4  1  0.000000  0.683615  0.793806  1
  Dy  Dy5  1  0.000000  0.316385  0.793806  1
  Ni  Ni6  1  0.500000  0.500000  0.156886  1
  Ni  Ni7  1  0.000000  0.000000  0.843114  1
  Ni  Ni8  1  0.500000  0.500000  0.699066  1
  Ni  Ni9  1  0.000000  0.000000  0.300934  1
  Ni  Ni10  1  0.000000  0.500000  0.982122  1
  Ni  Ni11  1  0.500000  0.000000  0.017878  1
  Ni  Ni12  1  0.500000  0.333187  0.997248  1
  Ni  Ni13  1  0.500000  0.666813  0.997248  1
  Ni  Ni14  1  0.000000  0.166813  0.002752  1
  Ni  Ni15  1  0.000000  0.833187  0.002752  1
  Ni  Ni16  1  0.500000  0.302724  0.425990  1
  Ni  Ni17  1  0.500000  0.697276  0.425990  1
  Ni  Ni18  1  0.000000  0.197276  0.574010  1
  Ni  Ni19  1  0.000000  0.802724  0.574010  1
  Ni  Ni20  1  0.500000  0.879976  0.707180  1
  Ni  Ni21  1  0.500000  0.120024  0.707180  1
  Ni  Ni22  1  0.000000  0.620024  0.292820  1
  Ni  Ni23  1  0.000000  0.379976  0.292820  1
  As  As24  1  0.500000  0.500000  0.875916  1
  As  As25  1  0.000000  0.000000  0.124084  1
  As  As26  1  0.500000  0.500000  0.345564  1
  As  As27  1  0.000000  0.000000  0.654436  1
  As  As28  1  0.500000  0.314395  0.613476  1
  As  As29  1  0.500000  0.685605  0.613476  1
  As  As30  1  0.000000  0.185605  0.386524  1
  As  As31  1  0.000000  0.814395  0.386524  1
  As  As32  1  0.500000  0.847478  0.890435  1
  As  As33  1  0.500000  0.152522  0.890435  1
  As  As34  1  0.000000  0.652522  0.109565  1
  As  As35  1  0.000000  0.347478  0.109565  1
