# generated using pymatgen
data_Ta3Nb(Al3Au)2
_symmetry_space_group_name_H-M   'P 1'
_cell_length_a   5.22829000
_cell_length_b   5.22829054
_cell_length_c   8.19097400
_cell_angle_alpha   90.00000000
_cell_angle_beta   90.00000000
_cell_angle_gamma   120.00000926
_symmetry_Int_Tables_number   1
_chemical_formula_structural   Ta3Nb(Al3Au)2
_chemical_formula_sum   'Ta3 Nb1 Al6 Au2'
_cell_volume   193.90344303
_cell_formula_units_Z   1
loop_
 _symmetry_equiv_pos_site_id
 _symmetry_equiv_pos_as_xyz
  1  'x, y, z'
loop_
 _atom_site_type_symbol
 _atom_site_label
 _atom_site_symmetry_multiplicity
 _atom_site_fract_x
 _atom_site_fract_y
 _atom_site_fract_z
 _atom_site_occupancy
  Ta  Ta0  1  0.666666  0.333333  0.074455  1
  Ta  Ta1  1  0.666666  0.333333  0.425585  1
  Ta  Ta2  1  0.333333  0.666666  0.573823  1
  Nb  Nb3  1  0.333333  0.666666  0.925895  1
  Al  Al4  1  0.173057  0.346116  0.250032  1
  Al  Al5  1  0.173058  0.826942  0.250032  1
  Al  Al6  1  0.653883  0.826942  0.250032  1
  Al  Al7  1  0.345890  0.172945  0.750006  1
  Al  Al8  1  0.827054  0.172945  0.750006  1
  Al  Al9  1  0.827054  0.654109  0.750006  1
  Au  Au10  1  0.000000  0.000000  0.000202  1
  Au  Au11  1  0.000000  0.000000  0.499928  1
