# generated using pymatgen
data_Ac3La5Nd2C4I15
_symmetry_space_group_name_H-M   'P 1'
_cell_length_a   10.04568906
_cell_length_b   10.87919810
_cell_length_c   12.10808012
_cell_angle_alpha   93.84321160
_cell_angle_beta   114.55712867
_cell_angle_gamma   108.97500817
_symmetry_Int_Tables_number   1
_chemical_formula_structural   Ac3La5Nd2C4I15
_chemical_formula_sum   'Ac3 La5 Nd2 C4 I15'
_cell_volume   1106.29918149
_cell_formula_units_Z   1
loop_
 _symmetry_equiv_pos_site_id
 _symmetry_equiv_pos_as_xyz
  1  'x, y, z'
loop_
 _atom_site_type_symbol
 _atom_site_label
 _atom_site_symmetry_multiplicity
 _atom_site_fract_x
 _atom_site_fract_y
 _atom_site_fract_z
 _atom_site_occupancy
  Ac  Ac0  1  0.601701  0.535807  0.346935  1
  Ac  Ac1  1  0.335350  0.746714  0.163022  1
  Ac  Ac2  1  0.786531  0.892461  0.261664  1
  La  La3  1  0.402047  0.458497  0.661352  1
  La  La4  1  0.470882  0.811670  0.897384  1
  La  La5  1  0.700527  0.563668  0.041493  1
  La  La6  1  0.295692  0.430849  0.954052  1
  La  La7  1  0.652479  0.251947  0.835364  1
  Nd  Nd8  1  0.525477  0.187082  0.095703  1
  Nd  Nd9  1  0.229493  0.121624  0.746982  1
  C  C10  1  0.481449  0.301578  0.936917  1
  C  C11  1  0.518050  0.699610  0.062012  1
  C  C12  1  0.452614  0.362446  0.835222  1
  C  C13  1  0.547539  0.637554  0.163830  1
  I  I14  1  0.211164  0.914460  0.933893  1
  I  I15  1  0.108904  0.188506  0.474856  1
  I  I16  1  0.152122  0.554319  0.705829  1
  I  I17  1  0.400316  0.970639  0.651156  1
  I  I18  1  0.712900  0.731277  0.823872  1
  I  I19  1  0.285243  0.259885  0.170937  1
  I  I20  1  0.846619  0.436452  0.287161  1
  I  I21  1  0.902085  0.816932  0.538775  1
  I  I22  1  0.357396  0.629046  0.417226  1
  I  I23  1  0.056252  0.830072  0.217694  1
  I  I24  1  0.786651  0.095860  0.058872  1
  I  I25  1  0.639360  0.367509  0.591546  1
  I  I26  1  0.955607  0.168272  0.780352  1
  I  I27  1  0.592718  0.041026  0.349951  1
  I  I28  1  0.992835  0.494239  0.995946  1
