# generated using pymatgen
data_Ce2Y6AlPd24
_symmetry_space_group_name_H-M   'P 1'
_cell_length_a   8.39085353
_cell_length_b   8.39085353
_cell_length_c   8.39085353
_cell_angle_alpha   89.92565603
_cell_angle_beta   90.07434397
_cell_angle_gamma   90.07434397
_symmetry_Int_Tables_number   1
_chemical_formula_structural   Ce2Y6AlPd24
_chemical_formula_sum   'Ce2 Y6 Al1 Pd24'
_cell_volume   590.76849187
_cell_formula_units_Z   1
loop_
 _symmetry_equiv_pos_site_id
 _symmetry_equiv_pos_as_xyz
  1  'x, y, z'
loop_
 _atom_site_type_symbol
 _atom_site_label
 _atom_site_symmetry_multiplicity
 _atom_site_fract_x
 _atom_site_fract_y
 _atom_site_fract_z
 _atom_site_occupancy
  Ce  Ce0  1  0.253533  0.746467  0.746467  1
  Ce  Ce1  1  0.746467  0.253533  0.253533  1
  Y  Y2  1  0.251692  0.251882  0.251882  1
  Y  Y3  1  0.748308  0.748118  0.748118  1
  Y  Y4  1  0.748118  0.748308  0.251882  1
  Y  Y5  1  0.748118  0.251882  0.748308  1
  Y  Y6  1  0.251882  0.251692  0.748118  1
  Y  Y7  1  0.251882  0.748118  0.251692  1
  Al  Al8  1  0.000000  0.000000  0.000000  1
  Pd  Pd9  1  0.259998  0.500440  0.999459  1
  Pd  Pd10  1  0.740002  0.499560  0.000541  1
  Pd  Pd11  1  0.999459  0.259998  0.499560  1
  Pd  Pd12  1  0.500440  0.259998  0.000541  1
  Pd  Pd13  1  0.000541  0.740002  0.500440  1
  Pd  Pd14  1  0.499560  0.740002  0.999459  1
  Pd  Pd15  1  0.500440  0.000541  0.259998  1
  Pd  Pd16  1  0.259998  0.999459  0.500440  1
  Pd  Pd17  1  0.499560  0.999459  0.740002  1
  Pd  Pd18  1  0.740002  0.000541  0.499560  1
  Pd  Pd19  1  0.999459  0.499560  0.259998  1
  Pd  Pd20  1  0.000541  0.500440  0.740002  1
  Pd  Pd21  1  0.253177  0.500499  0.500499  1
  Pd  Pd22  1  0.746823  0.499501  0.499501  1
  Pd  Pd23  1  0.500499  0.253177  0.499501  1
  Pd  Pd24  1  0.499501  0.746823  0.500499  1
  Pd  Pd25  1  0.500499  0.499501  0.253177  1
  Pd  Pd26  1  0.499501  0.500499  0.746823  1
  Pd  Pd27  1  0.289655  0.000149  0.000149  1
  Pd  Pd28  1  0.710345  0.999851  0.999851  1
  Pd  Pd29  1  0.000149  0.289655  0.999851  1
  Pd  Pd30  1  0.999851  0.710345  0.000149  1
  Pd  Pd31  1  0.000149  0.999851  0.289655  1
  Pd  Pd32  1  0.999851  0.000149  0.710345  1
