# generated using pymatgen
data_Dy6Tm4IrRh5
_symmetry_space_group_name_H-M   'P 1'
_cell_length_a   10.85082566
_cell_length_b   10.83962400
_cell_length_c   6.32853023
_cell_angle_alpha   90.00000000
_cell_angle_beta   90.00436332
_cell_angle_gamma   90.00000000
_symmetry_Int_Tables_number   1
_chemical_formula_structural   Dy6Tm4IrRh5
_chemical_formula_sum   'Dy12 Tm8 Ir2 Rh10'
_cell_volume   744.35457387
_cell_formula_units_Z   2
loop_
 _symmetry_equiv_pos_site_id
 _symmetry_equiv_pos_as_xyz
  1  'x, y, z'
loop_
 _atom_site_type_symbol
 _atom_site_label
 _atom_site_symmetry_multiplicity
 _atom_site_fract_x
 _atom_site_fract_y
 _atom_site_fract_z
 _atom_site_occupancy
  Dy  Dy0  1  0.289573  0.090171  0.377847  1
  Dy  Dy1  1  0.289573  0.909829  0.877847  1
  Dy  Dy2  1  0.710083  0.088670  0.876944  1
  Dy  Dy3  1  0.710083  0.911330  0.376944  1
  Dy  Dy4  1  0.586671  0.789571  0.878085  1
  Dy  Dy5  1  0.586671  0.210429  0.378085  1
  Dy  Dy6  1  0.410815  0.789941  0.378491  1
  Dy  Dy7  1  0.410815  0.210059  0.878491  1
  Dy  Dy8  1  0.210283  0.413255  0.621125  1
  Dy  Dy9  1  0.210283  0.586745  0.121125  1
  Dy  Dy10  1  0.791303  0.411475  0.121950  1
  Dy  Dy11  1  0.791303  0.588525  0.621950  1
  Tm  Tm12  1  0.913187  0.709095  0.121008  1
  Tm  Tm13  1  0.913187  0.290905  0.621008  1
  Tm  Tm14  1  0.089214  0.708655  0.621377  1
  Tm  Tm15  1  0.089214  0.291345  0.121377  1
  Tm  Tm16  1  0.999717  0.999639  0.500877  1
  Tm  Tm17  1  0.999717  0.000361  0.000877  1
  Tm  Tm18  1  0.499958  0.499572  0.000409  1
  Tm  Tm19  1  0.499958  0.500428  0.500409  1
  Ir  Ir20  1  0.346536  0.346402  0.249610  1
  Ir  Ir21  1  0.346536  0.653598  0.749610  1
  Rh  Rh22  1  0.848114  0.153540  0.251477  1
  Rh  Rh23  1  0.848114  0.846460  0.751477  1
  Rh  Rh24  1  0.150407  0.153383  0.750920  1
  Rh  Rh25  1  0.150407  0.846617  0.250920  1
  Rh  Rh26  1  0.654816  0.346970  0.749422  1
  Rh  Rh27  1  0.654816  0.653030  0.249422  1
  Rh  Rh28  1  0.500399  0.999819  0.123834  1
  Rh  Rh29  1  0.500399  0.000181  0.623834  1
  Rh  Rh30  1  0.998924  0.499851  0.876625  1
  Rh  Rh31  1  0.998924  0.500149  0.376625  1
