# generated using pymatgen
data_Dy8Zn3Si12Pt
_symmetry_space_group_name_H-M   'P 1'
_cell_length_a   8.11917400
_cell_length_b   8.11917442
_cell_length_c   8.07809100
_cell_angle_alpha   90.00000000
_cell_angle_beta   90.00000000
_cell_angle_gamma   119.99999015
_symmetry_Int_Tables_number   1
_chemical_formula_structural   Dy8Zn3Si12Pt
_chemical_formula_sum   'Dy8 Zn3 Si12 Pt1'
_cell_volume   461.17221716
_cell_formula_units_Z   1
loop_
 _symmetry_equiv_pos_site_id
 _symmetry_equiv_pos_as_xyz
  1  'x, y, z'
loop_
 _atom_site_type_symbol
 _atom_site_label
 _atom_site_symmetry_multiplicity
 _atom_site_fract_x
 _atom_site_fract_y
 _atom_site_fract_z
 _atom_site_occupancy
  Dy  Dy0  1  0.000000  0.000000  0.248638  1
  Dy  Dy1  1  0.000000  0.000000  0.751034  1
  Dy  Dy2  1  0.002183  0.501092  0.248979  1
  Dy  Dy3  1  0.498908  0.501092  0.248979  1
  Dy  Dy4  1  0.501483  0.002966  0.751070  1
  Dy  Dy5  1  0.498908  0.997817  0.248979  1
  Dy  Dy6  1  0.501483  0.498517  0.751070  1
  Dy  Dy7  1  0.997034  0.498517  0.751070  1
  Zn  Zn8  1  0.333333  0.666667  0.993281  1
  Zn  Zn9  1  0.333333  0.666667  0.503768  1
  Zn  Zn10  1  0.666667  0.333333  0.007529  1
  Si  Si11  1  0.167057  0.334113  0.000831  1
  Si  Si12  1  0.665887  0.832943  0.000831  1
  Si  Si13  1  0.164971  0.329942  0.501065  1
  Si  Si14  1  0.333229  0.166615  0.998837  1
  Si  Si15  1  0.167057  0.832943  0.000831  1
  Si  Si16  1  0.670058  0.835029  0.501065  1
  Si  Si17  1  0.833385  0.666771  0.998837  1
  Si  Si18  1  0.334080  0.167040  0.498573  1
  Si  Si19  1  0.164971  0.835029  0.501065  1
  Si  Si20  1  0.832960  0.665920  0.498573  1
  Si  Si21  1  0.833385  0.166615  0.998837  1
  Si  Si22  1  0.832960  0.167040  0.498573  1
  Pt  Pt23  1  0.666667  0.333333  0.497688  1
