# generated using pymatgen
data_Nb2ReSe6
_symmetry_space_group_name_H-M   'P 1'
_cell_length_a   5.88990361
_cell_length_b   5.88990400
_cell_length_c   7.23787364
_cell_angle_alpha   82.21996160
_cell_angle_beta   82.21996860
_cell_angle_gamma   120.03078381
_symmetry_Int_Tables_number   1
_chemical_formula_structural   Nb2ReSe6
_chemical_formula_sum   'Nb2 Re1 Se6'
_cell_volume   209.25541111
_cell_formula_units_Z   1
loop_
 _symmetry_equiv_pos_site_id
 _symmetry_equiv_pos_as_xyz
  1  'x, y, z'
loop_
 _atom_site_type_symbol
 _atom_site_label
 _atom_site_symmetry_multiplicity
 _atom_site_fract_x
 _atom_site_fract_y
 _atom_site_fract_z
 _atom_site_occupancy
  Nb  Nb0  1  0.834120  0.500496  0.500014  1
  Nb  Nb1  1  0.500496  0.834120  0.500014  1
  Re  Re2  1  0.165796  0.165796  0.499976  1
  Se  Se3  1  0.571703  0.247723  0.258493  1
  Se  Se4  1  0.247723  0.571703  0.258493  1
  Se  Se5  1  0.921892  0.921892  0.258457  1
  Se  Se6  1  0.760994  0.760994  0.741825  1
  Se  Se7  1  0.410509  0.086671  0.741514  1
  Se  Se8  1  0.086671  0.410509  0.741514  1
