# generated using pymatgen
data_Li2Ho3Tl4
_symmetry_space_group_name_H-M   'P 1'
_cell_length_a   7.32328934
_cell_length_b   7.49348291
_cell_length_c   4.72632600
_cell_angle_alpha   90.00000000
_cell_angle_beta   90.00000000
_cell_angle_gamma   120.77181339
_symmetry_Int_Tables_number   1
_chemical_formula_structural   Li2Ho3Tl4
_chemical_formula_sum   'Li2 Ho3 Tl4'
_cell_volume   222.85057904
_cell_formula_units_Z   1
loop_
 _symmetry_equiv_pos_site_id
 _symmetry_equiv_pos_as_xyz
  1  'x, y, z'
loop_
 _atom_site_type_symbol
 _atom_site_label
 _atom_site_symmetry_multiplicity
 _atom_site_fract_x
 _atom_site_fract_y
 _atom_site_fract_z
 _atom_site_occupancy
  Li  Li0  1  0.770064  0.769298  0.500000  1
  Li  Li1  1  0.229936  0.999234  0.500000  1
  Ho  Ho2  1  0.000000  0.552116  0.000000  1
  Ho  Ho3  1  0.430661  0.439139  0.000000  1
  Ho  Ho4  1  0.569339  0.008478  0.000000  1
  Tl  Tl5  1  0.000000  0.233086  0.500000  1
  Tl  Tl6  1  0.646988  0.340885  0.500000  1
  Tl  Tl7  1  0.000000  0.963866  0.000000  1
  Tl  Tl8  1  0.353012  0.693898  0.500000  1
