# generated using pymatgen
data_Hf18CuRe8Rh
_symmetry_space_group_name_H-M   'P 1'
_cell_length_a   8.62733700
_cell_length_b   8.62733588
_cell_length_c   8.53102700
_cell_angle_alpha   90.00000000
_cell_angle_beta   90.00000000
_cell_angle_gamma   120.00000047
_symmetry_Int_Tables_number   1
_chemical_formula_structural   Hf18CuRe8Rh
_chemical_formula_sum   'Hf18 Cu1 Re8 Rh1'
_cell_volume   549.90214656
_cell_formula_units_Z   1
loop_
 _symmetry_equiv_pos_site_id
 _symmetry_equiv_pos_as_xyz
  1  'x, y, z'
loop_
 _atom_site_type_symbol
 _atom_site_label
 _atom_site_symmetry_multiplicity
 _atom_site_fract_x
 _atom_site_fract_y
 _atom_site_fract_z
 _atom_site_occupancy
  Hf  Hf0  1  0.195932  0.804068  0.446316  1
  Hf  Hf1  1  0.195932  0.391864  0.446316  1
  Hf  Hf2  1  0.608136  0.804068  0.446316  1
  Hf  Hf3  1  0.804614  0.195386  0.554200  1
  Hf  Hf4  1  0.804614  0.609229  0.554200  1
  Hf  Hf5  1  0.390771  0.195386  0.554200  1
  Hf  Hf6  1  0.804614  0.195386  0.945800  1
  Hf  Hf7  1  0.804614  0.609229  0.945800  1
  Hf  Hf8  1  0.390771  0.195386  0.945800  1
  Hf  Hf9  1  0.195932  0.804068  0.053684  1
  Hf  Hf10  1  0.195932  0.391864  0.053684  1
  Hf  Hf11  1  0.608136  0.804068  0.053684  1
  Hf  Hf12  1  0.542645  0.457355  0.250000  1
  Hf  Hf13  1  0.542645  0.085290  0.250000  1
  Hf  Hf14  1  0.914710  0.457355  0.250000  1
  Hf  Hf15  1  0.458636  0.541364  0.750000  1
  Hf  Hf16  1  0.458636  0.917273  0.750000  1
  Hf  Hf17  1  0.082727  0.541364  0.750000  1
  Cu  Cu18  1  0.666667  0.333333  0.750000  1
  Re  Re19  1  0.889261  0.110739  0.250000  1
  Re  Re20  1  0.889261  0.778520  0.250000  1
  Re  Re21  1  0.221480  0.110739  0.250000  1
  Re  Re22  1  0.110673  0.889327  0.750000  1
  Re  Re23  1  0.110673  0.221349  0.750000  1
  Re  Re24  1  0.778651  0.889327  0.750000  1
  Re  Re25  1  0.000000  0.000000  0.499953  1
  Re  Re26  1  0.000000  0.000000  0.000047  1
  Rh  Rh27  1  0.333333  0.666667  0.250000  1
