# generated using pymatgen
data_Nd5Y15Cd3Ag3Ru2
_symmetry_space_group_name_H-M   'P 1'
_cell_length_a   9.74150000
_cell_length_b   9.74149909
_cell_length_c   9.75351000
_cell_angle_alpha   90.00000000
_cell_angle_beta   90.00000000
_cell_angle_gamma   119.99999629
_symmetry_Int_Tables_number   1
_chemical_formula_structural   Nd5Y15Cd3Ag3Ru2
_chemical_formula_sum   'Nd5 Y15 Cd3 Ag3 Ru2'
_cell_volume   801.57324116
_cell_formula_units_Z   1
loop_
 _symmetry_equiv_pos_site_id
 _symmetry_equiv_pos_as_xyz
  1  'x, y, z'
loop_
 _atom_site_type_symbol
 _atom_site_label
 _atom_site_symmetry_multiplicity
 _atom_site_fract_x
 _atom_site_fract_y
 _atom_site_fract_z
 _atom_site_occupancy
  Nd  Nd0  1  0.000000  0.000000  0.477379  1
  Nd  Nd1  1  0.000000  0.000000  0.022621  1
  Nd  Nd2  1  0.458591  0.541409  0.750000  1
  Nd  Nd3  1  0.458591  0.917180  0.750000  1
  Nd  Nd4  1  0.082820  0.541409  0.750000  1
  Y  Y5  1  0.210181  0.789819  0.437477  1
  Y  Y6  1  0.210181  0.420363  0.437477  1
  Y  Y7  1  0.579637  0.789819  0.437477  1
  Y  Y8  1  0.790030  0.209970  0.558926  1
  Y  Y9  1  0.790030  0.580060  0.558926  1
  Y  Y10  1  0.419940  0.209970  0.558926  1
  Y  Y11  1  0.790030  0.209970  0.941074  1
  Y  Y12  1  0.790030  0.580060  0.941074  1
  Y  Y13  1  0.419940  0.209970  0.941074  1
  Y  Y14  1  0.210181  0.789819  0.062523  1
  Y  Y15  1  0.210181  0.420363  0.062523  1
  Y  Y16  1  0.579637  0.789819  0.062523  1
  Y  Y17  1  0.540771  0.459229  0.250000  1
  Y  Y18  1  0.540771  0.081542  0.250000  1
  Y  Y19  1  0.918458  0.459229  0.250000  1
  Cd  Cd20  1  0.111301  0.888699  0.750000  1
  Cd  Cd21  1  0.111301  0.222601  0.750000  1
  Cd  Cd22  1  0.777399  0.888699  0.750000  1
  Ag  Ag23  1  0.873060  0.126940  0.250000  1
  Ag  Ag24  1  0.873060  0.746122  0.250000  1
  Ag  Ag25  1  0.253878  0.126940  0.250000  1
  Ru  Ru26  1  0.333333  0.666667  0.250000  1
  Ru  Ru27  1  0.666667  0.333333  0.750000  1
