# generated using pymatgen
data_TbYb11(CuGe)12
_symmetry_space_group_name_H-M   'P 1'
_cell_length_a   4.32038900
_cell_length_b   7.37209600
_cell_length_c   20.90765719
_cell_angle_alpha   89.99163925
_cell_angle_beta   90.00000000
_cell_angle_gamma   90.00000000
_symmetry_Int_Tables_number   1
_chemical_formula_structural   TbYb11(CuGe)12
_chemical_formula_sum   'Tb1 Yb11 Cu12 Ge12'
_cell_volume   665.91561640
_cell_formula_units_Z   1
loop_
 _symmetry_equiv_pos_site_id
 _symmetry_equiv_pos_as_xyz
  1  'x, y, z'
loop_
 _atom_site_type_symbol
 _atom_site_label
 _atom_site_symmetry_multiplicity
 _atom_site_fract_x
 _atom_site_fract_y
 _atom_site_fract_z
 _atom_site_occupancy
  Tb  Tb0  1  0.250000  0.790589  0.833866  1
  Yb  Yb1  1  0.250000  0.719856  0.003832  1
  Yb  Yb2  1  0.750000  0.281345  0.998941  1
  Yb  Yb3  1  0.750000  0.217593  0.497520  1
  Yb  Yb4  1  0.250000  0.782888  0.501750  1
  Yb  Yb5  1  0.250000  0.790722  0.166402  1
  Yb  Yb6  1  0.750000  0.213539  0.833437  1
  Yb  Yb7  1  0.750000  0.290398  0.333562  1
  Yb  Yb8  1  0.250000  0.710892  0.665009  1
  Yb  Yb9  1  0.250000  0.708922  0.333351  1
  Yb  Yb10  1  0.750000  0.289317  0.665574  1
  Yb  Yb11  1  0.750000  0.208471  0.166550  1
  Cu  Cu12  1  0.250000  0.415321  0.096143  1
  Cu  Cu13  1  0.750000  0.582123  0.903918  1
  Cu  Cu14  1  0.750000  0.915549  0.403943  1
  Cu  Cu15  1  0.250000  0.084948  0.596197  1
  Cu  Cu16  1  0.250000  0.412879  0.236611  1
  Cu  Cu17  1  0.750000  0.585966  0.763399  1
  Cu  Cu18  1  0.750000  0.913716  0.263692  1
  Cu  Cu19  1  0.250000  0.087406  0.735929  1
  Cu  Cu20  1  0.250000  0.418265  0.435498  1
  Cu  Cu21  1  0.750000  0.581673  0.564145  1
  Cu  Cu22  1  0.750000  0.918224  0.065696  1
  Cu  Cu23  1  0.250000  0.082195  0.938322  1
  Ge  Ge24  1  0.250000  0.088843  0.068423  1
  Ge  Ge25  1  0.750000  0.909157  0.927035  1
  Ge  Ge26  1  0.750000  0.588367  0.431769  1
  Ge  Ge27  1  0.250000  0.411255  0.568532  1
  Ge  Ge28  1  0.250000  0.081340  0.269545  1
  Ge  Ge29  1  0.750000  0.917764  0.731855  1
  Ge  Ge30  1  0.750000  0.580898  0.230344  1
  Ge  Ge31  1  0.250000  0.419458  0.768724  1
  Ge  Ge32  1  0.250000  0.084027  0.398733  1
  Ge  Ge33  1  0.750000  0.916284  0.601186  1
  Ge  Ge34  1  0.750000  0.585043  0.101764  1
  Ge  Ge35  1  0.250000  0.414766  0.898799  1
