# generated using pymatgen
data_YbPr(Co3Si2)2
_symmetry_space_group_name_H-M   'P 1'
_cell_length_a   6.32430377
_cell_length_b   6.32430320
_cell_length_c   6.32430331
_cell_angle_alpha   130.18641292
_cell_angle_beta   114.90709944
_cell_angle_gamma   86.19134469
_symmetry_Int_Tables_number   1
_chemical_formula_structural   YbPr(Co3Si2)2
_chemical_formula_sum   'Yb1 Pr1 Co6 Si4'
_cell_volume   167.39667357
_cell_formula_units_Z   1
loop_
 _symmetry_equiv_pos_site_id
 _symmetry_equiv_pos_as_xyz
  1  'x, y, z'
loop_
 _atom_site_type_symbol
 _atom_site_label
 _atom_site_symmetry_multiplicity
 _atom_site_fract_x
 _atom_site_fract_y
 _atom_site_fract_z
 _atom_site_occupancy
  Yb  Yb0  1  0.250000  0.538108  0.288108  1
  Pr  Pr1  1  0.750000  0.465673  0.715673  1
  Co  Co2  1  0.997222  0.998561  0.495782  1
  Co  Co3  1  0.502778  0.998561  0.001339  1
  Co  Co4  1  0.717942  0.997736  0.718425  1
  Co  Co5  1  0.220688  0.500483  0.718425  1
  Co  Co6  1  0.279312  0.997736  0.279795  1
  Co  Co7  1  0.782058  0.500483  0.279795  1
  Si  Si8  1  0.083808  0.883294  0.799485  1
  Si  Si9  1  0.925132  0.126976  0.201845  1
  Si  Si10  1  0.574868  0.776714  0.201845  1
  Si  Si11  1  0.416192  0.215676  0.799485  1
