# generated using pymatgen
data_Cs4Na2ScAlP4
_symmetry_space_group_name_H-M   'P 1'
_cell_length_a   9.51306109
_cell_length_b   9.51306198
_cell_length_c   9.51306183
_cell_angle_alpha   139.86556103
_cell_angle_beta   137.65938099
_cell_angle_gamma   59.75570479
_symmetry_Int_Tables_number   1
_chemical_formula_structural   Cs4Na2ScAlP4
_chemical_formula_sum   'Cs4 Na2 Sc1 Al1 P4'
_cell_volume   370.00796438
_cell_formula_units_Z   1
loop_
 _symmetry_equiv_pos_site_id
 _symmetry_equiv_pos_as_xyz
  1  'x, y, z'
loop_
 _atom_site_type_symbol
 _atom_site_label
 _atom_site_symmetry_multiplicity
 _atom_site_fract_x
 _atom_site_fract_y
 _atom_site_fract_z
 _atom_site_occupancy
  Cs  Cs0  1  0.548907  0.321856  0.223603  1
  Cs  Cs1  1  0.451093  0.674697  0.772950  1
  Cs  Cs2  1  0.098253  0.825303  0.276397  1
  Cs  Cs3  1  0.901747  0.178144  0.727050  1
  Na  Na4  1  0.500000  0.250000  0.750000  1
  Na  Na5  1  0.500000  0.750000  0.250000  1
  Sc  Sc6  1  0.000000  0.750000  0.750000  1
  Al  Al7  1  0.000000  0.250000  0.250000  1
  P  P8  1  0.284420  0.095580  0.213930  1
  P  P9  1  0.715580  0.929510  0.811159  1
  P  P10  1  0.881650  0.570490  0.286070  1
  P  P11  1  0.118350  0.404420  0.688841  1
