# generated using pymatgen
data_NaSc(BrO3)4
_symmetry_space_group_name_H-M   'P 1'
_cell_length_a   5.09667400
_cell_length_b   7.17401437
_cell_length_c   16.08282618
_cell_angle_alpha   78.87002401
_cell_angle_beta   90.00000000
_cell_angle_gamma   90.00000000
_symmetry_Int_Tables_number   1
_chemical_formula_structural   NaSc(BrO3)4
_chemical_formula_sum   'Na2 Sc2 Br8 O24'
_cell_volume   576.98613746
_cell_formula_units_Z   2
loop_
 _symmetry_equiv_pos_site_id
 _symmetry_equiv_pos_as_xyz
  1  'x, y, z'
loop_
 _atom_site_type_symbol
 _atom_site_label
 _atom_site_symmetry_multiplicity
 _atom_site_fract_x
 _atom_site_fract_y
 _atom_site_fract_z
 _atom_site_occupancy
  Na  Na0  1  0.500000  0.500000  0.000000  1
  Na  Na1  1  0.000000  0.500000  0.500000  1
  Sc  Sc2  1  0.500000  0.000000  0.000000  1
  Sc  Sc3  1  0.000000  0.000000  0.500000  1
  Br  Br4  1  0.848211  0.672413  0.163795  1
  Br  Br5  1  0.348211  0.327587  0.336205  1
  Br  Br6  1  0.151789  0.327587  0.836205  1
  Br  Br7  1  0.651789  0.672413  0.663795  1
  Br  Br8  1  0.004035  0.183039  0.122061  1
  Br  Br9  1  0.504035  0.816961  0.377939  1
  Br  Br10  1  0.995965  0.816961  0.877939  1
  Br  Br11  1  0.495965  0.183039  0.622061  1
  O  O12  1  0.650687  0.752705  0.072847  1
  O  O13  1  0.150687  0.247295  0.427153  1
  O  O14  1  0.349313  0.247295  0.927153  1
  O  O15  1  0.849313  0.752705  0.572847  1
  O  O16  1  0.780978  0.829700  0.224515  1
  O  O17  1  0.280978  0.170300  0.275485  1
  O  O18  1  0.219022  0.170300  0.775485  1
  O  O19  1  0.719022  0.829700  0.724515  1
  O  O20  1  0.705852  0.465925  0.202074  1
  O  O21  1  0.205852  0.534075  0.297926  1
  O  O22  1  0.294148  0.534075  0.797926  1
  O  O23  1  0.794148  0.465925  0.702074  1
  O  O24  1  0.744849  0.190057  0.051384  1
  O  O25  1  0.244849  0.809943  0.448616  1
  O  O26  1  0.255151  0.809943  0.948616  1
  O  O27  1  0.755151  0.190057  0.551384  1
  O  O28  1  0.205813  0.012438  0.096678  1
  O  O29  1  0.705813  0.987562  0.403322  1
  O  O30  1  0.794187  0.987562  0.903322  1
  O  O31  1  0.294187  0.012438  0.596678  1
  O  O32  1  0.146601  0.389035  0.087114  1
  O  O33  1  0.646601  0.610965  0.412886  1
  O  O34  1  0.853399  0.610965  0.912886  1
  O  O35  1  0.353399  0.389035  0.587114  1
