# generated using pymatgen
data_Tm6Al24GaFe3Ru4
_symmetry_space_group_name_H-M   'P 1'
_cell_length_a   8.76888769
_cell_length_b   8.75466766
_cell_length_c   9.43847997
_cell_angle_alpha   90.11631930
_cell_angle_beta   89.99908178
_cell_angle_gamma   119.71690305
_symmetry_Int_Tables_number   1
_chemical_formula_structural   Tm6Al24GaFe3Ru4
_chemical_formula_sum   'Tm6 Al24 Ga1 Fe3 Ru4'
_cell_volume   629.28521734
_cell_formula_units_Z   1
loop_
 _symmetry_equiv_pos_site_id
 _symmetry_equiv_pos_as_xyz
  1  'x, y, z'
loop_
 _atom_site_type_symbol
 _atom_site_label
 _atom_site_symmetry_multiplicity
 _atom_site_fract_x
 _atom_site_fract_y
 _atom_site_fract_z
 _atom_site_occupancy
  Tm  Tm0  1  0.804200  0.196271  0.745448  1
  Tm  Tm1  1  0.195800  0.803729  0.254552  1
  Tm  Tm2  1  0.387018  0.193748  0.754572  1
  Tm  Tm3  1  0.612982  0.806252  0.245428  1
  Tm  Tm4  1  0.806159  0.611792  0.755779  1
  Tm  Tm5  1  0.193841  0.388208  0.244221  1
  Al  Al6  1  0.669229  0.319633  0.979662  1
  Al  Al7  1  0.330771  0.680367  0.020338  1
  Al  Al8  1  0.333601  0.666503  0.479901  1
  Al  Al9  1  0.666399  0.333497  0.520099  1
  Al  Al10  1  0.839701  0.159327  0.421502  1
  Al  Al11  1  0.160299  0.840673  0.578498  1
  Al  Al12  1  0.318336  0.158571  0.426132  1
  Al  Al13  1  0.162517  0.841744  0.921878  1
  Al  Al14  1  0.681664  0.841429  0.573868  1
  Al  Al15  1  0.837483  0.158256  0.078122  1
  Al  Al16  1  0.841062  0.681770  0.426431  1
  Al  Al17  1  0.683281  0.857885  0.920595  1
  Al  Al18  1  0.158938  0.318230  0.573569  1
  Al  Al19  1  0.316719  0.142115  0.079405  1
  Al  Al20  1  0.145093  0.315035  0.919215  1
  Al  Al21  1  0.854907  0.684965  0.080785  1
  Al  Al22  1  0.434714  0.566343  0.742729  1
  Al  Al23  1  0.565286  0.433657  0.257271  1
  Al  Al24  1  0.121269  0.562289  0.751482  1
  Al  Al25  1  0.878731  0.437711  0.248518  1
  Al  Al26  1  0.440093  0.883039  0.756041  1
  Al  Al27  1  0.559907  0.116961  0.243959  1
  Al  Al28  1  0.000953  0.998766  0.749127  1
  Al  Al29  1  0.999047  0.001234  0.250873  1
  Ga  Ga30  1  0.500000  0.500000  0.000000  1
  Fe  Fe31  1  0.500000  0.000000  0.000000  1
  Fe  Fe32  1  0.000000  0.000000  0.000000  1
  Fe  Fe33  1  0.000000  0.000000  0.500000  1
  Ru  Ru34  1  0.000000  0.500000  0.000000  1
  Ru  Ru35  1  0.500000  0.500000  0.500000  1
  Ru  Ru36  1  0.000000  0.500000  0.500000  1
  Ru  Ru37  1  0.500000  0.000000  0.500000  1
