# generated using pymatgen
data_Tm12Th8Si15Pb
_symmetry_space_group_name_H-M   'P 1'
_cell_length_a   7.85425339
_cell_length_b   7.83348093
_cell_length_c   14.23427600
_cell_angle_alpha   89.96854155
_cell_angle_beta   89.56115075
_cell_angle_gamma   89.81270310
_symmetry_Int_Tables_number   1
_chemical_formula_structural   Tm12Th8Si15Pb
_chemical_formula_sum   'Tm12 Th8 Si15 Pb1'
_cell_volume   875.74962824
_cell_formula_units_Z   1
loop_
 _symmetry_equiv_pos_site_id
 _symmetry_equiv_pos_as_xyz
  1  'x, y, z'
loop_
 _atom_site_type_symbol
 _atom_site_label
 _atom_site_symmetry_multiplicity
 _atom_site_fract_x
 _atom_site_fract_y
 _atom_site_fract_z
 _atom_site_occupancy
  Tm  Tm0  1  0.324346  0.324312  0.000850  1
  Tm  Tm1  1  0.175749  0.822674  0.249263  1
  Tm  Tm2  1  0.816121  0.174736  0.752481  1
  Tm  Tm3  1  0.673551  0.677065  0.498073  1
  Tm  Tm4  1  0.151667  0.996920  0.878208  1
  Tm  Tm5  1  0.504074  0.649669  0.122676  1
  Tm  Tm6  1  0.506509  0.354293  0.622415  1
  Tm  Tm7  1  0.654155  0.504807  0.880605  1
  Tm  Tm8  1  0.346834  0.498335  0.377308  1
  Tm  Tm9  1  0.848031  0.004647  0.371065  1
  Tm  Tm10  1  0.997036  0.150982  0.127878  1
  Tm  Tm11  1  0.991310  0.833826  0.624767  1
  Th  Th12  1  0.356771  0.000717  0.457290  1
  Th  Th13  1  0.506934  0.845954  0.714234  1
  Th  Th14  1  0.501727  0.146603  0.212368  1
  Th  Th15  1  0.853533  0.498577  0.285839  1
  Th  Th16  1  0.143617  0.511026  0.791126  1
  Th  Th17  1  0.648805  0.996904  0.965421  1
  Th  Th18  1  0.989700  0.363592  0.530115  1
  Th  Th19  1  0.999182  0.645834  0.038727  1
  Si  Si20  1  0.362422  0.707224  0.930600  1
  Si  Si21  1  0.636380  0.294019  0.426417  1
  Si  Si22  1  0.707818  0.359595  0.072429  1
  Si  Si23  1  0.296669  0.641343  0.571159  1
  Si  Si24  1  0.792927  0.860195  0.178949  1
  Si  Si25  1  0.139440  0.207939  0.319708  1
  Si  Si26  1  0.861919  0.796526  0.823098  1
  Si  Si27  1  0.294181  0.949892  0.065441  1
  Si  Si28  1  0.551103  0.791249  0.312261  1
  Si  Si29  1  0.460624  0.207311  0.819798  1
  Si  Si30  1  0.792082  0.545076  0.686605  1
  Si  Si31  1  0.207997  0.449901  0.186184  1
  Si  Si32  1  0.705854  0.047722  0.563944  1
  Si  Si33  1  0.952503  0.293316  0.936607  1
  Si  Si34  1  0.047153  0.710763  0.432547  1
  Pb  Pb35  1  0.201272  0.136455  0.673545  1
