# generated using pymatgen
data_YPa(NiGe)2
_symmetry_space_group_name_H-M   'P 1'
_cell_length_a   4.25335300
_cell_length_b   7.15251700
_cell_length_c   7.12506700
_cell_angle_alpha   90.00000000
_cell_angle_beta   90.00000000
_cell_angle_gamma   90.00000000
_symmetry_Int_Tables_number   1
_chemical_formula_structural   YPa(NiGe)2
_chemical_formula_sum   'Y2 Pa2 Ni4 Ge4'
_cell_volume   216.76006822
_cell_formula_units_Z   2
loop_
 _symmetry_equiv_pos_site_id
 _symmetry_equiv_pos_as_xyz
  1  'x, y, z'
loop_
 _atom_site_type_symbol
 _atom_site_label
 _atom_site_symmetry_multiplicity
 _atom_site_fract_x
 _atom_site_fract_y
 _atom_site_fract_z
 _atom_site_occupancy
  Y  Y0  1  0.750000  0.996402  0.216207  1
  Y  Y1  1  0.750000  0.496402  0.283793  1
  Pa  Pa2  1  0.250000  0.015716  0.783573  1
  Pa  Pa3  1  0.250000  0.515716  0.716427  1
  Ni  Ni4  1  0.250000  0.764817  0.434378  1
  Ni  Ni5  1  0.250000  0.264817  0.065622  1
  Ni  Ni6  1  0.750000  0.191075  0.589318  1
  Ni  Ni7  1  0.750000  0.691075  0.910682  1
  Ge  Ge8  1  0.250000  0.225960  0.408415  1
  Ge  Ge9  1  0.250000  0.725960  0.091585  1
  Ge  Ge10  1  0.750000  0.806030  0.587426  1
  Ge  Ge11  1  0.750000  0.306030  0.912574  1
