# generated using pymatgen
data_Ba2ZnCuSn4
_symmetry_space_group_name_H-M   'P 1'
_cell_length_a   10.12715790
_cell_length_b   10.12715768
_cell_length_c   4.74232700
_cell_angle_alpha   90.00000000
_cell_angle_beta   90.00000000
_cell_angle_gamma   151.62766003
_symmetry_Int_Tables_number   1
_chemical_formula_structural   Ba2ZnCuSn4
_chemical_formula_sum   'Ba2 Zn1 Cu1 Sn4'
_cell_volume   231.12271017
_cell_formula_units_Z   1
loop_
 _symmetry_equiv_pos_site_id
 _symmetry_equiv_pos_as_xyz
  1  'x, y, z'
loop_
 _atom_site_type_symbol
 _atom_site_label
 _atom_site_symmetry_multiplicity
 _atom_site_fract_x
 _atom_site_fract_y
 _atom_site_fract_z
 _atom_site_occupancy
  Ba  Ba0  1  0.393055  0.606945  0.250000  1
  Ba  Ba1  1  0.605467  0.394533  0.750000  1
  Zn  Zn2  1  0.822993  0.177007  0.750000  1
  Cu  Cu3  1  0.179605  0.820395  0.250000  1
  Sn  Sn4  1  0.044756  0.955244  0.250000  1
  Sn  Sn5  1  0.960329  0.039671  0.750000  1
  Sn  Sn6  1  0.247098  0.752902  0.750000  1
  Sn  Sn7  1  0.746698  0.253302  0.250000  1
