# generated using pymatgen
data_RbNb3TlCl9
_symmetry_space_group_name_H-M   'P 1'
_cell_length_a   9.87175559
_cell_length_b   10.01643408
_cell_length_c   10.11948400
_cell_angle_alpha   118.03954580
_cell_angle_beta   100.51814256
_cell_angle_gamma   105.02561899
_symmetry_Int_Tables_number   1
_chemical_formula_structural   RbNb3TlCl9
_chemical_formula_sum   'Rb2 Nb6 Tl2 Cl18'
_cell_volume   796.72631921
_cell_formula_units_Z   2
loop_
 _symmetry_equiv_pos_site_id
 _symmetry_equiv_pos_as_xyz
  1  'x, y, z'
loop_
 _atom_site_type_symbol
 _atom_site_label
 _atom_site_symmetry_multiplicity
 _atom_site_fract_x
 _atom_site_fract_y
 _atom_site_fract_z
 _atom_site_occupancy
  Rb  Rb0  1  0.671318  0.540015  0.734323  1
  Rb  Rb1  1  0.328681  0.459983  0.265680  1
  Nb  Nb2  1  0.122028  0.884279  0.371882  1
  Nb  Nb3  1  0.877970  0.115725  0.628120  1
  Nb  Nb4  1  0.142561  0.044514  0.708361  1
  Nb  Nb5  1  0.857442  0.955486  0.291642  1
  Nb  Nb6  1  0.140481  0.224424  0.547806  1
  Nb  Nb7  1  0.859519  0.775576  0.452194  1
  Tl  Tl8  1  0.317551  0.775443  0.938901  1
  Tl  Tl9  1  0.682448  0.224540  0.061090  1
  Cl  Cl10  1  0.326878  0.105777  0.973659  1
  Cl  Cl11  1  0.673120  0.894216  0.026337  1
  Cl  Cl12  1  0.320701  0.507443  0.608910  1
  Cl  Cl13  1  0.679298  0.492561  0.391088  1
  Cl  Cl14  1  0.979036  0.599205  0.294836  1
  Cl  Cl15  1  0.020963  0.400796  0.705165  1
  Cl  Cl16  1  0.998529  0.212063  0.309429  1
  Cl  Cl17  1  0.001469  0.787941  0.690574  1
  Cl  Cl18  1  0.667604  0.680618  0.195648  1
  Cl  Cl19  1  0.332394  0.319386  0.804356  1
  Cl  Cl20  1  0.272000  0.738148  0.212658  1
  Cl  Cl21  1  0.728002  0.261853  0.787345  1
  Cl  Cl22  1  0.309768  0.916443  0.595140  1
  Cl  Cl23  1  0.690234  0.083561  0.404863  1
  Cl  Cl24  1  0.023773  0.187226  0.897288  1
  Cl  Cl25  1  0.976225  0.812772  0.102704  1
  Cl  Cl26  1  0.309216  0.129058  0.406152  1
  Cl  Cl27  1  0.690787  0.870947  0.593849  1
