# generated using pymatgen
data_Th2Re5IO24
_symmetry_space_group_name_H-M   'P 1'
_cell_length_a   10.42084400
_cell_length_b   10.32760565
_cell_length_c   6.19859500
_cell_angle_alpha   90.00000000
_cell_angle_beta   90.00000000
_cell_angle_gamma   117.89609804
_symmetry_Int_Tables_number   1
_chemical_formula_structural   Th2Re5IO24
_chemical_formula_sum   'Th2 Re5 I1 O24'
_cell_volume   589.58790918
_cell_formula_units_Z   1
loop_
 _symmetry_equiv_pos_site_id
 _symmetry_equiv_pos_as_xyz
  1  'x, y, z'
loop_
 _atom_site_type_symbol
 _atom_site_label
 _atom_site_symmetry_multiplicity
 _atom_site_fract_x
 _atom_site_fract_y
 _atom_site_fract_z
 _atom_site_occupancy
  Th  Th0  1  0.691082  0.334320  0.750000  1
  Th  Th1  1  0.298743  0.637479  0.250000  1
  Re  Re2  1  0.403283  0.299434  0.250000  1
  Re  Re3  1  0.584177  0.684697  0.750000  1
  Re  Re4  1  0.909083  0.629954  0.250000  1
  Re  Re5  1  0.297802  0.907819  0.750000  1
  Re  Re6  1  0.686396  0.067625  0.250000  1
  I  I7  1  0.112470  0.366661  0.750000  1
  O  O8  1  0.478285  0.644864  0.513455  1
  O  O9  1  0.339693  0.834764  0.518215  1
  O  O10  1  0.855543  0.764944  0.250000  1
  O  O11  1  0.115517  0.861209  0.750000  1
  O  O12  1  0.286818  0.113404  0.250000  1
  O  O13  1  0.288206  0.368958  0.750000  1
  O  O14  1  0.518532  0.345848  0.024445  1
  O  O15  1  0.868661  0.114457  0.250000  1
  O  O16  1  0.100231  0.707751  0.250000  1
  O  O17  1  0.150385  0.501822  0.977592  1
  O  O18  1  0.150385  0.501822  0.522408  1
  O  O19  1  0.887242  0.335809  0.750000  1
  O  O20  1  0.303853  0.397945  0.250000  1
  O  O21  1  0.684106  0.588201  0.750000  1
  O  O22  1  0.838038  0.516978  0.476121  1
  O  O23  1  0.402841  0.098150  0.750000  1
  O  O24  1  0.645163  0.142499  0.020073  1
  O  O25  1  0.478285  0.644864  0.986545  1
  O  O26  1  0.339693  0.834764  0.981785  1
  O  O27  1  0.645163  0.142499  0.479927  1
  O  O28  1  0.518532  0.345848  0.475555  1
  O  O29  1  0.838038  0.516978  0.023879  1
  O  O30  1  0.703889  0.869890  0.750000  1
  O  O31  1  0.579865  0.877743  0.250000  1
