# generated using pymatgen
data_Eu2IN2
_symmetry_space_group_name_H-M   'P 1'
_cell_length_a   7.98114545
_cell_length_b   7.98114567
_cell_length_c   6.75679606
_cell_angle_alpha   99.31894401
_cell_angle_beta   99.31894320
_cell_angle_gamma   30.71906327
_symmetry_Int_Tables_number   1
_chemical_formula_structural   Eu2IN2
_chemical_formula_sum   'Eu4 I2 N4'
_cell_volume   216.73811187
_cell_formula_units_Z   2
loop_
 _symmetry_equiv_pos_site_id
 _symmetry_equiv_pos_as_xyz
  1  'x, y, z'
loop_
 _atom_site_type_symbol
 _atom_site_label
 _atom_site_symmetry_multiplicity
 _atom_site_fract_x
 _atom_site_fract_y
 _atom_site_fract_z
 _atom_site_occupancy
  Eu  Eu0  1  0.470308  0.857361  0.150112  1
  Eu  Eu1  1  0.142639  0.529692  0.349889  1
  Eu  Eu2  1  0.857361  0.470308  0.650111  1
  Eu  Eu3  1  0.529693  0.142639  0.849888  1
  I  I4  1  0.775068  0.224932  0.250000  1
  I  I5  1  0.224933  0.775068  0.750000  1
  N  N6  1  0.095924  0.354719  0.028672  1
  N  N7  1  0.645280  0.904076  0.471327  1
  N  N8  1  0.354720  0.095925  0.528673  1
  N  N9  1  0.904075  0.645280  0.971328  1
