# generated using pymatgen
data_Nd3Dy(Sn5Ir3)2
_symmetry_space_group_name_H-M   'P 1'
_cell_length_a   13.56234689
_cell_length_b   13.56234682
_cell_length_c   7.27387318
_cell_angle_alpha   89.90222735
_cell_angle_beta   90.09777370
_cell_angle_gamma   160.88638328
_symmetry_Int_Tables_number   1
_chemical_formula_structural   Nd3Dy(Sn5Ir3)2
_chemical_formula_sum   'Nd3 Dy1 Sn10 Ir6'
_cell_volume   438.09648414
_cell_formula_units_Z   1
loop_
 _symmetry_equiv_pos_site_id
 _symmetry_equiv_pos_as_xyz
  1  'x, y, z'
loop_
 _atom_site_type_symbol
 _atom_site_label
 _atom_site_symmetry_multiplicity
 _atom_site_fract_x
 _atom_site_fract_y
 _atom_site_fract_z
 _atom_site_occupancy
  Nd  Nd0  1  0.172219  0.827781  0.754832  1
  Nd  Nd1  1  0.827737  0.172263  0.255178  1
  Nd  Nd2  1  0.477021  0.522979  0.738577  1
  Dy  Dy3  1  0.523937  0.476063  0.238977  1
  Sn  Sn4  1  0.879089  0.120911  0.731325  1
  Sn  Sn5  1  0.120332  0.879668  0.232028  1
  Sn  Sn6  1  0.704245  0.295755  0.048033  1
  Sn  Sn7  1  0.295142  0.704858  0.548077  1
  Sn  Sn8  1  0.597008  0.402992  0.609745  1
  Sn  Sn9  1  0.403546  0.596454  0.110798  1
  Sn  Sn10  1  0.952914  0.047086  0.398981  1
  Sn  Sn11  1  0.047986  0.952014  0.901754  1
  Sn  Sn12  1  0.290444  0.709556  0.977070  1
  Sn  Sn13  1  0.709321  0.290679  0.476579  1
  Ir  Ir14  1  0.050700  0.949300  0.515737  1
  Ir  Ir15  1  0.949775  0.050225  0.021578  1
  Ir  Ir16  1  0.776727  0.223273  0.764646  1
  Ir  Ir17  1  0.222859  0.777141  0.264436  1
  Ir  Ir18  1  0.394521  0.605479  0.482304  1
  Ir  Ir19  1  0.604475  0.395525  0.985343  1
