# generated using pymatgen
data_Tb5Fe3(P3Ru4)4
_symmetry_space_group_name_H-M   'P 1'
_cell_length_a   12.49803500
_cell_length_b   12.49803542
_cell_length_c   3.89665000
_cell_angle_alpha   90.00000000
_cell_angle_beta   90.00000000
_cell_angle_gamma   120.00000154
_symmetry_Int_Tables_number   1
_chemical_formula_structural   Tb5Fe3(P3Ru4)4
_chemical_formula_sum   'Tb5 Fe3 P12 Ru16'
_cell_volume   527.11516555
_cell_formula_units_Z   1
loop_
 _symmetry_equiv_pos_site_id
 _symmetry_equiv_pos_as_xyz
  1  'x, y, z'
loop_
 _atom_site_type_symbol
 _atom_site_label
 _atom_site_symmetry_multiplicity
 _atom_site_fract_x
 _atom_site_fract_y
 _atom_site_fract_z
 _atom_site_occupancy
  Tb  Tb0  1  0.000000  0.181846  0.500000  1
  Tb  Tb1  1  0.818154  0.818154  0.500000  1
  Tb  Tb2  1  0.181846  0.000000  0.500000  1
  Tb  Tb3  1  0.666667  0.333333  0.000000  1
  Tb  Tb4  1  0.333333  0.666667  0.000000  1
  Fe  Fe5  1  0.000000  0.716337  0.500000  1
  Fe  Fe6  1  0.283663  0.283663  0.500000  1
  Fe  Fe7  1  0.716337  0.000000  0.500000  1
  P  P8  1  0.000000  0.813014  0.000000  1
  P  P9  1  0.186986  0.186986  0.000000  1
  P  P10  1  0.813014  0.000000  0.000000  1
  P  P11  1  0.690154  0.162724  0.500000  1
  P  P12  1  0.837276  0.527430  0.500000  1
  P  P13  1  0.472570  0.309846  0.500000  1
  P  P14  1  0.162724  0.690154  0.500000  1
  P  P15  1  0.527430  0.837276  0.500000  1
  P  P16  1  0.309846  0.472570  0.500000  1
  P  P17  1  0.000000  0.373557  0.000000  1
  P  P18  1  0.626443  0.626443  0.000000  1
  P  P19  1  0.373557  0.000000  0.000000  1
  Ru  Ru20  1  0.000000  0.557936  0.000000  1
  Ru  Ru21  1  0.442064  0.442064  0.000000  1
  Ru  Ru22  1  0.557936  0.000000  0.000000  1
  Ru  Ru23  1  0.806538  0.181616  0.000000  1
  Ru  Ru24  1  0.818384  0.624923  0.000000  1
  Ru  Ru25  1  0.375077  0.193462  0.000000  1
  Ru  Ru26  1  0.181616  0.806538  0.000000  1
  Ru  Ru27  1  0.624923  0.818384  0.000000  1
  Ru  Ru28  1  0.193462  0.375077  0.000000  1
  Ru  Ru29  1  0.873978  0.363436  0.500000  1
  Ru  Ru30  1  0.636564  0.510542  0.500000  1
  Ru  Ru31  1  0.489458  0.126022  0.500000  1
  Ru  Ru32  1  0.363436  0.873978  0.500000  1
  Ru  Ru33  1  0.510542  0.636564  0.500000  1
  Ru  Ru34  1  0.126022  0.489458  0.500000  1
  Ru  Ru35  1  0.000000  0.000000  0.000000  1
