# generated using pymatgen
data_Dy3Si3Ru2
_symmetry_space_group_name_H-M   'P 1'
_cell_length_a   5.76235341
_cell_length_b   5.76235350
_cell_length_c   13.80236100
_cell_angle_alpha   90.00000000
_cell_angle_beta   90.00000000
_cell_angle_gamma   137.45577857
_symmetry_Int_Tables_number   1
_chemical_formula_structural   Dy3Si3Ru2
_chemical_formula_sum   'Dy6 Si6 Ru4'
_cell_volume   309.88605324
_cell_formula_units_Z   2
loop_
 _symmetry_equiv_pos_site_id
 _symmetry_equiv_pos_as_xyz
  1  'x, y, z'
loop_
 _atom_site_type_symbol
 _atom_site_label
 _atom_site_symmetry_multiplicity
 _atom_site_fract_x
 _atom_site_fract_y
 _atom_site_fract_z
 _atom_site_occupancy
  Dy  Dy0  1  0.924176  0.075824  0.385426  1
  Dy  Dy1  1  0.075824  0.924176  0.614574  1
  Dy  Dy2  1  0.924176  0.075824  0.114574  1
  Dy  Dy3  1  0.075824  0.924176  0.885426  1
  Dy  Dy4  1  0.643547  0.356453  0.250000  1
  Dy  Dy5  1  0.356453  0.643547  0.750000  1
  Si  Si6  1  0.618231  0.381769  0.461485  1
  Si  Si7  1  0.381769  0.618231  0.538515  1
  Si  Si8  1  0.618231  0.381769  0.038515  1
  Si  Si9  1  0.381769  0.618231  0.961485  1
  Si  Si10  1  0.330322  0.669678  0.250000  1
  Si  Si11  1  0.669678  0.330322  0.750000  1
  Ru  Ru12  1  0.786395  0.213605  0.919353  1
  Ru  Ru13  1  0.213605  0.786395  0.080647  1
  Ru  Ru14  1  0.786395  0.213605  0.580647  1
  Ru  Ru15  1  0.213605  0.786395  0.419353  1
