# generated using pymatgen
data_Nd2HfThBi2Sb3
_symmetry_space_group_name_H-M   'P 1'
_cell_length_a   9.61507700
_cell_length_b   9.61677476
_cell_length_c   6.40236400
_cell_angle_alpha   90.00000000
_cell_angle_beta   90.00000000
_cell_angle_gamma   119.99416366
_symmetry_Int_Tables_number   1
_chemical_formula_structural   Nd2HfThBi2Sb3
_chemical_formula_sum   'Nd4 Hf2 Th2 Bi4 Sb6'
_cell_volume   512.71821032
_cell_formula_units_Z   2
loop_
 _symmetry_equiv_pos_site_id
 _symmetry_equiv_pos_as_xyz
  1  'x, y, z'
loop_
 _atom_site_type_symbol
 _atom_site_label
 _atom_site_symmetry_multiplicity
 _atom_site_fract_x
 _atom_site_fract_y
 _atom_site_fract_z
 _atom_site_occupancy
  Nd  Nd0  1  0.001204  0.622569  0.250000  1
  Nd  Nd1  1  0.998796  0.377431  0.750000  1
  Nd  Nd2  1  0.378635  0.377431  0.250000  1
  Nd  Nd3  1  0.621365  0.622569  0.750000  1
  Hf  Hf4  1  0.000000  0.000000  0.000000  1
  Hf  Hf5  1  0.000000  0.000000  0.500000  1
  Th  Th6  1  0.624129  0.000000  0.250000  1
  Th  Th7  1  0.375871  0.000000  0.750000  1
  Bi  Bi8  1  0.333064  0.666130  0.000000  1
  Bi  Bi9  1  0.666936  0.333870  0.000000  1
  Bi  Bi10  1  0.666936  0.333870  0.500000  1
  Bi  Bi11  1  0.333064  0.666130  0.500000  1
  Sb  Sb12  1  0.267477  0.000000  0.250000  1
  Sb  Sb13  1  0.732523  0.000000  0.750000  1
  Sb  Sb14  1  0.000384  0.262182  0.250000  1
  Sb  Sb15  1  0.999616  0.737818  0.750000  1
  Sb  Sb16  1  0.738202  0.737818  0.250000  1
  Sb  Sb17  1  0.261798  0.262182  0.750000  1
