# generated using pymatgen
data_Tb15YCd4OsPt3
_symmetry_space_group_name_H-M   'P 1'
_cell_length_a   9.73372606
_cell_length_b   9.73372686
_cell_length_c   9.73475000
_cell_angle_alpha   59.62185347
_cell_angle_beta   59.62185834
_cell_angle_gamma   59.62124497
_symmetry_Int_Tables_number   1
_chemical_formula_structural   Tb15YCd4OsPt3
_chemical_formula_sum   'Tb15 Y1 Cd4 Os1 Pt3'
_cell_volume   646.57328177
_cell_formula_units_Z   1
loop_
 _symmetry_equiv_pos_site_id
 _symmetry_equiv_pos_as_xyz
  1  'x, y, z'
loop_
 _atom_site_type_symbol
 _atom_site_label
 _atom_site_symmetry_multiplicity
 _atom_site_fract_x
 _atom_site_fract_y
 _atom_site_fract_z
 _atom_site_occupancy
  Tb  Tb0  1  0.351633  0.351633  0.351470  1
  Tb  Tb1  1  0.349647  0.349647  0.948277  1
  Tb  Tb2  1  0.349579  0.948248  0.349654  1
  Tb  Tb3  1  0.948248  0.349579  0.349654  1
  Tb  Tb4  1  0.814815  0.188974  0.188975  1
  Tb  Tb5  1  0.188896  0.809751  0.809821  1
  Tb  Tb6  1  0.188974  0.814815  0.188975  1
  Tb  Tb7  1  0.809751  0.188896  0.809821  1
  Tb  Tb8  1  0.188981  0.188981  0.814781  1
  Tb  Tb9  1  0.809811  0.809811  0.188937  1
  Tb  Tb10  1  0.935577  0.565255  0.565278  1
  Tb  Tb11  1  0.558697  0.937588  0.937557  1
  Tb  Tb12  1  0.565255  0.935577  0.565278  1
  Tb  Tb13  1  0.937588  0.558697  0.937557  1
  Tb  Tb14  1  0.565346  0.565346  0.935458  1
  Y  Y15  1  0.937506  0.937506  0.558862  1
  Cd  Cd16  1  0.580551  0.580551  0.580604  1
  Cd  Cd17  1  0.581092  0.581092  0.254547  1
  Cd  Cd18  1  0.581207  0.254502  0.581090  1
  Cd  Cd19  1  0.254502  0.581207  0.581090  1
  Os  Os20  1  0.143162  0.143162  0.143098  1
  Pt  Pt21  1  0.143502  0.143502  0.572148  1
  Pt  Pt22  1  0.143506  0.572180  0.143536  1
  Pt  Pt23  1  0.572180  0.143506  0.143536  1
