# generated using pymatgen
data_Ho5In4HgRh
_symmetry_space_group_name_H-M   'P 1'
_cell_length_a   3.62465100
_cell_length_b   8.22913946
_cell_length_c   18.46376158
_cell_angle_alpha   89.81720236
_cell_angle_beta   90.00000000
_cell_angle_gamma   90.00000000
_symmetry_Int_Tables_number   1
_chemical_formula_structural   Ho5In4HgRh
_chemical_formula_sum   'Ho10 In8 Hg2 Rh2'
_cell_volume   550.72982013
_cell_formula_units_Z   2
loop_
 _symmetry_equiv_pos_site_id
 _symmetry_equiv_pos_as_xyz
  1  'x, y, z'
loop_
 _atom_site_type_symbol
 _atom_site_label
 _atom_site_symmetry_multiplicity
 _atom_site_fract_x
 _atom_site_fract_y
 _atom_site_fract_z
 _atom_site_occupancy
  Ho  Ho0  1  0.000000  0.123819  0.423699  1
  Ho  Ho1  1  0.000000  0.876181  0.576301  1
  Ho  Ho2  1  0.000000  0.384646  0.914811  1
  Ho  Ho3  1  0.000000  0.615354  0.085189  1
  Ho  Ho4  1  0.000000  0.266964  0.213632  1
  Ho  Ho5  1  0.000000  0.733036  0.786368  1
  Ho  Ho6  1  0.000000  0.286075  0.723365  1
  Ho  Ho7  1  0.000000  0.713925  0.276635  1
  Ho  Ho8  1  0.000000  0.000000  0.000000  1
  Ho  Ho9  1  0.000000  0.500000  0.500000  1
  In  In10  1  0.500000  0.422125  0.352143  1
  In  In11  1  0.500000  0.577875  0.647857  1
  In  In12  1  0.500000  0.081778  0.854053  1
  In  In13  1  0.500000  0.918222  0.145947  1
  In  In14  1  0.500000  0.294623  0.065692  1
  In  In15  1  0.500000  0.705377  0.934308  1
  In  In16  1  0.500000  0.211624  0.568419  1
  In  In17  1  0.500000  0.788376  0.431581  1
  Hg  Hg18  1  0.500000  0.025609  0.300859  1
  Hg  Hg19  1  0.500000  0.974391  0.699141  1
  Rh  Rh20  1  0.500000  0.475085  0.805480  1
  Rh  Rh21  1  0.500000  0.524915  0.194520  1
