# generated using pymatgen
data_Tb3Dy(Sc3Si4)2
_symmetry_space_group_name_H-M   'P 1'
_cell_length_a   7.10995629
_cell_length_b   7.40026042
_cell_length_c   14.02615209
_cell_angle_alpha   89.97661621
_cell_angle_beta   90.01313676
_cell_angle_gamma   90.01998865
_symmetry_Int_Tables_number   1
_chemical_formula_structural   Tb3Dy(Sc3Si4)2
_chemical_formula_sum   'Tb6 Dy2 Sc12 Si16'
_cell_volume   737.99327357
_cell_formula_units_Z   2
loop_
 _symmetry_equiv_pos_site_id
 _symmetry_equiv_pos_as_xyz
  1  'x, y, z'
loop_
 _atom_site_type_symbol
 _atom_site_label
 _atom_site_symmetry_multiplicity
 _atom_site_fract_x
 _atom_site_fract_y
 _atom_site_fract_z
 _atom_site_occupancy
  Tb  Tb0  1  0.011892  0.175001  0.097060  1
  Tb  Tb1  1  0.988108  0.824999  0.902940  1
  Tb  Tb2  1  0.488068  0.674950  0.903056  1
  Tb  Tb3  1  0.988008  0.824934  0.596959  1
  Tb  Tb4  1  0.511932  0.325050  0.096944  1
  Tb  Tb5  1  0.011992  0.175066  0.403041  1
  Dy  Dy6  1  0.511930  0.324887  0.402961  1
  Dy  Dy7  1  0.488070  0.675113  0.597039  1
  Sc  Sc8  1  0.160582  0.502342  0.749959  1
  Sc  Sc9  1  0.839418  0.497658  0.250041  1
  Sc  Sc10  1  0.339475  0.002361  0.250086  1
  Sc  Sc11  1  0.660525  0.997639  0.749914  1
  Sc  Sc12  1  0.330762  0.176823  0.625109  1
  Sc  Sc13  1  0.669238  0.823177  0.374891  1
  Sc  Sc14  1  0.169541  0.676509  0.374907  1
  Sc  Sc15  1  0.669391  0.823366  0.125182  1
  Sc  Sc16  1  0.830459  0.323491  0.625093  1
  Sc  Sc17  1  0.330609  0.176634  0.874818  1
  Sc  Sc18  1  0.830581  0.323364  0.874814  1
  Sc  Sc19  1  0.169419  0.676636  0.125186  1
  Si  Si20  1  0.033318  0.117985  0.749968  1
  Si  Si21  1  0.966682  0.882015  0.250032  1
  Si  Si22  1  0.466755  0.617681  0.250111  1
  Si  Si23  1  0.533245  0.382319  0.749889  1
  Si  Si24  1  0.285682  0.874038  0.749852  1
  Si  Si25  1  0.714318  0.125962  0.250148  1
  Si  Si26  1  0.214748  0.374196  0.250169  1
  Si  Si27  1  0.785252  0.625804  0.749831  1
  Si  Si28  1  0.158016  0.464766  0.539446  1
  Si  Si29  1  0.841984  0.535234  0.460554  1
  Si  Si30  1  0.342834  0.964619  0.460625  1
  Si  Si31  1  0.842650  0.535429  0.039410  1
  Si  Si32  1  0.657166  0.035381  0.539375  1
  Si  Si33  1  0.157350  0.464571  0.960590  1
  Si  Si34  1  0.657439  0.035402  0.960614  1
  Si  Si35  1  0.342561  0.964598  0.039386  1
