# generated using pymatgen
data_Ho3TmSi4RuRh3
_symmetry_space_group_name_H-M   'P 1'
_cell_length_a   4.26290100
_cell_length_b   6.90595438
_cell_length_c   7.27177681
_cell_angle_alpha   90.20262469
_cell_angle_beta   90.00000000
_cell_angle_gamma   90.00000000
_symmetry_Int_Tables_number   1
_chemical_formula_structural   Ho3TmSi4RuRh3
_chemical_formula_sum   'Ho3 Tm1 Si4 Ru1 Rh3'
_cell_volume   214.07540646
_cell_formula_units_Z   1
loop_
 _symmetry_equiv_pos_site_id
 _symmetry_equiv_pos_as_xyz
  1  'x, y, z'
loop_
 _atom_site_type_symbol
 _atom_site_label
 _atom_site_symmetry_multiplicity
 _atom_site_fract_x
 _atom_site_fract_y
 _atom_site_fract_z
 _atom_site_occupancy
  Ho  Ho0  1  0.250000  0.992740  0.811318  1
  Ho  Ho1  1  0.750000  0.005378  0.190245  1
  Ho  Ho2  1  0.250000  0.497514  0.686435  1
  Tm  Tm3  1  0.750000  0.503894  0.311351  1
  Si  Si4  1  0.250000  0.300593  0.105246  1
  Si  Si5  1  0.750000  0.701406  0.900863  1
  Si  Si6  1  0.250000  0.795588  0.387290  1
  Si  Si7  1  0.750000  0.203311  0.606989  1
  Ru  Ru8  1  0.250000  0.653398  0.067318  1
  Rh  Rh9  1  0.750000  0.843804  0.568414  1
  Rh  Rh10  1  0.250000  0.157360  0.431365  1
  Rh  Rh11  1  0.750000  0.345017  0.933168  1
