# generated using pymatgen
data_Nd7Ho12ErSi16
_symmetry_space_group_name_H-M   'P 1'
_cell_length_a   7.73425326
_cell_length_b   7.73904853
_cell_length_c   14.31241504
_cell_angle_alpha   90.00091931
_cell_angle_beta   89.87508782
_cell_angle_gamma   90.07734061
_symmetry_Int_Tables_number   1
_chemical_formula_structural   Nd7Ho12ErSi16
_chemical_formula_sum   'Nd7 Ho12 Er1 Si16'
_cell_volume   856.67768195
_cell_formula_units_Z   1
loop_
 _symmetry_equiv_pos_site_id
 _symmetry_equiv_pos_as_xyz
  1  'x, y, z'
loop_
 _atom_site_type_symbol
 _atom_site_label
 _atom_site_symmetry_multiplicity
 _atom_site_fract_x
 _atom_site_fract_y
 _atom_site_fract_z
 _atom_site_occupancy
  Nd  Nd0  1  0.358699  0.007421  0.958114  1
  Nd  Nd1  1  0.992339  0.642842  0.540794  1
  Nd  Nd2  1  0.490528  0.858566  0.209441  1
  Nd  Nd3  1  0.509400  0.139576  0.707078  1
  Nd  Nd4  1  0.859737  0.490383  0.791630  1
  Nd  Nd5  1  0.139713  0.508746  0.292958  1
  Nd  Nd6  1  0.007698  0.358197  0.042633  1
  Ho  Ho7  1  0.491011  0.360873  0.124891  1
  Ho  Ho8  1  0.991731  0.136704  0.624241  1
  Ho  Ho9  1  0.861965  0.008381  0.874633  1
  Ho  Ho10  1  0.137365  0.992982  0.375202  1
  Ho  Ho11  1  0.511228  0.639673  0.622909  1
  Ho  Ho12  1  0.361254  0.491097  0.875229  1
  Ho  Ho13  1  0.639680  0.510075  0.376302  1
  Ho  Ho14  1  0.006747  0.861331  0.126506  1
  Ho  Ho15  1  0.636254  0.995811  0.456058  1
  Ho  Ho16  1  0.318016  0.316918  0.499848  1
  Ho  Ho17  1  0.184386  0.816391  0.749098  1
  Ho  Ho18  1  0.815031  0.182916  0.250546  1
  Er  Er19  1  0.682654  0.681907  0.000308  1
  Si  Si20  1  0.294044  0.938538  0.560170  1
  Si  Si21  1  0.709365  0.063196  0.061783  1
  Si  Si22  1  0.933623  0.288122  0.438252  1
  Si  Si23  1  0.437946  0.209134  0.312871  1
  Si  Si24  1  0.564719  0.788428  0.811631  1
  Si  Si25  1  0.211646  0.436136  0.687750  1
  Si  Si26  1  0.788305  0.565088  0.189004  1
  Si  Si27  1  0.064341  0.710158  0.938690  1
  Si  Si28  1  0.799152  0.844817  0.690637  1
  Si  Si29  1  0.202585  0.153195  0.189940  1
  Si  Si30  1  0.843171  0.801436  0.314076  1
  Si  Si31  1  0.350413  0.706972  0.437973  1
  Si  Si32  1  0.653236  0.296129  0.939760  1
  Si  Si33  1  0.701678  0.342483  0.558847  1
  Si  Si34  1  0.296081  0.653279  0.060709  1
  Si  Si35  1  0.154258  0.202103  0.809485  1
