# generated using pymatgen
data_Dy3GaCo2Ir
_symmetry_space_group_name_H-M   'P 1'
_cell_length_a   5.44247047
_cell_length_b   5.44247039
_cell_length_c   13.08840500
_cell_angle_alpha   90.00000000
_cell_angle_beta   90.00000000
_cell_angle_gamma   135.64742526
_symmetry_Int_Tables_number   1
_chemical_formula_structural   Dy3GaCo2Ir
_chemical_formula_sum   'Dy6 Ga2 Co4 Ir2'
_cell_volume   271.01954424
_cell_formula_units_Z   2
loop_
 _symmetry_equiv_pos_site_id
 _symmetry_equiv_pos_as_xyz
  1  'x, y, z'
loop_
 _atom_site_type_symbol
 _atom_site_label
 _atom_site_symmetry_multiplicity
 _atom_site_fract_x
 _atom_site_fract_y
 _atom_site_fract_z
 _atom_site_occupancy
  Dy  Dy0  1  0.793791  0.206209  0.396822  1
  Dy  Dy1  1  0.206209  0.793791  0.603178  1
  Dy  Dy2  1  0.793791  0.206209  0.103178  1
  Dy  Dy3  1  0.206209  0.793791  0.896822  1
  Dy  Dy4  1  0.507417  0.492583  0.250000  1
  Dy  Dy5  1  0.492583  0.507417  0.750000  1
  Ga  Ga6  1  0.500000  0.500000  0.500000  1
  Ga  Ga7  1  0.500000  0.500000  0.000000  1
  Co  Co8  1  0.079282  0.920718  0.412626  1
  Co  Co9  1  0.920718  0.079282  0.587374  1
  Co  Co10  1  0.079282  0.920718  0.087374  1
  Co  Co11  1  0.920718  0.079282  0.912626  1
  Ir  Ir12  1  0.214586  0.785414  0.250000  1
  Ir  Ir13  1  0.785414  0.214586  0.750000  1
