# generated using pymatgen
data_YbDy3Cr2(SbO7)2
_symmetry_space_group_name_H-M   'P 1'
_cell_length_a   7.22122314
_cell_length_b   7.34311264
_cell_length_c   7.29168261
_cell_angle_alpha   59.76641607
_cell_angle_beta   59.23356522
_cell_angle_gamma   59.44004455
_symmetry_Int_Tables_number   1
_chemical_formula_structural   YbDy3Cr2(SbO7)2
_chemical_formula_sum   'Yb1 Dy3 Cr2 Sb2 O14'
_cell_volume   270.15753284
_cell_formula_units_Z   1
loop_
 _symmetry_equiv_pos_site_id
 _symmetry_equiv_pos_as_xyz
  1  'x, y, z'
loop_
 _atom_site_type_symbol
 _atom_site_label
 _atom_site_symmetry_multiplicity
 _atom_site_fract_x
 _atom_site_fract_y
 _atom_site_fract_z
 _atom_site_occupancy
  Yb  Yb0  1  0.625000  0.125000  0.125000  1
  Dy  Dy1  1  0.125000  0.625000  0.125000  1
  Dy  Dy2  1  0.125000  0.125000  0.625000  1
  Dy  Dy3  1  0.125000  0.125000  0.125000  1
  Cr  Cr4  1  0.125000  0.625000  0.625000  1
  Cr  Cr5  1  0.625000  0.625000  0.125000  1
  Sb  Sb6  1  0.625000  0.625000  0.625000  1
  Sb  Sb7  1  0.625000  0.125000  0.625000  1
  O  O8  1  0.289192  0.708869  0.711466  1
  O  O9  1  0.546205  0.952382  0.954758  1
  O  O10  1  0.707660  0.292562  0.707215  1
  O  O11  1  0.289192  0.290473  0.711466  1
  O  O12  1  0.703795  0.703345  0.295242  1
  O  O13  1  0.008857  0.996377  0.998390  1
  O  O14  1  0.305152  0.701575  0.291697  1
  O  O15  1  0.944848  0.548425  0.958303  1
  O  O16  1  0.960808  0.959527  0.538534  1
  O  O17  1  0.546205  0.546655  0.954758  1
  O  O18  1  0.241143  0.253623  0.251610  1
  O  O19  1  0.542340  0.957438  0.542785  1
  O  O20  1  0.703795  0.297618  0.295242  1
  O  O21  1  0.960808  0.541131  0.538534  1
