# generated using pymatgen
data_Li3Ta2V(NiSb)6
_symmetry_space_group_name_H-M   'P 1'
_cell_length_a   7.25003282
_cell_length_b   7.25974718
_cell_length_c   7.25100408
_cell_angle_alpha   119.95564556
_cell_angle_beta   99.59051381
_cell_angle_gamma   99.55315798
_symmetry_Int_Tables_number   1
_chemical_formula_structural   Li3Ta2V(NiSb)6
_chemical_formula_sum   'Li3 Ta2 V1 Ni6 Sb6'
_cell_volume   311.86633809
_cell_formula_units_Z   1
loop_
 _symmetry_equiv_pos_site_id
 _symmetry_equiv_pos_as_xyz
  1  'x, y, z'
loop_
 _atom_site_type_symbol
 _atom_site_label
 _atom_site_symmetry_multiplicity
 _atom_site_fract_x
 _atom_site_fract_y
 _atom_site_fract_z
 _atom_site_occupancy
  Li  Li0  1  0.999304  0.502355  0.997440  1
  Li  Li1  1  0.497464  0.329296  0.163703  1
  Li  Li2  1  0.998981  0.164186  0.333494  1
  Ta  Ta3  1  0.003401  0.836481  0.670405  1
  Ta  Ta4  1  0.500306  0.668988  0.833469  1
  V  V5  1  0.499237  0.001309  0.502046  1
  Ni  Ni6  1  0.116489  0.191542  0.025330  1
  Ni  Ni7  1  0.612863  0.022102  0.209872  1
  Ni  Ni8  1  0.142185  0.880085  0.397625  1
  Ni  Ni9  1  0.630547  0.725357  0.554678  1
  Ni  Ni10  1  0.136934  0.561427  0.711416  1
  Ni  Ni11  1  0.612942  0.368694  0.852284  1
  Sb  Sb12  1  0.244359  0.922801  0.097176  1
  Sb  Sb13  1  0.756932  0.742593  0.246292  1
  Sb  Sb14  1  0.252110  0.566540  0.396992  1
  Sb  Sb15  1  0.755249  0.409291  0.573659  1
  Sb  Sb16  1  0.243995  0.258589  0.754546  1
  Sb  Sb17  1  0.746701  0.098367  0.929578  1
