# generated using pymatgen
data_Pr5TmOsO12
_symmetry_space_group_name_H-M   'P 1'
_cell_length_a   7.20205143
_cell_length_b   7.20205105
_cell_length_c   7.71384000
_cell_angle_alpha   74.50553481
_cell_angle_beta   74.50553563
_cell_angle_gamma   50.71061378
_symmetry_Int_Tables_number   1
_chemical_formula_structural   Pr5TmOsO12
_chemical_formula_sum   'Pr5 Tm1 Os1 O12'
_cell_volume   295.82993213
_cell_formula_units_Z   1
loop_
 _symmetry_equiv_pos_site_id
 _symmetry_equiv_pos_as_xyz
  1  'x, y, z'
loop_
 _atom_site_type_symbol
 _atom_site_label
 _atom_site_symmetry_multiplicity
 _atom_site_fract_x
 _atom_site_fract_y
 _atom_site_fract_z
 _atom_site_occupancy
  Pr  Pr0  1  0.303447  0.300101  0.360279  1
  Pr  Pr1  1  0.699899  0.696553  0.639721  1
  Pr  Pr2  1  0.685766  0.701478  0.167941  1
  Pr  Pr3  1  0.298522  0.314234  0.832059  1
  Pr  Pr4  1  0.011681  0.988319  0.500000  1
  Tm  Tm5  1  0.765677  0.234323  0.000000  1
  Os  Os6  1  0.250953  0.749047  0.000000  1
  O  O7  1  0.094571  0.599015  0.570374  1
  O  O8  1  0.037064  0.963987  0.184332  1
  O  O9  1  0.400985  0.905429  0.429626  1
  O  O10  1  0.481971  0.520250  0.181033  1
  O  O11  1  0.100989  0.591835  0.080405  1
  O  O12  1  0.904034  0.406097  0.421080  1
  O  O13  1  0.036013  0.962936  0.815668  1
  O  O14  1  0.593903  0.095965  0.578920  1
  O  O15  1  0.479750  0.518029  0.818967  1
  O  O16  1  0.549948  0.103341  0.083963  1
  O  O17  1  0.408165  0.899011  0.919595  1
  O  O18  1  0.896659  0.450052  0.916037  1
