# generated using pymatgen
data_AcAs12(OsRu)2
_symmetry_space_group_name_H-M   'P 1'
_cell_length_a   7.48833143
_cell_length_b   7.48865105
_cell_length_c   7.49037164
_cell_angle_alpha   109.43496833
_cell_angle_beta   109.49975021
_cell_angle_gamma   109.44580039
_symmetry_Int_Tables_number   1
_chemical_formula_structural   AcAs12(OsRu)2
_chemical_formula_sum   'Ac1 As12 Os2 Ru2'
_cell_volume   323.48006346
_cell_formula_units_Z   1
loop_
 _symmetry_equiv_pos_site_id
 _symmetry_equiv_pos_as_xyz
  1  'x, y, z'
loop_
 _atom_site_type_symbol
 _atom_site_label
 _atom_site_symmetry_multiplicity
 _atom_site_fract_x
 _atom_site_fract_y
 _atom_site_fract_z
 _atom_site_occupancy
  Ac  Ac0  1  0.000000  0.000000  0.000000  1
  As  As1  1  0.350075  0.199516  0.848638  1
  As  As2  1  0.649925  0.800484  0.151362  1
  As  As3  1  0.649214  0.498635  0.848741  1
  As  As4  1  0.350786  0.501365  0.151259  1
  As  As5  1  0.199783  0.849539  0.350685  1
  As  As6  1  0.800217  0.150461  0.649315  1
  As  As7  1  0.499050  0.849049  0.649347  1
  As  As8  1  0.500950  0.150951  0.350653  1
  As  As9  1  0.849473  0.350538  0.200269  1
  As  As10  1  0.150527  0.649462  0.799731  1
  As  As11  1  0.849056  0.649828  0.498925  1
  As  As12  1  0.150944  0.350172  0.501075  1
  Os  Os13  1  0.500000  0.000000  0.000000  1
  Os  Os14  1  0.000000  0.500000  0.000000  1
  Ru  Ru15  1  0.000000  0.000000  0.500000  1
  Ru  Ru16  1  0.500000  0.500000  0.500000  1
