# generated using pymatgen
data_La4Tc3RhF28
_symmetry_space_group_name_H-M   'P 1'
_cell_length_a   5.80908518
_cell_length_b   9.32578472
_cell_length_c   12.47515692
_cell_angle_alpha   62.11946889
_cell_angle_beta   89.84640360
_cell_angle_gamma   89.82448264
_symmetry_Int_Tables_number   1
_chemical_formula_structural   La4Tc3RhF28
_chemical_formula_sum   'La4 Tc3 Rh1 F28'
_cell_volume   597.38166291
_cell_formula_units_Z   1
loop_
 _symmetry_equiv_pos_site_id
 _symmetry_equiv_pos_as_xyz
  1  'x, y, z'
loop_
 _atom_site_type_symbol
 _atom_site_label
 _atom_site_symmetry_multiplicity
 _atom_site_fract_x
 _atom_site_fract_y
 _atom_site_fract_z
 _atom_site_occupancy
  La  La0  1  0.760074  0.809641  0.260878  1
  La  La1  1  0.260316  0.192235  0.233500  1
  La  La2  1  0.241632  0.185323  0.737373  1
  La  La3  1  0.741984  0.807573  0.771544  1
  Tc  Tc4  1  0.244493  0.725382  0.543784  1
  Tc  Tc5  1  0.744730  0.274577  0.956118  1
  Tc  Tc6  1  0.755997  0.273494  0.457329  1
  Rh  Rh7  1  0.255903  0.725634  0.043677  1
  F  F8  1  0.966814  0.714860  0.457625  1
  F  F9  1  0.464584  0.285809  0.040281  1
  F  F10  1  0.035324  0.284671  0.542016  1
  F  F11  1  0.536152  0.714102  0.957152  1
  F  F12  1  0.058457  0.709286  0.921349  1
  F  F13  1  0.559204  0.291165  0.577919  1
  F  F14  1  0.939327  0.291524  0.076896  1
  F  F15  1  0.441703  0.708585  0.423252  1
  F  F16  1  0.738319  0.510220  0.860354  1
  F  F17  1  0.237700  0.488299  0.639128  1
  F  F18  1  0.261454  0.488344  0.139382  1
  F  F19  1  0.762000  0.509703  0.362446  1
  F  F20  1  0.740640  0.039421  0.047810  1
  F  F21  1  0.240792  0.961601  0.450741  1
  F  F22  1  0.259352  0.962603  0.950551  1
  F  F23  1  0.760251  0.037995  0.550255  1
  F  F24  1  0.049357  0.742146  0.666459  1
  F  F25  1  0.552342  0.258033  0.833024  1
  F  F26  1  0.948408  0.256936  0.333771  1
  F  F27  1  0.450189  0.742906  0.167047  1
  F  F28  1  0.019060  0.268523  0.866827  1
  F  F29  1  0.516565  0.731900  0.634205  1
  F  F30  1  0.980276  0.732262  0.134304  1
  F  F31  1  0.482614  0.267133  0.367861  1
  F  F32  1  0.086269  0.972399  0.230961  1
  F  F33  1  0.587444  0.031535  0.267240  1
  F  F34  1  0.908293  0.034493  0.768103  1
  F  F35  1  0.411980  0.969688  0.728838  1
