# generated using pymatgen
data_Li4Ca2YErSi8
_symmetry_space_group_name_H-M   'P 1'
_cell_length_a   3.78727600
_cell_length_b   7.78808517
_cell_length_c   10.41063528
_cell_angle_alpha   89.32309278
_cell_angle_beta   90.00000000
_cell_angle_gamma   90.00000000
_symmetry_Int_Tables_number   1
_chemical_formula_structural   Li4Ca2YErSi8
_chemical_formula_sum   'Li4 Ca2 Y1 Er1 Si8'
_cell_volume   307.04679652
_cell_formula_units_Z   1
loop_
 _symmetry_equiv_pos_site_id
 _symmetry_equiv_pos_as_xyz
  1  'x, y, z'
loop_
 _atom_site_type_symbol
 _atom_site_label
 _atom_site_symmetry_multiplicity
 _atom_site_fract_x
 _atom_site_fract_y
 _atom_site_fract_z
 _atom_site_occupancy
  Li  Li0  1  0.250000  0.997602  0.388984  1
  Li  Li1  1  0.750000  0.001074  0.609767  1
  Li  Li2  1  0.250000  0.494039  0.109128  1
  Li  Li3  1  0.750000  0.510778  0.889328  1
  Ca  Ca4  1  0.250000  0.635187  0.635851  1
  Ca  Ca5  1  0.750000  0.361078  0.365758  1
  Y  Y6  1  0.750000  0.869791  0.135498  1
  Er  Er7  1  0.250000  0.129762  0.864918  1
  Si  Si8  1  0.750000  0.263665  0.060259  1
  Si  Si9  1  0.250000  0.739612  0.936922  1
  Si  Si10  1  0.750000  0.771297  0.428173  1
  Si  Si11  1  0.250000  0.225674  0.574424  1
  Si  Si12  1  0.750000  0.845925  0.825890  1
  Si  Si13  1  0.250000  0.158089  0.171908  1
  Si  Si14  1  0.750000  0.330320  0.685149  1
  Si  Si15  1  0.250000  0.666108  0.318042  1
