# generated using pymatgen
data_Th2B(IrRh)3
_symmetry_space_group_name_H-M   'P 1'
_cell_length_a   5.95942884
_cell_length_b   5.95942913
_cell_length_c   5.96247397
_cell_angle_alpha   60.01688543
_cell_angle_beta   60.01687817
_cell_angle_gamma   60.00000311
_symmetry_Int_Tables_number   1
_chemical_formula_structural   Th2B(IrRh)3
_chemical_formula_sum   'Th2 B1 Ir3 Rh3'
_cell_volume   149.77232690
_cell_formula_units_Z   1
loop_
 _symmetry_equiv_pos_site_id
 _symmetry_equiv_pos_as_xyz
  1  'x, y, z'
loop_
 _atom_site_type_symbol
 _atom_site_label
 _atom_site_symmetry_multiplicity
 _atom_site_fract_x
 _atom_site_fract_y
 _atom_site_fract_z
 _atom_site_occupancy
  Th  Th0  1  0.749967  0.749967  0.750099  1
  Th  Th1  1  0.250041  0.250041  0.249877  1
  B  B2  1  0.500130  0.500130  0.499610  1
  Ir  Ir3  1  0.755694  0.755694  0.244800  1
  Ir  Ir4  1  0.755694  0.243812  0.244800  1
  Ir  Ir5  1  0.243812  0.755694  0.244800  1
  Rh  Rh6  1  0.244957  0.244957  0.755338  1
  Rh  Rh7  1  0.754748  0.244957  0.755338  1
  Rh  Rh8  1  0.244957  0.754748  0.755338  1
