# generated using pymatgen
data_TbY3Lu4(FeB6)4
_symmetry_space_group_name_H-M   'P 1'
_cell_length_a   3.51677300
_cell_length_b   9.02633303
_cell_length_c   11.40489403
_cell_angle_alpha   89.99108787
_cell_angle_beta   90.00000000
_cell_angle_gamma   90.00000000
_symmetry_Int_Tables_number   1
_chemical_formula_structural   TbY3Lu4(FeB6)4
_chemical_formula_sum   'Tb1 Y3 Lu4 Fe4 B24'
_cell_volume   362.03198250
_cell_formula_units_Z   1
loop_
 _symmetry_equiv_pos_site_id
 _symmetry_equiv_pos_as_xyz
  1  'x, y, z'
loop_
 _atom_site_type_symbol
 _atom_site_label
 _atom_site_symmetry_multiplicity
 _atom_site_fract_x
 _atom_site_fract_y
 _atom_site_fract_z
 _atom_site_occupancy
  Tb  Tb0  1  0.000000  0.823412  0.085627  1
  Y  Y1  1  0.000000  0.176808  0.914423  1
  Y  Y2  1  0.000000  0.323208  0.414451  1
  Y  Y3  1  0.000000  0.676766  0.585557  1
  Lu  Lu4  1  0.000000  0.443351  0.129313  1
  Lu  Lu5  1  0.000000  0.556564  0.870659  1
  Lu  Lu6  1  0.000000  0.943433  0.370699  1
  Lu  Lu7  1  0.000000  0.056610  0.629309  1
  Fe  Fe8  1  0.000000  0.139430  0.180505  1
  Fe  Fe9  1  0.000000  0.860581  0.819520  1
  Fe  Fe10  1  0.000000  0.639414  0.319517  1
  Fe  Fe11  1  0.000000  0.360593  0.680487  1
  B  B12  1  0.500000  0.055078  0.068665  1
  B  B13  1  0.500000  0.945010  0.931283  1
  B  B14  1  0.500000  0.554970  0.431404  1
  B  B15  1  0.500000  0.445027  0.568587  1
  B  B16  1  0.500000  0.248304  0.082093  1
  B  B17  1  0.500000  0.751708  0.917770  1
  B  B18  1  0.500000  0.748286  0.417886  1
  B  B19  1  0.500000  0.251705  0.582103  1
  B  B20  1  0.500000  0.290255  0.233651  1
  B  B21  1  0.500000  0.709749  0.766342  1
  B  B22  1  0.500000  0.790149  0.266426  1
  B  B23  1  0.500000  0.209746  0.733660  1
  B  B24  1  0.500000  0.131102  0.314700  1
  B  B25  1  0.500000  0.868882  0.685291  1
  B  B26  1  0.500000  0.631065  0.185362  1
  B  B27  1  0.500000  0.368869  0.814715  1
  B  B28  1  0.500000  0.485554  0.287455  1
  B  B29  1  0.500000  0.514448  0.712546  1
  B  B30  1  0.500000  0.985714  0.212575  1
  B  B31  1  0.500000  0.014451  0.787457  1
  B  B32  1  0.500000  0.105254  0.471276  1
  B  B33  1  0.500000  0.894745  0.528741  1
  B  B34  1  0.500000  0.605034  0.028667  1
  B  B35  1  0.500000  0.394729  0.971277  1
