# generated using pymatgen
data_TbDySc2(ReB6)2
_symmetry_space_group_name_H-M   'P 1'
_cell_length_a   3.58894100
_cell_length_b   9.01267100
_cell_length_c   11.39932400
_cell_angle_alpha   89.99800169
_cell_angle_beta   90.00000000
_cell_angle_gamma   90.00000000
_symmetry_Int_Tables_number   1
_chemical_formula_structural   TbDySc2(ReB6)2
_chemical_formula_sum   'Tb2 Dy2 Sc4 Re4 B24'
_cell_volume   368.72190100
_cell_formula_units_Z   2
loop_
 _symmetry_equiv_pos_site_id
 _symmetry_equiv_pos_as_xyz
  1  'x, y, z'
loop_
 _atom_site_type_symbol
 _atom_site_label
 _atom_site_symmetry_multiplicity
 _atom_site_fract_x
 _atom_site_fract_y
 _atom_site_fract_z
 _atom_site_occupancy
  Tb  Tb0  1  0.000000  0.321690  0.413917  1
  Tb  Tb1  1  0.000000  0.678310  0.586083  1
  Dy  Dy2  1  0.000000  0.821711  0.086069  1
  Dy  Dy3  1  0.000000  0.178289  0.913931  1
  Sc  Sc4  1  0.000000  0.944137  0.370135  1
  Sc  Sc5  1  0.000000  0.055863  0.629865  1
  Sc  Sc6  1  0.000000  0.444201  0.129742  1
  Sc  Sc7  1  0.000000  0.555799  0.870258  1
  Re  Re8  1  0.000000  0.640916  0.318280  1
  Re  Re9  1  0.000000  0.359084  0.681720  1
  Re  Re10  1  0.000000  0.140707  0.181520  1
  Re  Re11  1  0.000000  0.859293  0.818480  1
  B  B12  1  0.500000  0.554497  0.432401  1
  B  B13  1  0.500000  0.445503  0.567599  1
  B  B14  1  0.500000  0.054414  0.067477  1
  B  B15  1  0.500000  0.945586  0.932523  1
  B  B16  1  0.500000  0.754768  0.418360  1
  B  B17  1  0.500000  0.245232  0.581640  1
  B  B18  1  0.500000  0.254713  0.081515  1
  B  B19  1  0.500000  0.745287  0.918485  1
  B  B20  1  0.500000  0.795265  0.264859  1
  B  B21  1  0.500000  0.204735  0.735141  1
  B  B22  1  0.500000  0.295245  0.234995  1
  B  B23  1  0.500000  0.704755  0.765005  1
  B  B24  1  0.500000  0.629184  0.183018  1
  B  B25  1  0.500000  0.370816  0.816982  1
  B  B26  1  0.500000  0.129057  0.316871  1
  B  B27  1  0.500000  0.870943  0.683129  1
  B  B28  1  0.500000  0.981554  0.213788  1
  B  B29  1  0.500000  0.018446  0.786212  1
  B  B30  1  0.500000  0.481665  0.286093  1
  B  B31  1  0.500000  0.518335  0.713907  1
  B  B32  1  0.500000  0.595362  0.026071  1
  B  B33  1  0.500000  0.404638  0.973929  1
  B  B34  1  0.500000  0.095197  0.473986  1
  B  B35  1  0.500000  0.904803  0.526014  1
