# generated using pymatgen
data_Hf3In3IrPd2
_symmetry_space_group_name_H-M   'P 1'
_cell_length_a   7.64880000
_cell_length_b   7.64879941
_cell_length_c   6.85260100
_cell_angle_alpha   90.00000000
_cell_angle_beta   90.00000000
_cell_angle_gamma   119.99999392
_symmetry_Int_Tables_number   1
_chemical_formula_structural   Hf3In3IrPd2
_chemical_formula_sum   'Hf6 In6 Ir2 Pd4'
_cell_volume   347.19437486
_cell_formula_units_Z   2
loop_
 _symmetry_equiv_pos_site_id
 _symmetry_equiv_pos_as_xyz
  1  'x, y, z'
loop_
 _atom_site_type_symbol
 _atom_site_label
 _atom_site_symmetry_multiplicity
 _atom_site_fract_x
 _atom_site_fract_y
 _atom_site_fract_z
 _atom_site_occupancy
  Hf  Hf0  1  0.741341  0.053136  0.000000  1
  Hf  Hf1  1  0.311796  0.258659  0.000000  1
  Hf  Hf2  1  0.946864  0.688204  0.000000  1
  Hf  Hf3  1  0.314540  0.260079  0.500000  1
  Hf  Hf4  1  0.739921  0.054462  0.500000  1
  Hf  Hf5  1  0.945538  0.685460  0.500000  1
  In  In6  1  0.599580  0.654026  0.749984  1
  In  In7  1  0.054446  0.400420  0.749984  1
  In  In8  1  0.345974  0.945554  0.749984  1
  In  In9  1  0.599580  0.654026  0.250016  1
  In  In10  1  0.054446  0.400420  0.250016  1
  In  In11  1  0.345974  0.945554  0.250016  1
  Ir  Ir12  1  0.000000  0.000000  0.252045  1
  Ir  Ir13  1  0.000000  0.000000  0.747955  1
  Pd  Pd14  1  0.333333  0.666667  0.000000  1
  Pd  Pd15  1  0.333333  0.666667  0.500000  1
  Pd  Pd16  1  0.666667  0.333333  0.753496  1
  Pd  Pd17  1  0.666667  0.333333  0.246504  1
