# generated using pymatgen
data_Th7ReTcNi
_symmetry_space_group_name_H-M   'P 1'
_cell_length_a   9.90356813
_cell_length_b   9.99648694
_cell_length_c   6.30331759
_cell_angle_alpha   89.88125358
_cell_angle_beta   90.23972158
_cell_angle_gamma   119.69299573
_symmetry_Int_Tables_number   1
_chemical_formula_structural   Th7ReTcNi
_chemical_formula_sum   'Th14 Re2 Tc2 Ni2'
_cell_volume   542.08868865
_cell_formula_units_Z   2
loop_
 _symmetry_equiv_pos_site_id
 _symmetry_equiv_pos_as_xyz
  1  'x, y, z'
loop_
 _atom_site_type_symbol
 _atom_site_label
 _atom_site_symmetry_multiplicity
 _atom_site_fract_x
 _atom_site_fract_y
 _atom_site_fract_z
 _atom_site_occupancy
  Th  Th0  1  0.332214  0.666450  0.036925  1
  Th  Th1  1  0.665765  0.333550  0.536925  1
  Th  Th2  1  0.127694  0.874649  0.246305  1
  Th  Th3  1  0.253044  0.125351  0.746305  1
  Th  Th4  1  0.872732  0.744860  0.754664  1
  Th  Th5  1  0.127872  0.255140  0.254664  1
  Th  Th6  1  0.753681  0.876669  0.253872  1
  Th  Th7  1  0.877010  0.123331  0.753872  1
  Th  Th8  1  0.534783  0.456830  0.043496  1
  Th  Th9  1  0.077952  0.543170  0.543496  1
  Th  Th10  1  0.461633  0.918508  0.547429  1
  Th  Th11  1  0.543125  0.081492  0.047429  1
  Th  Th12  1  0.916309  0.452153  0.045286  1
  Th  Th13  1  0.464156  0.547847  0.545286  1
  Re  Re14  1  0.187493  0.373348  0.800408  1
  Re  Re15  1  0.814146  0.626652  0.300408  1
  Tc  Tc16  1  0.804112  0.179285  0.301463  1
  Tc  Tc17  1  0.624826  0.820715  0.801463  1
  Ni  Ni18  1  0.372374  0.183297  0.300155  1
  Ni  Ni19  1  0.189077  0.816703  0.800155  1
