# generated using pymatgen
data_TmLu15(CoAg)4
_symmetry_space_group_name_H-M   'P 1'
_cell_length_a   9.22323367
_cell_length_b   9.22355295
_cell_length_c   9.22532900
_cell_angle_alpha   59.99826317
_cell_angle_beta   59.99717841
_cell_angle_gamma   60.00656344
_symmetry_Int_Tables_number   1
_chemical_formula_structural   TmLu15(CoAg)4
_chemical_formula_sum   'Tm1 Lu15 Co4 Ag4'
_cell_volume   554.95132906
_cell_formula_units_Z   1
loop_
 _symmetry_equiv_pos_site_id
 _symmetry_equiv_pos_as_xyz
  1  'x, y, z'
loop_
 _atom_site_type_symbol
 _atom_site_label
 _atom_site_symmetry_multiplicity
 _atom_site_fract_x
 _atom_site_fract_y
 _atom_site_fract_z
 _atom_site_occupancy
  Tm  Tm0  1  0.937622  0.937609  0.562387  1
  Lu  Lu1  1  0.347781  0.347771  0.347682  1
  Lu  Lu2  1  0.347745  0.347742  0.956821  1
  Lu  Lu3  1  0.347927  0.956933  0.347549  1
  Lu  Lu4  1  0.956919  0.347939  0.347557  1
  Lu  Lu5  1  0.811573  0.188506  0.188167  1
  Lu  Lu6  1  0.188515  0.811541  0.811783  1
  Lu  Lu7  1  0.188500  0.811574  0.188166  1
  Lu  Lu8  1  0.811549  0.188507  0.811777  1
  Lu  Lu9  1  0.188457  0.188462  0.811549  1
  Lu  Lu10  1  0.811542  0.811542  0.188461  1
  Lu  Lu11  1  0.937662  0.562187  0.562344  1
  Lu  Lu12  1  0.562187  0.937631  0.937788  1
  Lu  Lu13  1  0.562198  0.937640  0.562393  1
  Lu  Lu14  1  0.937609  0.562206  0.937792  1
  Lu  Lu15  1  0.562399  0.562390  0.937605  1
  Co  Co16  1  0.141384  0.141379  0.141209  1
  Co  Co17  1  0.141380  0.141378  0.576029  1
  Co  Co18  1  0.141318  0.575918  0.141385  1
  Co  Co19  1  0.575913  0.141324  0.141382  1
  Ag  Ag20  1  0.581844  0.581848  0.581916  1
  Ag  Ag21  1  0.581847  0.581842  0.254393  1
  Ag  Ag22  1  0.581660  0.254473  0.581930  1
  Ag  Ag23  1  0.254471  0.581659  0.581935  1
