# generated using pymatgen
data_Tb2DyLu3CoTe2
_symmetry_space_group_name_H-M   'P 1'
_cell_length_a   8.25083501
_cell_length_b   8.25018406
_cell_length_c   3.91103700
_cell_angle_alpha   90.00000000
_cell_angle_beta   90.00000000
_cell_angle_gamma   119.99739567
_symmetry_Int_Tables_number   1
_chemical_formula_structural   Tb2DyLu3CoTe2
_chemical_formula_sum   'Tb2 Dy1 Lu3 Co1 Te2'
_cell_volume   230.56612104
_cell_formula_units_Z   1
loop_
 _symmetry_equiv_pos_site_id
 _symmetry_equiv_pos_as_xyz
  1  'x, y, z'
loop_
 _atom_site_type_symbol
 _atom_site_label
 _atom_site_symmetry_multiplicity
 _atom_site_fract_x
 _atom_site_fract_y
 _atom_site_fract_z
 _atom_site_occupancy
  Tb  Tb0  1  0.602402  0.602402  0.500000  1
  Tb  Tb1  1  0.397598  0.000000  0.500000  1
  Dy  Dy2  1  0.000000  0.397503  0.500000  1
  Lu  Lu3  1  0.000000  0.769000  0.000000  1
  Lu  Lu4  1  0.230943  0.231000  0.000000  1
  Lu  Lu5  1  0.769057  0.000057  0.000000  1
  Co  Co6  1  0.000000  0.000100  0.500000  1
  Te  Te7  1  0.333248  0.666594  0.000000  1
  Te  Te8  1  0.666752  0.333345  0.000000  1
