# generated using pymatgen
data_TbY3Al18OsPd5
_symmetry_space_group_name_H-M   'P 1'
_cell_length_a   7.63363394
_cell_length_b   7.63344900
_cell_length_c   9.49518600
_cell_angle_alpha   90.05109907
_cell_angle_beta   90.05067159
_cell_angle_gamma   119.69054141
_symmetry_Int_Tables_number   1
_chemical_formula_structural   TbY3Al18OsPd5
_chemical_formula_sum   'Tb1 Y3 Al18 Os1 Pd5'
_cell_volume   480.65271964
_cell_formula_units_Z   1
loop_
 _symmetry_equiv_pos_site_id
 _symmetry_equiv_pos_as_xyz
  1  'x, y, z'
loop_
 _atom_site_type_symbol
 _atom_site_label
 _atom_site_symmetry_multiplicity
 _atom_site_fract_x
 _atom_site_fract_y
 _atom_site_fract_z
 _atom_site_occupancy
  Tb  Tb0  1  0.330602  0.004700  0.750910  1
  Y  Y1  1  0.995293  0.669393  0.249083  1
  Y  Y2  1  0.006219  0.330778  0.750947  1
  Y  Y3  1  0.669231  0.993784  0.249053  1
  Al  Al4  1  0.128416  0.130287  0.249152  1
  Al  Al5  1  0.869711  0.871578  0.750850  1
  Al  Al6  1  0.996035  0.333806  0.074638  1
  Al  Al7  1  0.995363  0.660361  0.925892  1
  Al  Al8  1  0.999121  0.666087  0.577424  1
  Al  Al9  1  0.333901  0.000872  0.422572  1
  Al  Al10  1  0.001016  0.334326  0.423344  1
  Al  Al11  1  0.665680  0.998983  0.576655  1
  Al  Al12  1  0.666207  0.003962  0.925365  1
  Al  Al13  1  0.339628  0.004629  0.074117  1
  Al  Al14  1  0.334203  0.334517  0.559874  1
  Al  Al15  1  0.665490  0.665797  0.440118  1
  Al  Al16  1  0.667026  0.661877  0.054424  1
  Al  Al17  1  0.338122  0.332984  0.945585  1
  Al  Al18  1  0.336549  0.545849  0.249193  1
  Al  Al19  1  0.661252  0.453444  0.753569  1
  Al  Al20  1  0.546567  0.338749  0.246429  1
  Al  Al21  1  0.454160  0.663462  0.750808  1
  Os  Os22  1  0.671869  0.328145  0.000009  1
  Pd  Pd23  1  0.328093  0.671890  0.000010  1
  Pd  Pd24  1  0.327905  0.672079  0.499990  1
  Pd  Pd25  1  0.671877  0.328151  0.499989  1
  Pd  Pd26  1  0.000499  0.999490  0.000012  1
  Pd  Pd27  1  0.999964  0.000023  0.499988  1
