# generated using pymatgen
data_Tm4Sn4P2Rh7
_symmetry_space_group_name_H-M   'P 1'
_cell_length_a   7.36236065
_cell_length_b   7.36238185
_cell_length_c   7.41510502
_cell_angle_alpha   109.38234527
_cell_angle_beta   109.38235237
_cell_angle_gamma   109.35967329
_symmetry_Int_Tables_number   1
_chemical_formula_structural   Tm4Sn4P2Rh7
_chemical_formula_sum   'Tm4 Sn4 P2 Rh7'
_cell_volume   310.50723725
_cell_formula_units_Z   1
loop_
 _symmetry_equiv_pos_site_id
 _symmetry_equiv_pos_as_xyz
  1  'x, y, z'
loop_
 _atom_site_type_symbol
 _atom_site_label
 _atom_site_symmetry_multiplicity
 _atom_site_fract_x
 _atom_site_fract_y
 _atom_site_fract_z
 _atom_site_occupancy
  Tm  Tm0  1  0.445867  0.445868  0.452139  1
  Tm  Tm1  1  0.010025  0.510025  0.020051  1
  Tm  Tm2  1  0.510025  0.010025  0.020050  1
  Tm  Tm3  1  0.006271  0.006271  0.452138  1
  Sn  Sn4  1  0.708273  0.987809  0.696083  1
  Sn  Sn5  1  0.671995  0.671995  0.974187  1
  Sn  Sn6  1  0.302196  0.302196  0.974189  1
  Sn  Sn7  1  0.987810  0.708273  0.696083  1
  P  P8  1  0.995628  0.346939  0.342569  1
  P  P9  1  0.346940  0.995629  0.342569  1
  Rh  Rh10  1  0.497332  0.752394  0.249726  1
  Rh  Rh11  1  0.748066  0.248067  0.496131  1
  Rh  Rh12  1  0.248066  0.748067  0.496133  1
  Rh  Rh13  1  0.233598  0.499704  0.733298  1
  Rh  Rh14  1  0.035814  0.035814  0.071624  1
  Rh  Rh15  1  0.499703  0.233597  0.733301  1
  Rh  Rh16  1  0.752392  0.497330  0.249723  1
