# generated using pymatgen
data_Yb8TmLuIr4
_symmetry_space_group_name_H-M   'P 1'
_cell_length_a   6.51286459
_cell_length_b   7.27513953
_cell_length_c   8.47905221
_cell_angle_alpha   97.25680395
_cell_angle_beta   112.58516144
_cell_angle_gamma   89.99999927
_symmetry_Int_Tables_number   1
_chemical_formula_structural   Yb8TmLuIr4
_chemical_formula_sum   'Yb8 Tm1 Lu1 Ir4'
_cell_volume   367.45597430
_cell_formula_units_Z   1
loop_
 _symmetry_equiv_pos_site_id
 _symmetry_equiv_pos_as_xyz
  1  'x, y, z'
loop_
 _atom_site_type_symbol
 _atom_site_label
 _atom_site_symmetry_multiplicity
 _atom_site_fract_x
 _atom_site_fract_y
 _atom_site_fract_z
 _atom_site_occupancy
  Yb  Yb0  1  0.971288  0.922117  0.170343  1
  Yb  Yb1  1  0.800944  0.577883  0.829657  1
  Yb  Yb2  1  0.028641  0.077692  0.829629  1
  Yb  Yb3  1  0.199014  0.422308  0.170371  1
  Yb  Yb4  1  0.643030  0.820215  0.437022  1
  Yb  Yb5  1  0.206008  0.679785  0.562978  1
  Yb  Yb6  1  0.356880  0.179728  0.562812  1
  Yb  Yb7  1  0.794067  0.320272  0.437188  1
  Tm  Tm8  1  0.561724  0.250000  0.000000  1
  Lu  Lu9  1  0.438587  0.750000  0.000000  1
  Ir  Ir10  1  0.810940  0.573448  0.209410  1
  Ir  Ir11  1  0.601529  0.926552  0.790590  1
  Ir  Ir12  1  0.188991  0.427186  0.790633  1
  Ir  Ir13  1  0.398357  0.072814  0.209367  1
