# generated using pymatgen
data_PrNi2P2Pd
_symmetry_space_group_name_H-M   'P 1'
_cell_length_a   7.97980818
_cell_length_b   7.97980921
_cell_length_c   9.71025700
_cell_angle_alpha   74.20809930
_cell_angle_beta   74.20809720
_cell_angle_gamma   27.17895462
_symmetry_Int_Tables_number   1
_chemical_formula_structural   PrNi2P2Pd
_chemical_formula_sum   'Pr3 Ni6 P6 Pd3'
_cell_volume   271.13646627
_cell_formula_units_Z   3
loop_
 _symmetry_equiv_pos_site_id
 _symmetry_equiv_pos_as_xyz
  1  'x, y, z'
loop_
 _atom_site_type_symbol
 _atom_site_label
 _atom_site_symmetry_multiplicity
 _atom_site_fract_x
 _atom_site_fract_y
 _atom_site_fract_z
 _atom_site_occupancy
  Pr  Pr0  1  0.848947  0.848947  0.693720  1
  Pr  Pr1  1  0.151053  0.151053  0.306280  1
  Pr  Pr2  1  0.000000  0.000000  0.000000  1
  Ni  Ni3  1  0.947366  0.947366  0.331312  1
  Ni  Ni4  1  0.052634  0.052634  0.668688  1
  Ni  Ni5  1  0.780233  0.780233  0.400176  1
  Ni  Ni6  1  0.219767  0.219767  0.599824  1
  Ni  Ni7  1  0.366315  0.366315  0.216636  1
  Ni  Ni8  1  0.633685  0.633685  0.783364  1
  P  P9  1  0.801404  0.801404  0.151373  1
  P  P10  1  0.198596  0.198596  0.848627  1
  P  P11  1  0.521970  0.521970  0.223706  1
  P  P12  1  0.478030  0.478030  0.776294  1
  P  P13  1  0.643999  0.643999  0.551689  1
  P  P14  1  0.356001  0.356001  0.448311  1
  Pd  Pd15  1  0.500000  0.500000  0.500000  1
  Pd  Pd16  1  0.672759  0.672759  0.034290  1
  Pd  Pd17  1  0.327241  0.327241  0.965710  1
