# generated using pymatgen
data_Ho7ErMgCd(SiB4)4
_symmetry_space_group_name_H-M   'P 1'
_cell_length_a   7.16019700
_cell_length_b   7.15895820
_cell_length_c   7.78607319
_cell_angle_alpha   89.97581166
_cell_angle_beta   89.99680228
_cell_angle_gamma   89.99435725
_symmetry_Int_Tables_number   1
_chemical_formula_structural   Ho7ErMgCd(SiB4)4
_chemical_formula_sum   'Ho7 Er1 Mg1 Cd1 Si4 B16'
_cell_volume   399.11057789
_cell_formula_units_Z   1
loop_
 _symmetry_equiv_pos_site_id
 _symmetry_equiv_pos_as_xyz
  1  'x, y, z'
loop_
 _atom_site_type_symbol
 _atom_site_label
 _atom_site_symmetry_multiplicity
 _atom_site_fract_x
 _atom_site_fract_y
 _atom_site_fract_z
 _atom_site_occupancy
  Ho  Ho0  1  0.317440  0.816444  0.767081  1
  Ho  Ho1  1  0.317415  0.816422  0.232889  1
  Ho  Ho2  1  0.816448  0.682542  0.232682  1
  Ho  Ho3  1  0.816364  0.682615  0.767293  1
  Ho  Ho4  1  0.682649  0.183636  0.767265  1
  Ho  Ho5  1  0.183565  0.317414  0.767245  1
  Ho  Ho6  1  0.183632  0.317421  0.232647  1
  Er  Er7  1  0.682440  0.183252  0.232160  1
  Mg  Mg8  1  0.500271  0.499691  0.499653  1
  Cd  Cd9  1  0.999555  0.000338  0.499495  1
  Si  Si10  1  0.117527  0.611887  0.499908  1
  Si  Si11  1  0.882069  0.387665  0.499587  1
  Si  Si12  1  0.388418  0.117805  0.499632  1
  Si  Si13  1  0.612189  0.882749  0.499664  1
  B  B14  1  0.174575  0.040154  0.000157  1
  B  B15  1  0.825287  0.960059  0.000233  1
  B  B16  1  0.959909  0.174822  0.000103  1
  B  B17  1  0.326725  0.540139  0.000183  1
  B  B18  1  0.039911  0.825330  0.000202  1
  B  B19  1  0.673406  0.459693  0.000098  1
  B  B20  1  0.540274  0.673213  0.000129  1
  B  B21  1  0.459927  0.326668  0.000223  1
  B  B22  1  0.089610  0.589103  0.000163  1
  B  B23  1  0.910390  0.410923  0.000066  1
  B  B24  1  0.410862  0.089676  0.000352  1
  B  B25  1  0.589189  0.910406  0.000279  1
  B  B26  1  0.999779  0.000132  0.160985  1
  B  B27  1  0.999969  0.000069  0.839347  1
  B  B28  1  0.500033  0.500008  0.835109  1
  B  B29  1  0.500173  0.499725  0.165171  1
