# generated using pymatgen
data_TbAlCu2Si
_symmetry_space_group_name_H-M   'P 1'
_cell_length_a   4.02612200
_cell_length_b   4.02612200
_cell_length_c   10.13478300
_cell_angle_alpha   90.00000000
_cell_angle_beta   90.00000000
_cell_angle_gamma   90.00000000
_symmetry_Int_Tables_number   1
_chemical_formula_structural   TbAlCu2Si
_chemical_formula_sum   'Tb2 Al2 Cu4 Si2'
_cell_volume   164.28136997
_cell_formula_units_Z   2
loop_
 _symmetry_equiv_pos_site_id
 _symmetry_equiv_pos_as_xyz
  1  'x, y, z'
loop_
 _atom_site_type_symbol
 _atom_site_label
 _atom_site_symmetry_multiplicity
 _atom_site_fract_x
 _atom_site_fract_y
 _atom_site_fract_z
 _atom_site_occupancy
  Tb  Tb0  1  0.000000  0.500000  0.762268  1
  Tb  Tb1  1  0.500000  0.000000  0.237732  1
  Al  Al2  1  0.500000  0.500000  0.500000  1
  Al  Al3  1  0.000000  0.000000  0.500000  1
  Cu  Cu4  1  0.500000  0.000000  0.643823  1
  Cu  Cu5  1  0.000000  0.000000  0.000000  1
  Cu  Cu6  1  0.500000  0.500000  0.000000  1
  Cu  Cu7  1  0.000000  0.500000  0.356177  1
  Si  Si8  1  0.000000  0.500000  0.128750  1
  Si  Si9  1  0.500000  0.000000  0.871250  1
