# generated using pymatgen
data_YbYPa(SnIr)3
_symmetry_space_group_name_H-M   'P 1'
_cell_length_a   7.45962999
_cell_length_b   7.62378372
_cell_length_c   3.94370100
_cell_angle_alpha   90.00000000
_cell_angle_beta   90.00000000
_cell_angle_gamma   120.42587705
_symmetry_Int_Tables_number   1
_chemical_formula_structural   YbYPa(SnIr)3
_chemical_formula_sum   'Yb1 Y1 Pa1 Sn3 Ir3'
_cell_volume   193.39386083
_cell_formula_units_Z   1
loop_
 _symmetry_equiv_pos_site_id
 _symmetry_equiv_pos_as_xyz
  1  'x, y, z'
loop_
 _atom_site_type_symbol
 _atom_site_label
 _atom_site_symmetry_multiplicity
 _atom_site_fract_x
 _atom_site_fract_y
 _atom_site_fract_z
 _atom_site_occupancy
  Yb  Yb0  1  0.404820  0.997784  0.500000  1
  Y  Y1  1  0.595391  0.593125  0.500000  1
  Pa  Pa2  1  0.000250  0.413720  0.500000  1
  Sn  Sn3  1  0.003866  0.759944  0.000000  1
  Sn  Sn4  1  0.271541  0.255035  0.000000  1
  Sn  Sn5  1  0.724495  0.986534  0.000000  1
  Ir  Ir6  1  0.300898  0.634567  0.000000  1
  Ir  Ir7  1  0.702420  0.341999  0.000000  1
  Ir  Ir8  1  0.996318  0.017290  0.500000  1
