# generated using pymatgen
data_LiCePrSi4Pd
_symmetry_space_group_name_H-M   'P 1'
_cell_length_a   3.94029100
_cell_length_b   7.44820500
_cell_length_c   10.40857000
_cell_angle_alpha   90.00000000
_cell_angle_beta   90.00000000
_cell_angle_gamma   90.00000000
_symmetry_Int_Tables_number   1
_chemical_formula_structural   LiCePrSi4Pd
_chemical_formula_sum   'Li2 Ce2 Pr2 Si8 Pd2'
_cell_volume   305.47170250
_cell_formula_units_Z   2
loop_
 _symmetry_equiv_pos_site_id
 _symmetry_equiv_pos_as_xyz
  1  'x, y, z'
loop_
 _atom_site_type_symbol
 _atom_site_label
 _atom_site_symmetry_multiplicity
 _atom_site_fract_x
 _atom_site_fract_y
 _atom_site_fract_z
 _atom_site_occupancy
  Li  Li0  1  0.750000  0.002267  0.603961  1
  Li  Li1  1  0.750000  0.502267  0.896039  1
  Ce  Ce2  1  0.750000  0.863326  0.132155  1
  Ce  Ce3  1  0.750000  0.363326  0.367845  1
  Pr  Pr4  1  0.250000  0.145896  0.872791  1
  Pr  Pr5  1  0.250000  0.645896  0.627209  1
  Si  Si6  1  0.250000  0.221911  0.567251  1
  Si  Si7  1  0.250000  0.721911  0.932749  1
  Si  Si8  1  0.750000  0.777742  0.419790  1
  Si  Si9  1  0.750000  0.277742  0.080210  1
  Si  Si10  1  0.250000  0.661239  0.313934  1
  Si  Si11  1  0.250000  0.161239  0.186066  1
  Si  Si12  1  0.750000  0.333093  0.675713  1
  Si  Si13  1  0.750000  0.833093  0.824287  1
  Pd  Pd14  1  0.250000  0.994525  0.392037  1
  Pd  Pd15  1  0.250000  0.494525  0.107963  1
