# generated using pymatgen
data_ErSc19(Bi3Pb)3
_symmetry_space_group_name_H-M   'P 1'
_cell_length_a   7.79757768
_cell_length_b   9.06478782
_cell_length_c   11.40225573
_cell_angle_alpha   89.95985750
_cell_angle_beta   89.98488225
_cell_angle_gamma   90.02784194
_symmetry_Int_Tables_number   1
_chemical_formula_structural   ErSc19(Bi3Pb)3
_chemical_formula_sum   'Er1 Sc19 Bi9 Pb3'
_cell_volume   805.94973601
_cell_formula_units_Z   1
loop_
 _symmetry_equiv_pos_site_id
 _symmetry_equiv_pos_as_xyz
  1  'x, y, z'
loop_
 _atom_site_type_symbol
 _atom_site_label
 _atom_site_symmetry_multiplicity
 _atom_site_fract_x
 _atom_site_fract_y
 _atom_site_fract_z
 _atom_site_occupancy
  Er  Er0  1  0.188114  0.748852  0.719122  1
  Sc  Sc1  1  0.349997  0.750509  0.220919  1
  Sc  Sc2  1  0.850025  0.749539  0.277688  1
  Sc  Sc3  1  0.649867  0.251429  0.780743  1
  Sc  Sc4  1  0.151111  0.250902  0.719459  1
  Sc  Sc5  1  0.697417  0.565922  0.060424  1
  Sc  Sc6  1  0.196457  0.933948  0.438909  1
  Sc  Sc7  1  0.304847  0.066675  0.940838  1
  Sc  Sc8  1  0.804338  0.432838  0.560179  1
  Sc  Sc9  1  0.304138  0.432278  0.939800  1
  Sc  Sc10  1  0.805663  0.067653  0.559548  1
  Sc  Sc11  1  0.695214  0.933485  0.061359  1
  Sc  Sc12  1  0.195479  0.566830  0.438509  1
  Sc  Sc13  1  0.481874  0.248919  0.488124  1
  Sc  Sc14  1  0.980270  0.251504  0.012299  1
  Sc  Sc15  1  0.517927  0.748914  0.509967  1
  Sc  Sc16  1  0.019200  0.749310  0.991682  1
  Sc  Sc17  1  0.310744  0.251233  0.218870  1
  Sc  Sc18  1  0.811234  0.249127  0.281000  1
  Sc  Sc19  1  0.687244  0.749695  0.781032  1
  Bi  Bi20  1  0.406645  0.749494  0.961889  1
  Bi  Bi21  1  0.900269  0.750377  0.536606  1
  Bi  Bi22  1  0.594311  0.249864  0.041198  1
  Bi  Bi23  1  0.095223  0.250490  0.459102  1
  Bi  Bi24  1  0.932547  0.006307  0.826955  1
  Bi  Bi25  1  0.440149  0.007351  0.673950  1
  Bi  Bi26  1  0.933011  0.493870  0.826816  1
  Bi  Bi27  1  0.563540  0.503539  0.324951  1
  Bi  Bi28  1  0.064577  0.996246  0.174434  1
  Pb  Pb29  1  0.563841  0.996585  0.324864  1
  Pb  Pb30  1  0.064122  0.503446  0.174991  1
  Pb  Pb31  1  0.440610  0.492870  0.673773  1
