# generated using pymatgen
data_Nd3Ta(Co4P3)2
_symmetry_space_group_name_H-M   'P 1'
_cell_length_a   3.77721300
_cell_length_b   10.79302500
_cell_length_c   12.53112600
_cell_angle_alpha   90.00000000
_cell_angle_beta   90.00000000
_cell_angle_gamma   90.00000000
_symmetry_Int_Tables_number   1
_chemical_formula_structural   Nd3Ta(Co4P3)2
_chemical_formula_sum   'Nd6 Ta2 Co16 P12'
_cell_volume   510.86336014
_cell_formula_units_Z   2
loop_
 _symmetry_equiv_pos_site_id
 _symmetry_equiv_pos_as_xyz
  1  'x, y, z'
loop_
 _atom_site_type_symbol
 _atom_site_label
 _atom_site_symmetry_multiplicity
 _atom_site_fract_x
 _atom_site_fract_y
 _atom_site_fract_z
 _atom_site_occupancy
  Nd  Nd0  1  0.000000  0.500000  0.525536  1
  Nd  Nd1  1  0.500000  0.000000  0.474464  1
  Nd  Nd2  1  0.500000  0.819869  0.205206  1
  Nd  Nd3  1  0.500000  0.180131  0.205206  1
  Nd  Nd4  1  0.000000  0.680131  0.794794  1
  Nd  Nd5  1  0.000000  0.319869  0.794794  1
  Ta  Ta6  1  0.500000  0.500000  0.153767  1
  Ta  Ta7  1  0.000000  0.000000  0.846233  1
  Co  Co8  1  0.500000  0.500000  0.703214  1
  Co  Co9  1  0.000000  0.000000  0.296786  1
  Co  Co10  1  0.000000  0.500000  0.987813  1
  Co  Co11  1  0.500000  0.000000  0.012187  1
  Co  Co12  1  0.500000  0.332711  0.993329  1
  Co  Co13  1  0.500000  0.667289  0.993329  1
  Co  Co14  1  0.000000  0.167289  0.006671  1
  Co  Co15  1  0.000000  0.832711  0.006671  1
  Co  Co16  1  0.500000  0.295642  0.431862  1
  Co  Co17  1  0.500000  0.704358  0.431862  1
  Co  Co18  1  0.000000  0.204358  0.568138  1
  Co  Co19  1  0.000000  0.795642  0.568138  1
  Co  Co20  1  0.500000  0.880111  0.706862  1
  Co  Co21  1  0.500000  0.119889  0.706862  1
  Co  Co22  1  0.000000  0.619889  0.293138  1
  Co  Co23  1  0.000000  0.380111  0.293138  1
  P  P24  1  0.500000  0.500000  0.885886  1
  P  P25  1  0.000000  0.000000  0.114114  1
  P  P26  1  0.500000  0.500000  0.351211  1
  P  P27  1  0.000000  0.000000  0.648789  1
  P  P28  1  0.500000  0.306413  0.614147  1
  P  P29  1  0.500000  0.693587  0.614147  1
  P  P30  1  0.000000  0.193587  0.385853  1
  P  P31  1  0.000000  0.806413  0.385853  1
  P  P32  1  0.500000  0.843110  0.896000  1
  P  P33  1  0.500000  0.156890  0.896000  1
  P  P34  1  0.000000  0.656890  0.104000  1
  P  P35  1  0.000000  0.343110  0.104000  1
