# generated using pymatgen
data_SrMn7FeO16
_symmetry_space_group_name_H-M   'P 1'
_cell_length_a   5.91212350
_cell_length_b   7.11000358
_cell_length_c   7.20775767
_cell_angle_alpha   88.62445939
_cell_angle_beta   78.47757968
_cell_angle_gamma   78.67707115
_symmetry_Int_Tables_number   1
_chemical_formula_structural   SrMn7FeO16
_chemical_formula_sum   'Sr1 Mn7 Fe1 O16'
_cell_volume   291.05881297
_cell_formula_units_Z   1
loop_
 _symmetry_equiv_pos_site_id
 _symmetry_equiv_pos_as_xyz
  1  'x, y, z'
loop_
 _atom_site_type_symbol
 _atom_site_label
 _atom_site_symmetry_multiplicity
 _atom_site_fract_x
 _atom_site_fract_y
 _atom_site_fract_z
 _atom_site_occupancy
  Sr  Sr0  1  0.015679  0.977508  0.984743  1
  Mn  Mn1  1  0.086927  0.507533  0.182057  1
  Mn  Mn2  1  0.170965  0.819203  0.517143  1
  Mn  Mn3  1  0.668868  0.819324  0.526562  1
  Mn  Mn4  1  0.333607  0.184075  0.480651  1
  Mn  Mn5  1  0.836158  0.184526  0.483520  1
  Mn  Mn6  1  0.429718  0.481834  0.819591  1
  Mn  Mn7  1  0.927045  0.488270  0.819335  1
  Fe  Fe8  1  0.581014  0.518918  0.187895  1
  O  O9  1  0.847822  0.648749  0.047353  1
  O  O10  1  0.321961  0.644868  0.045397  1
  O  O11  1  0.994291  0.701607  0.375032  1
  O  O12  1  0.479188  0.709965  0.390876  1
  O  O13  1  0.858760  0.957319  0.649107  1
  O  O14  1  0.324695  0.970284  0.654893  1
  O  O15  1  0.338494  0.367586  0.286495  1
  O  O16  1  0.847518  0.365116  0.285471  1
  O  O17  1  0.168359  0.634937  0.719187  1
  O  O18  1  0.667187  0.625622  0.720199  1
  O  O19  1  0.147617  0.043617  0.354020  1
  O  O20  1  0.652471  0.048846  0.358145  1
  O  O21  1  0.024698  0.301535  0.614672  1
  O  O22  1  0.524642  0.299110  0.613166  1
  O  O23  1  0.173863  0.347498  0.944178  1
  O  O24  1  0.685551  0.352150  0.940309  1
