# generated using pymatgen
data_Tc7Os
_symmetry_space_group_name_H-M   'P 1'
_cell_length_a   5.52905300
_cell_length_b   5.52905107
_cell_length_c   4.39910800
_cell_angle_alpha   90.00000000
_cell_angle_beta   90.00000000
_cell_angle_gamma   119.99999357
_symmetry_Int_Tables_number   1
_chemical_formula_structural   Tc7Os
_chemical_formula_sum   'Tc7 Os1'
_cell_volume   116.46532390
_cell_formula_units_Z   1
loop_
 _symmetry_equiv_pos_site_id
 _symmetry_equiv_pos_as_xyz
  1  'x, y, z'
loop_
 _atom_site_type_symbol
 _atom_site_label
 _atom_site_symmetry_multiplicity
 _atom_site_fract_x
 _atom_site_fract_y
 _atom_site_fract_z
 _atom_site_occupancy
  Tc  Tc0  1  0.666667  0.333333  0.250000  1
  Tc  Tc1  1  0.833728  0.166272  0.750000  1
  Tc  Tc2  1  0.332542  0.166272  0.750000  1
  Tc  Tc3  1  0.833728  0.667458  0.750000  1
  Tc  Tc4  1  0.166460  0.833540  0.250000  1
  Tc  Tc5  1  0.667080  0.833540  0.250000  1
  Tc  Tc6  1  0.166460  0.332920  0.250000  1
  Os  Os7  1  0.333333  0.666667  0.750000  1
