# generated using pymatgen
data_Zr4Sc7CoOs3
_symmetry_space_group_name_H-M   'P 1'
_cell_length_a   9.47109040
_cell_length_b   9.47109109
_cell_length_c   9.47109100
_cell_angle_alpha   60.00000380
_cell_angle_beta   60.00000139
_cell_angle_gamma   60.00000536
_symmetry_Int_Tables_number   1
_chemical_formula_structural   Zr4Sc7CoOs3
_chemical_formula_sum   'Zr8 Sc14 Co2 Os6'
_cell_volume   600.73791300
_cell_formula_units_Z   2
loop_
 _symmetry_equiv_pos_site_id
 _symmetry_equiv_pos_as_xyz
  1  'x, y, z'
loop_
 _atom_site_type_symbol
 _atom_site_label
 _atom_site_symmetry_multiplicity
 _atom_site_fract_x
 _atom_site_fract_y
 _atom_site_fract_z
 _atom_site_occupancy
  Zr  Zr0  1  0.840869  0.840869  0.840869  1
  Zr  Zr1  1  0.522606  0.159131  0.159131  1
  Zr  Zr2  1  0.159131  0.159131  0.522606  1
  Zr  Zr3  1  0.159131  0.522606  0.159131  1
  Zr  Zr4  1  0.840869  0.840869  0.477394  1
  Zr  Zr5  1  0.840869  0.477394  0.840869  1
  Zr  Zr6  1  0.477394  0.840869  0.840869  1
  Zr  Zr7  1  0.159131  0.159131  0.159131  1
  Sc  Sc8  1  0.195532  0.804468  0.195532  1
  Sc  Sc9  1  0.195532  0.804468  0.804468  1
  Sc  Sc10  1  0.804468  0.195532  0.195532  1
  Sc  Sc11  1  0.804468  0.804468  0.195532  1
  Sc  Sc12  1  0.195532  0.195532  0.804468  1
  Sc  Sc13  1  0.804468  0.195532  0.804468  1
  Sc  Sc14  1  0.385022  0.385022  0.385022  1
  Sc  Sc15  1  0.155068  0.614978  0.614978  1
  Sc  Sc16  1  0.614978  0.155068  0.614978  1
  Sc  Sc17  1  0.614978  0.614978  0.155068  1
  Sc  Sc18  1  0.385022  0.844932  0.385022  1
  Sc  Sc19  1  0.385022  0.385022  0.844932  1
  Sc  Sc20  1  0.844932  0.385022  0.385022  1
  Sc  Sc21  1  0.614978  0.614978  0.614978  1
  Co  Co22  1  0.500000  0.500000  0.500000  1
  Co  Co23  1  0.000000  0.000000  0.000000  1
  Os  Os24  1  0.500000  0.500000  0.000000  1
  Os  Os25  1  0.000000  0.000000  0.500000  1
  Os  Os26  1  0.500000  0.000000  0.500000  1
  Os  Os27  1  0.000000  0.500000  0.500000  1
  Os  Os28  1  0.500000  0.000000  0.000000  1
  Os  Os29  1  0.000000  0.500000  0.000000  1
