# generated using pymatgen
data_Tm3PuRe4F28
_symmetry_space_group_name_H-M   'P 1'
_cell_length_a   5.54967200
_cell_length_b   8.85963710
_cell_length_c   12.00083400
_cell_angle_alpha   62.69350530
_cell_angle_beta   90.03436918
_cell_angle_gamma   89.99684426
_symmetry_Int_Tables_number   1
_chemical_formula_structural   Tm3PuRe4F28
_chemical_formula_sum   'Tm3 Pu1 Re4 F28'
_cell_volume   524.30486556
_cell_formula_units_Z   1
loop_
 _symmetry_equiv_pos_site_id
 _symmetry_equiv_pos_as_xyz
  1  'x, y, z'
loop_
 _atom_site_type_symbol
 _atom_site_label
 _atom_site_symmetry_multiplicity
 _atom_site_fract_x
 _atom_site_fract_y
 _atom_site_fract_z
 _atom_site_occupancy
  Tm  Tm0  1  0.258208  0.816391  0.264683  1
  Tm  Tm1  1  0.739773  0.192422  0.735296  1
  Tm  Tm2  1  0.758314  0.185390  0.235550  1
  Pu  Pu3  1  0.240494  0.816869  0.763291  1
  Re  Re4  1  0.758554  0.725799  0.048558  1
  Re  Re5  1  0.241571  0.268030  0.959379  1
  Re  Re6  1  0.259079  0.276804  0.454323  1
  Re  Re7  1  0.744535  0.726416  0.537859  1
  F  F8  1  0.945106  0.706323  0.409752  1
  F  F9  1  0.052116  0.292909  0.582676  1
  F  F10  1  0.448200  0.291725  0.084504  1
  F  F11  1  0.561963  0.703895  0.920102  1
  F  F12  1  0.469474  0.728887  0.144180  1
  F  F13  1  0.529877  0.272662  0.860304  1
  F  F14  1  0.974044  0.272296  0.356759  1
  F  F15  1  0.039902  0.725579  0.629126  1
  F  F16  1  0.955645  0.746729  0.178490  1
  F  F17  1  0.042534  0.250062  0.827918  1
  F  F18  1  0.459665  0.256049  0.325023  1
  F  F19  1  0.562395  0.738723  0.675137  1
  F  F20  1  0.770689  0.474542  0.145679  1
  F  F21  1  0.218999  0.516079  0.858831  1
  F  F22  1  0.274455  0.526305  0.357091  1
  F  F23  1  0.728694  0.475978  0.639252  1
  F  F24  1  0.943176  0.273493  0.049523  1
  F  F25  1  0.058547  0.716247  0.963059  1
  F  F26  1  0.439052  0.724108  0.451425  1
  F  F27  1  0.556394  0.278678  0.546602  1
  F  F28  1  0.743258  0.976950  0.443472  1
  F  F29  1  0.257654  0.026360  0.548329  1
  F  F30  1  0.242968  0.018266  0.056514  1
  F  F31  1  0.757424  0.975802  0.947395  1
  F  F32  1  0.577780  0.973025  0.233189  1
  F  F33  1  0.413164  0.046674  0.766823  1
  F  F34  1  0.078469  0.029061  0.267404  1
  F  F35  1  0.897826  0.974477  0.732500  1
