# generated using pymatgen
data_Y4Ga5Ni9
_symmetry_space_group_name_H-M   'P 1'
_cell_length_a   5.20995700
_cell_length_b   5.20995665
_cell_length_c   23.56128800
_cell_angle_alpha   90.00000000
_cell_angle_beta   90.00000000
_cell_angle_gamma   119.99999587
_symmetry_Int_Tables_number   1
_chemical_formula_structural   Y4Ga5Ni9
_chemical_formula_sum   'Y8 Ga10 Ni18'
_cell_volume   553.85735372
_cell_formula_units_Z   2
loop_
 _symmetry_equiv_pos_site_id
 _symmetry_equiv_pos_as_xyz
  1  'x, y, z'
loop_
 _atom_site_type_symbol
 _atom_site_label
 _atom_site_symmetry_multiplicity
 _atom_site_fract_x
 _atom_site_fract_y
 _atom_site_fract_z
 _atom_site_occupancy
  Y  Y0  1  0.333333  0.666667  0.531336  1
  Y  Y1  1  0.666667  0.333333  0.468664  1
  Y  Y2  1  0.666667  0.333333  0.031336  1
  Y  Y3  1  0.333333  0.666667  0.968664  1
  Y  Y4  1  0.333333  0.666667  0.676878  1
  Y  Y5  1  0.666667  0.333333  0.323122  1
  Y  Y6  1  0.666667  0.333333  0.176878  1
  Y  Y7  1  0.333333  0.666667  0.823122  1
  Ga  Ga8  1  0.000000  0.000000  0.000000  1
  Ga  Ga9  1  0.000000  0.000000  0.500000  1
  Ga  Ga10  1  0.333333  0.666667  0.166601  1
  Ga  Ga11  1  0.666667  0.333333  0.833399  1
  Ga  Ga12  1  0.666667  0.333333  0.666601  1
  Ga  Ga13  1  0.333333  0.666667  0.333399  1
  Ga  Ga14  1  0.000000  0.000000  0.166503  1
  Ga  Ga15  1  0.000000  0.000000  0.833497  1
  Ga  Ga16  1  0.000000  0.000000  0.666503  1
  Ga  Ga17  1  0.000000  0.000000  0.333497  1
  Ni  Ni18  1  0.169214  0.338427  0.084310  1
  Ni  Ni19  1  0.830786  0.661573  0.915690  1
  Ni  Ni20  1  0.661573  0.830786  0.084310  1
  Ni  Ni21  1  0.830786  0.661573  0.584310  1
  Ni  Ni22  1  0.338427  0.169214  0.915690  1
  Ni  Ni23  1  0.169214  0.338427  0.415690  1
  Ni  Ni24  1  0.169214  0.830786  0.084310  1
  Ni  Ni25  1  0.338427  0.169214  0.584310  1
  Ni  Ni26  1  0.830786  0.169214  0.915690  1
  Ni  Ni27  1  0.661573  0.830786  0.415690  1
  Ni  Ni28  1  0.830786  0.169214  0.584310  1
  Ni  Ni29  1  0.169214  0.830786  0.415690  1
  Ni  Ni30  1  0.166768  0.333534  0.250000  1
  Ni  Ni31  1  0.833232  0.666466  0.750000  1
  Ni  Ni32  1  0.666466  0.833232  0.250000  1
  Ni  Ni33  1  0.333534  0.166768  0.750000  1
  Ni  Ni34  1  0.166768  0.833232  0.250000  1
  Ni  Ni35  1  0.833232  0.166768  0.750000  1
