# generated using pymatgen
data_Nd8Sc12Sn3Sb13
_symmetry_space_group_name_H-M   'P 1'
_cell_length_a   7.93188500
_cell_length_b   7.85338882
_cell_length_c   14.95195300
_cell_angle_alpha   90.00000000
_cell_angle_beta   90.00000000
_cell_angle_gamma   89.83947303
_symmetry_Int_Tables_number   1
_chemical_formula_structural   Nd8Sc12Sn3Sb13
_chemical_formula_sum   'Nd8 Sc12 Sn3 Sb13'
_cell_volume   931.38604732
_cell_formula_units_Z   1
loop_
 _symmetry_equiv_pos_site_id
 _symmetry_equiv_pos_as_xyz
  1  'x, y, z'
loop_
 _atom_site_type_symbol
 _atom_site_label
 _atom_site_symmetry_multiplicity
 _atom_site_fract_x
 _atom_site_fract_y
 _atom_site_fract_z
 _atom_site_occupancy
  Nd  Nd0  1  0.517810  0.323196  0.906791  1
  Nd  Nd1  1  0.018373  0.176488  0.594948  1
  Nd  Nd2  1  0.483006  0.677629  0.406484  1
  Nd  Nd3  1  0.982745  0.822479  0.093630  1
  Nd  Nd4  1  0.483006  0.677629  0.093516  1
  Nd  Nd5  1  0.982745  0.822479  0.406370  1
  Nd  Nd6  1  0.517810  0.323196  0.593209  1
  Nd  Nd7  1  0.018373  0.176488  0.905052  1
  Sc  Sc8  1  0.346348  0.850118  0.874004  1
  Sc  Sc9  1  0.846738  0.650213  0.624096  1
  Sc  Sc10  1  0.651532  0.151154  0.374881  1
  Sc  Sc11  1  0.151707  0.348425  0.124929  1
  Sc  Sc12  1  0.651532  0.151154  0.125119  1
  Sc  Sc13  1  0.151707  0.348425  0.375071  1
  Sc  Sc14  1  0.346348  0.850118  0.625996  1
  Sc  Sc15  1  0.846738  0.650213  0.875904  1
  Sc  Sc16  1  0.180326  0.501383  0.750000  1
  Sc  Sc17  1  0.679321  0.000100  0.750000  1
  Sc  Sc18  1  0.820254  0.498422  0.250000  1
  Sc  Sc19  1  0.319751  0.001008  0.250000  1
  Sn  Sn20  1  0.827379  0.351034  0.750000  1
  Sn  Sn21  1  0.673170  0.849243  0.250000  1
  Sn  Sn22  1  0.173186  0.650324  0.250000  1
  Sb  Sb23  1  0.305416  0.048196  0.046603  1
  Sb  Sb24  1  0.805682  0.450772  0.452684  1
  Sb  Sb25  1  0.695121  0.952308  0.547407  1
  Sb  Sb26  1  0.195294  0.549015  0.952596  1
  Sb  Sb27  1  0.695121  0.952308  0.952593  1
  Sb  Sb28  1  0.195294  0.549015  0.547404  1
  Sb  Sb29  1  0.305416  0.048196  0.453397  1
  Sb  Sb30  1  0.805682  0.450772  0.047316  1
  Sb  Sb31  1  0.545686  0.637068  0.750000  1
  Sb  Sb32  1  0.040966  0.859303  0.750000  1
  Sb  Sb33  1  0.454855  0.364286  0.250000  1
  Sb  Sb34  1  0.955097  0.135343  0.250000  1
  Sb  Sb35  1  0.330466  0.152497  0.750000  1
