# generated using pymatgen
data_Lu7(OsSe)2
_symmetry_space_group_name_H-M   'P 1'
_cell_length_a   8.92386652
_cell_length_b   8.92386762
_cell_length_c   8.92386653
_cell_angle_alpha   155.06640469
_cell_angle_beta   119.52156055
_cell_angle_gamma   66.45006556
_symmetry_Int_Tables_number   1
_chemical_formula_structural   Lu7(OsSe)2
_chemical_formula_sum   'Lu7 Os2 Se2'
_cell_volume   258.51975463
_cell_formula_units_Z   1
loop_
 _symmetry_equiv_pos_site_id
 _symmetry_equiv_pos_as_xyz
  1  'x, y, z'
loop_
 _atom_site_type_symbol
 _atom_site_label
 _atom_site_symmetry_multiplicity
 _atom_site_fract_x
 _atom_site_fract_y
 _atom_site_fract_z
 _atom_site_occupancy
  Lu  Lu0  1  0.612779  0.356578  0.256202  1
  Lu  Lu1  1  0.899624  0.643422  0.256202  1
  Lu  Lu2  1  0.998819  0.000000  0.998819  1
  Lu  Lu3  1  0.544289  0.126917  0.417372  1
  Lu  Lu4  1  0.290456  0.873083  0.417372  1
  Lu  Lu5  1  0.947393  0.316124  0.631270  1
  Lu  Lu6  1  0.315145  0.683876  0.631270  1
  Os  Os7  1  0.167040  0.237156  0.929884  1
  Os  Os8  1  0.692727  0.762844  0.929884  1
  Se  Se9  1  0.261196  0.500000  0.761196  1
  Se  Se10  1  0.661391  0.000000  0.661391  1
