# generated using pymatgen
data_Dy2Tc6Ni6P7
_symmetry_space_group_name_H-M   'P 1'
_cell_length_a   9.36792500
_cell_length_b   9.36792472
_cell_length_c   3.72695600
_cell_angle_alpha   90.00000000
_cell_angle_beta   90.00000000
_cell_angle_gamma   120.00000356
_symmetry_Int_Tables_number   1
_chemical_formula_structural   Dy2Tc6Ni6P7
_chemical_formula_sum   'Dy2 Tc6 Ni6 P7'
_cell_volume   283.25114821
_cell_formula_units_Z   1
loop_
 _symmetry_equiv_pos_site_id
 _symmetry_equiv_pos_as_xyz
  1  'x, y, z'
loop_
 _atom_site_type_symbol
 _atom_site_label
 _atom_site_symmetry_multiplicity
 _atom_site_fract_x
 _atom_site_fract_y
 _atom_site_fract_z
 _atom_site_occupancy
  Dy  Dy0  1  0.666667  0.333333  0.000000  1
  Dy  Dy1  1  0.000000  0.000000  0.500000  1
  Tc  Tc2  1  0.725734  0.102145  0.500000  1
  Tc  Tc3  1  0.897855  0.623590  0.500000  1
  Tc  Tc4  1  0.376410  0.274266  0.500000  1
  Tc  Tc5  1  0.542868  0.752966  0.500000  1
  Tc  Tc6  1  0.247034  0.789902  0.500000  1
  Tc  Tc7  1  0.210098  0.457132  0.500000  1
  Ni  Ni8  1  0.759993  0.731183  0.000000  1
  Ni  Ni9  1  0.268817  0.028810  0.000000  1
  Ni  Ni10  1  0.971190  0.240007  0.000000  1
  Ni  Ni11  1  0.492748  0.942915  0.000000  1
  Ni  Ni12  1  0.057085  0.549833  0.000000  1
  Ni  Ni13  1  0.450167  0.507252  0.000000  1
  P  P14  1  0.454394  0.070812  0.500000  1
  P  P15  1  0.929188  0.383582  0.500000  1
  P  P16  1  0.616418  0.545606  0.500000  1
  P  P17  1  0.333333  0.666667  0.000000  1
  P  P18  1  0.745707  0.962138  0.000000  1
  P  P19  1  0.037862  0.783569  0.000000  1
  P  P20  1  0.216431  0.254293  0.000000  1
