# generated using pymatgen
data_K4Cr3GaF16
_symmetry_space_group_name_H-M   'P 1'
_cell_length_a   7.67128019
_cell_length_b   6.57823114
_cell_length_c   7.85666866
_cell_angle_alpha   72.47777498
_cell_angle_beta   89.98426607
_cell_angle_gamma   89.98834109
_symmetry_Int_Tables_number   1
_chemical_formula_structural   K4Cr3GaF16
_chemical_formula_sum   'K4 Cr3 Ga1 F16'
_cell_volume   378.07829231
_cell_formula_units_Z   1
loop_
 _symmetry_equiv_pos_site_id
 _symmetry_equiv_pos_as_xyz
  1  'x, y, z'
loop_
 _atom_site_type_symbol
 _atom_site_label
 _atom_site_symmetry_multiplicity
 _atom_site_fract_x
 _atom_site_fract_y
 _atom_site_fract_z
 _atom_site_occupancy
  K  K0  1  0.249583  0.540263  0.866904  1
  K  K1  1  0.250346  0.551463  0.363364  1
  K  K2  1  0.750417  0.459737  0.133096  1
  K  K3  1  0.749654  0.448537  0.636636  1
  Cr  Cr4  1  0.500000  0.000000  0.000000  1
  Cr  Cr5  1  0.000000  0.000000  0.500000  1
  Cr  Cr6  1  0.500000  0.000000  0.500000  1
  Ga  Ga7  1  0.000000  0.000000  0.000000  1
  F  F8  1  0.250191  0.068539  0.508381  1
  F  F9  1  0.041142  0.709218  0.068858  1
  F  F10  1  0.454981  0.700156  0.581125  1
  F  F11  1  0.529423  0.004200  0.748815  1
  F  F12  1  0.750363  0.937914  0.039407  1
  F  F13  1  0.457624  0.699700  0.070938  1
  F  F14  1  0.958858  0.290782  0.931142  1
  F  F15  1  0.249637  0.062086  0.960593  1
  F  F16  1  0.545019  0.299844  0.418875  1
  F  F17  1  0.955967  0.300524  0.419213  1
  F  F18  1  0.025249  0.996889  0.250764  1
  F  F19  1  0.470577  0.995800  0.251185  1
  F  F20  1  0.974751  0.003111  0.749236  1
  F  F21  1  0.044033  0.699476  0.580787  1
  F  F22  1  0.542376  0.300300  0.929062  1
  F  F23  1  0.749809  0.931461  0.491619  1
