# generated using pymatgen
data_Tb11In9(CuRh)2
_symmetry_space_group_name_H-M   'P 1'
_cell_length_a   3.68774900
_cell_length_b   13.15771954
_cell_length_c   13.12758961
_cell_angle_alpha   110.76585064
_cell_angle_beta   90.00000000
_cell_angle_gamma   90.00000000
_symmetry_Int_Tables_number   1
_chemical_formula_structural   Tb11In9(CuRh)2
_chemical_formula_sum   'Tb11 In9 Cu2 Rh2'
_cell_volume   595.60158105
_cell_formula_units_Z   1
loop_
 _symmetry_equiv_pos_site_id
 _symmetry_equiv_pos_as_xyz
  1  'x, y, z'
loop_
 _atom_site_type_symbol
 _atom_site_label
 _atom_site_symmetry_multiplicity
 _atom_site_fract_x
 _atom_site_fract_y
 _atom_site_fract_z
 _atom_site_occupancy
  Tb  Tb0  1  0.000000  0.925787  0.579870  1
  Tb  Tb1  1  0.000000  0.074213  0.420130  1
  Tb  Tb2  1  0.000000  0.581329  0.923260  1
  Tb  Tb3  1  0.000000  0.418671  0.076740  1
  Tb  Tb4  1  0.000000  0.158266  0.841314  1
  Tb  Tb5  1  0.000000  0.841734  0.158686  1
  Tb  Tb6  1  0.000000  0.378962  0.633506  1
  Tb  Tb7  1  0.000000  0.621038  0.366494  1
  Tb  Tb8  1  0.000000  0.685046  0.691170  1
  Tb  Tb9  1  0.000000  0.314954  0.308830  1
  Tb  Tb10  1  0.000000  0.000000  0.000000  1
  In  In11  1  0.500000  0.158519  0.633180  1
  In  In12  1  0.500000  0.841481  0.366820  1
  In  In13  1  0.500000  0.633911  0.158543  1
  In  In14  1  0.500000  0.366089  0.841457  1
  In  In15  1  0.500000  0.925976  0.780313  1
  In  In16  1  0.500000  0.074024  0.219687  1
  In  In17  1  0.500000  0.780952  0.923452  1
  In  In18  1  0.500000  0.219048  0.076548  1
  In  In19  1  0.500000  0.500000  0.500000  1
  Cu  Cu20  1  0.500000  0.749993  0.546834  1
  Cu  Cu21  1  0.500000  0.250007  0.453166  1
  Rh  Rh22  1  0.500000  0.549310  0.752442  1
  Rh  Rh23  1  0.500000  0.450690  0.247558  1
