# generated using pymatgen
data_PrUCN
_symmetry_space_group_name_H-M   'P 1'
_cell_length_a   6.23145651
_cell_length_b   6.23145675
_cell_length_c   6.23145665
_cell_angle_alpha   33.37443435
_cell_angle_beta   33.37443451
_cell_angle_gamma   33.37441842
_symmetry_Int_Tables_number   1
_chemical_formula_structural   PrUCN
_chemical_formula_sum   'Pr1 U1 C1 N1'
_cell_volume   65.20448187
_cell_formula_units_Z   1
loop_
 _symmetry_equiv_pos_site_id
 _symmetry_equiv_pos_as_xyz
  1  'x, y, z'
loop_
 _atom_site_type_symbol
 _atom_site_label
 _atom_site_symmetry_multiplicity
 _atom_site_fract_x
 _atom_site_fract_y
 _atom_site_fract_z
 _atom_site_occupancy
  Pr  Pr0  1  0.000704  0.000704  0.000704  1
  U  U1  1  0.498998  0.498998  0.498998  1
  C  C2  1  0.231031  0.231031  0.231031  1
  N  N3  1  0.769267  0.769267  0.769267  1
