# generated using pymatgen
data_RbHg2Cl5
_symmetry_space_group_name_H-M   'P 1'
_cell_length_a   6.01928200
_cell_length_b   8.44233727
_cell_length_c   11.00965237
_cell_angle_alpha   71.05364644
_cell_angle_beta   90.00000000
_cell_angle_gamma   90.00000000
_symmetry_Int_Tables_number   1
_chemical_formula_structural   RbHg2Cl5
_chemical_formula_sum   'Rb2 Hg4 Cl10'
_cell_volume   529.16469640
_cell_formula_units_Z   2
loop_
 _symmetry_equiv_pos_site_id
 _symmetry_equiv_pos_as_xyz
  1  'x, y, z'
loop_
 _atom_site_type_symbol
 _atom_site_label
 _atom_site_symmetry_multiplicity
 _atom_site_fract_x
 _atom_site_fract_y
 _atom_site_fract_z
 _atom_site_occupancy
  Rb  Rb0  1  0.250000  0.551221  0.741871  1
  Rb  Rb1  1  0.750000  0.448779  0.258129  1
  Hg  Hg2  1  0.750000  0.955894  0.860141  1
  Hg  Hg3  1  0.750000  0.866026  0.441522  1
  Hg  Hg4  1  0.250000  0.044106  0.139859  1
  Hg  Hg5  1  0.250000  0.133974  0.558478  1
  Cl  Cl6  1  0.250000  0.958296  0.785432  1
  Cl  Cl7  1  0.750000  0.041704  0.214568  1
  Cl  Cl8  1  0.250000  0.420709  0.423601  1
  Cl  Cl9  1  0.750000  0.231427  0.863588  1
  Cl  Cl10  1  0.750000  0.579291  0.576399  1
  Cl  Cl11  1  0.750000  0.664060  0.904241  1
  Cl  Cl12  1  0.250000  0.768573  0.136412  1
  Cl  Cl13  1  0.250000  0.901979  0.445280  1
  Cl  Cl14  1  0.250000  0.335940  0.095759  1
  Cl  Cl15  1  0.750000  0.098021  0.554720  1
