# generated using pymatgen
data_Li3La2PaPt3
_symmetry_space_group_name_H-M   'P 1'
_cell_length_a   7.32121345
_cell_length_b   7.32121276
_cell_length_c   4.10148100
_cell_angle_alpha   90.00000000
_cell_angle_beta   90.00000000
_cell_angle_gamma   118.76444750
_symmetry_Int_Tables_number   1
_chemical_formula_structural   Li3La2PaPt3
_chemical_formula_sum   'Li3 La2 Pa1 Pt3'
_cell_volume   192.71297866
_cell_formula_units_Z   1
loop_
 _symmetry_equiv_pos_site_id
 _symmetry_equiv_pos_as_xyz
  1  'x, y, z'
loop_
 _atom_site_type_symbol
 _atom_site_label
 _atom_site_symmetry_multiplicity
 _atom_site_fract_x
 _atom_site_fract_y
 _atom_site_fract_z
 _atom_site_occupancy
  Li  Li0  1  0.770179  0.770179  0.000000  1
  Li  Li1  1  0.236405  0.002460  0.000000  1
  Li  Li2  1  0.002460  0.236405  0.000000  1
  La  La3  1  0.997798  0.594099  0.500000  1
  La  La4  1  0.594099  0.997798  0.500000  1
  Pa  Pa5  1  0.403105  0.403105  0.500000  1
  Pt  Pt6  1  0.635898  0.333432  0.000000  1
  Pt  Pt7  1  0.333432  0.635898  0.000000  1
  Pt  Pt8  1  0.026627  0.026627  0.500000  1
