# generated using pymatgen
data_Ca3Pr5(FeO3)8
_symmetry_space_group_name_H-M   'P 1'
_cell_length_a   5.57751142
_cell_length_b   7.82125646
_cell_length_c   10.94479185
_cell_angle_alpha   90.02185953
_cell_angle_beta   90.10848332
_cell_angle_gamma   90.00402680
_symmetry_Int_Tables_number   1
_chemical_formula_structural   Ca3Pr5(FeO3)8
_chemical_formula_sum   'Ca3 Pr5 Fe8 O24'
_cell_volume   477.44537421
_cell_formula_units_Z   1
loop_
 _symmetry_equiv_pos_site_id
 _symmetry_equiv_pos_as_xyz
  1  'x, y, z'
loop_
 _atom_site_type_symbol
 _atom_site_label
 _atom_site_symmetry_multiplicity
 _atom_site_fract_x
 _atom_site_fract_y
 _atom_site_fract_z
 _atom_site_occupancy
  Ca  Ca0  1  0.546066  0.250070  0.745985  1
  Ca  Ca1  1  0.546665  0.249910  0.242723  1
  Ca  Ca2  1  0.951504  0.749910  0.994401  1
  Pr  Pr3  1  0.046333  0.249952  0.505041  1
  Pr  Pr4  1  0.044337  0.250081  0.005714  1
  Pr  Pr5  1  0.453462  0.749963  0.759622  1
  Pr  Pr6  1  0.456960  0.750022  0.251205  1
  Pr  Pr7  1  0.955953  0.749960  0.495631  1
  Fe  Fe8  1  0.998111  0.002180  0.752579  1
  Fe  Fe9  1  0.998205  0.000870  0.247806  1
  Fe  Fe10  1  0.998177  0.499131  0.247803  1
  Fe  Fe11  1  0.501714  0.498255  0.999860  1
  Fe  Fe12  1  0.501616  0.001718  0.999856  1
  Fe  Fe13  1  0.501711  0.496788  0.500769  1
  Fe  Fe14  1  0.998152  0.497833  0.752551  1
  Fe  Fe15  1  0.501701  0.003342  0.500777  1
  O  O16  1  0.018515  0.749992  0.711783  1
  O  O17  1  0.020931  0.750057  0.208974  1
  O  O18  1  0.208764  0.542888  0.895882  1
  O  O19  1  0.212503  0.956640  0.393293  1
  O  O20  1  0.208809  0.957111  0.895930  1
  O  O21  1  0.212589  0.543127  0.393380  1
  O  O22  1  0.288922  0.044412  0.644706  1
  O  O23  1  0.289481  0.455663  0.644678  1
  O  O24  1  0.290417  0.044153  0.144428  1
  O  O25  1  0.290123  0.455605  0.144475  1
  O  O26  1  0.478574  0.250144  0.958389  1
  O  O27  1  0.481433  0.249837  0.456905  1
  O  O28  1  0.514661  0.750171  0.542709  1
  O  O29  1  0.521861  0.749705  0.036985  1
  O  O30  1  0.709088  0.540806  0.855309  1
  O  O31  1  0.709020  0.959450  0.855338  1
  O  O32  1  0.715208  0.549601  0.358168  1
  O  O33  1  0.715411  0.950401  0.358112  1
  O  O34  1  0.795656  0.038246  0.603066  1
  O  O35  1  0.795407  0.462041  0.603111  1
  O  O36  1  0.786225  0.042592  0.105939  1
  O  O37  1  0.786372  0.457331  0.105960  1
  O  O38  1  0.974364  0.249973  0.790398  1
  O  O39  1  0.974996  0.250071  0.289762  1
