# generated using pymatgen
data_Rb3P2AuSe8
_symmetry_space_group_name_H-M   'P 1'
_cell_length_a   7.51369563
_cell_length_b   7.51369490
_cell_length_c   19.60429653
_cell_angle_alpha   86.37082418
_cell_angle_beta   86.37082452
_cell_angle_gamma   120.72103397
_symmetry_Int_Tables_number   1
_chemical_formula_structural   Rb3P2AuSe8
_chemical_formula_sum   'Rb6 P4 Au2 Se16'
_cell_volume   943.62760160
_cell_formula_units_Z   2
loop_
 _symmetry_equiv_pos_site_id
 _symmetry_equiv_pos_as_xyz
  1  'x, y, z'
loop_
 _atom_site_type_symbol
 _atom_site_label
 _atom_site_symmetry_multiplicity
 _atom_site_fract_x
 _atom_site_fract_y
 _atom_site_fract_z
 _atom_site_occupancy
  Rb  Rb0  1  0.498532  0.361022  0.106030  1
  Rb  Rb1  1  0.361022  0.498532  0.606030  1
  Rb  Rb2  1  0.895787  0.686519  0.753481  1
  Rb  Rb3  1  0.686519  0.895787  0.253481  1
  Rb  Rb4  1  0.582972  0.032379  0.897908  1
  Rb  Rb5  1  0.032379  0.582972  0.397908  1
  P  P6  1  0.303869  0.431054  0.880585  1
  P  P7  1  0.431054  0.303869  0.380585  1
  P  P8  1  0.215434  0.680930  0.120611  1
  P  P9  1  0.680930  0.215434  0.620611  1
  Au  Au10  1  0.058767  0.954519  0.999041  1
  Au  Au11  1  0.954519  0.058767  0.499041  1
  Se  Se12  1  0.494409  0.162021  0.717984  1
  Se  Se13  1  0.162021  0.494409  0.217984  1
  Se  Se14  1  0.090528  0.081803  0.878239  1
  Se  Se15  1  0.081803  0.090528  0.378239  1
  Se  Se16  1  0.334936  0.616336  0.785336  1
  Se  Se17  1  0.616336  0.334936  0.285336  1
  Se  Se18  1  0.594801  0.512839  0.921769  1
  Se  Se19  1  0.512839  0.594801  0.421769  1
  Se  Se20  1  0.104319  0.536943  0.941749  1
  Se  Se21  1  0.536943  0.104319  0.441749  1
  Se  Se22  1  0.054650  0.395269  0.058509  1
  Se  Se23  1  0.395269  0.054650  0.558509  1
  Se  Se24  1  0.538639  0.904681  0.082266  1
  Se  Se25  1  0.904681  0.538639  0.582266  1
  Se  Se26  1  0.010221  0.822607  0.120192  1
  Se  Se27  1  0.822607  0.010221  0.620192  1
