# generated using pymatgen
data_Dy7Tm7Th2(CdNi)4
_symmetry_space_group_name_H-M   'P 1'
_cell_length_a   9.52214834
_cell_length_b   9.52214807
_cell_length_c   9.51785600
_cell_angle_alpha   60.01490942
_cell_angle_beta   60.01491038
_cell_angle_gamma   59.96397228
_symmetry_Int_Tables_number   1
_chemical_formula_structural   Dy7Tm7Th2(CdNi)4
_chemical_formula_sum   'Dy7 Tm7 Th2 Cd4 Ni4'
_cell_volume   610.20168166
_cell_formula_units_Z   1
loop_
 _symmetry_equiv_pos_site_id
 _symmetry_equiv_pos_as_xyz
  1  'x, y, z'
loop_
 _atom_site_type_symbol
 _atom_site_label
 _atom_site_symmetry_multiplicity
 _atom_site_fract_x
 _atom_site_fract_y
 _atom_site_fract_z
 _atom_site_occupancy
  Dy  Dy0  1  0.063533  0.063533  0.436467  1
  Dy  Dy1  1  0.187176  0.813669  0.815868  1
  Dy  Dy2  1  0.813669  0.187176  0.183286  1
  Dy  Dy3  1  0.813669  0.187176  0.815868  1
  Dy  Dy4  1  0.187176  0.813669  0.183286  1
  Dy  Dy5  1  0.814199  0.814199  0.185801  1
  Dy  Dy6  1  0.186577  0.186577  0.813423  1
  Tm  Tm7  1  0.597966  0.200307  0.600864  1
  Tm  Tm8  1  0.200307  0.597966  0.600864  1
  Tm  Tm9  1  0.063512  0.439739  0.436239  1
  Tm  Tm10  1  0.439739  0.063512  0.060511  1
  Tm  Tm11  1  0.439739  0.063512  0.436239  1
  Tm  Tm12  1  0.063512  0.439739  0.060511  1
  Tm  Tm13  1  0.436514  0.436514  0.063486  1
  Th  Th14  1  0.593482  0.593482  0.601334  1
  Th  Th15  1  0.593482  0.593482  0.211703  1
  Cd  Cd16  1  0.832633  0.832633  0.829391  1
  Cd  Cd17  1  0.832633  0.832633  0.505343  1
  Cd  Cd18  1  0.834219  0.505472  0.830155  1
  Cd  Cd19  1  0.505472  0.834219  0.830155  1
  Ni  Ni20  1  0.392225  0.392225  0.392851  1
  Ni  Ni21  1  0.392225  0.392225  0.822700  1
  Ni  Ni22  1  0.394797  0.821550  0.391827  1
  Ni  Ni23  1  0.821550  0.394797  0.391827  1
