# generated using pymatgen
data_Ho4Tm3Th3(Al2Ru3)2
_symmetry_space_group_name_H-M   'P 1'
_cell_length_a   8.38238249
_cell_length_b   8.38238201
_cell_length_c   8.38238242
_cell_angle_alpha   109.60437125
_cell_angle_beta   109.60437403
_cell_angle_gamma   109.60437361
_symmetry_Int_Tables_number   1
_chemical_formula_structural   Ho4Tm3Th3(Al2Ru3)2
_chemical_formula_sum   'Ho4 Tm3 Th3 Al4 Ru6'
_cell_volume   451.14991949
_cell_formula_units_Z   1
loop_
 _symmetry_equiv_pos_site_id
 _symmetry_equiv_pos_as_xyz
  1  'x, y, z'
loop_
 _atom_site_type_symbol
 _atom_site_label
 _atom_site_symmetry_multiplicity
 _atom_site_fract_x
 _atom_site_fract_y
 _atom_site_fract_z
 _atom_site_occupancy
  Ho  Ho0  1  0.779401  0.779401  0.779401  1
  Ho  Ho1  1  0.314539  0.567295  0.748561  1
  Ho  Ho2  1  0.748561  0.314539  0.567295  1
  Ho  Ho3  1  0.567295  0.748561  0.314539  1
  Tm  Tm4  1  0.716081  0.503874  0.996136  1
  Tm  Tm5  1  0.996136  0.716081  0.503874  1
  Tm  Tm6  1  0.503874  0.996136  0.716081  1
  Th  Th7  1  0.253640  0.192927  0.939914  1
  Th  Th8  1  0.939914  0.253640  0.192927  1
  Th  Th9  1  0.192927  0.939914  0.253640  1
  Al  Al10  1  0.414486  0.414486  0.414486  1
  Al  Al11  1  0.092731  0.500267  0.996913  1
  Al  Al12  1  0.996913  0.092731  0.500267  1
  Al  Al13  1  0.500267  0.996913  0.092731  1
  Ru  Ru14  1  0.886124  0.121462  0.753931  1
  Ru  Ru15  1  0.753931  0.886124  0.121462  1
  Ru  Ru16  1  0.121462  0.753931  0.886124  1
  Ru  Ru17  1  0.237505  0.614722  0.369487  1
  Ru  Ru18  1  0.369487  0.237505  0.614722  1
  Ru  Ru19  1  0.614722  0.369487  0.237505  1
