# generated using pymatgen
data_Pr4TmCo19(Si3P)3
_symmetry_space_group_name_H-M   'P 1'
_cell_length_a   12.21979493
_cell_length_b   12.20789235
_cell_length_c   3.74076800
_cell_angle_alpha   90.00000000
_cell_angle_beta   90.00000000
_cell_angle_gamma   119.96778253
_symmetry_Int_Tables_number   1
_chemical_formula_structural   Pr4TmCo19(Si3P)3
_chemical_formula_sum   'Pr4 Tm1 Co19 Si9 P3'
_cell_volume   483.43369213
_cell_formula_units_Z   1
loop_
 _symmetry_equiv_pos_site_id
 _symmetry_equiv_pos_as_xyz
  1  'x, y, z'
loop_
 _atom_site_type_symbol
 _atom_site_label
 _atom_site_symmetry_multiplicity
 _atom_site_fract_x
 _atom_site_fract_y
 _atom_site_fract_z
 _atom_site_occupancy
  Pr  Pr0  1  0.664791  0.332302  0.000000  1
  Pr  Pr1  1  0.335209  0.667513  0.000000  1
  Pr  Pr2  1  0.184716  0.184099  0.500000  1
  Pr  Pr3  1  0.815284  0.999383  0.500000  1
  Tm  Tm4  1  0.000000  0.812879  0.500000  1
  Co  Co5  1  0.823815  0.199358  0.000000  1
  Co  Co6  1  0.805614  0.627912  0.000000  1
  Co  Co7  1  0.371169  0.173120  0.000000  1
  Co  Co8  1  0.194386  0.822300  0.000000  1
  Co  Co9  1  0.628831  0.801953  0.000000  1
  Co  Co10  1  0.176185  0.375546  0.000000  1
  Co  Co11  1  0.561461  0.559807  0.000000  1
  Co  Co12  1  0.438539  0.998346  0.000000  1
  Co  Co13  1  0.000000  0.442800  0.000000  1
  Co  Co14  1  0.642385  0.122199  0.500000  1
  Co  Co15  1  0.878951  0.523880  0.500000  1
  Co  Co16  1  0.478185  0.356274  0.500000  1
  Co  Co17  1  0.121049  0.644928  0.500000  1
  Co  Co18  1  0.521815  0.878088  0.500000  1
  Co  Co19  1  0.357615  0.479812  0.500000  1
  Co  Co20  1  0.726034  0.722386  0.500000  1
  Co  Co21  1  0.273966  0.996352  0.500000  1
  Co  Co22  1  0.000000  0.280021  0.500000  1
  Co  Co23  1  0.000000  0.997709  0.000000  1
  Si  Si24  1  0.374366  0.374515  0.000000  1
  Si  Si25  1  0.625634  0.000149  0.000000  1
  Si  Si26  1  0.000000  0.629932  0.000000  1
  Si  Si27  1  0.842721  0.319725  0.500000  1
  Si  Si28  1  0.682991  0.524577  0.500000  1
  Si  Si29  1  0.471918  0.155057  0.500000  1
  Si  Si30  1  0.317009  0.841586  0.500000  1
  Si  Si31  1  0.528082  0.683138  0.500000  1
  Si  Si32  1  0.157279  0.477004  0.500000  1
  P  P33  1  0.820926  0.815182  0.000000  1
  P  P34  1  0.179074  0.994256  0.000000  1
  P  P35  1  0.000000  0.185912  0.000000  1
