# generated using pymatgen
data_Sr3Yb3(ErGe2)4
_symmetry_space_group_name_H-M   'P 1'
_cell_length_a   7.54211800
_cell_length_b   7.99077353
_cell_length_c   15.39517491
_cell_angle_alpha   90.26507972
_cell_angle_beta   90.00000000
_cell_angle_gamma   90.00000000
_symmetry_Int_Tables_number   1
_chemical_formula_structural   Sr3Yb3(ErGe2)4
_chemical_formula_sum   'Sr6 Yb6 Er8 Ge16'
_cell_volume   927.81657014
_cell_formula_units_Z   2
loop_
 _symmetry_equiv_pos_site_id
 _symmetry_equiv_pos_as_xyz
  1  'x, y, z'
loop_
 _atom_site_type_symbol
 _atom_site_label
 _atom_site_symmetry_multiplicity
 _atom_site_fract_x
 _atom_site_fract_y
 _atom_site_fract_z
 _atom_site_occupancy
  Sr  Sr0  1  0.984023  0.819615  0.403841  1
  Sr  Sr1  1  0.484023  0.680385  0.096159  1
  Sr  Sr2  1  0.515921  0.320895  0.593125  1
  Sr  Sr3  1  0.015921  0.179105  0.906875  1
  Sr  Sr4  1  0.017440  0.178429  0.594553  1
  Sr  Sr5  1  0.517440  0.321571  0.905447  1
  Yb  Yb6  1  0.480858  0.685880  0.402134  1
  Yb  Yb7  1  0.980858  0.814120  0.097866  1
  Yb  Yb8  1  0.344536  0.014937  0.750043  1
  Yb  Yb9  1  0.844536  0.485063  0.749957  1
  Yb  Yb10  1  0.155557  0.517219  0.250436  1
  Yb  Yb11  1  0.655557  0.982781  0.249564  1
  Er  Er12  1  0.318753  0.172243  0.121889  1
  Er  Er13  1  0.818753  0.327757  0.378111  1
  Er  Er14  1  0.178489  0.675701  0.879584  1
  Er  Er15  1  0.678489  0.824299  0.620416  1
  Er  Er16  1  0.320402  0.172324  0.376366  1
  Er  Er17  1  0.820402  0.327676  0.123634  1
  Er  Er18  1  0.181095  0.673152  0.621222  1
  Er  Er19  1  0.681095  0.826848  0.878778  1
  Ge  Ge20  1  0.851693  0.538973  0.538439  1
  Ge  Ge21  1  0.351693  0.961027  0.961561  1
  Ge  Ge22  1  0.647642  0.033129  0.457488  1
  Ge  Ge23  1  0.147642  0.466871  0.042512  1
  Ge  Ge24  1  0.156709  0.463379  0.458176  1
  Ge  Ge25  1  0.656709  0.036621  0.041824  1
  Ge  Ge26  1  0.351149  0.954650  0.536031  1
  Ge  Ge27  1  0.851149  0.545350  0.963969  1
  Ge  Ge28  1  0.973425  0.869814  0.749729  1
  Ge  Ge29  1  0.473425  0.630186  0.750271  1
  Ge  Ge30  1  0.524566  0.372795  0.251181  1
  Ge  Ge31  1  0.024566  0.127205  0.248819  1
  Ge  Ge32  1  0.232380  0.396680  0.750354  1
  Ge  Ge33  1  0.732380  0.103320  0.749646  1
  Ge  Ge34  1  0.265361  0.892746  0.247792  1
  Ge  Ge35  1  0.765361  0.607254  0.252208  1
