# generated using pymatgen
data_DyHo3(Co3Si5)2
_symmetry_space_group_name_H-M   'P 1'
_cell_length_a   7.82394589
_cell_length_b   7.82432135
_cell_length_c   5.49163515
_cell_angle_alpha   70.71556674
_cell_angle_beta   70.72883002
_cell_angle_gamma   93.29550042
_symmetry_Int_Tables_number   1
_chemical_formula_structural   DyHo3(Co3Si5)2
_chemical_formula_sum   'Dy1 Ho3 Co6 Si10'
_cell_volume   294.26324861
_cell_formula_units_Z   1
loop_
 _symmetry_equiv_pos_site_id
 _symmetry_equiv_pos_as_xyz
  1  'x, y, z'
loop_
 _atom_site_type_symbol
 _atom_site_label
 _atom_site_symmetry_multiplicity
 _atom_site_fract_x
 _atom_site_fract_y
 _atom_site_fract_z
 _atom_site_occupancy
  Dy  Dy0  1  0.597861  0.869372  0.263827  1
  Ho  Ho1  1  0.869335  0.597860  0.763860  1
  Ho  Ho2  1  0.402100  0.130150  0.736420  1
  Ho  Ho3  1  0.130443  0.402439  0.235990  1
  Co  Co4  1  0.538463  0.261937  0.125808  1
  Co  Co5  1  0.997047  0.003454  0.249835  1
  Co  Co6  1  0.261615  0.538242  0.626203  1
  Co  Co7  1  0.461157  0.737892  0.874610  1
  Co  Co8  1  0.738329  0.461475  0.374041  1
  Co  Co9  1  0.003532  0.996919  0.749844  1
  Si  Si10  1  0.770526  0.229822  0.749760  1
  Si  Si11  1  0.229140  0.770438  0.250385  1
  Si  Si12  1  0.511143  0.488558  0.749907  1
  Si  Si13  1  0.488550  0.510610  0.250652  1
  Si  Si14  1  0.214749  0.785213  0.749526  1
  Si  Si15  1  0.785399  0.215093  0.249816  1
  Si  Si16  1  0.063927  0.261915  0.834987  1
  Si  Si17  1  0.261806  0.064218  0.334989  1
  Si  Si18  1  0.936535  0.738091  0.164734  1
  Si  Si19  1  0.738343  0.936300  0.664806  1
