# generated using pymatgen
data_Gd7Ho(Tm3Pb4)4
_symmetry_space_group_name_H-M   'P 1'
_cell_length_a   8.23166418
_cell_length_b   8.32584964
_cell_length_c   15.67077800
_cell_angle_alpha   90.06209335
_cell_angle_beta   90.26217182
_cell_angle_gamma   89.66420147
_symmetry_Int_Tables_number   1
_chemical_formula_structural   Gd7Ho(Tm3Pb4)4
_chemical_formula_sum   'Gd7 Ho1 Tm12 Pb16'
_cell_volume   1073.97585629
_cell_formula_units_Z   1
loop_
 _symmetry_equiv_pos_site_id
 _symmetry_equiv_pos_as_xyz
  1  'x, y, z'
loop_
 _atom_site_type_symbol
 _atom_site_label
 _atom_site_symmetry_multiplicity
 _atom_site_fract_x
 _atom_site_fract_y
 _atom_site_fract_z
 _atom_site_occupancy
  Gd  Gd0  1  0.971141  0.821835  0.901599  1
  Gd  Gd1  1  0.528013  0.322318  0.097022  1
  Gd  Gd2  1  0.030556  0.178555  0.403199  1
  Gd  Gd3  1  0.529665  0.323868  0.403124  1
  Gd  Gd4  1  0.027913  0.178667  0.096624  1
  Gd  Gd5  1  0.471961  0.677290  0.902575  1
  Gd  Gd6  1  0.969936  0.821554  0.597677  1
  Ho  Ho7  1  0.703354  0.995882  0.250164  1
  Tm  Tm8  1  0.630289  0.156637  0.622253  1
  Tm  Tm9  1  0.132811  0.343098  0.877144  1
  Tm  Tm10  1  0.368253  0.842706  0.122761  1
  Tm  Tm11  1  0.870245  0.657298  0.379294  1
  Tm  Tm12  1  0.371357  0.842437  0.379000  1
  Tm  Tm13  1  0.868012  0.656650  0.122152  1
  Tm  Tm14  1  0.631672  0.156617  0.875773  1
  Tm  Tm15  1  0.129889  0.343529  0.621640  1
  Tm  Tm16  1  0.465754  0.675600  0.599444  1
  Tm  Tm17  1  0.797150  0.495634  0.749113  1
  Tm  Tm18  1  0.297783  0.003946  0.748913  1
  Tm  Tm19  1  0.203562  0.504722  0.250833  1
  Pb  Pb20  1  0.711697  0.963395  0.456919  1
  Pb  Pb21  1  0.209719  0.540110  0.043130  1
  Pb  Pb22  1  0.290797  0.038040  0.955877  1
  Pb  Pb23  1  0.784344  0.464875  0.544324  1
  Pb  Pb24  1  0.289732  0.036198  0.543856  1
  Pb  Pb25  1  0.790676  0.459305  0.956320  1
  Pb  Pb26  1  0.708962  0.960581  0.042426  1
  Pb  Pb27  1  0.213122  0.540506  0.458463  1
  Pb  Pb28  1  0.436013  0.373022  0.748904  1
  Pb  Pb29  1  0.937174  0.128166  0.749311  1
  Pb  Pb30  1  0.564446  0.626974  0.250782  1
  Pb  Pb31  1  0.064746  0.871153  0.251071  1
  Pb  Pb32  1  0.655999  0.844483  0.748029  1
  Pb  Pb33  1  0.159822  0.653136  0.749490  1
  Pb  Pb34  1  0.341550  0.153115  0.250355  1
  Pb  Pb35  1  0.841883  0.348100  0.250441  1
