# generated using pymatgen
data_Ba5Tb6Sm2Mn4O21
_symmetry_space_group_name_H-M   'P 1'
_cell_length_a   10.38213500
_cell_length_b   10.38214378
_cell_length_c   10.42276096
_cell_angle_alpha   94.54537645
_cell_angle_beta   94.48548289
_cell_angle_gamma   147.34449191
_symmetry_Int_Tables_number   1
_chemical_formula_structural   Ba5Tb6Sm2Mn4O21
_chemical_formula_sum   'Ba5 Tb6 Sm2 Mn4 O21'
_cell_volume   581.94757789
_cell_formula_units_Z   1
loop_
 _symmetry_equiv_pos_site_id
 _symmetry_equiv_pos_as_xyz
  1  'x, y, z'
loop_
 _atom_site_type_symbol
 _atom_site_label
 _atom_site_symmetry_multiplicity
 _atom_site_fract_x
 _atom_site_fract_y
 _atom_site_fract_z
 _atom_site_occupancy
  Ba  Ba0  1  0.000000  0.000000  0.000000  1
  Ba  Ba1  1  0.139068  0.533055  0.672129  1
  Ba  Ba2  1  0.860932  0.466945  0.327871  1
  Ba  Ba3  1  0.467679  0.138185  0.605865  1
  Ba  Ba4  1  0.532321  0.861815  0.394135  1
  Tb  Tb5  1  0.752085  0.170408  0.922480  1
  Tb  Tb6  1  0.247915  0.829592  0.077520  1
  Tb  Tb7  1  0.359759  0.411804  0.771576  1
  Tb  Tb8  1  0.640241  0.588196  0.228424  1
  Tb  Tb9  1  0.589772  0.358629  0.948395  1
  Tb  Tb10  1  0.410228  0.641371  0.051605  1
  Sm  Sm11  1  0.168833  0.247996  0.416844  1
  Sm  Sm12  1  0.831167  0.752004  0.583156  1
  Mn  Mn13  1  0.248732  0.038670  0.287341  1
  Mn  Mn14  1  0.751268  0.961330  0.712659  1
  Mn  Mn15  1  0.958543  0.248786  0.207334  1
  Mn  Mn16  1  0.041457  0.751214  0.792666  1
  O  O17  1  0.500000  0.500000  0.000000  1
  O  O18  1  0.964705  0.625926  0.590634  1
  O  O19  1  0.035295  0.374074  0.409366  1
  O  O20  1  0.373818  0.961820  0.335640  1
  O  O21  1  0.626182  0.038180  0.664360  1
  O  O22  1  0.298967  0.429803  0.222931  1
  O  O23  1  0.206872  0.076037  0.777068  1
  O  O24  1  0.073558  0.299613  0.871198  1
  O  O25  1  0.428419  0.202363  0.128799  1
  O  O26  1  0.701033  0.570197  0.777069  1
  O  O27  1  0.793128  0.923963  0.222932  1
  O  O28  1  0.926442  0.700387  0.128802  1
  O  O29  1  0.571581  0.797637  0.871201  1
  O  O30  1  0.492618  0.601525  0.597513  1
  O  O31  1  0.004014  0.895105  0.402483  1
  O  O32  1  0.899536  0.493256  0.893685  1
  O  O33  1  0.599572  0.005854  0.106315  1
  O  O34  1  0.507382  0.398475  0.402487  1
  O  O35  1  0.995986  0.104895  0.597517  1
  O  O36  1  0.100464  0.506744  0.106315  1
  O  O37  1  0.400428  0.994146  0.893685  1
