# generated using pymatgen
data_Yb5Ag4
_symmetry_space_group_name_H-M   'P 1'
_cell_length_a   7.90682700
_cell_length_b   15.28485500
_cell_length_c   8.05021400
_cell_angle_alpha   90.00000000
_cell_angle_beta   90.00000000
_cell_angle_gamma   90.00000000
_symmetry_Int_Tables_number   1
_chemical_formula_structural   Yb5Ag4
_chemical_formula_sum   'Yb20 Ag16'
_cell_volume   972.90623176
_cell_formula_units_Z   4
loop_
 _symmetry_equiv_pos_site_id
 _symmetry_equiv_pos_as_xyz
  1  'x, y, z'
loop_
 _atom_site_type_symbol
 _atom_site_label
 _atom_site_symmetry_multiplicity
 _atom_site_fract_x
 _atom_site_fract_y
 _atom_site_fract_z
 _atom_site_occupancy
  Yb  Yb0  1  0.682561  0.750000  0.009420  1
  Yb  Yb1  1  0.654300  0.122694  0.167761  1
  Yb  Yb2  1  0.654300  0.377306  0.167761  1
  Yb  Yb3  1  0.005112  0.595486  0.177542  1
  Yb  Yb4  1  0.005112  0.904514  0.177542  1
  Yb  Yb5  1  0.505112  0.595486  0.322458  1
  Yb  Yb6  1  0.505112  0.904514  0.322458  1
  Yb  Yb7  1  0.154300  0.122694  0.332239  1
  Yb  Yb8  1  0.154300  0.377306  0.332239  1
  Yb  Yb9  1  0.182561  0.750000  0.490580  1
  Yb  Yb10  1  0.817439  0.250000  0.509421  1
  Yb  Yb11  1  0.845699  0.622694  0.667761  1
  Yb  Yb12  1  0.845699  0.877306  0.667761  1
  Yb  Yb13  1  0.494888  0.095487  0.677543  1
  Yb  Yb14  1  0.494888  0.404513  0.677543  1
  Yb  Yb15  1  0.994889  0.095487  0.822457  1
  Yb  Yb16  1  0.994889  0.404513  0.822457  1
  Yb  Yb17  1  0.345700  0.622694  0.832239  1
  Yb  Yb18  1  0.345700  0.877306  0.832239  1
  Yb  Yb19  1  0.317439  0.250000  0.990581  1
  Ag  Ag20  1  0.324240  0.040999  0.033520  1
  Ag  Ag21  1  0.324240  0.459001  0.033520  1
  Ag  Ag22  1  0.950239  0.250000  0.112507  1
  Ag  Ag23  1  0.307291  0.750000  0.136289  1
  Ag  Ag24  1  0.807291  0.750000  0.363711  1
  Ag  Ag25  1  0.450239  0.250000  0.387494  1
  Ag  Ag26  1  0.824240  0.040999  0.466480  1
  Ag  Ag27  1  0.824240  0.459001  0.466480  1
  Ag  Ag28  1  0.175760  0.540999  0.533521  1
  Ag  Ag29  1  0.175760  0.959001  0.533521  1
  Ag  Ag30  1  0.549762  0.750000  0.612507  1
  Ag  Ag31  1  0.192709  0.250000  0.636288  1
  Ag  Ag32  1  0.692709  0.250000  0.863712  1
  Ag  Ag33  1  0.049762  0.750000  0.887493  1
  Ag  Ag34  1  0.675760  0.540999  0.966481  1
  Ag  Ag35  1  0.675760  0.959001  0.966481  1
