# generated using pymatgen
data_Yb3Zn2Ni7
_symmetry_space_group_name_H-M   'P 1'
_cell_length_a   8.46473029
_cell_length_b   8.46473063
_cell_length_c   8.46473033
_cell_angle_alpha   34.57007490
_cell_angle_beta   34.57006900
_cell_angle_gamma   34.57007576
_symmetry_Int_Tables_number   1
_chemical_formula_structural   Yb3Zn2Ni7
_chemical_formula_sum   'Yb3 Zn2 Ni7'
_cell_volume   174.22691538
_cell_formula_units_Z   1
loop_
 _symmetry_equiv_pos_site_id
 _symmetry_equiv_pos_as_xyz
  1  'x, y, z'
loop_
 _atom_site_type_symbol
 _atom_site_label
 _atom_site_symmetry_multiplicity
 _atom_site_fract_x
 _atom_site_fract_y
 _atom_site_fract_z
 _atom_site_occupancy
  Yb  Yb0  1  0.359910  0.359910  0.359910  1
  Yb  Yb1  1  0.500000  0.500000  0.500000  1
  Yb  Yb2  1  0.640090  0.640090  0.640090  1
  Zn  Zn3  1  0.166386  0.166386  0.166386  1
  Zn  Zn4  1  0.833614  0.833614  0.833614  1
  Ni  Ni5  1  0.000000  0.000000  0.000000  1
  Ni  Ni6  1  0.084240  0.582620  0.084239  1
  Ni  Ni7  1  0.582620  0.084240  0.084239  1
  Ni  Ni8  1  0.915760  0.915760  0.417381  1
  Ni  Ni9  1  0.084240  0.084240  0.582619  1
  Ni  Ni10  1  0.417380  0.915760  0.915761  1
  Ni  Ni11  1  0.915760  0.417380  0.915761  1
