# generated using pymatgen
data_K2Li2PdO4
_symmetry_space_group_name_H-M   'P 1'
_cell_length_a   6.03776967
_cell_length_b   6.03776980
_cell_length_c   5.97732100
_cell_angle_alpha   109.81474028
_cell_angle_beta   109.81474071
_cell_angle_gamma   31.53751650
_symmetry_Int_Tables_number   1
_chemical_formula_structural   K2Li2PdO4
_chemical_formula_sum   'K2 Li2 Pd1 O4'
_cell_volume   106.67020997
_cell_formula_units_Z   1
loop_
 _symmetry_equiv_pos_site_id
 _symmetry_equiv_pos_as_xyz
  1  'x, y, z'
loop_
 _atom_site_type_symbol
 _atom_site_label
 _atom_site_symmetry_multiplicity
 _atom_site_fract_x
 _atom_site_fract_y
 _atom_site_fract_z
 _atom_site_occupancy
  K  K0  1  0.861249  0.861249  0.446225  1
  K  K1  1  0.138751  0.138751  0.553776  1
  Li  Li2  1  0.321424  0.321424  0.001908  1
  Li  Li3  1  0.678576  0.678576  0.998093  1
  Pd  Pd4  1  0.000000  0.000000  0.000000  1
  O  O5  1  0.190880  0.190880  0.149315  1
  O  O6  1  0.488202  0.488202  0.209350  1
  O  O7  1  0.511798  0.511798  0.790651  1
  O  O8  1  0.809121  0.809121  0.850684  1
