# generated using pymatgen
data_Dy8In2OsAu
_symmetry_space_group_name_H-M   'P 1'
_cell_length_a   9.71887865
_cell_length_b   9.75012575
_cell_length_c   9.75012630
_cell_angle_alpha   60.52610965
_cell_angle_beta   60.10596000
_cell_angle_gamma   60.10596033
_symmetry_Int_Tables_number   1
_chemical_formula_structural   Dy8In2OsAu
_chemical_formula_sum   'Dy16 In4 Os2 Au2'
_cell_volume   656.92830688
_cell_formula_units_Z   2
loop_
 _symmetry_equiv_pos_site_id
 _symmetry_equiv_pos_as_xyz
  1  'x, y, z'
loop_
 _atom_site_type_symbol
 _atom_site_label
 _atom_site_symmetry_multiplicity
 _atom_site_fract_x
 _atom_site_fract_y
 _atom_site_fract_z
 _atom_site_occupancy
  Dy  Dy0  1  0.694249  0.305751  0.305751  1
  Dy  Dy1  1  0.682027  0.700937  0.305529  1
  Dy  Dy2  1  0.311507  0.700937  0.305529  1
  Dy  Dy3  1  0.947147  0.932121  0.558737  1
  Dy  Dy4  1  0.149742  0.135551  0.564964  1
  Dy  Dy5  1  0.561994  0.932121  0.558737  1
  Dy  Dy6  1  0.160231  0.147763  0.147763  1
  Dy  Dy7  1  0.311507  0.305529  0.700937  1
  Dy  Dy8  1  0.940168  0.559832  0.559832  1
  Dy  Dy9  1  0.561994  0.558737  0.932121  1
  Dy  Dy10  1  0.561850  0.938150  0.938150  1
  Dy  Dy11  1  0.947147  0.558737  0.932121  1
  Dy  Dy12  1  0.149742  0.564964  0.135551  1
  Dy  Dy13  1  0.310048  0.689952  0.689952  1
  Dy  Dy14  1  0.682027  0.305529  0.700937  1
  Dy  Dy15  1  0.544241  0.147763  0.147763  1
  In  In16  1  0.915793  0.920531  0.247883  1
  In  In17  1  0.251082  0.917512  0.917512  1
  In  In18  1  0.915793  0.247883  0.920531  1
  In  In19  1  0.913894  0.917512  0.917512  1
  Os  Os20  1  0.354769  0.364875  0.925588  1
  Os  Os21  1  0.354769  0.925588  0.364875  1
  Au  Au22  1  0.349137  0.360861  0.360861  1
  Au  Au23  1  0.929140  0.360861  0.360861  1
