# generated using pymatgen
data_NdY2Ga6(Ni2Pd)3
_symmetry_space_group_name_H-M   'P 1'
_cell_length_a   8.98226100
_cell_length_b   8.98226107
_cell_length_c   4.18539100
_cell_angle_alpha   90.00000000
_cell_angle_beta   90.00000000
_cell_angle_gamma   120.00000343
_symmetry_Int_Tables_number   1
_chemical_formula_structural   NdY2Ga6(Ni2Pd)3
_chemical_formula_sum   'Nd1 Y2 Ga6 Ni6 Pd3'
_cell_volume   292.44082253
_cell_formula_units_Z   1
loop_
 _symmetry_equiv_pos_site_id
 _symmetry_equiv_pos_as_xyz
  1  'x, y, z'
loop_
 _atom_site_type_symbol
 _atom_site_label
 _atom_site_symmetry_multiplicity
 _atom_site_fract_x
 _atom_site_fract_y
 _atom_site_fract_z
 _atom_site_occupancy
  Nd  Nd0  1  0.666667  0.333333  0.500000  1
  Y  Y1  1  0.333333  0.666667  0.500000  1
  Y  Y2  1  0.000000  0.000000  0.000000  1
  Ga  Ga3  1  0.465896  0.998863  0.000000  1
  Ga  Ga4  1  0.001137  0.467032  0.000000  1
  Ga  Ga5  1  0.532968  0.534104  0.000000  1
  Ga  Ga6  1  0.717356  0.999245  0.500000  1
  Ga  Ga7  1  0.000755  0.718111  0.500000  1
  Ga  Ga8  1  0.281889  0.282644  0.500000  1
  Ni  Ni9  1  0.219955  0.385421  0.000000  1
  Ni  Ni10  1  0.614579  0.834534  0.000000  1
  Ni  Ni11  1  0.165466  0.780045  0.000000  1
  Ni  Ni12  1  0.836721  0.619134  0.000000  1
  Ni  Ni13  1  0.782413  0.163279  0.000000  1
  Ni  Ni14  1  0.380866  0.217587  0.000000  1
  Pd  Pd15  1  0.284234  0.999060  0.500000  1
  Pd  Pd16  1  0.000940  0.285174  0.500000  1
  Pd  Pd17  1  0.714826  0.715766  0.500000  1
