# generated using pymatgen
data_Tb19Y(Ir5Au)2
_symmetry_space_group_name_H-M   'P 1'
_cell_length_a   11.12705436
_cell_length_b   11.04631907
_cell_length_c   6.35824822
_cell_angle_alpha   89.98798507
_cell_angle_beta   89.87381168
_cell_angle_gamma   90.00498570
_symmetry_Int_Tables_number   1
_chemical_formula_structural   Tb19Y(Ir5Au)2
_chemical_formula_sum   'Tb19 Y1 Ir10 Au2'
_cell_volume   781.50940267
_cell_formula_units_Z   1
loop_
 _symmetry_equiv_pos_site_id
 _symmetry_equiv_pos_as_xyz
  1  'x, y, z'
loop_
 _atom_site_type_symbol
 _atom_site_label
 _atom_site_symmetry_multiplicity
 _atom_site_fract_x
 _atom_site_fract_y
 _atom_site_fract_z
 _atom_site_occupancy
  Tb  Tb0  1  0.290588  0.088681  0.371554  1
  Tb  Tb1  1  0.290590  0.911405  0.871610  1
  Tb  Tb2  1  0.697047  0.092854  0.865782  1
  Tb  Tb3  1  0.697030  0.907046  0.365628  1
  Tb  Tb4  1  0.577349  0.789931  0.877336  1
  Tb  Tb5  1  0.577425  0.210144  0.377400  1
  Tb  Tb6  1  0.406997  0.791071  0.375891  1
  Tb  Tb7  1  0.407091  0.208937  0.875800  1
  Tb  Tb8  1  0.210872  0.411334  0.620789  1
  Tb  Tb9  1  0.210826  0.588548  0.120835  1
  Tb  Tb10  1  0.789774  0.419524  0.124260  1
  Tb  Tb11  1  0.789728  0.580530  0.624274  1
  Tb  Tb12  1  0.918162  0.705774  0.139243  1
  Tb  Tb13  1  0.918052  0.294242  0.639339  1
  Tb  Tb14  1  0.096582  0.701982  0.624553  1
  Tb  Tb15  1  0.096468  0.298031  0.124436  1
  Tb  Tb16  1  0.008595  0.995822  0.499694  1
  Tb  Tb17  1  0.008694  0.004154  0.999715  1
  Tb  Tb18  1  0.500627  0.497912  0.000948  1
  Y  Y19  1  0.500591  0.502144  0.500958  1
  Ir  Ir20  1  0.153777  0.154044  0.750237  1
  Ir  Ir21  1  0.153772  0.845952  0.250201  1
  Ir  Ir22  1  0.657597  0.346762  0.746955  1
  Ir  Ir23  1  0.657618  0.653142  0.246240  1
  Ir  Ir24  1  0.348246  0.345426  0.251824  1
  Ir  Ir25  1  0.348331  0.654655  0.752689  1
  Ir  Ir26  1  0.498661  0.999603  0.119523  1
  Ir  Ir27  1  0.498681  0.000381  0.619430  1
  Ir  Ir28  1  0.000267  0.500931  0.880321  1
  Ir  Ir29  1  0.000256  0.499056  0.380379  1
  Au  Au30  1  0.844866  0.155164  0.251075  1
  Au  Au31  1  0.844837  0.844819  0.751083  1
