# generated using pymatgen
data_La4ZnGa3Pt4
_symmetry_space_group_name_H-M   'P 1'
_cell_length_a   4.55657300
_cell_length_b   7.20455582
_cell_length_c   7.97385128
_cell_angle_alpha   89.72378696
_cell_angle_beta   90.00000000
_cell_angle_gamma   90.00000000
_symmetry_Int_Tables_number   1
_chemical_formula_structural   La4ZnGa3Pt4
_chemical_formula_sum   'La4 Zn1 Ga3 Pt4'
_cell_volume   261.76322225
_cell_formula_units_Z   1
loop_
 _symmetry_equiv_pos_site_id
 _symmetry_equiv_pos_as_xyz
  1  'x, y, z'
loop_
 _atom_site_type_symbol
 _atom_site_label
 _atom_site_symmetry_multiplicity
 _atom_site_fract_x
 _atom_site_fract_y
 _atom_site_fract_z
 _atom_site_occupancy
  La  La0  1  0.250000  0.028753  0.691764  1
  La  La1  1  0.250000  0.531265  0.810215  1
  La  La2  1  0.750000  0.971436  0.308383  1
  La  La3  1  0.750000  0.470209  0.190409  1
  Zn  Zn4  1  0.250000  0.156239  0.070824  1
  Ga  Ga5  1  0.250000  0.657221  0.430936  1
  Ga  Ga6  1  0.750000  0.845185  0.931574  1
  Ga  Ga7  1  0.750000  0.344667  0.568698  1
  Pt  Pt8  1  0.250000  0.279924  0.394402  1
  Pt  Pt9  1  0.250000  0.773616  0.107412  1
  Pt  Pt10  1  0.750000  0.720860  0.607845  1
  Pt  Pt11  1  0.750000  0.220625  0.887538  1
