# generated using pymatgen
data_Tb5P12Ir11Ru8
_symmetry_space_group_name_H-M   'P 1'
_cell_length_a   12.63699306
_cell_length_b   12.60559120
_cell_length_c   3.98011200
_cell_angle_alpha   90.00000000
_cell_angle_beta   90.00000000
_cell_angle_gamma   120.03581588
_symmetry_Int_Tables_number   1
_chemical_formula_structural   Tb5P12Ir11Ru8
_chemical_formula_sum   'Tb5 P12 Ir11 Ru8'
_cell_volume   548.87827171
_cell_formula_units_Z   1
loop_
 _symmetry_equiv_pos_site_id
 _symmetry_equiv_pos_as_xyz
  1  'x, y, z'
loop_
 _atom_site_type_symbol
 _atom_site_label
 _atom_site_symmetry_multiplicity
 _atom_site_fract_x
 _atom_site_fract_y
 _atom_site_fract_z
 _atom_site_occupancy
  Tb  Tb0  1  0.666962  0.331450  0.000000  1
  Tb  Tb1  1  0.334711  0.669051  0.000000  1
  Tb  Tb2  1  0.813819  0.000953  0.500000  1
  Tb  Tb3  1  0.183270  0.184835  0.500000  1
  Tb  Tb4  1  0.999370  0.815001  0.500000  1
  P  P5  1  0.633896  0.998993  0.000000  1
  P  P6  1  0.363452  0.363768  0.000000  1
  P  P7  1  0.000314  0.635830  0.000000  1
  P  P8  1  0.688893  0.517974  0.500000  1
  P  P9  1  0.829996  0.307314  0.500000  1
  P  P10  1  0.317154  0.834328  0.500000  1
  P  P11  1  0.519671  0.691425  0.500000  1
  P  P12  1  0.179193  0.000117  0.000000  1
  P  P13  1  0.818916  0.819090  0.000000  1
  P  P14  1  0.996676  0.181286  0.000000  1
  P  P15  1  0.479833  0.167213  0.500000  1
  P  P16  1  0.170279  0.482069  0.500000  1
  Ir  Ir17  1  0.624383  0.803630  0.000000  1
  Ir  Ir18  1  0.182874  0.376917  0.000000  1
  Ir  Ir19  1  0.374476  0.181294  0.000000  1
  Ir  Ir20  1  0.192165  0.818844  0.000000  1
  Ir  Ir21  1  0.805736  0.623061  0.000000  1
  Ir  Ir22  1  0.870458  0.507113  0.500000  1
  Ir  Ir23  1  0.491904  0.360335  0.500000  1
  Ir  Ir24  1  0.636997  0.128974  0.500000  1
  Ir  Ir25  1  0.132410  0.640869  0.500000  1
  Ir  Ir26  1  0.362700  0.492056  0.500000  1
  Ir  Ir27  1  0.998910  0.000368  0.000000  1
  Ru  Ru28  1  0.511915  0.871966  0.500000  1
  Ru  Ru29  1  0.711992  0.710390  0.500000  1
  Ru  Ru30  1  0.002330  0.289604  0.500000  1
  Ru  Ru31  1  0.450394  0.998755  0.000000  1
  Ru  Ru32  1  0.546774  0.544554  0.000000  1
  Ru  Ru33  1  0.002186  0.454894  0.000000  1
  Ru  Ru34  1  0.818416  0.195942  0.000000  1
  Ru  Ru35  1  0.286574  0.999732  0.500000  1
