# generated using pymatgen
data_Sc8Mn3Cr6Re3Si16
_symmetry_space_group_name_H-M   'P 1'
_cell_length_a   6.54022405
_cell_length_b   6.53157615
_cell_length_c   12.15870401
_cell_angle_alpha   90.04058415
_cell_angle_beta   90.04765683
_cell_angle_gamma   90.36108518
_symmetry_Int_Tables_number   1
_chemical_formula_structural   Sc8Mn3Cr6Re3Si16
_chemical_formula_sum   'Sc8 Mn3 Cr6 Re3 Si16'
_cell_volume   519.38454394
_cell_formula_units_Z   1
loop_
 _symmetry_equiv_pos_site_id
 _symmetry_equiv_pos_as_xyz
  1  'x, y, z'
loop_
 _atom_site_type_symbol
 _atom_site_label
 _atom_site_symmetry_multiplicity
 _atom_site_fract_x
 _atom_site_fract_y
 _atom_site_fract_z
 _atom_site_occupancy
  Sc  Sc0  1  0.003877  0.667717  0.029101  1
  Sc  Sc1  1  0.997203  0.332854  0.529501  1
  Sc  Sc2  1  0.333813  0.997274  0.469971  1
  Sc  Sc3  1  0.163800  0.494556  0.778294  1
  Sc  Sc4  1  0.835995  0.504267  0.278155  1
  Sc  Sc5  1  0.494554  0.164186  0.221955  1
  Sc  Sc6  1  0.503170  0.835637  0.722305  1
  Sc  Sc7  1  0.665220  0.003889  0.970545  1
  Mn  Mn8  1  0.005085  0.820162  0.622439  1
  Mn  Mn9  1  0.987618  0.178227  0.124714  1
  Mn  Mn10  1  0.822056  0.004334  0.378034  1
  Cr  Cr11  1  0.664072  0.663419  0.499850  1
  Cr  Cr12  1  0.330789  0.488045  0.378386  1
  Cr  Cr13  1  0.676145  0.511116  0.877112  1
  Cr  Cr14  1  0.489950  0.330907  0.620582  1
  Cr  Cr15  1  0.514318  0.675038  0.123863  1
  Cr  Cr16  1  0.175807  0.994027  0.874929  1
  Re  Re17  1  0.166577  0.833715  0.250086  1
  Re  Re18  1  0.336392  0.335796  0.000294  1
  Re  Re19  1  0.835110  0.166023  0.749856  1
  Si  Si20  1  0.027268  0.711934  0.435441  1
  Si  Si21  1  0.622379  0.299669  0.433490  1
  Si  Si22  1  0.382075  0.701653  0.932569  1
  Si  Si23  1  0.198667  0.113974  0.682245  1
  Si  Si24  1  0.300287  0.621922  0.566118  1
  Si  Si25  1  0.702371  0.381281  0.067669  1
  Si  Si26  1  0.802641  0.887652  0.184345  1
  Si  Si27  1  0.112663  0.197101  0.316162  1
  Si  Si28  1  0.968238  0.287841  0.935993  1
  Si  Si29  1  0.712546  0.026456  0.564965  1
  Si  Si30  1  0.214318  0.467565  0.185285  1
  Si  Si31  1  0.784094  0.532205  0.683818  1
  Si  Si32  1  0.468813  0.215482  0.813746  1
  Si  Si33  1  0.533161  0.783791  0.316311  1
  Si  Si34  1  0.284586  0.970251  0.065605  1
  Si  Si35  1  0.884341  0.800035  0.816261  1
