# generated using pymatgen
data_ZrPd9Pb2
_symmetry_space_group_name_H-M   'P 1'
_cell_length_a   4.09069100
_cell_length_b   4.09069100
_cell_length_c   12.29394100
_cell_angle_alpha   90.00000000
_cell_angle_beta   90.00000000
_cell_angle_gamma   90.00000000
_symmetry_Int_Tables_number   1
_chemical_formula_structural   ZrPd9Pb2
_chemical_formula_sum   'Zr1 Pd9 Pb2'
_cell_volume   205.72377034
_cell_formula_units_Z   1
loop_
 _symmetry_equiv_pos_site_id
 _symmetry_equiv_pos_as_xyz
  1  'x, y, z'
loop_
 _atom_site_type_symbol
 _atom_site_label
 _atom_site_symmetry_multiplicity
 _atom_site_fract_x
 _atom_site_fract_y
 _atom_site_fract_z
 _atom_site_occupancy
  Zr  Zr0  1  0.000000  0.000000  0.000000  1
  Pd  Pd1  1  0.500000  0.500000  0.000000  1
  Pd  Pd2  1  0.500000  0.500000  0.330749  1
  Pd  Pd3  1  0.500000  0.500000  0.669251  1
  Pd  Pd4  1  0.500000  0.000000  0.159433  1
  Pd  Pd5  1  0.500000  0.000000  0.500000  1
  Pd  Pd6  1  0.500000  0.000000  0.840567  1
  Pd  Pd7  1  0.000000  0.500000  0.159433  1
  Pd  Pd8  1  0.000000  0.500000  0.500000  1
  Pd  Pd9  1  0.000000  0.500000  0.840567  1
  Pb  Pb10  1  0.000000  0.000000  0.331877  1
  Pb  Pb11  1  0.000000  0.000000  0.668123  1
