# generated using pymatgen
data_Ta12Mn9Ga3N4
_symmetry_space_group_name_H-M   'P 1'
_cell_length_a   8.07095149
_cell_length_b   8.08198216
_cell_length_c   8.07144200
_cell_angle_alpha   60.04313991
_cell_angle_beta   59.99799778
_cell_angle_gamma   60.04278678
_symmetry_Int_Tables_number   1
_chemical_formula_structural   Ta12Mn9Ga3N4
_chemical_formula_sum   'Ta12 Mn9 Ga3 N4'
_cell_volume   372.52369172
_cell_formula_units_Z   1
loop_
 _symmetry_equiv_pos_site_id
 _symmetry_equiv_pos_as_xyz
  1  'x, y, z'
loop_
 _atom_site_type_symbol
 _atom_site_label
 _atom_site_symmetry_multiplicity
 _atom_site_fract_x
 _atom_site_fract_y
 _atom_site_fract_z
 _atom_site_occupancy
  Ta  Ta0  1  0.804506  0.805137  0.195178  1
  Ta  Ta1  1  0.194163  0.195196  0.805320  1
  Ta  Ta2  1  0.805331  0.195145  0.805345  1
  Ta  Ta3  1  0.195159  0.805132  0.195198  1
  Ta  Ta4  1  0.195159  0.805132  0.804511  1
  Ta  Ta5  1  0.805331  0.195145  0.194178  1
  Ta  Ta6  1  0.445494  0.444863  0.054822  1
  Ta  Ta7  1  0.055837  0.054804  0.444680  1
  Ta  Ta8  1  0.444669  0.054855  0.444655  1
  Ta  Ta9  1  0.054841  0.444868  0.054802  1
  Ta  Ta10  1  0.054841  0.444868  0.445489  1
  Ta  Ta11  1  0.444669  0.054855  0.055822  1
  Mn  Mn12  1  0.625000  0.125000  0.625000  1
  Mn  Mn13  1  0.741546  0.412034  0.423210  1
  Mn  Mn14  1  0.419969  0.740024  0.420004  1
  Mn  Mn15  1  0.423130  0.412057  0.741633  1
  Mn  Mn16  1  0.423130  0.412057  0.423180  1
  Mn  Mn17  1  0.508454  0.837966  0.826790  1
  Mn  Mn18  1  0.830031  0.509976  0.829996  1
  Mn  Mn19  1  0.826870  0.837943  0.508367  1
  Mn  Mn20  1  0.826870  0.837943  0.826820  1
  Ga  Ga21  1  0.125000  0.625000  0.625000  1
  Ga  Ga22  1  0.625000  0.625000  0.125000  1
  Ga  Ga23  1  0.625000  0.625000  0.625000  1
  N  N24  1  0.625000  0.125000  0.125000  1
  N  N25  1  0.125000  0.625000  0.125000  1
  N  N26  1  0.125000  0.125000  0.625000  1
  N  N27  1  0.125000  0.125000  0.125000  1
