# generated using pymatgen
data_Y4Ho4Sc12Si15Pb
_symmetry_space_group_name_H-M   'P 1'
_cell_length_a   7.13527754
_cell_length_b   7.42158652
_cell_length_c   14.07039218
_cell_angle_alpha   90.00680903
_cell_angle_beta   89.52720060
_cell_angle_gamma   90.05292360
_symmetry_Int_Tables_number   1
_chemical_formula_structural   Y4Ho4Sc12Si15Pb
_chemical_formula_sum   'Y4 Ho4 Sc12 Si15 Pb1'
_cell_volume   745.07304761
_cell_formula_units_Z   1
loop_
 _symmetry_equiv_pos_site_id
 _symmetry_equiv_pos_as_xyz
  1  'x, y, z'
loop_
 _atom_site_type_symbol
 _atom_site_label
 _atom_site_symmetry_multiplicity
 _atom_site_fract_x
 _atom_site_fract_y
 _atom_site_fract_z
 _atom_site_occupancy
  Y  Y0  1  0.012667  0.175936  0.096716  1
  Y  Y1  1  0.987600  0.824570  0.903983  1
  Y  Y2  1  0.488637  0.676253  0.903911  1
  Y  Y3  1  0.987004  0.832451  0.598419  1
  Ho  Ho4  1  0.512018  0.323560  0.097200  1
  Ho  Ho5  1  0.006093  0.169025  0.398498  1
  Ho  Ho6  1  0.514796  0.319143  0.398589  1
  Ho  Ho7  1  0.502825  0.685844  0.600322  1
  Sc  Sc8  1  0.161213  0.502350  0.756592  1
  Sc  Sc9  1  0.838141  0.497668  0.249413  1
  Sc  Sc10  1  0.338768  0.002608  0.249414  1
  Sc  Sc11  1  0.662427  0.997582  0.751404  1
  Sc  Sc12  1  0.342578  0.160251  0.631227  1
  Sc  Sc13  1  0.664998  0.825551  0.372694  1
  Sc  Sc14  1  0.164631  0.684130  0.368880  1
  Sc  Sc15  1  0.669158  0.823041  0.124345  1
  Sc  Sc16  1  0.820720  0.322825  0.626750  1
  Sc  Sc17  1  0.330309  0.175700  0.875312  1
  Sc  Sc18  1  0.830303  0.323354  0.875348  1
  Sc  Sc19  1  0.169535  0.676789  0.125175  1
  Si  Si20  1  0.033823  0.119233  0.751299  1
  Si  Si21  1  0.964619  0.884864  0.247114  1
  Si  Si22  1  0.466758  0.615603  0.248673  1
  Si  Si23  1  0.531231  0.385324  0.751489  1
  Si  Si24  1  0.285536  0.869807  0.751940  1
  Si  Si25  1  0.713381  0.126790  0.247783  1
  Si  Si26  1  0.213336  0.372792  0.249472  1
  Si  Si27  1  0.788682  0.627434  0.751114  1
  Si  Si28  1  0.826122  0.539134  0.458063  1
  Si  Si29  1  0.338836  0.964429  0.459916  1
  Si  Si30  1  0.842456  0.534440  0.039513  1
  Si  Si31  1  0.660484  0.037493  0.538120  1
  Si  Si32  1  0.156643  0.464596  0.961692  1
  Si  Si33  1  0.656378  0.035588  0.960681  1
  Si  Si34  1  0.342979  0.965369  0.039846  1
  Pb  Pb35  1  0.174314  0.458470  0.539097  1
