# generated using pymatgen
data_PrSm(PaPt2)2
_symmetry_space_group_name_H-M   'P 1'
_cell_length_a   4.49170300
_cell_length_b   5.72519365
_cell_length_c   7.31003758
_cell_angle_alpha   91.09270509
_cell_angle_beta   90.00000000
_cell_angle_gamma   90.00000000
_symmetry_Int_Tables_number   1
_chemical_formula_structural   PrSm(PaPt2)2
_chemical_formula_sum   'Pr1 Sm1 Pa2 Pt4'
_cell_volume   187.94978704
_cell_formula_units_Z   1
loop_
 _symmetry_equiv_pos_site_id
 _symmetry_equiv_pos_as_xyz
  1  'x, y, z'
loop_
 _atom_site_type_symbol
 _atom_site_label
 _atom_site_symmetry_multiplicity
 _atom_site_fract_x
 _atom_site_fract_y
 _atom_site_fract_z
 _atom_site_occupancy
  Pr  Pr0  1  0.750000  0.848056  0.814780  1
  Sm  Sm1  1  0.250000  0.350878  0.682530  1
  Pa  Pa2  1  0.250000  0.149765  0.177660  1
  Pa  Pa3  1  0.750000  0.649961  0.323350  1
  Pt  Pt4  1  0.250000  0.838426  0.524060  1
  Pt  Pt5  1  0.250000  0.660218  0.076249  1
  Pt  Pt6  1  0.750000  0.167167  0.428545  1
  Pt  Pt7  1  0.750000  0.335530  0.972827  1
