# generated using pymatgen
data_Ho8Er9Lu3Pt16
_symmetry_space_group_name_H-M   'P 1'
_cell_length_a   7.42655821
_cell_length_b   7.51285822
_cell_length_c   14.61237800
_cell_angle_alpha   90.00000000
_cell_angle_beta   90.00000000
_cell_angle_gamma   89.97253225
_symmetry_Int_Tables_number   1
_chemical_formula_structural   Ho8Er9Lu3Pt16
_chemical_formula_sum   'Ho8 Er9 Lu3 Pt16'
_cell_volume   815.29284462
_cell_formula_units_Z   1
loop_
 _symmetry_equiv_pos_site_id
 _symmetry_equiv_pos_as_xyz
  1  'x, y, z'
loop_
 _atom_site_type_symbol
 _atom_site_label
 _atom_site_symmetry_multiplicity
 _atom_site_fract_x
 _atom_site_fract_y
 _atom_site_fract_z
 _atom_site_occupancy
  Ho  Ho0  1  0.500002  0.678849  0.593210  1
  Ho  Ho1  1  0.001456  0.821959  0.906640  1
  Ho  Ho2  1  0.499809  0.321774  0.094100  1
  Ho  Ho3  1  0.999270  0.178513  0.406187  1
  Ho  Ho4  1  0.499809  0.321774  0.405900  1
  Ho  Ho5  1  0.999270  0.178513  0.093813  1
  Ho  Ho6  1  0.500002  0.678849  0.906790  1
  Ho  Ho7  1  0.001456  0.821959  0.593360  1
  Er  Er8  1  0.655071  0.167410  0.622430  1
  Er  Er9  1  0.155601  0.331561  0.877847  1
  Er  Er10  1  0.344734  0.831907  0.122705  1
  Er  Er11  1  0.844485  0.668069  0.377379  1
  Er  Er12  1  0.344734  0.831907  0.377295  1
  Er  Er13  1  0.844485  0.668069  0.122621  1
  Er  Er14  1  0.655071  0.167410  0.877570  1
  Er  Er15  1  0.155601  0.331561  0.622153  1
  Er  Er16  1  0.818471  0.511086  0.750000  1
  Lu  Lu17  1  0.318071  0.989922  0.750000  1
  Lu  Lu18  1  0.181758  0.489531  0.250000  1
  Lu  Lu19  1  0.681805  0.010374  0.250000  1
  Pt  Pt20  1  0.683185  0.968765  0.457454  1
  Pt  Pt21  1  0.184226  0.532096  0.042897  1
  Pt  Pt22  1  0.316554  0.031914  0.957977  1
  Pt  Pt23  1  0.815580  0.467628  0.542286  1
  Pt  Pt24  1  0.316554  0.031914  0.542023  1
  Pt  Pt25  1  0.815580  0.467628  0.957714  1
  Pt  Pt26  1  0.683185  0.968765  0.042546  1
  Pt  Pt27  1  0.184226  0.532096  0.457103  1
  Pt  Pt28  1  0.450609  0.385638  0.750000  1
  Pt  Pt29  1  0.953895  0.111301  0.750000  1
  Pt  Pt30  1  0.546388  0.611461  0.250000  1
  Pt  Pt31  1  0.047957  0.888042  0.250000  1
  Pt  Pt32  1  0.677499  0.855886  0.750000  1
  Pt  Pt33  1  0.182044  0.646527  0.750000  1
  Pt  Pt34  1  0.320411  0.145621  0.250000  1
  Pt  Pt35  1  0.821146  0.353724  0.250000  1
