# generated using pymatgen
data_Ho4Er4Tl3Os
_symmetry_space_group_name_H-M   'P 1'
_cell_length_a   10.20785500
_cell_length_b   10.20785497
_cell_length_c   7.20204300
_cell_angle_alpha   90.00000000
_cell_angle_beta   90.00000000
_cell_angle_gamma   119.99999686
_symmetry_Int_Tables_number   1
_chemical_formula_structural   Ho4Er4Tl3Os
_chemical_formula_sum   'Ho8 Er8 Tl6 Os2'
_cell_volume   649.91317169
_cell_formula_units_Z   2
loop_
 _symmetry_equiv_pos_site_id
 _symmetry_equiv_pos_as_xyz
  1  'x, y, z'
loop_
 _atom_site_type_symbol
 _atom_site_label
 _atom_site_symmetry_multiplicity
 _atom_site_fract_x
 _atom_site_fract_y
 _atom_site_fract_z
 _atom_site_occupancy
  Ho  Ho0  1  0.464477  0.535523  0.210597  1
  Ho  Ho1  1  0.071045  0.535523  0.210597  1
  Ho  Ho2  1  0.464477  0.928955  0.210597  1
  Ho  Ho3  1  0.535523  0.464477  0.710597  1
  Ho  Ho4  1  0.928955  0.464477  0.710597  1
  Ho  Ho5  1  0.535523  0.071045  0.710597  1
  Ho  Ho6  1  0.000000  0.000000  0.232288  1
  Ho  Ho7  1  0.000000  0.000000  0.732288  1
  Er  Er8  1  0.175729  0.824271  0.509756  1
  Er  Er9  1  0.648543  0.824271  0.509756  1
  Er  Er10  1  0.175729  0.351457  0.509756  1
  Er  Er11  1  0.824271  0.175729  0.009756  1
  Er  Er12  1  0.351457  0.175729  0.009756  1
  Er  Er13  1  0.824271  0.648543  0.009756  1
  Er  Er14  1  0.333333  0.666667  0.830476  1
  Er  Er15  1  0.666667  0.333333  0.330476  1
  Tl  Tl16  1  0.164216  0.835784  0.956360  1
  Tl  Tl17  1  0.671570  0.835784  0.956360  1
  Tl  Tl18  1  0.164216  0.328430  0.956360  1
  Tl  Tl19  1  0.835784  0.164216  0.456360  1
  Tl  Tl20  1  0.328430  0.164216  0.456360  1
  Tl  Tl21  1  0.835784  0.671570  0.456360  1
  Os  Os22  1  0.333333  0.666667  0.444116  1
  Os  Os23  1  0.666667  0.333333  0.944116  1
