# generated using pymatgen
data_Hf6Al8Fe(Si4Ir3)2
_symmetry_space_group_name_H-M   'P 1'
_cell_length_a   8.53633081
_cell_length_b   8.53632935
_cell_length_c   8.55422900
_cell_angle_alpha   59.93060766
_cell_angle_beta   59.93061332
_cell_angle_gamma   59.80664616
_symmetry_Int_Tables_number   1
_chemical_formula_structural   Hf6Al8Fe(Si4Ir3)2
_chemical_formula_sum   'Hf6 Al8 Fe1 Si8 Ir6'
_cell_volume   439.65768262
_cell_formula_units_Z   1
loop_
 _symmetry_equiv_pos_site_id
 _symmetry_equiv_pos_as_xyz
  1  'x, y, z'
loop_
 _atom_site_type_symbol
 _atom_site_label
 _atom_site_symmetry_multiplicity
 _atom_site_fract_x
 _atom_site_fract_y
 _atom_site_fract_z
 _atom_site_occupancy
  Hf  Hf0  1  0.693267  0.306733  0.310171  1
  Hf  Hf1  1  0.306733  0.693267  0.689829  1
  Hf  Hf2  1  0.306733  0.693267  0.310171  1
  Hf  Hf3  1  0.693267  0.306733  0.689829  1
  Hf  Hf4  1  0.308181  0.308181  0.691819  1
  Hf  Hf5  1  0.691819  0.691819  0.308181  1
  Al  Al6  1  0.116884  0.116884  0.128559  1
  Al  Al7  1  0.883116  0.883116  0.871441  1
  Al  Al8  1  0.116884  0.116884  0.637674  1
  Al  Al9  1  0.118481  0.638479  0.121520  1
  Al  Al10  1  0.883116  0.883116  0.362326  1
  Al  Al11  1  0.881519  0.361521  0.878480  1
  Al  Al12  1  0.638479  0.118481  0.121520  1
  Al  Al13  1  0.361521  0.881519  0.878480  1
  Fe  Fe14  1  0.000000  0.000000  0.500000  1
  Si  Si15  1  0.343464  0.343464  0.343930  1
  Si  Si16  1  0.656536  0.656536  0.656070  1
  Si  Si17  1  0.343464  0.343464  0.969142  1
  Si  Si18  1  0.330932  0.974670  0.347199  1
  Si  Si19  1  0.656536  0.656536  0.030858  1
  Si  Si20  1  0.669068  0.025330  0.652801  1
  Si  Si21  1  0.974670  0.330932  0.347199  1
  Si  Si22  1  0.025330  0.669068  0.652801  1
  Ir  Ir23  1  0.500000  0.000000  0.000000  1
  Ir  Ir24  1  0.000000  0.500000  0.500000  1
  Ir  Ir25  1  0.000000  0.500000  0.000000  1
  Ir  Ir26  1  0.500000  0.000000  0.500000  1
  Ir  Ir27  1  0.500000  0.500000  0.000000  1
  Ir  Ir28  1  0.000000  0.000000  0.000000  1
