# generated using pymatgen
data_Y3ZrAl15(GaRh2)3
_symmetry_space_group_name_H-M   'P 1'
_cell_length_a   7.53688894
_cell_length_b   7.52668889
_cell_length_c   9.47198300
_cell_angle_alpha   90.00000000
_cell_angle_beta   90.00000000
_cell_angle_gamma   119.55737985
_symmetry_Int_Tables_number   1
_chemical_formula_structural   Y3ZrAl15(GaRh2)3
_chemical_formula_sum   'Y3 Zr1 Al15 Ga3 Rh6'
_cell_volume   467.39859930
_cell_formula_units_Z   1
loop_
 _symmetry_equiv_pos_site_id
 _symmetry_equiv_pos_as_xyz
  1  'x, y, z'
loop_
 _atom_site_type_symbol
 _atom_site_label
 _atom_site_symmetry_multiplicity
 _atom_site_fract_x
 _atom_site_fract_y
 _atom_site_fract_z
 _atom_site_occupancy
  Y  Y0  1  0.006222  0.327544  0.750000  1
  Y  Y1  1  0.671238  0.997356  0.250000  1
  Y  Y2  1  0.329309  0.007428  0.750000  1
  Zr  Zr3  1  0.997995  0.671702  0.250000  1
  Al  Al4  1  0.124590  0.121736  0.250000  1
  Al  Al5  1  0.999696  0.338523  0.079138  1
  Al  Al6  1  0.998319  0.665350  0.931194  1
  Al  Al7  1  0.998319  0.665350  0.568806  1
  Al  Al8  1  0.332275  0.997341  0.420749  1
  Al  Al9  1  0.999696  0.338523  0.420862  1
  Al  Al10  1  0.664573  0.996560  0.573534  1
  Al  Al11  1  0.664573  0.996560  0.926466  1
  Al  Al12  1  0.332275  0.997341  0.079251  1
  Al  Al13  1  0.334804  0.335069  0.542559  1
  Al  Al14  1  0.670717  0.668148  0.437028  1
  Al  Al15  1  0.670717  0.668148  0.062972  1
  Al  Al16  1  0.334804  0.335069  0.957441  1
  Al  Al17  1  0.334095  0.550603  0.250000  1
  Al  Al18  1  0.556438  0.343122  0.250000  1
  Ga  Ga19  1  0.871037  0.869025  0.750000  1
  Ga  Ga20  1  0.659026  0.451023  0.750000  1
  Ga  Ga21  1  0.448767  0.656791  0.750000  1
  Rh  Rh22  1  0.672500  0.328142  0.002917  1
  Rh  Rh23  1  0.327876  0.672722  0.003397  1
  Rh  Rh24  1  0.327876  0.672722  0.496603  1
  Rh  Rh25  1  0.672500  0.328142  0.497083  1
  Rh  Rh26  1  0.999882  0.999981  0.003065  1
  Rh  Rh27  1  0.999882  0.999981  0.496935  1
