# generated using pymatgen
data_Er2Al3Fe14C3
_symmetry_space_group_name_H-M   'P 1'
_cell_length_a   6.49322488
_cell_length_b   6.49322487
_cell_length_c   6.49322356
_cell_angle_alpha   83.30982866
_cell_angle_beta   83.30982236
_cell_angle_gamma   83.30983543
_symmetry_Int_Tables_number   1
_chemical_formula_structural   Er2Al3Fe14C3
_chemical_formula_sum   'Er2 Al3 Fe14 C3'
_cell_volume   268.57728860
_cell_formula_units_Z   1
loop_
 _symmetry_equiv_pos_site_id
 _symmetry_equiv_pos_as_xyz
  1  'x, y, z'
loop_
 _atom_site_type_symbol
 _atom_site_label
 _atom_site_symmetry_multiplicity
 _atom_site_fract_x
 _atom_site_fract_y
 _atom_site_fract_z
 _atom_site_occupancy
  Er  Er0  1  0.657463  0.657463  0.657463  1
  Er  Er1  1  0.342537  0.342537  0.342537  1
  Al  Al2  1  0.000000  0.000000  0.500000  1
  Al  Al3  1  0.500000  0.000000  0.000000  1
  Al  Al4  1  0.000000  0.500000  0.000000  1
  Fe  Fe5  1  0.714565  0.285435  0.000000  1
  Fe  Fe6  1  0.000000  0.714565  0.285435  1
  Fe  Fe7  1  0.285435  0.000000  0.714565  1
  Fe  Fe8  1  0.000000  0.285435  0.714565  1
  Fe  Fe9  1  0.714565  0.000000  0.285435  1
  Fe  Fe10  1  0.285435  0.714565  0.000000  1
  Fe  Fe11  1  0.345528  0.851413  0.345528  1
  Fe  Fe12  1  0.345528  0.345528  0.851413  1
  Fe  Fe13  1  0.851413  0.345528  0.345528  1
  Fe  Fe14  1  0.654472  0.148587  0.654472  1
  Fe  Fe15  1  0.654472  0.654472  0.148587  1
  Fe  Fe16  1  0.148587  0.654472  0.654472  1
  Fe  Fe17  1  0.906936  0.906936  0.906936  1
  Fe  Fe18  1  0.093064  0.093064  0.093064  1
  C  C19  1  0.500000  0.500000  0.000000  1
  C  C20  1  0.000000  0.500000  0.500000  1
  C  C21  1  0.500000  0.000000  0.500000  1
