# generated using pymatgen
data_Rb2Ga13Pb
_symmetry_space_group_name_H-M   'P 1'
_cell_length_a   10.53153349
_cell_length_b   10.53153383
_cell_length_c   10.53153472
_cell_angle_alpha   38.33204441
_cell_angle_beta   38.33204490
_cell_angle_gamma   38.33204572
_symmetry_Int_Tables_number   1
_chemical_formula_structural   Rb2Ga13Pb
_chemical_formula_sum   'Rb2 Ga13 Pb1'
_cell_volume   403.58420553
_cell_formula_units_Z   1
loop_
 _symmetry_equiv_pos_site_id
 _symmetry_equiv_pos_as_xyz
  1  'x, y, z'
loop_
 _atom_site_type_symbol
 _atom_site_label
 _atom_site_symmetry_multiplicity
 _atom_site_fract_x
 _atom_site_fract_y
 _atom_site_fract_z
 _atom_site_occupancy
  Rb  Rb0  1  0.196910  0.196910  0.196910  1
  Rb  Rb1  1  0.803138  0.803138  0.803138  1
  Ga  Ga2  1  0.554349  0.554349  0.554349  1
  Ga  Ga3  1  0.578371  0.183613  0.183613  1
  Ga  Ga4  1  0.183613  0.183613  0.578371  1
  Ga  Ga5  1  0.183613  0.578371  0.183613  1
  Ga  Ga6  1  0.814194  0.421454  0.814194  1
  Ga  Ga7  1  0.421454  0.814194  0.814194  1
  Ga  Ga8  1  0.814194  0.814194  0.421454  1
  Ga  Ga9  1  0.807879  0.204812  0.204812  1
  Ga  Ga10  1  0.204812  0.204812  0.807879  1
  Ga  Ga11  1  0.204812  0.807879  0.204812  1
  Ga  Ga12  1  0.789931  0.195693  0.789931  1
  Ga  Ga13  1  0.195693  0.789931  0.789931  1
  Ga  Ga14  1  0.789931  0.789931  0.195693  1
  Pb  Pb15  1  0.457105  0.457105  0.457105  1
