# generated using pymatgen
data_Yb5Pr15(BiPb)8
_symmetry_space_group_name_H-M   'P 1'
_cell_length_a   8.41532985
_cell_length_b   8.43922160
_cell_length_c   16.36099400
_cell_angle_alpha   89.94100841
_cell_angle_beta   90.03797101
_cell_angle_gamma   90.37438600
_symmetry_Int_Tables_number   1
_chemical_formula_structural   Yb5Pr15(BiPb)8
_chemical_formula_sum   'Yb5 Pr15 Bi8 Pb8'
_cell_volume   1161.91303608
_cell_formula_units_Z   1
loop_
 _symmetry_equiv_pos_site_id
 _symmetry_equiv_pos_as_xyz
  1  'x, y, z'
loop_
 _atom_site_type_symbol
 _atom_site_label
 _atom_site_symmetry_multiplicity
 _atom_site_fract_x
 _atom_site_fract_y
 _atom_site_fract_z
 _atom_site_occupancy
  Yb  Yb0  1  0.391540  0.839500  0.880324  1
  Yb  Yb1  1  0.226526  0.501695  0.751178  1
  Yb  Yb2  1  0.722843  0.996201  0.751766  1
  Yb  Yb3  1  0.776104  0.500057  0.249883  1
  Yb  Yb4  1  0.276323  0.001328  0.249020  1
  Pr  Pr5  1  0.894144  0.664801  0.619011  1
  Pr  Pr6  1  0.606447  0.163159  0.381192  1
  Pr  Pr7  1  0.107336  0.336862  0.117100  1
  Pr  Pr8  1  0.605940  0.163588  0.118997  1
  Pr  Pr9  1  0.106120  0.337427  0.381597  1
  Pr  Pr10  1  0.393829  0.835975  0.617676  1
  Pr  Pr11  1  0.894455  0.663434  0.882061  1
  Pr  Pr12  1  0.550029  0.323453  0.892656  1
  Pr  Pr13  1  0.050682  0.174861  0.608561  1
  Pr  Pr14  1  0.450149  0.675679  0.393023  1
  Pr  Pr15  1  0.948750  0.826490  0.108283  1
  Pr  Pr16  1  0.449327  0.676489  0.105212  1
  Pr  Pr17  1  0.948603  0.825114  0.391452  1
  Pr  Pr18  1  0.550404  0.323847  0.608211  1
  Pr  Pr19  1  0.050150  0.174603  0.891111  1
  Bi  Bi20  1  0.269100  0.018532  0.043435  1
  Bi  Bi21  1  0.768678  0.481304  0.455415  1
  Bi  Bi22  1  0.731656  0.980212  0.544310  1
  Bi  Bi23  1  0.233103  0.519260  0.953547  1
  Bi  Bi24  1  0.728620  0.977945  0.956368  1
  Bi  Bi25  1  0.231316  0.517227  0.545639  1
  Bi  Bi26  1  0.267956  0.020573  0.455443  1
  Bi  Bi27  1  0.768593  0.481520  0.045180  1
  Pb  Pb28  1  0.590652  0.625749  0.752489  1
  Pb  Pb29  1  0.092444  0.874371  0.750625  1
  Pb  Pb30  1  0.409145  0.376421  0.249889  1
  Pb  Pb31  1  0.909866  0.125863  0.249824  1
  Pb  Pb32  1  0.353479  0.139897  0.750423  1
  Pb  Pb33  1  0.853145  0.357381  0.749781  1
  Pb  Pb34  1  0.645287  0.857319  0.249661  1
  Pb  Pb35  1  0.147255  0.641862  0.249656  1
