# generated using pymatgen
data_Pr3V4BiF28
_symmetry_space_group_name_H-M   'P 1'
_cell_length_a   5.64673133
_cell_length_b   9.16515068
_cell_length_c   12.17967364
_cell_angle_alpha   62.49346376
_cell_angle_beta   90.03309383
_cell_angle_gamma   89.92770909
_symmetry_Int_Tables_number   1
_chemical_formula_structural   Pr3V4BiF28
_chemical_formula_sum   'Pr3 V4 Bi1 F28'
_cell_volume   559.08108265
_cell_formula_units_Z   1
loop_
 _symmetry_equiv_pos_site_id
 _symmetry_equiv_pos_as_xyz
  1  'x, y, z'
loop_
 _atom_site_type_symbol
 _atom_site_label
 _atom_site_symmetry_multiplicity
 _atom_site_fract_x
 _atom_site_fract_y
 _atom_site_fract_z
 _atom_site_occupancy
  Pr  Pr0  1  0.258292  0.194486  0.732411  1
  Pr  Pr1  1  0.241622  0.192796  0.232405  1
  Pr  Pr2  1  0.742258  0.806522  0.268338  1
  V  V3  1  0.754421  0.273723  0.956859  1
  V  V4  1  0.255832  0.726755  0.544775  1
  V  V5  1  0.246035  0.726228  0.041840  1
  V  V6  1  0.746466  0.274221  0.456798  1
  Bi  Bi7  1  0.763261  0.810643  0.767987  1
  F  F8  1  0.440980  0.708445  0.922485  1
  F  F9  1  0.942389  0.291354  0.577022  1
  F  F10  1  0.558651  0.290335  0.076788  1
  F  F11  1  0.059497  0.708953  0.424718  1
  F  F12  1  0.469219  0.284886  0.543623  1
  F  F13  1  0.962684  0.717206  0.955527  1
  F  F14  1  0.532588  0.713631  0.458908  1
  F  F15  1  0.032829  0.284821  0.042171  1
  F  F16  1  0.763454  0.497364  0.865453  1
  F  F17  1  0.264831  0.499631  0.635839  1
  F  F18  1  0.233692  0.500480  0.131906  1
  F  F19  1  0.736003  0.500260  0.366284  1
  F  F20  1  0.760943  0.048515  0.046808  1
  F  F21  1  0.261462  0.951390  0.453676  1
  F  F22  1  0.238920  0.951271  0.951721  1
  F  F23  1  0.740622  0.049550  0.545880  1
  F  F24  1  0.982903  0.733640  0.633249  1
  F  F25  1  0.482256  0.264962  0.867334  1
  F  F26  1  0.018073  0.269090  0.367185  1
  F  F27  1  0.515904  0.731557  0.132246  1
  F  F28  1  0.050490  0.744142  0.163279  1
  F  F29  1  0.551262  0.258004  0.334899  1
  F  F30  1  0.948489  0.254519  0.834753  1
  F  F31  1  0.448566  0.746383  0.665859  1
  F  F32  1  0.406521  0.968090  0.228009  1
  F  F33  1  0.906180  0.031514  0.272427  1
  F  F34  1  0.597446  0.025934  0.772587  1
  F  F35  1  0.084958  0.968696  0.727951  1
