# generated using pymatgen
data_Dy3Sc(SiRh2)8
_symmetry_space_group_name_H-M   'P 1'
_cell_length_a   4.10343700
_cell_length_b   9.08946148
_cell_length_c   11.23140621
_cell_angle_alpha   90.59962747
_cell_angle_beta   90.00000000
_cell_angle_gamma   90.00000000
_symmetry_Int_Tables_number   1
_chemical_formula_structural   Dy3Sc(SiRh2)8
_chemical_formula_sum   'Dy3 Sc1 Si8 Rh16'
_cell_volume   418.88641379
_cell_formula_units_Z   1
loop_
 _symmetry_equiv_pos_site_id
 _symmetry_equiv_pos_as_xyz
  1  'x, y, z'
loop_
 _atom_site_type_symbol
 _atom_site_label
 _atom_site_symmetry_multiplicity
 _atom_site_fract_x
 _atom_site_fract_y
 _atom_site_fract_z
 _atom_site_occupancy
  Dy  Dy0  1  0.250000  0.146078  0.823196  1
  Dy  Dy1  1  0.250000  0.352913  0.326257  1
  Dy  Dy2  1  0.750000  0.849732  0.173861  1
  Sc  Sc3  1  0.750000  0.644231  0.676076  1
  Si  Si4  1  0.250000  0.417238  0.638664  1
  Si  Si5  1  0.250000  0.087126  0.134520  1
  Si  Si6  1  0.750000  0.590001  0.365881  1
  Si  Si7  1  0.750000  0.907003  0.860062  1
  Si  Si8  1  0.250000  0.618208  0.059831  1
  Si  Si9  1  0.250000  0.887822  0.558745  1
  Si  Si10  1  0.750000  0.382737  0.942496  1
  Si  Si11  1  0.750000  0.118617  0.441424  1
  Rh  Rh12  1  0.250000  0.623090  0.510590  1
  Rh  Rh13  1  0.250000  0.884295  0.993766  1
  Rh  Rh14  1  0.750000  0.390217  0.501323  1
  Rh  Rh15  1  0.750000  0.113286  0.997710  1
  Rh  Rh16  1  0.250000  0.681560  0.274069  1
  Rh  Rh17  1  0.250000  0.799408  0.761321  1
  Rh  Rh18  1  0.750000  0.318043  0.731037  1
  Rh  Rh19  1  0.750000  0.183708  0.230131  1
  Rh  Rh20  1  0.250000  0.175747  0.560407  1
  Rh  Rh21  1  0.250000  0.326439  0.058431  1
  Rh  Rh22  1  0.750000  0.829561  0.442221  1
  Rh  Rh23  1  0.750000  0.670389  0.937282  1
  Rh  Rh24  1  0.250000  0.008205  0.343682  1
  Rh  Rh25  1  0.250000  0.493712  0.844580  1
  Rh  Rh26  1  0.750000  0.991870  0.657455  1
  Rh  Rh27  1  0.750000  0.508762  0.154982  1
