# generated using pymatgen
data_CaNdNi2(B4Os3)2
_symmetry_space_group_name_H-M   'P 1'
_cell_length_a   7.58067363
_cell_length_b   7.34828542
_cell_length_c   3.99731700
_cell_angle_alpha   90.00000000
_cell_angle_beta   90.00000000
_cell_angle_gamma   87.72410645
_symmetry_Int_Tables_number   1
_chemical_formula_structural   CaNdNi2(B4Os3)2
_chemical_formula_sum   'Ca1 Nd1 Ni2 B8 Os6'
_cell_volume   222.49471331
_cell_formula_units_Z   1
loop_
 _symmetry_equiv_pos_site_id
 _symmetry_equiv_pos_as_xyz
  1  'x, y, z'
loop_
 _atom_site_type_symbol
 _atom_site_label
 _atom_site_symmetry_multiplicity
 _atom_site_fract_x
 _atom_site_fract_y
 _atom_site_fract_z
 _atom_site_occupancy
  Ca  Ca0  1  0.000000  0.000000  0.416387  1
  Nd  Nd1  1  0.500000  0.500000  0.982728  1
  Ni  Ni2  1  0.362097  0.113940  0.117949  1
  Ni  Ni3  1  0.637903  0.886060  0.117949  1
  B  B4  1  0.655339  0.807265  0.614720  1
  B  B5  1  0.172538  0.281415  0.892608  1
  B  B6  1  0.289586  0.831502  0.117251  1
  B  B7  1  0.710414  0.168498  0.117251  1
  B  B8  1  0.344661  0.192735  0.614720  1
  B  B9  1  0.827462  0.718585  0.892608  1
  B  B10  1  0.216765  0.665165  0.397462  1
  B  B11  1  0.783235  0.334835  0.397462  1
  Os  Os12  1  0.619767  0.131452  0.622546  1
  Os  Os13  1  0.104932  0.649830  0.894949  1
  Os  Os14  1  0.152787  0.384961  0.392957  1
  Os  Os15  1  0.847213  0.615039  0.392957  1
  Os  Os16  1  0.895068  0.350170  0.894949  1
  Os  Os17  1  0.380233  0.868548  0.622546  1
