# generated using pymatgen
data_Dy4Y2Al16Os7
_symmetry_space_group_name_H-M   'P 1'
_cell_length_a   8.95397108
_cell_length_b   8.95045599
_cell_length_c   8.95045400
_cell_angle_alpha   60.01450889
_cell_angle_beta   59.98677709
_cell_angle_gamma   59.98677253
_symmetry_Int_Tables_number   1
_chemical_formula_structural   Dy4Y2Al16Os7
_chemical_formula_sum   'Dy4 Y2 Al16 Os7'
_cell_volume   507.16777508
_cell_formula_units_Z   1
loop_
 _symmetry_equiv_pos_site_id
 _symmetry_equiv_pos_as_xyz
  1  'x, y, z'
loop_
 _atom_site_type_symbol
 _atom_site_label
 _atom_site_symmetry_multiplicity
 _atom_site_fract_x
 _atom_site_fract_y
 _atom_site_fract_z
 _atom_site_occupancy
  Dy  Dy0  1  0.211643  0.788221  0.788221  1
  Dy  Dy1  1  0.788096  0.211778  0.211778  1
  Dy  Dy2  1  0.788109  0.211814  0.788182  1
  Dy  Dy3  1  0.788109  0.788182  0.211814  1
  Y  Y4  1  0.211633  0.788241  0.211760  1
  Y  Y5  1  0.211633  0.211760  0.788241  1
  Al  Al6  1  0.832319  0.832196  0.832196  1
  Al  Al7  1  0.832247  0.832335  0.503190  1
  Al  Al8  1  0.503086  0.832269  0.832269  1
  Al  Al9  1  0.832247  0.503190  0.832335  1
  Al  Al10  1  0.167620  0.167732  0.167732  1
  Al  Al11  1  0.167765  0.167666  0.496811  1
  Al  Al12  1  0.167765  0.496811  0.167666  1
  Al  Al13  1  0.496708  0.167803  0.167803  1
  Al  Al14  1  0.620882  0.620977  0.620977  1
  Al  Al15  1  0.620958  0.620872  0.137212  1
  Al  Al16  1  0.137241  0.620949  0.620949  1
  Al  Al17  1  0.620958  0.137212  0.620872  1
  Al  Al18  1  0.379137  0.379053  0.379053  1
  Al  Al19  1  0.379039  0.379128  0.862789  1
  Al  Al20  1  0.379039  0.862789  0.379128  1
  Al  Al21  1  0.862837  0.379022  0.379022  1
  Os  Os22  1  0.500059  0.499999  0.499999  1
  Os  Os23  1  0.999813  0.500001  0.500001  1
  Os  Os24  1  0.500534  0.000000  0.000000  1
  Os  Os25  1  0.500294  0.999877  0.499797  1
  Os  Os26  1  0.500294  0.499797  0.999877  1
  Os  Os27  1  0.999968  0.500206  0.000120  1
  Os  Os28  1  0.999968  0.000120  0.500206  1
