# generated using pymatgen
data_Hf3Sc4TiIr4
_symmetry_space_group_name_H-M   'P 1'
_cell_length_a   4.40565900
_cell_length_b   6.70952322
_cell_length_c   8.03797078
_cell_angle_alpha   90.15820413
_cell_angle_beta   90.00000000
_cell_angle_gamma   90.00000000
_symmetry_Int_Tables_number   1
_chemical_formula_structural   Hf3Sc4TiIr4
_chemical_formula_sum   'Hf3 Sc4 Ti1 Ir4'
_cell_volume   237.60047639
_cell_formula_units_Z   1
loop_
 _symmetry_equiv_pos_site_id
 _symmetry_equiv_pos_as_xyz
  1  'x, y, z'
loop_
 _atom_site_type_symbol
 _atom_site_label
 _atom_site_symmetry_multiplicity
 _atom_site_fract_x
 _atom_site_fract_y
 _atom_site_fract_z
 _atom_site_occupancy
  Hf  Hf0  1  0.250000  0.355299  0.576415  1
  Hf  Hf1  1  0.250000  0.849200  0.925567  1
  Hf  Hf2  1  0.750000  0.649797  0.425537  1
  Sc  Sc3  1  0.250000  0.991726  0.316579  1
  Sc  Sc4  1  0.250000  0.476677  0.175431  1
  Sc  Sc5  1  0.750000  0.019188  0.676253  1
  Sc  Sc6  1  0.750000  0.505683  0.831993  1
  Ti  Ti7  1  0.750000  0.141300  0.071552  1
  Ir  Ir8  1  0.250000  0.239572  0.911463  1
  Ir  Ir9  1  0.250000  0.752171  0.592943  1
  Ir  Ir10  1  0.750000  0.762888  0.097643  1
  Ir  Ir11  1  0.750000  0.256499  0.398623  1
