# generated using pymatgen
data_Tb4Er2Al24CuRu7
_symmetry_space_group_name_H-M   'P 1'
_cell_length_a   8.83047406
_cell_length_b   8.83047337
_cell_length_c   9.54941125
_cell_angle_alpha   89.77998287
_cell_angle_beta   90.22001977
_cell_angle_gamma   119.84746009
_symmetry_Int_Tables_number   1
_chemical_formula_structural   Tb4Er2Al24CuRu7
_chemical_formula_sum   'Tb4 Er2 Al24 Cu1 Ru7'
_cell_volume   645.85712896
_cell_formula_units_Z   1
loop_
 _symmetry_equiv_pos_site_id
 _symmetry_equiv_pos_as_xyz
  1  'x, y, z'
loop_
 _atom_site_type_symbol
 _atom_site_label
 _atom_site_symmetry_multiplicity
 _atom_site_fract_x
 _atom_site_fract_y
 _atom_site_fract_z
 _atom_site_occupancy
  Tb  Tb0  1  0.192962  0.385587  0.248008  1
  Tb  Tb1  1  0.807038  0.614413  0.751992  1
  Tb  Tb2  1  0.614413  0.807038  0.248008  1
  Tb  Tb3  1  0.385587  0.192962  0.751992  1
  Er  Er4  1  0.195277  0.804723  0.251894  1
  Er  Er5  1  0.804723  0.195277  0.748106  1
  Al  Al6  1  0.331689  0.668311  0.020672  1
  Al  Al7  1  0.668311  0.331689  0.979328  1
  Al  Al8  1  0.666541  0.333459  0.516092  1
  Al  Al9  1  0.333459  0.666541  0.483908  1
  Al  Al10  1  0.162592  0.324514  0.577488  1
  Al  Al11  1  0.837408  0.675486  0.422512  1
  Al  Al12  1  0.675486  0.837408  0.577488  1
  Al  Al13  1  0.844547  0.676433  0.079995  1
  Al  Al14  1  0.324514  0.162592  0.422512  1
  Al  Al15  1  0.155453  0.323567  0.920005  1
  Al  Al16  1  0.162513  0.837487  0.578113  1
  Al  Al17  1  0.323567  0.155453  0.079995  1
  Al  Al18  1  0.837487  0.162513  0.421887  1
  Al  Al19  1  0.676433  0.844547  0.920005  1
  Al  Al20  1  0.836908  0.163092  0.076338  1
  Al  Al21  1  0.163092  0.836908  0.923662  1
  Al  Al22  1  0.560717  0.121144  0.248434  1
  Al  Al23  1  0.439283  0.878856  0.751566  1
  Al  Al24  1  0.878856  0.439283  0.248434  1
  Al  Al25  1  0.121144  0.560717  0.751566  1
  Al  Al26  1  0.562166  0.437834  0.249890  1
  Al  Al27  1  0.437834  0.562166  0.750110  1
  Al  Al28  1  0.000252  0.999748  0.250157  1
  Al  Al29  1  0.999748  0.000252  0.749843  1
  Cu  Cu30  1  0.500000  0.500000  0.000000  1
  Ru  Ru31  1  0.500000  0.000000  0.000000  1
  Ru  Ru32  1  0.000000  0.500000  0.000000  1
  Ru  Ru33  1  0.500000  0.000000  0.500000  1
  Ru  Ru34  1  0.000000  0.500000  0.500000  1
  Ru  Ru35  1  0.500000  0.500000  0.500000  1
  Ru  Ru36  1  0.000000  0.000000  0.000000  1
  Ru  Ru37  1  0.000000  0.000000  0.500000  1
