# generated using pymatgen
data_Ti3Be15Nb3Cu8
_symmetry_space_group_name_H-M   'P 1'
_cell_length_a   7.65713971
_cell_length_b   7.64780166
_cell_length_c   7.61583978
_cell_angle_alpha   60.21917598
_cell_angle_beta   60.09729188
_cell_angle_gamma   59.68352704
_symmetry_Int_Tables_number   1
_chemical_formula_structural   Ti3Be15Nb3Cu8
_chemical_formula_sum   'Ti3 Be15 Nb3 Cu8'
_cell_volume   315.34443259
_cell_formula_units_Z   1
loop_
 _symmetry_equiv_pos_site_id
 _symmetry_equiv_pos_as_xyz
  1  'x, y, z'
loop_
 _atom_site_type_symbol
 _atom_site_label
 _atom_site_symmetry_multiplicity
 _atom_site_fract_x
 _atom_site_fract_y
 _atom_site_fract_z
 _atom_site_occupancy
  Ti  Ti0  1  0.696611  0.303389  0.696611  1
  Ti  Ti1  1  0.297773  0.298487  0.701513  1
  Ti  Ti2  1  0.701513  0.702227  0.297773  1
  Be  Be3  1  0.325091  0.325690  0.326942  1
  Be  Be4  1  0.674026  0.672526  0.671628  1
  Be  Be5  1  0.327474  0.325974  0.018181  1
  Be  Be6  1  0.326942  0.022278  0.325091  1
  Be  Be7  1  0.674310  0.674909  0.977722  1
  Be  Be8  1  0.671628  0.981819  0.674026  1
  Be  Be9  1  0.018181  0.328372  0.327474  1
  Be  Be10  1  0.977722  0.673058  0.674310  1
  Be  Be11  1  0.499254  0.998568  0.001432  1
  Be  Be12  1  0.001432  0.500746  0.499254  1
  Be  Be13  1  0.000099  0.499901  0.000099  1
  Be  Be14  1  0.500099  0.999901  0.500099  1
  Be  Be15  1  0.000356  0.999644  0.499565  1
  Be  Be16  1  0.499565  0.500435  0.000356  1
  Be  Be17  1  0.000249  0.999751  0.000249  1
  Nb  Nb18  1  0.684081  0.315919  0.314197  1
  Nb  Nb19  1  0.314197  0.685803  0.684081  1
  Nb  Nb20  1  0.310308  0.689692  0.310308  1
  Cu  Cu21  1  0.121562  0.123072  0.122783  1
  Cu  Cu22  1  0.878389  0.878143  0.876812  1
  Cu  Cu23  1  0.121857  0.121611  0.633344  1
  Cu  Cu24  1  0.122783  0.632584  0.121562  1
  Cu  Cu25  1  0.876928  0.878438  0.367416  1
  Cu  Cu26  1  0.876812  0.366656  0.878389  1
  Cu  Cu27  1  0.633344  0.123188  0.121857  1
  Cu  Cu28  1  0.367416  0.877217  0.876928  1
