# generated using pymatgen
data_Ho3ErB16Ir3Ru
_symmetry_space_group_name_H-M   'P 1'
_cell_length_a   3.55828700
_cell_length_b   5.95545430
_cell_length_c   11.55030404
_cell_angle_alpha   90.06410333
_cell_angle_beta   90.00000000
_cell_angle_gamma   90.00000000
_symmetry_Int_Tables_number   1
_chemical_formula_structural   Ho3ErB16Ir3Ru
_chemical_formula_sum   'Ho3 Er1 B16 Ir3 Ru1'
_cell_volume   244.76483015
_cell_formula_units_Z   1
loop_
 _symmetry_equiv_pos_site_id
 _symmetry_equiv_pos_as_xyz
  1  'x, y, z'
loop_
 _atom_site_type_symbol
 _atom_site_label
 _atom_site_symmetry_multiplicity
 _atom_site_fract_x
 _atom_site_fract_y
 _atom_site_fract_z
 _atom_site_occupancy
  Ho  Ho0  1  0.000000  0.370099  0.351291  1
  Ho  Ho1  1  0.000000  0.131173  0.851459  1
  Ho  Ho2  1  0.000000  0.868197  0.151051  1
  Er  Er3  1  0.000000  0.631629  0.646985  1
  B  B4  1  0.500000  0.972334  0.691664  1
  B  B5  1  0.500000  0.024448  0.307631  1
  B  B6  1  0.500000  0.474314  0.807177  1
  B  B7  1  0.500000  0.525345  0.192669  1
  B  B8  1  0.500000  0.791934  0.812354  1
  B  B9  1  0.500000  0.208736  0.187726  1
  B  B10  1  0.500000  0.291973  0.687236  1
  B  B11  1  0.500000  0.709908  0.313752  1
  B  B12  1  0.500000  0.863816  0.969828  1
  B  B13  1  0.500000  0.136037  0.030043  1
  B  B14  1  0.500000  0.363714  0.529714  1
  B  B15  1  0.500000  0.635428  0.469108  1
  B  B16  1  0.500000  0.886074  0.545624  1
  B  B17  1  0.500000  0.111368  0.452290  1
  B  B18  1  0.500000  0.387599  0.953021  1
  B  B19  1  0.500000  0.612512  0.047293  1
  Ir  Ir20  1  0.000000  0.644220  0.902718  1
  Ir  Ir21  1  0.000000  0.355754  0.096017  1
  Ir  Ir22  1  0.000000  0.143641  0.597124  1
  Ru  Ru23  1  0.000000  0.859746  0.406224  1
