# generated using pymatgen
data_TmLuAl2Ga7Ir3
_symmetry_space_group_name_H-M   'P 1'
_cell_length_a   7.54741340
_cell_length_b   7.54573026
_cell_length_c   9.46649000
_cell_angle_alpha   90.00000000
_cell_angle_beta   90.00000000
_cell_angle_gamma   119.78734759
_symmetry_Int_Tables_number   1
_chemical_formula_structural   TmLuAl2Ga7Ir3
_chemical_formula_sum   'Tm2 Lu2 Al4 Ga14 Ir6'
_cell_volume   467.89204578
_cell_formula_units_Z   2
loop_
 _symmetry_equiv_pos_site_id
 _symmetry_equiv_pos_as_xyz
  1  'x, y, z'
loop_
 _atom_site_type_symbol
 _atom_site_label
 _atom_site_symmetry_multiplicity
 _atom_site_fract_x
 _atom_site_fract_y
 _atom_site_fract_z
 _atom_site_occupancy
  Tm  Tm0  1  0.000950  0.669793  0.750000  1
  Tm  Tm1  1  0.999050  0.330207  0.250000  1
  Lu  Lu2  1  0.669770  0.001053  0.750000  1
  Lu  Lu3  1  0.330230  0.998947  0.250000  1
  Al  Al4  1  0.331434  0.331498  0.054250  1
  Al  Al5  1  0.668566  0.668502  0.945750  1
  Al  Al6  1  0.668566  0.668502  0.554250  1
  Al  Al7  1  0.331434  0.331498  0.445750  1
  Ga  Ga8  1  0.126150  0.126245  0.750000  1
  Ga  Ga9  1  0.873850  0.873755  0.250000  1
  Ga  Ga10  1  0.999686  0.335224  0.580367  1
  Ga  Ga11  1  0.000314  0.664776  0.419633  1
  Ga  Ga12  1  0.000314  0.664776  0.080367  1
  Ga  Ga13  1  0.335306  0.999807  0.919559  1
  Ga  Ga14  1  0.999686  0.335224  0.919633  1
  Ga  Ga15  1  0.664694  0.000193  0.080441  1
  Ga  Ga16  1  0.664694  0.000193  0.419559  1
  Ga  Ga17  1  0.335306  0.999807  0.580441  1
  Ga  Ga18  1  0.347109  0.550554  0.750000  1
  Ga  Ga19  1  0.652891  0.449446  0.250000  1
  Ga  Ga20  1  0.550790  0.347447  0.750000  1
  Ga  Ga21  1  0.449210  0.652553  0.250000  1
  Ir  Ir22  1  0.669885  0.330114  0.499949  1
  Ir  Ir23  1  0.330115  0.669886  0.500051  1
  Ir  Ir24  1  0.330115  0.669886  0.999949  1
  Ir  Ir25  1  0.669885  0.330114  0.000051  1
  Ir  Ir26  1  0.000000  0.000000  0.500000  1
  Ir  Ir27  1  0.000000  0.000000  0.000000  1
