# generated using pymatgen
data_Tb2Dy2ReTcB12
_symmetry_space_group_name_H-M   'P 1'
_cell_length_a   3.69712400
_cell_length_b   9.19122533
_cell_length_c   11.58536700
_cell_angle_alpha   90.05516854
_cell_angle_beta   90.00000000
_cell_angle_gamma   90.00000000
_symmetry_Int_Tables_number   1
_chemical_formula_structural   Tb2Dy2ReTcB12
_chemical_formula_sum   'Tb4 Dy4 Re2 Tc2 B24'
_cell_volume   393.68332915
_cell_formula_units_Z   2
loop_
 _symmetry_equiv_pos_site_id
 _symmetry_equiv_pos_as_xyz
  1  'x, y, z'
loop_
 _atom_site_type_symbol
 _atom_site_label
 _atom_site_symmetry_multiplicity
 _atom_site_fract_x
 _atom_site_fract_y
 _atom_site_fract_z
 _atom_site_occupancy
  Tb  Tb0  1  0.000000  0.324009  0.413954  1
  Tb  Tb1  1  0.000000  0.675991  0.586046  1
  Tb  Tb2  1  0.000000  0.823664  0.085997  1
  Tb  Tb3  1  0.000000  0.176336  0.914003  1
  Dy  Dy4  1  0.000000  0.942053  0.369767  1
  Dy  Dy5  1  0.000000  0.057947  0.630233  1
  Dy  Dy6  1  0.000000  0.443629  0.130618  1
  Dy  Dy7  1  0.000000  0.556371  0.869382  1
  Re  Re8  1  0.000000  0.138638  0.179392  1
  Re  Re9  1  0.000000  0.861362  0.820608  1
  Tc  Tc10  1  0.000000  0.638714  0.320684  1
  Tc  Tc11  1  0.000000  0.361286  0.679316  1
  B  B12  1  0.500000  0.553546  0.432613  1
  B  B13  1  0.500000  0.446454  0.567387  1
  B  B14  1  0.500000  0.053470  0.067285  1
  B  B15  1  0.500000  0.946530  0.932715  1
  B  B16  1  0.500000  0.748479  0.418278  1
  B  B17  1  0.500000  0.251521  0.581722  1
  B  B18  1  0.500000  0.248998  0.081689  1
  B  B19  1  0.500000  0.751002  0.918311  1
  B  B20  1  0.500000  0.791515  0.265644  1
  B  B21  1  0.500000  0.208485  0.734356  1
  B  B22  1  0.500000  0.291824  0.234492  1
  B  B23  1  0.500000  0.708176  0.765508  1
  B  B24  1  0.500000  0.631044  0.186061  1
  B  B25  1  0.500000  0.368956  0.813939  1
  B  B26  1  0.500000  0.130707  0.314211  1
  B  B27  1  0.500000  0.869293  0.685789  1
  B  B28  1  0.500000  0.982608  0.211882  1
  B  B29  1  0.500000  0.017392  0.788118  1
  B  B30  1  0.500000  0.482969  0.288222  1
  B  B31  1  0.500000  0.517031  0.711778  1
  B  B32  1  0.500000  0.600346  0.027923  1
  B  B33  1  0.500000  0.399654  0.972077  1
  B  B34  1  0.500000  0.100083  0.471859  1
  B  B35  1  0.500000  0.899917  0.528141  1
