# generated using pymatgen
data_Dy8CrRu3C8
_symmetry_space_group_name_H-M   'P 1'
_cell_length_a   5.08827100
_cell_length_b   6.48002716
_cell_length_c   9.79458601
_cell_angle_alpha   90.15069704
_cell_angle_beta   90.00000000
_cell_angle_gamma   90.00000000
_symmetry_Int_Tables_number   1
_chemical_formula_structural   Dy8CrRu3C8
_chemical_formula_sum   'Dy8 Cr1 Ru3 C8'
_cell_volume   322.94728792
_cell_formula_units_Z   1
loop_
 _symmetry_equiv_pos_site_id
 _symmetry_equiv_pos_as_xyz
  1  'x, y, z'
loop_
 _atom_site_type_symbol
 _atom_site_label
 _atom_site_symmetry_multiplicity
 _atom_site_fract_x
 _atom_site_fract_y
 _atom_site_fract_z
 _atom_site_occupancy
  Dy  Dy0  1  0.250000  0.680851  0.558273  1
  Dy  Dy1  1  0.750000  0.323403  0.444880  1
  Dy  Dy2  1  0.750000  0.820097  0.053160  1
  Dy  Dy3  1  0.250000  0.178037  0.943560  1
  Dy  Dy4  1  0.250000  0.528625  0.212741  1
  Dy  Dy5  1  0.750000  0.471691  0.782095  1
  Dy  Dy6  1  0.750000  0.973226  0.716627  1
  Dy  Dy7  1  0.250000  0.029366  0.287560  1
  Cr  Cr8  1  0.250000  0.724463  0.862754  1
  Ru  Ru9  1  0.750000  0.278828  0.135360  1
  Ru  Ru10  1  0.750000  0.780648  0.363667  1
  Ru  Ru11  1  0.250000  0.224407  0.637327  1
  C  C12  1  0.250000  0.464750  0.764865  1
  C  C13  1  0.750000  0.544715  0.241592  1
  C  C14  1  0.750000  0.043922  0.256938  1
  C  C15  1  0.250000  0.950965  0.745625  1
  C  C16  1  0.250000  0.811549  0.041930  1
  C  C17  1  0.750000  0.174795  0.949272  1
  C  C18  1  0.750000  0.674652  0.550750  1
  C  C19  1  0.250000  0.321010  0.451021  1
