# generated using pymatgen
data_Dy3In3CuAgHg
_symmetry_space_group_name_H-M   'P 1'
_cell_length_a   7.72824900
_cell_length_b   7.72824978
_cell_length_c   4.03991700
_cell_angle_alpha   90.00000000
_cell_angle_beta   90.00000000
_cell_angle_gamma   120.00000949
_symmetry_Int_Tables_number   1
_chemical_formula_structural   Dy3In3CuAgHg
_chemical_formula_sum   'Dy3 In3 Cu1 Ag1 Hg1'
_cell_volume   208.96102485
_cell_formula_units_Z   1
loop_
 _symmetry_equiv_pos_site_id
 _symmetry_equiv_pos_as_xyz
  1  'x, y, z'
loop_
 _atom_site_type_symbol
 _atom_site_label
 _atom_site_symmetry_multiplicity
 _atom_site_fract_x
 _atom_site_fract_y
 _atom_site_fract_z
 _atom_site_occupancy
  Dy  Dy0  1  0.404843  0.004045  0.500000  1
  Dy  Dy1  1  0.995955  0.400798  0.500000  1
  Dy  Dy2  1  0.599202  0.595157  0.500000  1
  In  In3  1  0.757607  0.005649  0.000000  1
  In  In4  1  0.994351  0.751957  0.000000  1
  In  In5  1  0.248043  0.242393  0.000000  1
  Cu  Cu6  1  0.000000  0.000000  0.500000  1
  Ag  Ag7  1  0.666667  0.333333  0.000000  1
  Hg  Hg8  1  0.333333  0.666667  0.000000  1
