# generated using pymatgen
data_Tb4Sc4B24IrRu3
_symmetry_space_group_name_H-M   'P 1'
_cell_length_a   3.56784100
_cell_length_b   8.99504901
_cell_length_c   11.38116501
_cell_angle_alpha   90.00424691
_cell_angle_beta   90.00000000
_cell_angle_gamma   90.00000000
_symmetry_Int_Tables_number   1
_chemical_formula_structural   Tb4Sc4B24IrRu3
_chemical_formula_sum   'Tb4 Sc4 B24 Ir1 Ru3'
_cell_volume   365.25464230
_cell_formula_units_Z   1
loop_
 _symmetry_equiv_pos_site_id
 _symmetry_equiv_pos_as_xyz
  1  'x, y, z'
loop_
 _atom_site_type_symbol
 _atom_site_label
 _atom_site_symmetry_multiplicity
 _atom_site_fract_x
 _atom_site_fract_y
 _atom_site_fract_z
 _atom_site_occupancy
  Tb  Tb0  1  0.500000  0.318588  0.414484  1
  Tb  Tb1  1  0.500000  0.679628  0.588311  1
  Tb  Tb2  1  0.500000  0.179393  0.913447  1
  Tb  Tb3  1  0.500000  0.821930  0.084470  1
  Sc  Sc4  1  0.500000  0.442896  0.124183  1
  Sc  Sc5  1  0.500000  0.554899  0.874350  1
  Sc  Sc6  1  0.500000  0.055034  0.625729  1
  Sc  Sc7  1  0.500000  0.947609  0.374643  1
  B  B8  1  0.000000  0.099738  0.473008  1
  B  B9  1  0.000000  0.899856  0.526713  1
  B  B10  1  0.000000  0.400110  0.973117  1
  B  B11  1  0.000000  0.599995  0.027238  1
  B  B12  1  0.000000  0.129600  0.317474  1
  B  B13  1  0.000000  0.870356  0.682868  1
  B  B14  1  0.000000  0.370579  0.817142  1
  B  B15  1  0.000000  0.629537  0.181382  1
  B  B16  1  0.000000  0.055581  0.067516  1
  B  B17  1  0.000000  0.944648  0.932352  1
  B  B18  1  0.000000  0.444395  0.567538  1
  B  B19  1  0.000000  0.555125  0.433146  1
  B  B20  1  0.000000  0.482177  0.284929  1
  B  B21  1  0.000000  0.517188  0.714811  1
  B  B22  1  0.000000  0.017126  0.785223  1
  B  B23  1  0.000000  0.982989  0.214830  1
  B  B24  1  0.000000  0.253629  0.081441  1
  B  B25  1  0.000000  0.746429  0.918532  1
  B  B26  1  0.000000  0.246042  0.581566  1
  B  B27  1  0.000000  0.754801  0.419471  1
  B  B28  1  0.000000  0.294119  0.234542  1
  B  B29  1  0.000000  0.705681  0.765790  1
  B  B30  1  0.000000  0.205836  0.734221  1
  B  B31  1  0.000000  0.794687  0.265175  1
  Ir  Ir32  1  0.500000  0.640517  0.318937  1
  Ru  Ru33  1  0.500000  0.140831  0.181697  1
  Ru  Ru34  1  0.500000  0.858998  0.818544  1
  Ru  Ru35  1  0.500000  0.359454  0.681182  1
