# generated using pymatgen
data_Zr2Co5(SiIr)7
_symmetry_space_group_name_H-M   'P 1'
_cell_length_a   9.41541630
_cell_length_b   9.41337207
_cell_length_c   3.75433000
_cell_angle_alpha   90.00000000
_cell_angle_beta   90.00000000
_cell_angle_gamma   119.80741204
_symmetry_Int_Tables_number   1
_chemical_formula_structural   Zr2Co5(SiIr)7
_chemical_formula_sum   'Zr2 Co5 Si7 Ir7'
_cell_volume   288.72698198
_cell_formula_units_Z   1
loop_
 _symmetry_equiv_pos_site_id
 _symmetry_equiv_pos_as_xyz
  1  'x, y, z'
loop_
 _atom_site_type_symbol
 _atom_site_label
 _atom_site_symmetry_multiplicity
 _atom_site_fract_x
 _atom_site_fract_y
 _atom_site_fract_z
 _atom_site_occupancy
  Zr  Zr0  1  0.999019  0.998763  0.000000  1
  Zr  Zr1  1  0.334487  0.674399  0.500000  1
  Co  Co2  1  0.103906  0.708043  0.000000  1
  Co  Co3  1  0.390023  0.178427  0.000000  1
  Co  Co4  1  0.793687  0.611620  0.000000  1
  Co  Co5  1  0.816475  0.207634  0.000000  1
  Co  Co6  1  0.603513  0.898466  0.000000  1
  Si  Si7  1  0.666126  0.333258  0.000000  1
  Si  Si8  1  0.067836  0.452370  0.000000  1
  Si  Si9  1  0.264514  0.215895  0.500000  1
  Si  Si10  1  0.778672  0.042654  0.500000  1
  Si  Si11  1  0.955465  0.735748  0.500000  1
  Si  Si12  1  0.556939  0.632283  0.000000  1
  Si  Si13  1  0.375993  0.923971  0.000000  1
  Ir  Ir14  1  0.295746  0.403394  0.000000  1
  Ir  Ir15  1  0.898723  0.462575  0.500000  1
  Ir  Ir16  1  0.544643  0.433282  0.500000  1
  Ir  Ir17  1  0.224414  0.947388  0.500000  1
  Ir  Ir18  1  0.044964  0.269844  0.500000  1
  Ir  Ir19  1  0.724125  0.774028  0.500000  1
  Ir  Ir20  1  0.560730  0.095960  0.500000  1
