# generated using pymatgen
data_Ho4AlPt
_symmetry_space_group_name_H-M   'P 1'
_cell_length_a   9.57157243
_cell_length_b   9.57157273
_cell_length_c   9.57157300
_cell_angle_alpha   60.00000252
_cell_angle_beta   60.00000148
_cell_angle_gamma   60.00000801
_symmetry_Int_Tables_number   1
_chemical_formula_structural   Ho4AlPt
_chemical_formula_sum   'Ho16 Al4 Pt4'
_cell_volume   620.06176353
_cell_formula_units_Z   4
loop_
 _symmetry_equiv_pos_site_id
 _symmetry_equiv_pos_as_xyz
  1  'x, y, z'
loop_
 _atom_site_type_symbol
 _atom_site_label
 _atom_site_symmetry_multiplicity
 _atom_site_fract_x
 _atom_site_fract_y
 _atom_site_fract_z
 _atom_site_occupancy
  Ho  Ho0  1  0.603964  0.603964  0.603964  1
  Ho  Ho1  1  0.603964  0.603964  0.188109  1
  Ho  Ho2  1  0.603964  0.188109  0.603964  1
  Ho  Ho3  1  0.188109  0.603964  0.603964  1
  Ho  Ho4  1  0.057069  0.442931  0.442931  1
  Ho  Ho5  1  0.442931  0.057069  0.057069  1
  Ho  Ho6  1  0.442931  0.057069  0.442931  1
  Ho  Ho7  1  0.057069  0.442931  0.057069  1
  Ho  Ho8  1  0.442931  0.442931  0.057069  1
  Ho  Ho9  1  0.057069  0.057069  0.442931  1
  Ho  Ho10  1  0.185725  0.814275  0.814275  1
  Ho  Ho11  1  0.814275  0.185725  0.185725  1
  Ho  Ho12  1  0.814275  0.185725  0.814275  1
  Ho  Ho13  1  0.185725  0.814275  0.185725  1
  Ho  Ho14  1  0.814275  0.814275  0.185725  1
  Ho  Ho15  1  0.185725  0.185725  0.814275  1
  Al  Al16  1  0.828090  0.828090  0.828090  1
  Al  Al17  1  0.828090  0.828090  0.515731  1
  Al  Al18  1  0.828090  0.515731  0.828090  1
  Al  Al19  1  0.515731  0.828090  0.828090  1
  Pt  Pt20  1  0.393334  0.393334  0.393334  1
  Pt  Pt21  1  0.393334  0.393334  0.819997  1
  Pt  Pt22  1  0.393334  0.819997  0.393334  1
  Pt  Pt23  1  0.819997  0.393334  0.393334  1
