# generated using pymatgen
data_ThNiF36
_symmetry_space_group_name_H-M   'P 1'
_cell_length_a   6.15560804
_cell_length_b   10.76232992
_cell_length_c   10.74978270
_cell_angle_alpha   91.85111137
_cell_angle_beta   99.64530259
_cell_angle_gamma   75.84908460
_symmetry_Int_Tables_number   1
_chemical_formula_structural   ThNiF36
_chemical_formula_sum   'Th1 Ni1 F36'
_cell_volume   680.75898659
_cell_formula_units_Z   1
loop_
 _symmetry_equiv_pos_site_id
 _symmetry_equiv_pos_as_xyz
  1  'x, y, z'
loop_
 _atom_site_type_symbol
 _atom_site_label
 _atom_site_symmetry_multiplicity
 _atom_site_fract_x
 _atom_site_fract_y
 _atom_site_fract_z
 _atom_site_occupancy
  Th  Th0  1  0.744379  0.834917  0.877925  1
  Ni  Ni1  1  0.220040  0.191262  0.140834  1
  F  F2  1  0.286688  0.399312  0.874336  1
  F  F3  1  0.636053  0.620966  0.120767  1
  F  F4  1  0.335522  0.286090  0.595401  1
  F  F5  1  0.663761  0.755652  0.425940  1
  F  F6  1  0.864195  0.224759  0.804366  1
  F  F7  1  0.175594  0.755361  0.194484  1
  F  F8  1  0.686146  0.837951  0.065533  1
  F  F9  1  0.276879  0.093690  0.997422  1
  F  F10  1  0.767727  0.613127  0.863533  1
  F  F11  1  0.288927  0.355667  0.122057  1
  F  F12  1  0.468569  0.456216  0.862256  1
  F  F13  1  0.577781  0.503220  0.141009  1
  F  F14  1  0.723178  0.705735  0.698991  1
  F  F15  1  0.257011  0.283315  0.289608  1
  F  F16  1  0.748476  0.963147  0.552049  1
  F  F17  1  0.237333  0.012949  0.465270  1
  F  F18  1  0.291620  0.176658  0.648752  1
  F  F19  1  0.676366  0.815931  0.311775  1
  F  F20  1  0.797483  0.084565  0.582644  1
  F  F21  1  0.167338  0.930921  0.367731  1
  F  F22  1  0.816086  0.012706  0.852412  1
  F  F23  1  0.199145  0.014154  0.151028  1
  F  F24  1  0.898971  0.350222  0.790959  1
  F  F25  1  0.115812  0.639157  0.216921  1
  F  F26  1  0.149660  0.753548  0.912103  1
  F  F27  1  0.916155  0.259586  0.093786  1
  F  F28  1  0.390370  0.946292  0.754803  1
  F  F29  1  0.567714  0.097636  0.209332  1
  F  F30  1  0.120289  0.747396  0.576677  1
  F  F31  1  0.897964  0.253898  0.426187  1
  F  F32  1  0.201941  0.633714  0.651934  1
  F  F33  1  0.799574  0.367910  0.352858  1
  F  F34  1  0.273952  0.849360  0.833113  1
  F  F35  1  0.728689  0.166822  0.156027  1
  F  F36  1  0.550550  0.453353  0.556013  1
  F  F37  1  0.482061  0.552831  0.463169  1
