# generated using pymatgen
data_Ca14TaNbSi8(O17F)2
_symmetry_space_group_name_H-M   'P 1'
_cell_length_a   10.55758100
_cell_length_b   7.45252052
_cell_length_c   10.96928500
_cell_angle_alpha   70.52922384
_cell_angle_beta   90.00000000
_cell_angle_gamma   90.00000000
_symmetry_Int_Tables_number   1
_chemical_formula_structural   Ca14TaNbSi8(O17F)2
_chemical_formula_sum   'Ca14 Ta1 Nb1 Si8 O34 F2'
_cell_volume   813.71224763
_cell_formula_units_Z   1
loop_
 _symmetry_equiv_pos_site_id
 _symmetry_equiv_pos_as_xyz
  1  'x, y, z'
loop_
 _atom_site_type_symbol
 _atom_site_label
 _atom_site_symmetry_multiplicity
 _atom_site_fract_x
 _atom_site_fract_y
 _atom_site_fract_z
 _atom_site_occupancy
  Ca  Ca0  1  0.648508  0.518679  0.932180  1
  Ca  Ca1  1  0.350788  0.517684  0.433160  1
  Ca  Ca2  1  0.665190  0.025882  0.919843  1
  Ca  Ca3  1  0.334097  0.025548  0.421305  1
  Ca  Ca4  1  0.380192  0.314821  0.806959  1
  Ca  Ca5  1  0.618396  0.315897  0.307141  1
  Ca  Ca6  1  0.372470  0.829627  0.827569  1
  Ca  Ca7  1  0.626198  0.828381  0.328287  1
  Ca  Ca8  1  0.134741  0.650727  0.657304  1
  Ca  Ca9  1  0.867137  0.649667  0.158388  1
  Ca  Ca10  1  0.836090  0.450472  0.572401  1
  Ca  Ca11  1  0.163709  0.449543  0.072571  1
  Ca  Ca12  1  0.845637  0.959748  0.560048  1
  Ca  Ca13  1  0.154416  0.960989  0.058987  1
  Ta  Ta14  1  0.137796  0.139027  0.682557  1
  Nb  Nb15  1  0.859931  0.138775  0.182545  1
  Si  Si16  1  0.070208  0.339415  0.362333  1
  Si  Si17  1  0.930638  0.339616  0.861673  1
  Si  Si18  1  0.054806  0.759368  0.376503  1
  Si  Si19  1  0.945583  0.759365  0.876053  1
  Si  Si20  1  0.555760  0.647863  0.616698  1
  Si  Si21  1  0.444129  0.647918  0.116592  1
  Si  Si22  1  0.560106  0.210650  0.606871  1
  Si  Si23  1  0.440154  0.210683  0.106847  1
  O  O24  1  0.014581  0.214973  0.506325  1
  O  O25  1  0.987625  0.215847  0.004504  1
  O  O26  1  0.970848  0.731262  0.507586  1
  O  O27  1  0.029277  0.730697  0.007177  1
  O  O28  1  0.999559  0.310142  0.236443  1
  O  O29  1  0.000798  0.308538  0.735808  1
  O  O30  1  0.008974  0.927055  0.244512  1
  O  O31  1  0.991892  0.928890  0.744826  1
  O  O32  1  0.221614  0.324272  0.345623  1
  O  O33  1  0.779117  0.324525  0.845030  1
  O  O34  1  0.203035  0.769621  0.412576  1
  O  O35  1  0.797164  0.770419  0.911303  1
  O  O36  1  0.505249  0.631467  0.760352  1
  O  O37  1  0.494590  0.630984  0.260497  1
  O  O38  1  0.508155  0.076205  0.747110  1
  O  O39  1  0.492195  0.076398  0.247163  1
  O  O40  1  0.468251  0.769790  0.495343  1
  O  O41  1  0.531768  0.769855  0.995249  1
  O  O42  1  0.479193  0.217684  0.478413  1
  O  O43  1  0.521027  0.217899  0.978248  1
  O  O44  1  0.704655  0.701295  0.582887  1
  O  O45  1  0.295331  0.701110  0.082876  1
  O  O46  1  0.711113  0.190524  0.583415  1
  O  O47  1  0.289231  0.190631  0.083378  1
  O  O48  1  0.231073  0.957527  0.629528  1
  O  O49  1  0.768068  0.956176  0.129568  1
  O  O50  1  0.234112  0.371393  0.623483  1
  O  O51  1  0.765215  0.373014  0.123511  1
  O  O52  1  0.220936  0.065515  0.845118  1
  O  O53  1  0.778234  0.065097  0.345973  1
  O  O54  1  0.026905  0.566277  0.335009  1
  O  O55  1  0.973137  0.567645  0.832882  1
  O  O56  1  0.529577  0.426317  0.616052  1
  O  O57  1  0.470815  0.426263  0.116143  1
  F  F58  1  0.248431  0.549721  0.850117  1
  F  F59  1  0.751574  0.549626  0.350360  1
