# generated using pymatgen
data_ErTm3Sc2(B2Rh5)2
_symmetry_space_group_name_H-M   'P 1'
_cell_length_a   9.63064029
_cell_length_b   9.63064029
_cell_length_c   3.20797800
_cell_angle_alpha   90.00000000
_cell_angle_beta   90.00000000
_cell_angle_gamma   89.97187161
_symmetry_Int_Tables_number   1
_chemical_formula_structural   ErTm3Sc2(B2Rh5)2
_chemical_formula_sum   'Er1 Tm3 Sc2 B4 Rh10'
_cell_volume   297.53746119
_cell_formula_units_Z   1
loop_
 _symmetry_equiv_pos_site_id
 _symmetry_equiv_pos_as_xyz
  1  'x, y, z'
loop_
 _atom_site_type_symbol
 _atom_site_label
 _atom_site_symmetry_multiplicity
 _atom_site_fract_x
 _atom_site_fract_y
 _atom_site_fract_z
 _atom_site_occupancy
  Er  Er0  1  0.174704  0.674704  0.000000  1
  Tm  Tm1  1  0.825252  0.325252  0.000000  1
  Tm  Tm2  1  0.325258  0.174744  0.000000  1
  Tm  Tm3  1  0.674744  0.825258  0.000000  1
  Sc  Sc4  1  0.999935  0.000118  0.000000  1
  Sc  Sc5  1  0.500118  0.499935  0.000000  1
  B  B6  1  0.620524  0.120524  0.000000  1
  B  B7  1  0.120533  0.379303  0.000000  1
  B  B8  1  0.879303  0.620533  0.000000  1
  B  B9  1  0.379615  0.879615  0.000000  1
  Rh  Rh10  1  0.071523  0.224841  0.500000  1
  Rh  Rh11  1  0.224975  0.928895  0.500000  1
  Rh  Rh12  1  0.775143  0.071534  0.500000  1
  Rh  Rh13  1  0.928141  0.775263  0.500000  1
  Rh  Rh14  1  0.428895  0.724975  0.500000  1
  Rh  Rh15  1  0.571534  0.275143  0.500000  1
  Rh  Rh16  1  0.724841  0.571523  0.500000  1
  Rh  Rh17  1  0.275263  0.428141  0.500000  1
  Rh  Rh18  1  0.500024  0.000024  0.500000  1
  Rh  Rh19  1  0.999676  0.499676  0.500000  1
