# generated using pymatgen
data_Ba3NaPtO6
_symmetry_space_group_name_H-M   'P 1'
_cell_length_a   7.16352398
_cell_length_b   7.16352366
_cell_length_c   7.16352395
_cell_angle_alpha   91.30903919
_cell_angle_beta   91.30903609
_cell_angle_gamma   91.30903220
_symmetry_Int_Tables_number   1
_chemical_formula_structural   Ba3NaPtO6
_chemical_formula_sum   'Ba6 Na2 Pt2 O12'
_cell_volume   367.31164679
_cell_formula_units_Z   2
loop_
 _symmetry_equiv_pos_site_id
 _symmetry_equiv_pos_as_xyz
  1  'x, y, z'
loop_
 _atom_site_type_symbol
 _atom_site_label
 _atom_site_symmetry_multiplicity
 _atom_site_fract_x
 _atom_site_fract_y
 _atom_site_fract_z
 _atom_site_occupancy
  Ba  Ba0  1  0.106836  0.750000  0.393164  1
  Ba  Ba1  1  0.393164  0.106836  0.750000  1
  Ba  Ba2  1  0.893164  0.250000  0.606836  1
  Ba  Ba3  1  0.606836  0.893164  0.250000  1
  Ba  Ba4  1  0.750000  0.393164  0.106836  1
  Ba  Ba5  1  0.250000  0.606836  0.893164  1
  Na  Na6  1  0.250000  0.250000  0.250000  1
  Na  Na7  1  0.750000  0.750000  0.750000  1
  Pt  Pt8  1  0.000000  0.000000  0.000000  1
  Pt  Pt9  1  0.500000  0.500000  0.500000  1
  O  O10  1  0.447874  0.769392  0.582038  1
  O  O11  1  0.582038  0.447874  0.769392  1
  O  O12  1  0.769392  0.582038  0.447874  1
  O  O13  1  0.052126  0.917962  0.730608  1
  O  O14  1  0.730608  0.052126  0.917962  1
  O  O15  1  0.917962  0.730608  0.052126  1
  O  O16  1  0.552126  0.230608  0.417962  1
  O  O17  1  0.417962  0.552126  0.230608  1
  O  O18  1  0.230608  0.417962  0.552126  1
  O  O19  1  0.947874  0.082038  0.269392  1
  O  O20  1  0.082038  0.269392  0.947874  1
  O  O21  1  0.269392  0.947874  0.082038  1
