# generated using pymatgen
data_Tb6Lu6AlCo4Sn
_symmetry_space_group_name_H-M   'P 1'
_cell_length_a   8.26952008
_cell_length_b   8.26951984
_cell_length_c   8.25371162
_cell_angle_alpha   112.17511158
_cell_angle_beta   109.29536214
_cell_angle_gamma   107.06621364
_symmetry_Int_Tables_number   1
_chemical_formula_structural   Tb6Lu6AlCo4Sn
_chemical_formula_sum   'Tb6 Lu6 Al1 Co4 Sn1'
_cell_volume   433.18556611
_cell_formula_units_Z   1
loop_
 _symmetry_equiv_pos_site_id
 _symmetry_equiv_pos_as_xyz
  1  'x, y, z'
loop_
 _atom_site_type_symbol
 _atom_site_label
 _atom_site_symmetry_multiplicity
 _atom_site_fract_x
 _atom_site_fract_y
 _atom_site_fract_z
 _atom_site_occupancy
  Tb  Tb0  1  0.438723  0.232992  0.202560  1
  Tb  Tb1  1  0.561277  0.767008  0.797440  1
  Tb  Tb2  1  0.030432  0.236162  0.797440  1
  Tb  Tb3  1  0.969568  0.763838  0.202560  1
  Tb  Tb4  1  0.180856  0.282318  0.463176  1
  Tb  Tb5  1  0.819144  0.717682  0.536824  1
  Lu  Lu6  1  0.181010  0.719134  0.900144  1
  Lu  Lu7  1  0.818990  0.280866  0.099856  1
  Lu  Lu8  1  0.323414  0.638612  0.312144  1
  Lu  Lu9  1  0.676586  0.361388  0.687856  1
  Lu  Lu10  1  0.326469  0.011271  0.687856  1
  Lu  Lu11  1  0.673531  0.988729  0.312144  1
  Al  Al12  1  0.000000  0.000000  0.000000  1
  Co  Co13  1  0.342226  0.998234  0.340459  1
  Co  Co14  1  0.657774  0.001766  0.659541  1
  Co  Co15  1  0.114912  0.614912  0.500000  1
  Co  Co16  1  0.885088  0.385088  0.500000  1
  Sn  Sn17  1  0.500000  0.500000  0.000000  1
