# generated using pymatgen
data_Tb2NdZr(Co4P3)2
_symmetry_space_group_name_H-M   'P 1'
_cell_length_a   3.75158400
_cell_length_b   10.77060100
_cell_length_c   12.50259600
_cell_angle_alpha   90.00000000
_cell_angle_beta   90.00000000
_cell_angle_gamma   90.00000000
_symmetry_Int_Tables_number   1
_chemical_formula_structural   Tb2NdZr(Co4P3)2
_chemical_formula_sum   'Tb4 Nd2 Zr2 Co16 P12'
_cell_volume   505.19007586
_cell_formula_units_Z   2
loop_
 _symmetry_equiv_pos_site_id
 _symmetry_equiv_pos_as_xyz
  1  'x, y, z'
loop_
 _atom_site_type_symbol
 _atom_site_label
 _atom_site_symmetry_multiplicity
 _atom_site_fract_x
 _atom_site_fract_y
 _atom_site_fract_z
 _atom_site_occupancy
  Tb  Tb0  1  0.500000  0.821445  0.204283  1
  Tb  Tb1  1  0.500000  0.178555  0.204283  1
  Tb  Tb2  1  0.000000  0.678555  0.795717  1
  Tb  Tb3  1  0.000000  0.321445  0.795717  1
  Nd  Nd4  1  0.000000  0.500000  0.530517  1
  Nd  Nd5  1  0.500000  0.000000  0.469483  1
  Zr  Zr6  1  0.500000  0.500000  0.156097  1
  Zr  Zr7  1  0.000000  0.000000  0.843903  1
  Co  Co8  1  0.500000  0.500000  0.706922  1
  Co  Co9  1  0.000000  0.000000  0.293078  1
  Co  Co10  1  0.000000  0.500000  0.986256  1
  Co  Co11  1  0.500000  0.000000  0.013744  1
  Co  Co12  1  0.500000  0.331750  0.993132  1
  Co  Co13  1  0.500000  0.668250  0.993132  1
  Co  Co14  1  0.000000  0.168250  0.006868  1
  Co  Co15  1  0.000000  0.831750  0.006868  1
  Co  Co16  1  0.500000  0.294995  0.432229  1
  Co  Co17  1  0.500000  0.705005  0.432229  1
  Co  Co18  1  0.000000  0.205005  0.567771  1
  Co  Co19  1  0.000000  0.794995  0.567771  1
  Co  Co20  1  0.500000  0.878479  0.703417  1
  Co  Co21  1  0.500000  0.121521  0.703417  1
  Co  Co22  1  0.000000  0.621521  0.296583  1
  Co  Co23  1  0.000000  0.378479  0.296583  1
  P  P24  1  0.500000  0.500000  0.885126  1
  P  P25  1  0.000000  0.000000  0.114874  1
  P  P26  1  0.500000  0.500000  0.359684  1
  P  P27  1  0.000000  0.000000  0.640316  1
  P  P28  1  0.500000  0.306212  0.616325  1
  P  P29  1  0.500000  0.693788  0.616325  1
  P  P30  1  0.000000  0.193788  0.383675  1
  P  P31  1  0.000000  0.806212  0.383675  1
  P  P32  1  0.500000  0.838289  0.894855  1
  P  P33  1  0.500000  0.161711  0.894855  1
  P  P34  1  0.000000  0.661711  0.105145  1
  P  P35  1  0.000000  0.338289  0.105145  1
