# generated using pymatgen
data_Sr3Ti(Cu4P3)2
_symmetry_space_group_name_H-M   'P 1'
_cell_length_a   3.93476100
_cell_length_b   11.27968800
_cell_length_c   13.08910400
_cell_angle_alpha   90.00000000
_cell_angle_beta   90.00000000
_cell_angle_gamma   90.00000000
_symmetry_Int_Tables_number   1
_chemical_formula_structural   Sr3Ti(Cu4P3)2
_chemical_formula_sum   'Sr6 Ti2 Cu16 P12'
_cell_volume   580.93208547
_cell_formula_units_Z   2
loop_
 _symmetry_equiv_pos_site_id
 _symmetry_equiv_pos_as_xyz
  1  'x, y, z'
loop_
 _atom_site_type_symbol
 _atom_site_label
 _atom_site_symmetry_multiplicity
 _atom_site_fract_x
 _atom_site_fract_y
 _atom_site_fract_z
 _atom_site_occupancy
  Sr  Sr0  1  0.000000  0.500000  0.516445  1
  Sr  Sr1  1  0.500000  0.000000  0.483555  1
  Sr  Sr2  1  0.500000  0.817432  0.205977  1
  Sr  Sr3  1  0.500000  0.182568  0.205977  1
  Sr  Sr4  1  0.000000  0.682568  0.794023  1
  Sr  Sr5  1  0.000000  0.317432  0.794023  1
  Ti  Ti6  1  0.500000  0.500000  0.146171  1
  Ti  Ti7  1  0.000000  0.000000  0.853829  1
  Cu  Cu8  1  0.500000  0.500000  0.699358  1
  Cu  Cu9  1  0.000000  0.000000  0.300642  1
  Cu  Cu10  1  0.000000  0.500000  0.983019  1
  Cu  Cu11  1  0.500000  0.000000  0.016981  1
  Cu  Cu12  1  0.500000  0.331316  0.988683  1
  Cu  Cu13  1  0.500000  0.668684  0.988683  1
  Cu  Cu14  1  0.000000  0.168684  0.011317  1
  Cu  Cu15  1  0.000000  0.831316  0.011317  1
  Cu  Cu16  1  0.500000  0.291035  0.432808  1
  Cu  Cu17  1  0.500000  0.708965  0.432808  1
  Cu  Cu18  1  0.000000  0.208965  0.567192  1
  Cu  Cu19  1  0.000000  0.791035  0.567192  1
  Cu  Cu20  1  0.500000  0.878758  0.709625  1
  Cu  Cu21  1  0.500000  0.121242  0.709625  1
  Cu  Cu22  1  0.000000  0.621242  0.290375  1
  Cu  Cu23  1  0.000000  0.378758  0.290375  1
  P  P24  1  0.500000  0.500000  0.880778  1
  P  P25  1  0.000000  0.000000  0.119222  1
  P  P26  1  0.500000  0.500000  0.333282  1
  P  P27  1  0.000000  0.000000  0.666718  1
  P  P28  1  0.500000  0.313710  0.615733  1
  P  P29  1  0.500000  0.686290  0.615733  1
  P  P30  1  0.000000  0.186290  0.384267  1
  P  P31  1  0.000000  0.813710  0.384267  1
  P  P32  1  0.500000  0.848549  0.892012  1
  P  P33  1  0.500000  0.151451  0.892012  1
  P  P34  1  0.000000  0.651451  0.107988  1
  P  P35  1  0.000000  0.348549  0.107988  1
