# generated using pymatgen
data_Pr2AlSi2Au
_symmetry_space_group_name_H-M   'P 1'
_cell_length_a   3.92429140
_cell_length_b   4.52568770
_cell_length_c   8.10538335
_cell_angle_alpha   73.78885239
_cell_angle_beta   75.99070881
_cell_angle_gamma   90.00000800
_symmetry_Int_Tables_number   1
_chemical_formula_structural   Pr2AlSi2Au
_chemical_formula_sum   'Pr2 Al1 Si2 Au1'
_cell_volume   133.76417741
_cell_formula_units_Z   1
loop_
 _symmetry_equiv_pos_site_id
 _symmetry_equiv_pos_as_xyz
  1  'x, y, z'
loop_
 _atom_site_type_symbol
 _atom_site_label
 _atom_site_symmetry_multiplicity
 _atom_site_fract_x
 _atom_site_fract_y
 _atom_site_fract_z
 _atom_site_occupancy
  Pr  Pr0  1  0.735894  0.235894  0.528215  1
  Pr  Pr1  1  0.012904  0.012904  0.974194  1
  Al  Al2  1  0.413468  0.413468  0.173066  1
  Si  Si3  1  0.170817  0.670817  0.658366  1
  Si  Si4  1  0.579886  0.579886  0.840228  1
  Au  Au5  1  0.337034  0.837034  0.325932  1
