# generated using pymatgen
data_TbTh3(PdPt3)3
_symmetry_space_group_name_H-M   'P 1'
_cell_length_a   5.95209995
_cell_length_b   5.95212326
_cell_length_c   9.78640007
_cell_angle_alpha   89.98827628
_cell_angle_beta   90.01166768
_cell_angle_gamma   120.22918181
_symmetry_Int_Tables_number   1
_chemical_formula_structural   TbTh3(PdPt3)3
_chemical_formula_sum   'Tb1 Th3 Pd3 Pt9'
_cell_volume   299.56296697
_cell_formula_units_Z   1
loop_
 _symmetry_equiv_pos_site_id
 _symmetry_equiv_pos_as_xyz
  1  'x, y, z'
loop_
 _atom_site_type_symbol
 _atom_site_label
 _atom_site_symmetry_multiplicity
 _atom_site_fract_x
 _atom_site_fract_y
 _atom_site_fract_z
 _atom_site_occupancy
  Tb  Tb0  1  0.999797  0.000203  0.499707  1
  Th  Th1  1  0.999923  0.000077  0.000043  1
  Th  Th2  1  0.333258  0.666744  0.253450  1
  Th  Th3  1  0.667086  0.332914  0.746482  1
  Pd  Pd4  1  0.499982  0.500020  0.500628  1
  Pd  Pd5  1  0.499983  0.500016  0.999483  1
  Pd  Pd6  1  0.175068  0.824935  0.749332  1
  Pt  Pt7  1  0.500193  0.000051  0.500379  1
  Pt  Pt8  1  0.999948  0.499806  0.500380  1
  Pt  Pt9  1  0.500092  0.000104  0.999618  1
  Pt  Pt10  1  0.999895  0.499907  0.999617  1
  Pt  Pt11  1  0.825145  0.651064  0.250704  1
  Pt  Pt12  1  0.348935  0.174855  0.250704  1
  Pt  Pt13  1  0.825222  0.174777  0.250831  1
  Pt  Pt14  1  0.175044  0.349570  0.749320  1
  Pt  Pt15  1  0.650429  0.824957  0.749321  1
