# generated using pymatgen
data_Ce4Dy9Y3(CdIr)4
_symmetry_space_group_name_H-M   'P 1'
_cell_length_a   9.70427983
_cell_length_b   9.70281505
_cell_length_c   9.70210007
_cell_angle_alpha   60.01242444
_cell_angle_beta   60.00146063
_cell_angle_gamma   59.99013170
_symmetry_Int_Tables_number   1
_chemical_formula_structural   Ce4Dy9Y3(CdIr)4
_chemical_formula_sum   'Ce4 Dy9 Y3 Cd4 Ir4'
_cell_volume   645.98876795
_cell_formula_units_Z   1
loop_
 _symmetry_equiv_pos_site_id
 _symmetry_equiv_pos_as_xyz
  1  'x, y, z'
loop_
 _atom_site_type_symbol
 _atom_site_label
 _atom_site_symmetry_multiplicity
 _atom_site_fract_x
 _atom_site_fract_y
 _atom_site_fract_z
 _atom_site_occupancy
  Ce  Ce0  1  0.348711  0.348157  0.349262  1
  Ce  Ce1  1  0.349913  0.349081  0.951763  1
  Ce  Ce2  1  0.349262  0.953870  0.348711  1
  Ce  Ce3  1  0.951763  0.349242  0.349913  1
  Dy  Dy4  1  0.811421  0.188902  0.188225  1
  Dy  Dy5  1  0.188225  0.811452  0.811421  1
  Dy  Dy6  1  0.188656  0.811344  0.188656  1
  Dy  Dy7  1  0.811773  0.188227  0.811773  1
  Dy  Dy8  1  0.188232  0.188519  0.811682  1
  Dy  Dy9  1  0.811682  0.811568  0.188232  1
  Dy  Dy10  1  0.939371  0.561756  0.561473  1
  Dy  Dy11  1  0.561473  0.937399  0.939371  1
  Dy  Dy12  1  0.562733  0.937267  0.562733  1
  Y  Y13  1  0.938320  0.561680  0.938320  1
  Y  Y14  1  0.562280  0.562713  0.938268  1
  Y  Y15  1  0.938268  0.936740  0.562280  1
  Cd  Cd16  1  0.581094  0.582480  0.580832  1
  Cd  Cd17  1  0.580665  0.582207  0.254954  1
  Cd  Cd18  1  0.580832  0.255595  0.581094  1
  Cd  Cd19  1  0.254954  0.582174  0.580665  1
  Ir  Ir20  1  0.143645  0.143226  0.143415  1
  Ir  Ir21  1  0.143556  0.143425  0.569758  1
  Ir  Ir22  1  0.143415  0.569714  0.143645  1
  Ir  Ir23  1  0.569758  0.143261  0.143556  1
