# generated using pymatgen
data_Ta11Nb7Ni4(GePt2)2
_symmetry_space_group_name_H-M   'P 1'
_cell_length_a   5.13889267
_cell_length_b   9.82411143
_cell_length_c   9.81771789
_cell_angle_alpha   86.05767147
_cell_angle_beta   74.82814692
_cell_angle_gamma   74.83825232
_symmetry_Int_Tables_number   1
_chemical_formula_structural   Ta11Nb7Ni4(GePt2)2
_chemical_formula_sum   'Ta11 Nb7 Ni4 Ge2 Pt4'
_cell_volume   461.72076702
_cell_formula_units_Z   1
loop_
 _symmetry_equiv_pos_site_id
 _symmetry_equiv_pos_as_xyz
  1  'x, y, z'
loop_
 _atom_site_type_symbol
 _atom_site_label
 _atom_site_symmetry_multiplicity
 _atom_site_fract_x
 _atom_site_fract_y
 _atom_site_fract_z
 _atom_site_occupancy
  Ta  Ta0  1  0.749976  0.499992  0.499923  1
  Ta  Ta1  1  0.250108  0.499992  0.499923  1
  Ta  Ta2  1  0.790132  0.779936  0.639798  1
  Ta  Ta3  1  0.209934  0.220045  0.360090  1
  Ta  Ta4  1  0.709910  0.360070  0.220112  1
  Ta  Ta5  1  0.290058  0.639968  0.779914  1
  Ta  Ta6  1  0.569990  0.639934  0.220087  1
  Ta  Ta7  1  0.429290  0.361153  0.780265  1
  Ta  Ta8  1  0.070047  0.219999  0.639908  1
  Ta  Ta9  1  0.930111  0.779824  0.359952  1
  Ta  Ta10  1  0.585897  0.076749  0.751458  1
  Nb  Nb11  1  0.414901  0.922903  0.247295  1
  Nb  Nb12  1  0.915660  0.246296  0.922383  1
  Nb  Nb13  1  0.084995  0.752996  0.077014  1
  Nb  Nb14  1  0.662014  0.753164  0.922809  1
  Nb  Nb15  1  0.337845  0.247168  0.077141  1
  Nb  Nb16  1  0.161834  0.922874  0.753460  1
  Nb  Nb17  1  0.837964  0.077192  0.246879  1
  Ni  Ni18  1  0.499762  0.999959  0.500614  1
  Ni  Ni19  1  0.999665  0.999959  0.500614  1
  Ni  Ni20  1  0.500254  0.499949  0.000086  1
  Ni  Ni21  1  0.999711  0.499949  0.000086  1
  Ge  Ge22  1  0.250126  0.999949  0.999928  1
  Ge  Ge23  1  0.749996  0.999949  0.999928  1
  Pt  Pt24  1  0.130045  0.500134  0.239776  1
  Pt  Pt25  1  0.869946  0.499954  0.760155  1
  Pt  Pt26  1  0.369926  0.760175  0.499974  1
  Pt  Pt27  1  0.629903  0.239768  0.500426  1
