# generated using pymatgen
data_SbWF7
_symmetry_space_group_name_H-M   'P 1'
_cell_length_a   5.81529800
_cell_length_b   6.10789704
_cell_length_c   8.38519600
_cell_angle_alpha   77.51737016
_cell_angle_beta   90.00000000
_cell_angle_gamma   90.00000000
_symmetry_Int_Tables_number   1
_chemical_formula_structural   SbWF7
_chemical_formula_sum   'Sb2 W2 F14'
_cell_volume   290.79543328
_cell_formula_units_Z   2
loop_
 _symmetry_equiv_pos_site_id
 _symmetry_equiv_pos_as_xyz
  1  'x, y, z'
loop_
 _atom_site_type_symbol
 _atom_site_label
 _atom_site_symmetry_multiplicity
 _atom_site_fract_x
 _atom_site_fract_y
 _atom_site_fract_z
 _atom_site_occupancy
  Sb  Sb0  1  0.744259  0.169747  0.824480  1
  Sb  Sb1  1  0.244259  0.830253  0.175520  1
  W  W2  1  0.759450  0.307439  0.279423  1
  W  W3  1  0.259450  0.692561  0.720577  1
  F  F4  1  0.466006  0.041260  0.982787  1
  F  F5  1  0.966006  0.958740  0.017213  1
  F  F6  1  0.492492  0.434949  0.749128  1
  F  F7  1  0.992492  0.565051  0.250872  1
  F  F8  1  0.746870  0.285530  0.522857  1
  F  F9  1  0.246870  0.714470  0.477143  1
  F  F10  1  0.023426  0.447130  0.752560  1
  F  F11  1  0.523426  0.552870  0.247440  1
  F  F12  1  0.531459  0.892825  0.707091  1
  F  F13  1  0.031459  0.107175  0.292909  1
  F  F14  1  0.531969  0.063795  0.308043  1
  F  F15  1  0.031969  0.936205  0.691957  1
  F  F16  1  0.765969  0.354279  0.023449  1
  F  F17  1  0.265969  0.645721  0.976551  1
