# generated using pymatgen
data_YMg(Al2Cu3)2
_symmetry_space_group_name_H-M   'P 1'
_cell_length_a   10.45213947
_cell_length_b   8.23272940
_cell_length_c   7.95218564
_cell_angle_alpha   80.43028080
_cell_angle_beta   50.95928756
_cell_angle_gamma   48.61042796
_symmetry_Int_Tables_number   1
_chemical_formula_structural   YMg(Al2Cu3)2
_chemical_formula_sum   'Y2 Mg2 Al8 Cu12'
_cell_volume   360.10390931
_cell_formula_units_Z   2
loop_
 _symmetry_equiv_pos_site_id
 _symmetry_equiv_pos_as_xyz
  1  'x, y, z'
loop_
 _atom_site_type_symbol
 _atom_site_label
 _atom_site_symmetry_multiplicity
 _atom_site_fract_x
 _atom_site_fract_y
 _atom_site_fract_z
 _atom_site_occupancy
  Y  Y0  1  0.000000  0.000000  0.000000  1
  Y  Y1  1  0.250000  0.250000  0.250000  1
  Mg  Mg2  1  0.500000  0.500000  0.500000  1
  Mg  Mg3  1  0.750000  0.750000  0.750000  1
  Al  Al4  1  0.757648  0.069608  0.832646  1
  Al  Al5  1  0.832646  0.340100  0.757648  1
  Al  Al6  1  0.069608  0.757648  0.340100  1
  Al  Al7  1  0.340100  0.832646  0.069608  1
  Al  Al8  1  0.492352  0.180392  0.417354  1
  Al  Al9  1  0.417354  0.909900  0.492352  1
  Al  Al10  1  0.180392  0.492352  0.909900  1
  Al  Al11  1  0.909900  0.417354  0.180392  1
  Cu  Cu12  1  0.625000  0.125000  0.625000  1
  Cu  Cu13  1  0.625000  0.625000  0.625000  1
  Cu  Cu14  1  0.125000  0.625000  0.625000  1
  Cu  Cu15  1  0.625000  0.625000  0.125000  1
  Cu  Cu16  1  0.489107  0.433838  0.181952  1
  Cu  Cu17  1  0.181952  0.895104  0.489107  1
  Cu  Cu18  1  0.433838  0.489107  0.895104  1
  Cu  Cu19  1  0.895104  0.181952  0.433838  1
  Cu  Cu20  1  0.760893  0.816162  0.068048  1
  Cu  Cu21  1  0.068048  0.354896  0.760893  1
  Cu  Cu22  1  0.816162  0.760893  0.354896  1
  Cu  Cu23  1  0.354896  0.068048  0.816162  1
