# generated using pymatgen
data_Nd6IrPtBr6
_symmetry_space_group_name_H-M   'P 1'
_cell_length_a   10.56125252
_cell_length_b   10.55987757
_cell_length_c   10.45660808
_cell_angle_alpha   109.43961063
_cell_angle_beta   109.44444930
_cell_angle_gamma   109.92684838
_symmetry_Int_Tables_number   1
_chemical_formula_structural   Nd6IrPtBr6
_chemical_formula_sum   'Nd12 Ir2 Pt2 Br12'
_cell_volume   893.28062402
_cell_formula_units_Z   2
loop_
 _symmetry_equiv_pos_site_id
 _symmetry_equiv_pos_as_xyz
  1  'x, y, z'
loop_
 _atom_site_type_symbol
 _atom_site_label
 _atom_site_symmetry_multiplicity
 _atom_site_fract_x
 _atom_site_fract_y
 _atom_site_fract_z
 _atom_site_occupancy
  Nd  Nd0  1  0.469630  0.487778  0.232752  1
  Nd  Nd1  1  0.755009  0.236895  0.267228  1
  Nd  Nd2  1  0.755356  0.017291  0.488504  1
  Nd  Nd3  1  0.233149  0.471205  0.488498  1
  Nd  Nd4  1  0.263115  0.744966  0.232750  1
  Nd  Nd5  1  0.028833  0.266876  0.011505  1
  Nd  Nd6  1  0.012223  0.030337  0.267224  1
  Nd  Nd7  1  0.482674  0.744623  0.011499  1
  Nd  Nd8  1  0.485890  0.235896  0.471787  1
  Nd  Nd9  1  0.015161  0.484865  0.750022  1
  Nd  Nd10  1  0.264103  0.014108  0.028212  1
  Nd  Nd11  1  0.234859  0.265158  0.750018  1
  Ir  Ir12  1  0.000403  0.250399  0.500800  1
  Ir  Ir13  1  0.249600  0.499599  0.999204  1
  Pt  Pt14  1  0.249627  0.250373  0.249996  1
  Pt  Pt15  1  0.500369  0.999623  0.249997  1
  Br  Br16  1  0.250545  0.755829  0.746197  1
  Br  Br17  1  0.509630  0.504349  0.753803  1
  Br  Br18  1  0.992476  0.746778  0.996580  1
  Br  Br19  1  0.744171  0.249452  0.753798  1
  Br  Br20  1  0.995651  0.990366  0.746196  1
  Br  Br21  1  0.250196  0.995895  0.503415  1
  Br  Br22  1  0.753222  0.507522  0.503418  1
  Br  Br23  1  0.504108  0.249805  0.996586  1
  Br  Br24  1  0.754314  0.745689  0.250002  1
  Br  Br25  1  0.745667  0.995667  0.991335  1
  Br  Br26  1  0.995685  0.504314  0.250000  1
  Br  Br27  1  0.504335  0.754339  0.508674  1
