# generated using pymatgen
data_Lu3ScAl2Ir2Au
_symmetry_space_group_name_H-M   'P 1'
_cell_length_a   7.14782561
_cell_length_b   7.10520635
_cell_length_c   4.11636600
_cell_angle_alpha   90.00000000
_cell_angle_beta   90.00000000
_cell_angle_gamma   120.15271220
_symmetry_Int_Tables_number   1
_chemical_formula_structural   Lu3ScAl2Ir2Au
_chemical_formula_sum   'Lu3 Sc1 Al2 Ir2 Au1'
_cell_volume   180.76939043
_cell_formula_units_Z   1
loop_
 _symmetry_equiv_pos_site_id
 _symmetry_equiv_pos_as_xyz
  1  'x, y, z'
loop_
 _atom_site_type_symbol
 _atom_site_label
 _atom_site_symmetry_multiplicity
 _atom_site_fract_x
 _atom_site_fract_y
 _atom_site_fract_z
 _atom_site_occupancy
  Lu  Lu0  1  0.399713  0.386929  0.500000  1
  Lu  Lu1  1  0.596751  0.024523  0.500000  1
  Lu  Lu2  1  0.995619  0.577629  0.500000  1
  Sc  Sc3  1  0.769485  0.760682  0.000000  1
  Al  Al4  1  0.247750  0.012762  0.000000  1
  Al  Al5  1  0.991102  0.239947  0.000000  1
  Ir  Ir6  1  0.664057  0.327797  0.000000  1
  Ir  Ir7  1  0.007191  0.005398  0.500000  1
  Au  Au8  1  0.328331  0.664336  0.000000  1
