# generated using pymatgen
data_TmTh3(Tc3Ge4)2
_symmetry_space_group_name_H-M   'P 1'
_cell_length_a   8.38292933
_cell_length_b   5.82359066
_cell_length_c   7.06054467
_cell_angle_alpha   76.23972501
_cell_angle_beta   90.19020077
_cell_angle_gamma   90.08842255
_symmetry_Int_Tables_number   1
_chemical_formula_structural   TmTh3(Tc3Ge4)2
_chemical_formula_sum   'Tm1 Th3 Tc6 Ge8'
_cell_volume   334.79230003
_cell_formula_units_Z   1
loop_
 _symmetry_equiv_pos_site_id
 _symmetry_equiv_pos_as_xyz
  1  'x, y, z'
loop_
 _atom_site_type_symbol
 _atom_site_label
 _atom_site_symmetry_multiplicity
 _atom_site_fract_x
 _atom_site_fract_y
 _atom_site_fract_z
 _atom_site_occupancy
  Tm  Tm0  1  0.941356  0.574787  0.243485  1
  Th  Th1  1  0.555123  0.075959  0.249081  1
  Th  Th2  1  0.055556  0.424379  0.753416  1
  Th  Th3  1  0.441592  0.923659  0.751006  1
  Tc  Tc4  1  0.210417  0.118252  0.111908  1
  Tc  Tc5  1  0.709701  0.382649  0.891696  1
  Tc  Tc6  1  0.792947  0.889052  0.886970  1
  Tc  Tc7  1  0.297317  0.614621  0.108266  1
  Tc  Tc8  1  0.000211  0.998608  0.499212  1
  Tc  Tc9  1  0.498835  0.501565  0.500371  1
  Ge  Ge10  1  0.905962  0.113970  0.132433  1
  Ge  Ge11  1  0.406132  0.383063  0.871987  1
  Ge  Ge12  1  0.092901  0.876021  0.883714  1
  Ge  Ge13  1  0.601594  0.618893  0.126766  1
  Ge  Ge14  1  0.749822  0.226006  0.582091  1
  Ge  Ge15  1  0.243125  0.285416  0.412613  1
  Ge  Ge16  1  0.244823  0.772023  0.411504  1
  Ge  Ge17  1  0.752585  0.721078  0.583482  1
