# generated using pymatgen
data_Na3Al2P3
_symmetry_space_group_name_H-M   'P 1'
_cell_length_a   5.86765600
_cell_length_b   6.79788575
_cell_length_c   9.47118138
_cell_angle_alpha   68.44019875
_cell_angle_beta   90.00000000
_cell_angle_gamma   90.00000000
_symmetry_Int_Tables_number   1
_chemical_formula_structural   Na3Al2P3
_chemical_formula_sum   'Na6 Al4 P6'
_cell_volume   351.35143734
_cell_formula_units_Z   2
loop_
 _symmetry_equiv_pos_site_id
 _symmetry_equiv_pos_as_xyz
  1  'x, y, z'
loop_
 _atom_site_type_symbol
 _atom_site_label
 _atom_site_symmetry_multiplicity
 _atom_site_fract_x
 _atom_site_fract_y
 _atom_site_fract_z
 _atom_site_occupancy
  Na  Na0  1  0.250000  0.398562  0.474943  1
  Na  Na1  1  0.750000  0.160925  0.896745  1
  Na  Na2  1  0.750000  0.522912  0.138829  1
  Na  Na3  1  0.250000  0.477088  0.861171  1
  Na  Na4  1  0.750000  0.601438  0.525057  1
  Na  Na5  1  0.250000  0.839075  0.103255  1
  Al  Al6  1  0.001096  0.072572  0.327992  1
  Al  Al7  1  0.501096  0.927428  0.672008  1
  Al  Al8  1  0.498904  0.072572  0.327992  1
  Al  Al9  1  0.998904  0.927428  0.672008  1
  P  P10  1  0.250000  0.804139  0.509932  1
  P  P11  1  0.750000  0.195861  0.490068  1
  P  P12  1  0.250000  0.347444  0.188202  1
  P  P13  1  0.750000  0.652556  0.811798  1
  P  P14  1  0.250000  0.092547  0.787138  1
  P  P15  1  0.750000  0.907453  0.212862  1
