# generated using pymatgen
data_PrHg3(Pt2O7)2
_symmetry_space_group_name_H-M   'P 1'
_cell_length_a   7.38895420
_cell_length_b   7.33147488
_cell_length_c   7.33147400
_cell_angle_alpha   59.99999493
_cell_angle_beta   60.25699323
_cell_angle_gamma   60.25699518
_symmetry_Int_Tables_number   1
_chemical_formula_structural   PrHg3(Pt2O7)2
_chemical_formula_sum   'Pr1 Hg3 Pt4 O14'
_cell_volume   281.92055050
_cell_formula_units_Z   1
loop_
 _symmetry_equiv_pos_site_id
 _symmetry_equiv_pos_as_xyz
  1  'x, y, z'
loop_
 _atom_site_type_symbol
 _atom_site_label
 _atom_site_symmetry_multiplicity
 _atom_site_fract_x
 _atom_site_fract_y
 _atom_site_fract_z
 _atom_site_occupancy
  Pr  Pr0  1  0.625000  0.125000  0.125000  1
  Hg  Hg1  1  0.125000  0.125000  0.125000  1
  Hg  Hg2  1  0.125000  0.625000  0.125000  1
  Hg  Hg3  1  0.125000  0.125000  0.625000  1
  Pt  Pt4  1  0.625000  0.625000  0.125000  1
  Pt  Pt5  1  0.625000  0.625000  0.625000  1
  Pt  Pt6  1  0.625000  0.125000  0.625000  1
  Pt  Pt7  1  0.125000  0.625000  0.625000  1
  O  O8  1  0.697635  0.294364  0.294364  1
  O  O9  1  0.697635  0.294364  0.713637  1
  O  O10  1  0.026877  0.991041  0.991041  1
  O  O11  1  0.299479  0.701672  0.297177  1
  O  O12  1  0.697635  0.713637  0.294364  1
  O  O13  1  0.950521  0.548328  0.548328  1
  O  O14  1  0.299479  0.701672  0.701672  1
  O  O15  1  0.223123  0.258959  0.258959  1
  O  O16  1  0.950521  0.548328  0.952823  1
  O  O17  1  0.552365  0.955636  0.536363  1
  O  O18  1  0.552365  0.536363  0.955636  1
  O  O19  1  0.950521  0.952823  0.548328  1
  O  O20  1  0.552365  0.955636  0.955636  1
  O  O21  1  0.299479  0.297177  0.701672  1
