# generated using pymatgen
data_Cs8Zr(PaSe4)3
_symmetry_space_group_name_H-M   'P 1'
_cell_length_a   14.57679420
_cell_length_b   7.11460168
_cell_length_c   9.65759400
_cell_angle_alpha   71.95974694
_cell_angle_beta   89.85266070
_cell_angle_gamma   89.76230083
_symmetry_Int_Tables_number   1
_chemical_formula_structural   Cs8Zr(PaSe4)3
_chemical_formula_sum   'Cs8 Zr1 Pa3 Se12'
_cell_volume   952.32347845
_cell_formula_units_Z   1
loop_
 _symmetry_equiv_pos_site_id
 _symmetry_equiv_pos_as_xyz
  1  'x, y, z'
loop_
 _atom_site_type_symbol
 _atom_site_label
 _atom_site_symmetry_multiplicity
 _atom_site_fract_x
 _atom_site_fract_y
 _atom_site_fract_z
 _atom_site_occupancy
  Cs  Cs0  1  0.954484  0.674928  0.657473  1
  Cs  Cs1  1  0.457135  0.827591  0.339501  1
  Cs  Cs2  1  0.042370  0.323400  0.339757  1
  Cs  Cs3  1  0.546009  0.170500  0.656275  1
  Cs  Cs4  1  0.869146  0.090003  0.895630  1
  Cs  Cs5  1  0.372269  0.415497  0.105085  1
  Cs  Cs6  1  0.127475  0.916296  0.105570  1
  Cs  Cs7  1  0.631267  0.578211  0.894750  1
  Zr  Zr8  1  0.749456  0.156947  0.297903  1
  Pa  Pa9  1  0.750375  0.657774  0.298000  1
  Pa  Pa10  1  0.250308  0.842283  0.702728  1
  Pa  Pa11  1  0.249667  0.342279  0.702744  1
  Se  Se12  1  0.899180  0.922445  0.280741  1
  Se  Se13  1  0.404843  0.585265  0.716484  1
  Se  Se14  1  0.095152  0.086882  0.717335  1
  Se  Se15  1  0.600688  0.409552  0.280954  1
  Se  Se16  1  0.813899  0.311971  0.510245  1
  Se  Se17  1  0.318528  0.183027  0.484276  1
  Se  Se18  1  0.181329  0.683951  0.484500  1
  Se  Se19  1  0.686447  0.827490  0.510781  1
  Se  Se20  1  0.835663  0.485331  0.099393  1
  Se  Se21  1  0.336607  0.003981  0.910093  1
  Se  Se22  1  0.163152  0.505307  0.910119  1
  Se  Se23  1  0.664549  0.999085  0.099663  1
