# generated using pymatgen
data_ErLu3Al23SiPt9
_symmetry_space_group_name_H-M   'P 1'
_cell_length_a   7.53300803
_cell_length_b   7.52873921
_cell_length_c   13.10906800
_cell_angle_alpha   84.50162600
_cell_angle_beta   100.99399748
_cell_angle_gamma   119.91238251
_symmetry_Int_Tables_number   1
_chemical_formula_structural   ErLu3Al23SiPt9
_chemical_formula_sum   'Er1 Lu3 Al23 Si1 Pt9'
_cell_volume   632.60286517
_cell_formula_units_Z   1
loop_
 _symmetry_equiv_pos_site_id
 _symmetry_equiv_pos_as_xyz
  1  'x, y, z'
loop_
 _atom_site_type_symbol
 _atom_site_label
 _atom_site_symmetry_multiplicity
 _atom_site_fract_x
 _atom_site_fract_y
 _atom_site_fract_z
 _atom_site_occupancy
  Er  Er0  1  0.938594  0.326439  0.807945  1
  Lu  Lu1  1  0.732071  0.999216  0.193125  1
  Lu  Lu2  1  0.261729  0.001676  0.807438  1
  Lu  Lu3  1  0.062617  0.667599  0.192942  1
  Al  Al4  1  0.189803  0.128819  0.183498  1
  Al  Al5  1  0.982626  0.665804  0.943232  1
  Al  Al6  1  0.018309  0.334175  0.056046  1
  Al  Al7  1  0.399352  0.669212  0.816121  1
  Al  Al8  1  0.602110  0.335488  0.183395  1
  Al  Al9  1  0.883881  0.663159  0.671431  1
  Al  Al10  1  0.116145  0.333948  0.328862  1
  Al  Al11  1  0.607473  0.458907  0.815625  1
  Al  Al12  1  0.396335  0.542019  0.183675  1
  Al  Al13  1  0.231423  0.340745  0.670330  1
  Al  Al14  1  0.770148  0.660664  0.329574  1
  Al  Al15  1  0.852923  0.332726  0.559046  1
  Al  Al16  1  0.185711  0.999903  0.559002  1
  Al  Al17  1  0.813989  0.000043  0.442213  1
  Al  Al18  1  0.352673  0.999442  0.055979  1
  Al  Al19  1  0.646306  0.001563  0.943072  1
  Al  Al20  1  0.553819  0.994028  0.671753  1
  Al  Al21  1  0.443098  0.005740  0.328478  1
  Al  Al22  1  0.520426  0.667000  0.561171  1
  Al  Al23  1  0.478917  0.332497  0.437537  1
  Al  Al24  1  0.686501  0.669625  0.051286  1
  Al  Al25  1  0.320063  0.335200  0.952840  1
  Al  Al26  1  0.146662  0.666606  0.440854  1
  Si  Si27  1  0.804505  0.865397  0.815757  1
  Pt  Pt28  1  0.330372  0.673451  0.998978  1
  Pt  Pt29  1  0.546141  0.325156  0.637716  1
  Pt  Pt30  1  0.454149  0.675778  0.362174  1
  Pt  Pt31  1  0.887416  0.006038  0.643329  1
  Pt  Pt32  1  0.111075  0.991008  0.360813  1
  Pt  Pt33  1  0.672971  0.330598  0.998942  1
  Pt  Pt34  1  0.204995  0.667490  0.639300  1
  Pt  Pt35  1  0.796128  0.332788  0.361059  1
  Pt  Pt36  1  0.998540  0.000055  0.995467  1
