# generated using pymatgen
data_Nd16Cd3NiHgRu3
_symmetry_space_group_name_H-M   'P 1'
_cell_length_a   9.88923466
_cell_length_b   9.95142831
_cell_length_c   9.95142794
_cell_angle_alpha   59.81166079
_cell_angle_beta   59.65190580
_cell_angle_gamma   59.65190378
_symmetry_Int_Tables_number   1
_chemical_formula_structural   Nd16Cd3NiHgRu3
_chemical_formula_sum   'Nd16 Cd3 Ni1 Hg1 Ru3'
_cell_volume   687.85662880
_cell_formula_units_Z   1
loop_
 _symmetry_equiv_pos_site_id
 _symmetry_equiv_pos_as_xyz
  1  'x, y, z'
loop_
 _atom_site_type_symbol
 _atom_site_label
 _atom_site_symmetry_multiplicity
 _atom_site_fract_x
 _atom_site_fract_y
 _atom_site_fract_z
 _atom_site_occupancy
  Nd  Nd0  1  0.597862  0.596243  0.596243  1
  Nd  Nd1  1  0.599291  0.597110  0.207541  1
  Nd  Nd2  1  0.599291  0.207541  0.597110  1
  Nd  Nd3  1  0.209066  0.596144  0.596144  1
  Nd  Nd4  1  0.059112  0.439783  0.439783  1
  Nd  Nd5  1  0.438115  0.059851  0.059851  1
  Nd  Nd6  1  0.440054  0.059233  0.440760  1
  Nd  Nd7  1  0.059472  0.441054  0.058668  1
  Nd  Nd8  1  0.440054  0.440760  0.059233  1
  Nd  Nd9  1  0.059472  0.058668  0.441054  1
  Nd  Nd10  1  0.188264  0.811016  0.811016  1
  Nd  Nd11  1  0.808703  0.188448  0.188448  1
  Nd  Nd12  1  0.808454  0.186527  0.816619  1
  Nd  Nd13  1  0.189286  0.810492  0.190882  1
  Nd  Nd14  1  0.808454  0.816619  0.186527  1
  Nd  Nd15  1  0.189286  0.190882  0.810492  1
  Cd  Cd16  1  0.828812  0.829126  0.510859  1
  Cd  Cd17  1  0.828812  0.510859  0.829126  1
  Cd  Cd18  1  0.510532  0.829052  0.829052  1
  Ni  Ni19  1  0.826955  0.391281  0.391281  1
  Hg  Hg20  1  0.832690  0.832347  0.832347  1
  Ru  Ru21  1  0.392303  0.387058  0.387058  1
  Ru  Ru22  1  0.392829  0.388816  0.831086  1
  Ru  Ru23  1  0.392829  0.831086  0.388816  1
