# generated using pymatgen
data_YbInPt2O7
_symmetry_space_group_name_H-M   'P 1'
_cell_length_a   7.12671951
_cell_length_b   7.21586970
_cell_length_c   7.21586933
_cell_angle_alpha   60.52880509
_cell_angle_beta   60.40785067
_cell_angle_gamma   60.40785665
_symmetry_Int_Tables_number   1
_chemical_formula_structural   YbInPt2O7
_chemical_formula_sum   'Yb2 In2 Pt4 O14'
_cell_volume   265.05065449
_cell_formula_units_Z   2
loop_
 _symmetry_equiv_pos_site_id
 _symmetry_equiv_pos_as_xyz
  1  'x, y, z'
loop_
 _atom_site_type_symbol
 _atom_site_label
 _atom_site_symmetry_multiplicity
 _atom_site_fract_x
 _atom_site_fract_y
 _atom_site_fract_z
 _atom_site_occupancy
  Yb  Yb0  1  0.125000  0.625000  0.125000  1
  Yb  Yb1  1  0.125000  0.125000  0.625000  1
  In  In2  1  0.125000  0.125000  0.125000  1
  In  In3  1  0.625000  0.125000  0.125000  1
  Pt  Pt4  1  0.625000  0.625000  0.125000  1
  Pt  Pt5  1  0.625000  0.125000  0.625000  1
  Pt  Pt6  1  0.125000  0.625000  0.625000  1
  Pt  Pt7  1  0.625000  0.625000  0.625000  1
  O  O8  1  0.262758  0.237242  0.237242  1
  O  O9  1  0.710629  0.289371  0.289371  1
  O  O10  1  0.704361  0.289289  0.717729  1
  O  O11  1  0.288622  0.717729  0.289289  1
  O  O12  1  0.704361  0.717729  0.289289  1
  O  O13  1  0.288622  0.289289  0.717729  1
  O  O14  1  0.963102  0.536898  0.536898  1
  O  O15  1  0.286898  0.713102  0.713102  1
  O  O16  1  0.961378  0.960711  0.532271  1
  O  O17  1  0.545639  0.960711  0.532271  1
  O  O18  1  0.545639  0.532271  0.960711  1
  O  O19  1  0.961378  0.532271  0.960711  1
  O  O20  1  0.539371  0.960629  0.960629  1
  O  O21  1  0.987242  0.012758  0.012758  1
