# generated using pymatgen
data_Ti4AlGeRh10
_symmetry_space_group_name_H-M   'P 1'
_cell_length_a   4.00762300
_cell_length_b   5.40777068
_cell_length_c   10.61903615
_cell_angle_alpha   90.11343366
_cell_angle_beta   90.00000000
_cell_angle_gamma   90.00000000
_symmetry_Int_Tables_number   1
_chemical_formula_structural   Ti4AlGeRh10
_chemical_formula_sum   'Ti4 Al1 Ge1 Rh10'
_cell_volume   230.13855135
_cell_formula_units_Z   1
loop_
 _symmetry_equiv_pos_site_id
 _symmetry_equiv_pos_as_xyz
  1  'x, y, z'
loop_
 _atom_site_type_symbol
 _atom_site_label
 _atom_site_symmetry_multiplicity
 _atom_site_fract_x
 _atom_site_fract_y
 _atom_site_fract_z
 _atom_site_occupancy
  Ti  Ti0  1  0.500000  0.327672  0.142462  1
  Ti  Ti1  1  0.500000  0.672328  0.857538  1
  Ti  Ti2  1  0.500000  0.823970  0.361236  1
  Ti  Ti3  1  0.500000  0.176030  0.638764  1
  Al  Al4  1  0.000000  0.500000  0.500000  1
  Ge  Ge5  1  0.000000  0.000000  0.000000  1
  Rh  Rh6  1  0.000000  0.000000  0.500000  1
  Rh  Rh7  1  0.000000  0.500000  0.000000  1
  Rh  Rh8  1  0.000000  0.073997  0.244161  1
  Rh  Rh9  1  0.000000  0.926003  0.755839  1
  Rh  Rh10  1  0.000000  0.574243  0.255698  1
  Rh  Rh11  1  0.000000  0.425757  0.744302  1
  Rh  Rh12  1  0.500000  0.310927  0.390538  1
  Rh  Rh13  1  0.500000  0.689073  0.609462  1
  Rh  Rh14  1  0.500000  0.811706  0.108821  1
  Rh  Rh15  1  0.500000  0.188294  0.891179  1
