# generated using pymatgen
data_Yb3(Al3Os)4
_symmetry_space_group_name_H-M   'P 1'
_cell_length_a   8.83693700
_cell_length_b   8.83693781
_cell_length_c   9.65575100
_cell_angle_alpha   90.00000000
_cell_angle_beta   90.00000000
_cell_angle_gamma   120.00000821
_symmetry_Int_Tables_number   1
_chemical_formula_structural   Yb3(Al3Os)4
_chemical_formula_sum   'Yb6 Al24 Os8'
_cell_volume   653.01056977
_cell_formula_units_Z   2
loop_
 _symmetry_equiv_pos_site_id
 _symmetry_equiv_pos_as_xyz
  1  'x, y, z'
loop_
 _atom_site_type_symbol
 _atom_site_label
 _atom_site_symmetry_multiplicity
 _atom_site_fract_x
 _atom_site_fract_y
 _atom_site_fract_z
 _atom_site_occupancy
  Yb  Yb0  1  0.194689  0.389379  0.250000  1
  Yb  Yb1  1  0.805311  0.610621  0.750000  1
  Yb  Yb2  1  0.610621  0.805311  0.250000  1
  Yb  Yb3  1  0.389379  0.194689  0.750000  1
  Yb  Yb4  1  0.194689  0.805311  0.250000  1
  Yb  Yb5  1  0.805311  0.194689  0.750000  1
  Al  Al6  1  0.333333  0.666667  0.001343  1
  Al  Al7  1  0.666667  0.333333  0.998657  1
  Al  Al8  1  0.666667  0.333333  0.501343  1
  Al  Al9  1  0.333333  0.666667  0.498657  1
  Al  Al10  1  0.161835  0.323671  0.573510  1
  Al  Al11  1  0.838165  0.676329  0.426490  1
  Al  Al12  1  0.676329  0.838165  0.573510  1
  Al  Al13  1  0.838165  0.676329  0.073510  1
  Al  Al14  1  0.323671  0.161835  0.426490  1
  Al  Al15  1  0.161835  0.323671  0.926490  1
  Al  Al16  1  0.161835  0.838165  0.573510  1
  Al  Al17  1  0.323671  0.161835  0.073510  1
  Al  Al18  1  0.838165  0.161835  0.426490  1
  Al  Al19  1  0.676329  0.838165  0.926490  1
  Al  Al20  1  0.838165  0.161835  0.073510  1
  Al  Al21  1  0.161835  0.838165  0.926490  1
  Al  Al22  1  0.560680  0.121360  0.250000  1
  Al  Al23  1  0.439320  0.878640  0.750000  1
  Al  Al24  1  0.878640  0.439320  0.250000  1
  Al  Al25  1  0.121360  0.560680  0.750000  1
  Al  Al26  1  0.560680  0.439320  0.250000  1
  Al  Al27  1  0.439320  0.560680  0.750000  1
  Al  Al28  1  0.000000  0.000000  0.250000  1
  Al  Al29  1  0.000000  0.000000  0.750000  1
  Os  Os30  1  0.500000  0.000000  0.000000  1
  Os  Os31  1  0.000000  0.500000  0.000000  1
  Os  Os32  1  0.500000  0.000000  0.500000  1
  Os  Os33  1  0.500000  0.500000  0.000000  1
  Os  Os34  1  0.000000  0.500000  0.500000  1
  Os  Os35  1  0.500000  0.500000  0.500000  1
  Os  Os36  1  0.000000  0.000000  0.000000  1
  Os  Os37  1  0.000000  0.000000  0.500000  1
