# generated using pymatgen
data_Er6Al24FeCo(NiOs2)2
_symmetry_space_group_name_H-M   'P 1'
_cell_length_a   8.75756039
_cell_length_b   8.75755963
_cell_length_c   9.39551900
_cell_angle_alpha   90.47849321
_cell_angle_beta   89.52150683
_cell_angle_gamma   120.41679767
_symmetry_Int_Tables_number   1
_chemical_formula_structural   Er6Al24FeCo(NiOs2)2
_chemical_formula_sum   'Er6 Al24 Fe1 Co1 Ni2 Os4'
_cell_volume   621.38128774
_cell_formula_units_Z   1
loop_
 _symmetry_equiv_pos_site_id
 _symmetry_equiv_pos_as_xyz
  1  'x, y, z'
loop_
 _atom_site_type_symbol
 _atom_site_label
 _atom_site_symmetry_multiplicity
 _atom_site_fract_x
 _atom_site_fract_y
 _atom_site_fract_z
 _atom_site_occupancy
  Er  Er0  1  0.200452  0.390947  0.249439  1
  Er  Er1  1  0.799548  0.609053  0.750561  1
  Er  Er2  1  0.609053  0.799548  0.249439  1
  Er  Er3  1  0.390947  0.200452  0.750561  1
  Er  Er4  1  0.194279  0.805721  0.252310  1
  Er  Er5  1  0.805721  0.194279  0.747690  1
  Al  Al6  1  0.331232  0.668768  0.021038  1
  Al  Al7  1  0.668768  0.331232  0.978962  1
  Al  Al8  1  0.666656  0.333344  0.517251  1
  Al  Al9  1  0.333344  0.666656  0.482749  1
  Al  Al10  1  0.158951  0.320596  0.576536  1
  Al  Al11  1  0.841049  0.679404  0.423464  1
  Al  Al12  1  0.679404  0.841049  0.576536  1
  Al  Al13  1  0.839591  0.679027  0.076342  1
  Al  Al14  1  0.320596  0.158951  0.423464  1
  Al  Al15  1  0.160409  0.320973  0.923658  1
  Al  Al16  1  0.159738  0.840262  0.579003  1
  Al  Al17  1  0.320973  0.160409  0.076342  1
  Al  Al18  1  0.840262  0.159738  0.420997  1
  Al  Al19  1  0.679027  0.839591  0.923658  1
  Al  Al20  1  0.841062  0.158938  0.076198  1
  Al  Al21  1  0.158938  0.841062  0.923802  1
  Al  Al22  1  0.561301  0.119846  0.244084  1
  Al  Al23  1  0.438699  0.880154  0.755916  1
  Al  Al24  1  0.880154  0.438699  0.244084  1
  Al  Al25  1  0.119846  0.561301  0.755916  1
  Al  Al26  1  0.563952  0.436048  0.247535  1
  Al  Al27  1  0.436048  0.563952  0.752465  1
  Al  Al28  1  0.001149  0.998851  0.250360  1
  Al  Al29  1  0.998851  0.001149  0.749640  1
  Fe  Fe30  1  0.000000  0.000000  0.000000  1
  Co  Co31  1  0.000000  0.000000  0.500000  1
  Ni  Ni32  1  0.500000  0.000000  0.000000  1
  Ni  Ni33  1  0.000000  0.500000  0.000000  1
  Os  Os34  1  0.500000  0.000000  0.500000  1
  Os  Os35  1  0.500000  0.500000  0.000000  1
  Os  Os36  1  0.000000  0.500000  0.500000  1
  Os  Os37  1  0.500000  0.500000  0.500000  1
