# generated using pymatgen
data_Y3Er2InSb2
_symmetry_space_group_name_H-M   'P 1'
_cell_length_a   8.95948101
_cell_length_b   8.93832125
_cell_length_c   6.44867900
_cell_angle_alpha   90.00000000
_cell_angle_beta   90.00000000
_cell_angle_gamma   119.92190253
_symmetry_Int_Tables_number   1
_chemical_formula_structural   Y3Er2InSb2
_chemical_formula_sum   'Y6 Er4 In2 Sb4'
_cell_volume   447.59109733
_cell_formula_units_Z   2
loop_
 _symmetry_equiv_pos_site_id
 _symmetry_equiv_pos_as_xyz
  1  'x, y, z'
loop_
 _atom_site_type_symbol
 _atom_site_label
 _atom_site_symmetry_multiplicity
 _atom_site_fract_x
 _atom_site_fract_y
 _atom_site_fract_z
 _atom_site_occupancy
  Y  Y0  1  0.002221  0.759858  0.750000  1
  Y  Y1  1  0.002221  0.242364  0.250000  1
  Y  Y2  1  0.757571  0.759059  0.250000  1
  Y  Y3  1  0.757571  0.998512  0.750000  1
  Y  Y4  1  0.241643  0.238232  0.750000  1
  Y  Y5  1  0.241643  0.003412  0.250000  1
  Er  Er6  1  0.334044  0.667023  0.500000  1
  Er  Er7  1  0.663358  0.331678  0.000000  1
  Er  Er8  1  0.663358  0.331678  0.500000  1
  Er  Er9  1  0.334044  0.667023  0.000000  1
  In  In10  1  0.394594  0.998573  0.750000  1
  In  In11  1  0.394594  0.396020  0.250000  1
  Sb  Sb12  1  0.999128  0.607524  0.250000  1
  Sb  Sb13  1  0.999128  0.391605  0.750000  1
  Sb  Sb14  1  0.607440  0.606906  0.750000  1
  Sb  Sb15  1  0.607440  0.000533  0.250000  1
