# generated using pymatgen
data_Ba4SrRu3O16
_symmetry_space_group_name_H-M   'P 1'
_cell_length_a   10.58655100
_cell_length_b   10.58655153
_cell_length_c   7.75455400
_cell_angle_alpha   90.00000000
_cell_angle_beta   90.00000000
_cell_angle_gamma   119.99999523
_symmetry_Int_Tables_number   1
_chemical_formula_structural   Ba4SrRu3O16
_chemical_formula_sum   'Ba8 Sr2 Ru6 O32'
_cell_volume   752.65592846
_cell_formula_units_Z   2
loop_
 _symmetry_equiv_pos_site_id
 _symmetry_equiv_pos_as_xyz
  1  'x, y, z'
loop_
 _atom_site_type_symbol
 _atom_site_label
 _atom_site_symmetry_multiplicity
 _atom_site_fract_x
 _atom_site_fract_y
 _atom_site_fract_z
 _atom_site_occupancy
  Ba  Ba0  1  0.749823  0.000000  0.751389  1
  Ba  Ba1  1  0.250177  0.250177  0.751389  1
  Ba  Ba2  1  0.000000  0.749823  0.751389  1
  Ba  Ba3  1  0.242870  0.000000  0.255660  1
  Ba  Ba4  1  0.757130  0.757130  0.255660  1
  Ba  Ba5  1  0.000000  0.242870  0.255660  1
  Ba  Ba6  1  0.333333  0.666667  0.490582  1
  Ba  Ba7  1  0.666667  0.333333  0.490582  1
  Sr  Sr8  1  0.666667  0.333333  0.992338  1
  Sr  Sr9  1  0.333333  0.666667  0.992338  1
  Ru  Ru10  1  0.605318  0.000000  0.194477  1
  Ru  Ru11  1  0.394682  0.394682  0.194477  1
  Ru  Ru12  1  0.000000  0.605318  0.194477  1
  Ru  Ru13  1  0.383120  0.000000  0.710515  1
  Ru  Ru14  1  0.616880  0.616880  0.710515  1
  Ru  Ru15  1  0.000000  0.383120  0.710515  1
  O  O16  1  0.000000  0.000000  0.212353  1
  O  O17  1  0.000000  0.000000  0.678970  1
  O  O18  1  0.607645  0.863781  0.047727  1
  O  O19  1  0.256136  0.392355  0.047727  1
  O  O20  1  0.136219  0.743864  0.047727  1
  O  O21  1  0.743864  0.136219  0.047727  1
  O  O22  1  0.863781  0.607645  0.047727  1
  O  O23  1  0.392355  0.256136  0.047727  1
  O  O24  1  0.386167  0.134707  0.555150  1
  O  O25  1  0.748540  0.613833  0.555150  1
  O  O26  1  0.865293  0.251460  0.555150  1
  O  O27  1  0.251460  0.865293  0.555150  1
  O  O28  1  0.134707  0.386167  0.555150  1
  O  O29  1  0.613833  0.748540  0.555150  1
  O  O30  1  0.410703  0.863928  0.224853  1
  O  O31  1  0.453225  0.589297  0.224853  1
  O  O32  1  0.136072  0.546775  0.224853  1
  O  O33  1  0.546775  0.136072  0.224853  1
  O  O34  1  0.863928  0.410703  0.224853  1
  O  O35  1  0.589297  0.453225  0.224853  1
  O  O36  1  0.576529  0.136153  0.750353  1
  O  O37  1  0.559624  0.423471  0.750353  1
  O  O38  1  0.863847  0.440376  0.750353  1
  O  O39  1  0.440376  0.863847  0.750353  1
  O  O40  1  0.136153  0.576529  0.750353  1
  O  O41  1  0.423471  0.559624  0.750353  1
  O  O42  1  0.702042  0.000000  0.377008  1
  O  O43  1  0.297958  0.297958  0.377008  1
  O  O44  1  0.000000  0.702042  0.377008  1
  O  O45  1  0.275929  0.000000  0.880865  1
  O  O46  1  0.724071  0.724071  0.880865  1
  O  O47  1  0.000000  0.275929  0.880865  1
