# generated using pymatgen
data_AcTbNi12P5
_symmetry_space_group_name_H-M   'P 1'
_cell_length_a   3.69219000
_cell_length_b   10.81980534
_cell_length_c   13.23098524
_cell_angle_alpha   71.53244907
_cell_angle_beta   90.00000000
_cell_angle_gamma   90.00000000
_symmetry_Int_Tables_number   1
_chemical_formula_structural   AcTbNi12P5
_chemical_formula_sum   'Ac2 Tb2 Ni24 P10'
_cell_volume   501.34244793
_cell_formula_units_Z   2
loop_
 _symmetry_equiv_pos_site_id
 _symmetry_equiv_pos_as_xyz
  1  'x, y, z'
loop_
 _atom_site_type_symbol
 _atom_site_label
 _atom_site_symmetry_multiplicity
 _atom_site_fract_x
 _atom_site_fract_y
 _atom_site_fract_z
 _atom_site_occupancy
  Ac  Ac0  1  0.250000  0.746118  0.187944  1
  Ac  Ac1  1  0.750000  0.253882  0.812056  1
  Tb  Tb2  1  0.250000  0.782720  0.680888  1
  Tb  Tb3  1  0.750000  0.217280  0.319112  1
  Ni  Ni4  1  0.250000  0.567815  0.016144  1
  Ni  Ni5  1  0.250000  0.563229  0.447462  1
  Ni  Ni6  1  0.750000  0.500948  0.342368  1
  Ni  Ni7  1  0.250000  0.499052  0.657632  1
  Ni  Ni8  1  0.750000  0.504165  0.152619  1
  Ni  Ni9  1  0.250000  0.495835  0.847381  1
  Ni  Ni10  1  0.750000  0.436771  0.552538  1
  Ni  Ni11  1  0.250000  0.335992  0.141448  1
  Ni  Ni12  1  0.750000  0.664025  0.563351  1
  Ni  Ni13  1  0.250000  0.335975  0.436649  1
  Ni  Ni14  1  0.750000  0.906838  0.305712  1
  Ni  Ni15  1  0.250000  0.093162  0.694288  1
  Ni  Ni16  1  0.750000  0.917486  0.989425  1
  Ni  Ni17  1  0.250000  0.082514  0.010575  1
  Ni  Ni18  1  0.750000  0.921186  0.491207  1
  Ni  Ni19  1  0.250000  0.078814  0.508793  1
  Ni  Ni20  1  0.750000  0.931894  0.794831  1
  Ni  Ni21  1  0.250000  0.068106  0.205169  1
  Ni  Ni22  1  0.250000  0.787810  0.440630  1
  Ni  Ni23  1  0.750000  0.212190  0.559370  1
  Ni  Ni24  1  0.250000  0.795471  0.914699  1
  Ni  Ni25  1  0.750000  0.204529  0.085301  1
  Ni  Ni26  1  0.750000  0.664008  0.858552  1
  Ni  Ni27  1  0.750000  0.432185  0.983856  1
  P  P28  1  0.250000  0.004617  0.872191  1
  P  P29  1  0.750000  0.995383  0.127809  1
  P  P30  1  0.250000  0.304083  0.987101  1
  P  P31  1  0.750000  0.695917  0.012899  1
  P  P32  1  0.250000  0.441166  0.262052  1
  P  P33  1  0.750000  0.558834  0.737948  1
  P  P34  1  0.250000  0.996413  0.378120  1
  P  P35  1  0.750000  0.003587  0.621880  1
  P  P36  1  0.250000  0.314118  0.606777  1
  P  P37  1  0.750000  0.685882  0.393223  1
