# generated using pymatgen
data_Dy7LuSc12(SiGe)8
_symmetry_space_group_name_H-M   'P 1'
_cell_length_a   7.15712537
_cell_length_b   7.40737844
_cell_length_c   14.06199004
_cell_angle_alpha   90.00237041
_cell_angle_beta   89.99206593
_cell_angle_gamma   89.90707326
_symmetry_Int_Tables_number   1
_chemical_formula_structural   Dy7LuSc12(SiGe)8
_chemical_formula_sum   'Dy7 Lu1 Sc12 Si8 Ge8'
_cell_volume   745.50295271
_cell_formula_units_Z   1
loop_
 _symmetry_equiv_pos_site_id
 _symmetry_equiv_pos_as_xyz
  1  'x, y, z'
loop_
 _atom_site_type_symbol
 _atom_site_label
 _atom_site_symmetry_multiplicity
 _atom_site_fract_x
 _atom_site_fract_y
 _atom_site_fract_z
 _atom_site_occupancy
  Dy  Dy0  1  0.994849  0.823509  0.901964  1
  Dy  Dy1  1  0.493538  0.676982  0.901967  1
  Dy  Dy2  1  0.994264  0.823147  0.598671  1
  Dy  Dy3  1  0.505872  0.322215  0.098432  1
  Dy  Dy4  1  0.005898  0.176738  0.401773  1
  Dy  Dy5  1  0.505652  0.322968  0.400638  1
  Dy  Dy6  1  0.494663  0.676720  0.598685  1
  Lu  Lu7  1  0.005104  0.177648  0.099818  1
  Sc  Sc8  1  0.168045  0.500580  0.750153  1
  Sc  Sc9  1  0.832138  0.498917  0.249639  1
  Sc  Sc10  1  0.331474  0.001632  0.249331  1
  Sc  Sc11  1  0.668241  0.999057  0.750150  1
  Sc  Sc12  1  0.338773  0.172757  0.626453  1
  Sc  Sc13  1  0.661700  0.827523  0.373159  1
  Sc  Sc14  1  0.161423  0.672594  0.373003  1
  Sc  Sc15  1  0.662047  0.828393  0.125785  1
  Sc  Sc16  1  0.838537  0.327437  0.626648  1
  Sc  Sc17  1  0.338379  0.172201  0.873900  1
  Sc  Sc18  1  0.839039  0.326355  0.873621  1
  Sc  Sc19  1  0.161224  0.673174  0.126591  1
  Si  Si20  1  0.040553  0.117235  0.750078  1
  Si  Si21  1  0.959782  0.883848  0.249649  1
  Si  Si22  1  0.460229  0.617960  0.249384  1
  Si  Si23  1  0.539981  0.382299  0.750433  1
  Si  Si24  1  0.292354  0.871939  0.750127  1
  Si  Si25  1  0.709067  0.128361  0.249105  1
  Si  Si26  1  0.206785  0.370826  0.249157  1
  Si  Si27  1  0.792072  0.627871  0.750286  1
  Ge  Ge28  1  0.172433  0.460754  0.540685  1
  Ge  Ge29  1  0.827258  0.539597  0.459515  1
  Ge  Ge30  1  0.328053  0.959967  0.459334  1
  Ge  Ge31  1  0.829358  0.537730  0.040837  1
  Ge  Ge32  1  0.672485  0.039781  0.540595  1
  Ge  Ge33  1  0.170914  0.459203  0.959960  1
  Ge  Ge34  1  0.673893  0.040058  0.959532  1
  Ge  Ge35  1  0.323921  0.962023  0.040941  1
