# generated using pymatgen
data_Pr3Sn5Pd6
_symmetry_space_group_name_H-M   'P 1'
_cell_length_a   4.53556100
_cell_length_b   9.73598000
_cell_length_c   14.10284700
_cell_angle_alpha   90.00000000
_cell_angle_beta   90.00000000
_cell_angle_gamma   90.00000000
_symmetry_Int_Tables_number   1
_chemical_formula_structural   Pr3Sn5Pd6
_chemical_formula_sum   'Pr6 Sn10 Pd12'
_cell_volume   622.75536790
_cell_formula_units_Z   2
loop_
 _symmetry_equiv_pos_site_id
 _symmetry_equiv_pos_as_xyz
  1  'x, y, z'
loop_
 _atom_site_type_symbol
 _atom_site_label
 _atom_site_symmetry_multiplicity
 _atom_site_fract_x
 _atom_site_fract_y
 _atom_site_fract_z
 _atom_site_occupancy
  Pr  Pr0  1  0.000000  0.230217  0.000000  1
  Pr  Pr1  1  0.500000  0.769783  0.500000  1
  Pr  Pr2  1  0.000000  0.244120  0.322376  1
  Pr  Pr3  1  0.500000  0.755880  0.177624  1
  Pr  Pr4  1  0.000000  0.244120  0.677624  1
  Pr  Pr5  1  0.500000  0.755880  0.822376  1
  Sn  Sn6  1  0.000000  0.523516  0.118506  1
  Sn  Sn7  1  0.500000  0.476484  0.381494  1
  Sn  Sn8  1  0.000000  0.523516  0.881494  1
  Sn  Sn9  1  0.500000  0.476484  0.618506  1
  Sn  Sn10  1  0.000000  0.869818  0.328225  1
  Sn  Sn11  1  0.500000  0.130182  0.171775  1
  Sn  Sn12  1  0.000000  0.869818  0.671775  1
  Sn  Sn13  1  0.500000  0.130182  0.828225  1
  Sn  Sn14  1  0.000000  0.807105  0.000000  1
  Sn  Sn15  1  0.500000  0.192895  0.500000  1
  Pd  Pd16  1  0.000000  0.991647  0.145833  1
  Pd  Pd17  1  0.500000  0.008353  0.354167  1
  Pd  Pd18  1  0.000000  0.991647  0.854167  1
  Pd  Pd19  1  0.500000  0.008353  0.645833  1
  Pd  Pd20  1  0.500000  0.984863  0.000000  1
  Pd  Pd21  1  0.000000  0.015137  0.500000  1
  Pd  Pd22  1  0.000000  0.592458  0.307685  1
  Pd  Pd23  1  0.500000  0.407542  0.192315  1
  Pd  Pd24  1  0.000000  0.592458  0.692315  1
  Pd  Pd25  1  0.500000  0.407542  0.807685  1
  Pd  Pd26  1  0.500000  0.501494  0.000000  1
  Pd  Pd27  1  0.000000  0.498506  0.500000  1
