# generated using pymatgen
data_Tb11HoSi12PdAu11
_symmetry_space_group_name_H-M   'P 1'
_cell_length_a   4.35039900
_cell_length_b   7.53841821
_cell_length_c   22.48066403
_cell_angle_alpha   90.01656136
_cell_angle_beta   90.00000000
_cell_angle_gamma   90.00000000
_symmetry_Int_Tables_number   1
_chemical_formula_structural   Tb11HoSi12PdAu11
_chemical_formula_sum   'Tb11 Ho1 Si12 Pd1 Au11'
_cell_volume   737.25620231
_cell_formula_units_Z   1
loop_
 _symmetry_equiv_pos_site_id
 _symmetry_equiv_pos_as_xyz
  1  'x, y, z'
loop_
 _atom_site_type_symbol
 _atom_site_label
 _atom_site_symmetry_multiplicity
 _atom_site_fract_x
 _atom_site_fract_y
 _atom_site_fract_z
 _atom_site_occupancy
  Tb  Tb0  1  0.250000  0.739243  0.336265  1
  Tb  Tb1  1  0.750000  0.242604  0.166529  1
  Tb  Tb2  1  0.250000  0.771446  0.829836  1
  Tb  Tb3  1  0.250000  0.758514  0.167948  1
  Tb  Tb4  1  0.750000  0.231827  0.830476  1
  Tb  Tb5  1  0.750000  0.262911  0.336173  1
  Tb  Tb6  1  0.250000  0.720089  0.664521  1
  Tb  Tb7  1  0.250000  0.731355  0.996662  1
  Tb  Tb8  1  0.750000  0.269653  0.998629  1
  Tb  Tb9  1  0.750000  0.226980  0.505555  1
  Tb  Tb10  1  0.250000  0.779112  0.503974  1
  Ho  Ho11  1  0.750000  0.276818  0.663978  1
  Si  Si12  1  0.250000  0.082395  0.071897  1
  Si  Si13  1  0.750000  0.914059  0.909398  1
  Si  Si14  1  0.750000  0.588442  0.434017  1
  Si  Si15  1  0.250000  0.406288  0.582812  1
  Si  Si16  1  0.250000  0.085476  0.248186  1
  Si  Si17  1  0.750000  0.910810  0.734093  1
  Si  Si18  1  0.750000  0.585758  0.255799  1
  Si  Si19  1  0.250000  0.410948  0.750833  1
  Si  Si20  1  0.250000  0.088587  0.420227  1
  Si  Si21  1  0.750000  0.917600  0.601413  1
  Si  Si22  1  0.750000  0.588717  0.082271  1
  Si  Si23  1  0.250000  0.413062  0.912201  1
  Pd  Pd24  1  0.250000  0.077637  0.593455  1
  Au  Au25  1  0.250000  0.417790  0.247634  1
  Au  Au26  1  0.750000  0.580041  0.757430  1
  Au  Au27  1  0.750000  0.919792  0.257124  1
  Au  Au28  1  0.250000  0.079280  0.738449  1
  Au  Au29  1  0.250000  0.421062  0.423874  1
  Au  Au30  1  0.750000  0.584862  0.569294  1
  Au  Au31  1  0.750000  0.919529  0.081934  1
  Au  Au32  1  0.250000  0.079890  0.924259  1
  Au  Au33  1  0.250000  0.417129  0.088239  1
  Au  Au34  1  0.750000  0.580651  0.902940  1
  Au  Au35  1  0.750000  0.919644  0.411676  1
