# generated using pymatgen
data_Li2Yb2HoAlGe3
_symmetry_space_group_name_H-M   'P 1'
_cell_length_a   7.08849907
_cell_length_b   7.15102106
_cell_length_c   4.29725000
_cell_angle_alpha   90.00000000
_cell_angle_beta   90.00000000
_cell_angle_gamma   120.70931482
_symmetry_Int_Tables_number   1
_chemical_formula_structural   Li2Yb2HoAlGe3
_chemical_formula_sum   'Li2 Yb2 Ho1 Al1 Ge3'
_cell_volume   187.28149911
_cell_formula_units_Z   1
loop_
 _symmetry_equiv_pos_site_id
 _symmetry_equiv_pos_as_xyz
  1  'x, y, z'
loop_
 _atom_site_type_symbol
 _atom_site_label
 _atom_site_symmetry_multiplicity
 _atom_site_fract_x
 _atom_site_fract_y
 _atom_site_fract_z
 _atom_site_occupancy
  Li  Li0  1  0.238615  0.997183  0.500000  1
  Li  Li1  1  0.997106  0.236556  0.500000  1
  Yb  Yb2  1  0.422940  0.423719  0.000000  1
  Yb  Yb3  1  0.572966  0.007031  0.000000  1
  Ho  Ho4  1  0.007193  0.579384  0.000000  1
  Al  Al5  1  0.755480  0.754085  0.500000  1
  Ge  Ge6  1  0.336462  0.668286  0.500000  1
  Ge  Ge7  1  0.680651  0.350683  0.500000  1
  Ge  Ge8  1  0.988589  0.983075  0.000000  1
