# generated using pymatgen
data_Ba4ErAl2InO10
_symmetry_space_group_name_H-M   'P 1'
_cell_length_a   5.97468000
_cell_length_b   5.97467250
_cell_length_c   20.10999500
_cell_angle_alpha   90.00000000
_cell_angle_beta   90.00000000
_cell_angle_gamma   120.00004152
_symmetry_Int_Tables_number   1
_chemical_formula_structural   Ba4ErAl2InO10
_chemical_formula_sum   'Ba8 Er2 Al4 In2 O20'
_cell_volume   621.68611378
_cell_formula_units_Z   2
loop_
 _symmetry_equiv_pos_site_id
 _symmetry_equiv_pos_as_xyz
  1  'x, y, z'
loop_
 _atom_site_type_symbol
 _atom_site_label
 _atom_site_symmetry_multiplicity
 _atom_site_fract_x
 _atom_site_fract_y
 _atom_site_fract_z
 _atom_site_occupancy
  Ba  Ba0  1  0.999998  0.999995  0.998335  1
  Ba  Ba1  1  0.333329  0.666658  0.105382  1
  Ba  Ba2  1  0.666671  0.333340  0.250000  1
  Ba  Ba3  1  0.333329  0.666658  0.394618  1
  Ba  Ba4  1  0.999998  0.999995  0.501665  1
  Ba  Ba5  1  0.666667  0.333331  0.606505  1
  Ba  Ba6  1  0.333325  0.666650  0.750000  1
  Ba  Ba7  1  0.666667  0.333331  0.893494  1
  Er  Er8  1  0.666663  0.333325  0.066381  1
  Er  Er9  1  0.666663  0.333325  0.433619  1
  Al  Al10  1  0.999997  0.999995  0.164092  1
  Al  Al11  1  0.999997  0.999995  0.335908  1
  Al  Al12  1  0.999998  0.999996  0.663743  1
  Al  Al13  1  0.999998  0.999996  0.836257  1
  In  In14  1  0.333335  0.666669  0.567301  1
  In  In15  1  0.333335  0.666669  0.932699  1
  O  O16  1  0.499292  0.998581  0.998922  1
  O  O17  1  0.001429  0.500719  0.998924  1
  O  O18  1  0.499289  0.500719  0.998924  1
  O  O19  1  0.838793  0.677584  0.134418  1
  O  O20  1  0.322421  0.161215  0.134423  1
  O  O21  1  0.838794  0.161215  0.134423  1
  O  O22  1  0.999992  0.999984  0.250000  1
  O  O23  1  0.322421  0.161215  0.365577  1
  O  O24  1  0.838794  0.161215  0.365577  1
  O  O25  1  0.838793  0.677584  0.365582  1
  O  O26  1  0.499292  0.998581  0.501078  1
  O  O27  1  0.001429  0.500719  0.501076  1
  O  O28  1  0.499289  0.500719  0.501076  1
  O  O29  1  0.162411  0.324821  0.634743  1
  O  O30  1  0.162418  0.837594  0.634743  1
  O  O31  1  0.675176  0.837594  0.634743  1
  O  O32  1  0.999999  0.999998  0.750000  1
  O  O33  1  0.162418  0.837594  0.865257  1
  O  O34  1  0.675176  0.837594  0.865257  1
  O  O35  1  0.162411  0.324821  0.865257  1
