# generated using pymatgen
data_Pr4FeCoB20
_symmetry_space_group_name_H-M   'P 1'
_cell_length_a   4.20568400
_cell_length_b   5.65477366
_cell_length_c   11.25935319
_cell_angle_alpha   89.77760947
_cell_angle_beta   90.00000000
_cell_angle_gamma   90.00000000
_symmetry_Int_Tables_number   1
_chemical_formula_structural   Pr4FeCoB20
_chemical_formula_sum   'Pr4 Fe1 Co1 B20'
_cell_volume   267.77007202
_cell_formula_units_Z   1
loop_
 _symmetry_equiv_pos_site_id
 _symmetry_equiv_pos_as_xyz
  1  'x, y, z'
loop_
 _atom_site_type_symbol
 _atom_site_label
 _atom_site_symmetry_multiplicity
 _atom_site_fract_x
 _atom_site_fract_y
 _atom_site_fract_z
 _atom_site_occupancy
  Pr  Pr0  1  0.500000  0.201253  0.365507  1
  Pr  Pr1  1  0.500000  0.798747  0.634493  1
  Pr  Pr2  1  0.500000  0.294773  0.868109  1
  Pr  Pr3  1  0.500000  0.705227  0.131891  1
  Fe  Fe4  1  0.000000  0.000000  0.000000  1
  Co  Co5  1  0.000000  0.500000  0.500000  1
  B  B6  1  0.000000  0.370972  0.040269  1
  B  B7  1  0.000000  0.629028  0.959731  1
  B  B8  1  0.000000  0.127799  0.540601  1
  B  B9  1  0.000000  0.872201  0.459399  1
  B  B10  1  0.000000  0.344271  0.197741  1
  B  B11  1  0.000000  0.655729  0.802259  1
  B  B12  1  0.000000  0.155875  0.696714  1
  B  B13  1  0.000000  0.844125  0.303286  1
  B  B14  1  0.000000  0.034267  0.186717  1
  B  B15  1  0.000000  0.965733  0.813283  1
  B  B16  1  0.000000  0.464755  0.686648  1
  B  B17  1  0.000000  0.535245  0.313352  1
  B  B18  1  0.298024  0.201483  0.112923  1
  B  B19  1  0.701976  0.798517  0.887077  1
  B  B20  1  0.298024  0.798517  0.887077  1
  B  B21  1  0.701572  0.298786  0.612364  1
  B  B22  1  0.701976  0.201483  0.112923  1
  B  B23  1  0.298428  0.701214  0.387636  1
  B  B24  1  0.701572  0.701214  0.387636  1
  B  B25  1  0.298428  0.298786  0.612364  1
