# generated using pymatgen
data_Dy7Tm4In(NiHg2)4
_symmetry_space_group_name_H-M   'P 1'
_cell_length_a   3.59738600
_cell_length_b   12.80751169
_cell_length_c   12.80749563
_cell_angle_alpha   112.28102971
_cell_angle_beta   90.00000000
_cell_angle_gamma   90.00000000
_symmetry_Int_Tables_number   1
_chemical_formula_structural   Dy7Tm4In(NiHg2)4
_chemical_formula_sum   'Dy7 Tm4 In1 Ni4 Hg8'
_cell_volume   546.02829582
_cell_formula_units_Z   1
loop_
 _symmetry_equiv_pos_site_id
 _symmetry_equiv_pos_as_xyz
  1  'x, y, z'
loop_
 _atom_site_type_symbol
 _atom_site_label
 _atom_site_symmetry_multiplicity
 _atom_site_fract_x
 _atom_site_fract_y
 _atom_site_fract_z
 _atom_site_occupancy
  Dy  Dy0  1  0.000000  0.165597  0.834405  1
  Dy  Dy1  1  0.000000  0.834403  0.165595  1
  Dy  Dy2  1  0.000000  0.370883  0.629093  1
  Dy  Dy3  1  0.000000  0.629117  0.370907  1
  Dy  Dy4  1  0.000000  0.692616  0.692598  1
  Dy  Dy5  1  0.000000  0.307384  0.307402  1
  Dy  Dy6  1  0.000000  0.000000  0.000000  1
  Tm  Tm7  1  0.000000  0.918166  0.583047  1
  Tm  Tm8  1  0.000000  0.081834  0.416953  1
  Tm  Tm9  1  0.000000  0.583043  0.918161  1
  Tm  Tm10  1  0.000000  0.416957  0.081839  1
  In  In11  1  0.500000  0.500000  0.500000  1
  Ni  Ni12  1  0.500000  0.748496  0.549196  1
  Ni  Ni13  1  0.500000  0.251504  0.450804  1
  Ni  Ni14  1  0.500000  0.549187  0.748484  1
  Ni  Ni15  1  0.500000  0.450813  0.251516  1
  Hg  Hg16  1  0.500000  0.152358  0.628202  1
  Hg  Hg17  1  0.500000  0.847642  0.371798  1
  Hg  Hg18  1  0.500000  0.628200  0.152349  1
  Hg  Hg19  1  0.500000  0.371800  0.847651  1
  Hg  Hg20  1  0.500000  0.928936  0.780394  1
  Hg  Hg21  1  0.500000  0.071064  0.219606  1
  Hg  Hg22  1  0.500000  0.780394  0.928942  1
  Hg  Hg23  1  0.500000  0.219606  0.071058  1
