# generated using pymatgen
data_Sr3CaNb2O9
_symmetry_space_group_name_H-M   'P 1'
_cell_length_a   5.90637120
_cell_length_b   5.91518336
_cell_length_c   15.09419226
_cell_angle_alpha   89.94789860
_cell_angle_beta   90.05404891
_cell_angle_gamma   119.96064509
_symmetry_Int_Tables_number   1
_chemical_formula_structural   Sr3CaNb2O9
_chemical_formula_sum   'Sr6 Ca2 Nb4 O18'
_cell_volume   456.87910868
_cell_formula_units_Z   2
loop_
 _symmetry_equiv_pos_site_id
 _symmetry_equiv_pos_as_xyz
  1  'x, y, z'
loop_
 _atom_site_type_symbol
 _atom_site_label
 _atom_site_symmetry_multiplicity
 _atom_site_fract_x
 _atom_site_fract_y
 _atom_site_fract_z
 _atom_site_occupancy
  Sr  Sr0  1  0.334561  0.647895  0.126532  1
  Sr  Sr1  1  0.665439  0.352105  0.873468  1
  Sr  Sr2  1  0.001315  0.991657  0.251198  1
  Sr  Sr3  1  0.998685  0.008343  0.748802  1
  Sr  Sr4  1  0.665922  0.337862  0.632787  1
  Sr  Sr5  1  0.334078  0.662138  0.367213  1
  Ca  Ca6  1  0.000000  0.000000  0.000000  1
  Ca  Ca7  1  0.000000  0.000000  0.500000  1
  Nb  Nb8  1  0.668191  0.327128  0.348581  1
  Nb  Nb9  1  0.331809  0.672872  0.651419  1
  Nb  Nb10  1  0.336273  0.686315  0.851413  1
  Nb  Nb11  1  0.663727  0.313685  0.148587  1
  O  O12  1  0.656971  0.919004  0.597305  1
  O  O13  1  0.343029  0.080996  0.402695  1
  O  O14  1  0.083499  0.745616  0.596690  1
  O  O15  1  0.916501  0.254384  0.403310  1
  O  O16  1  0.259721  0.351181  0.596799  1
  O  O17  1  0.740279  0.648819  0.403201  1
  O  O18  1  0.964086  0.543825  0.248706  1
  O  O19  1  0.035914  0.456175  0.751294  1
  O  O20  1  0.450227  0.403144  0.245819  1
  O  O21  1  0.549773  0.596856  0.754181  1
  O  O22  1  0.583130  0.018688  0.251033  1
  O  O23  1  0.416870  0.981312  0.748967  1
  O  O24  1  0.346004  0.062213  0.093049  1
  O  O25  1  0.653996  0.937787  0.906951  1
  O  O26  1  0.918259  0.232131  0.103511  1
  O  O27  1  0.081741  0.767869  0.896489  1
  O  O28  1  0.736977  0.621307  0.084478  1
  O  O29  1  0.263023  0.378693  0.915522  1
