# generated using pymatgen
data_Tm4ReNi2Ru5
_symmetry_space_group_name_H-M   'P 1'
_cell_length_a   5.21623400
_cell_length_b   5.19375975
_cell_length_c   8.74960500
_cell_angle_alpha   90.00000000
_cell_angle_beta   90.00000000
_cell_angle_gamma   120.56969618
_symmetry_Int_Tables_number   1
_chemical_formula_structural   Tm4ReNi2Ru5
_chemical_formula_sum   'Tm4 Re1 Ni2 Ru5'
_cell_volume   204.09677366
_cell_formula_units_Z   1
loop_
 _symmetry_equiv_pos_site_id
 _symmetry_equiv_pos_as_xyz
  1  'x, y, z'
loop_
 _atom_site_type_symbol
 _atom_site_label
 _atom_site_symmetry_multiplicity
 _atom_site_fract_x
 _atom_site_fract_y
 _atom_site_fract_z
 _atom_site_occupancy
  Tm  Tm0  1  0.668841  0.340442  0.562905  1
  Tm  Tm1  1  0.338512  0.673989  0.433220  1
  Tm  Tm2  1  0.338512  0.673989  0.066780  1
  Tm  Tm3  1  0.668841  0.340442  0.937095  1
  Re  Re4  1  0.156463  0.312053  0.750000  1
  Ni  Ni5  1  0.153550  0.808361  0.750000  1
  Ni  Ni6  1  0.835682  0.663257  0.250000  1
  Ru  Ru7  1  0.013120  0.023600  0.500916  1
  Ru  Ru8  1  0.013120  0.023600  0.999084  1
  Ru  Ru9  1  0.633655  0.801979  0.750000  1
  Ru  Ru10  1  0.833760  0.167609  0.250000  1
  Ru  Ru11  1  0.345945  0.170678  0.250000  1
