# generated using pymatgen
data_BiIrRhPbO7
_symmetry_space_group_name_H-M   'P 1'
_cell_length_a   7.35870633
_cell_length_b   7.35236313
_cell_length_c   7.35870802
_cell_angle_alpha   60.02851111
_cell_angle_beta   60.08952624
_cell_angle_gamma   60.02851572
_symmetry_Int_Tables_number   1
_chemical_formula_structural   BiIrRhPbO7
_chemical_formula_sum   'Bi2 Ir2 Rh2 Pb2 O14'
_cell_volume   281.83521999
_cell_formula_units_Z   2
loop_
 _symmetry_equiv_pos_site_id
 _symmetry_equiv_pos_as_xyz
  1  'x, y, z'
loop_
 _atom_site_type_symbol
 _atom_site_label
 _atom_site_symmetry_multiplicity
 _atom_site_fract_x
 _atom_site_fract_y
 _atom_site_fract_z
 _atom_site_occupancy
  Bi  Bi0  1  0.625000  0.125000  0.125000  1
  Bi  Bi1  1  0.125000  0.125000  0.625000  1
  Ir  Ir2  1  0.125000  0.625000  0.625000  1
  Ir  Ir3  1  0.625000  0.625000  0.125000  1
  Rh  Rh4  1  0.625000  0.125000  0.625000  1
  Rh  Rh5  1  0.625000  0.625000  0.625000  1
  Pb  Pb6  1  0.125000  0.625000  0.125000  1
  Pb  Pb7  1  0.125000  0.125000  0.125000  1
  O  O8  1  0.706042  0.704592  0.291900  1
  O  O9  1  0.291900  0.297466  0.706042  1
  O  O10  1  0.708137  0.291863  0.708137  1
  O  O11  1  0.296646  0.703354  0.296646  1
  O  O12  1  0.291900  0.704592  0.706042  1
  O  O13  1  0.706042  0.297466  0.291900  1
  O  O14  1  0.543958  0.545408  0.958100  1
  O  O15  1  0.958100  0.952534  0.543958  1
  O  O16  1  0.541863  0.958137  0.541863  1
  O  O17  1  0.953354  0.546646  0.953354  1
  O  O18  1  0.958100  0.545408  0.543958  1
  O  O19  1  0.543958  0.952534  0.958100  1
  O  O20  1  0.251055  0.248945  0.251055  1
  O  O21  1  0.998945  0.001055  0.998945  1
