# generated using pymatgen
data_Ta2BeCo2As
_symmetry_space_group_name_H-M   'P 1'
_cell_length_a   3.61777900
_cell_length_b   6.15094105
_cell_length_c   7.04425682
_cell_angle_alpha   90.66537559
_cell_angle_beta   90.00000000
_cell_angle_gamma   90.00000000
_symmetry_Int_Tables_number   1
_chemical_formula_structural   Ta2BeCo2As
_chemical_formula_sum   'Ta4 Be2 Co4 As2'
_cell_volume   156.74348317
_cell_formula_units_Z   2
loop_
 _symmetry_equiv_pos_site_id
 _symmetry_equiv_pos_as_xyz
  1  'x, y, z'
loop_
 _atom_site_type_symbol
 _atom_site_label
 _atom_site_symmetry_multiplicity
 _atom_site_fract_x
 _atom_site_fract_y
 _atom_site_fract_z
 _atom_site_occupancy
  Ta  Ta0  1  0.250000  0.509361  0.169046  1
  Ta  Ta1  1  0.750000  0.490639  0.830954  1
  Ta  Ta2  1  0.750000  0.967043  0.700350  1
  Ta  Ta3  1  0.250000  0.032957  0.299650  1
  Be  Be4  1  0.250000  0.774981  0.888667  1
  Be  Be5  1  0.750000  0.225019  0.111333  1
  Co  Co6  1  0.250000  0.648362  0.575023  1
  Co  Co7  1  0.750000  0.351638  0.424977  1
  Co  Co8  1  0.750000  0.860252  0.054162  1
  Co  Co9  1  0.250000  0.139748  0.945838  1
  As  As10  1  0.750000  0.731724  0.376077  1
  As  As11  1  0.250000  0.268276  0.623923  1
