# generated using pymatgen
data_Cs8CeAs4
_symmetry_space_group_name_H-M   'P 1'
_cell_length_a   12.09448589
_cell_length_b   12.09448551
_cell_length_c   12.09448600
_cell_angle_alpha   59.99999866
_cell_angle_beta   59.99999971
_cell_angle_gamma   60.00000034
_symmetry_Int_Tables_number   1
_chemical_formula_structural   Cs8CeAs4
_chemical_formula_sum   'Cs16 Ce2 As8'
_cell_volume   1250.97095101
_cell_formula_units_Z   2
loop_
 _symmetry_equiv_pos_site_id
 _symmetry_equiv_pos_as_xyz
  1  'x, y, z'
loop_
 _atom_site_type_symbol
 _atom_site_label
 _atom_site_symmetry_multiplicity
 _atom_site_fract_x
 _atom_site_fract_y
 _atom_site_fract_z
 _atom_site_occupancy
  Cs  Cs0  1  0.625000  0.125000  0.625000  1
  Cs  Cs1  1  0.625000  0.625000  0.125000  1
  Cs  Cs2  1  0.125000  0.625000  0.625000  1
  Cs  Cs3  1  0.625000  0.625000  0.625000  1
  Cs  Cs4  1  0.031031  0.031031  0.468969  1
  Cs  Cs5  1  0.781031  0.218969  0.218969  1
  Cs  Cs6  1  0.218969  0.781031  0.781031  1
  Cs  Cs7  1  0.781031  0.781031  0.218969  1
  Cs  Cs8  1  0.781031  0.218969  0.781031  1
  Cs  Cs9  1  0.218969  0.781031  0.218969  1
  Cs  Cs10  1  0.468969  0.031031  0.468969  1
  Cs  Cs11  1  0.468969  0.031031  0.031031  1
  Cs  Cs12  1  0.031031  0.468969  0.468969  1
  Cs  Cs13  1  0.031031  0.468969  0.031031  1
  Cs  Cs14  1  0.218969  0.218969  0.781031  1
  Cs  Cs15  1  0.468969  0.468969  0.031031  1
  Ce  Ce16  1  0.750000  0.750000  0.750000  1
  Ce  Ce17  1  0.500000  0.500000  0.500000  1
  As  As18  1  0.402191  0.793428  0.402191  1
  As  As19  1  0.847809  0.847809  0.456572  1
  As  As20  1  0.456572  0.847809  0.847809  1
  As  As21  1  0.847809  0.847809  0.847809  1
  As  As22  1  0.793428  0.402191  0.402191  1
  As  As23  1  0.402191  0.402191  0.402191  1
  As  As24  1  0.402191  0.402191  0.793428  1
  As  As25  1  0.847809  0.456572  0.847809  1
