# generated using pymatgen
data_Tm5Lu7In2FeTc2
_symmetry_space_group_name_H-M   'P 1'
_cell_length_a   8.26635603
_cell_length_b   8.26336891
_cell_length_c   8.26635609
_cell_angle_alpha   108.74382014
_cell_angle_beta   108.76531595
_cell_angle_gamma   110.92927093
_symmetry_Int_Tables_number   1
_chemical_formula_structural   Tm5Lu7In2FeTc2
_chemical_formula_sum   'Tm5 Lu7 In2 Fe1 Tc2'
_cell_volume   434.38357258
_cell_formula_units_Z   1
loop_
 _symmetry_equiv_pos_site_id
 _symmetry_equiv_pos_as_xyz
  1  'x, y, z'
loop_
 _atom_site_type_symbol
 _atom_site_label
 _atom_site_symmetry_multiplicity
 _atom_site_fract_x
 _atom_site_fract_y
 _atom_site_fract_z
 _atom_site_occupancy
  Tm  Tm0  1  0.304695  0.304559  0.611022  1
  Tm  Tm1  1  0.693949  0.693848  0.389173  1
  Tm  Tm2  1  0.693537  0.304559  0.999864  1
  Tm  Tm3  1  0.304675  0.693848  0.999899  1
  Tm  Tm4  1  0.190208  0.431084  0.240875  1
  Lu  Lu5  1  0.807568  0.570276  0.762709  1
  Lu  Lu6  1  0.190090  0.949509  0.759419  1
  Lu  Lu7  1  0.949343  0.189913  0.759129  1
  Lu  Lu8  1  0.807353  0.044678  0.237325  1
  Lu  Lu9  1  0.044810  0.807666  0.237264  1
  Lu  Lu10  1  0.430783  0.189913  0.240568  1
  Lu  Lu11  1  0.570403  0.807666  0.762858  1
  In  In12  1  0.997994  0.498183  0.500189  1
  In  In13  1  0.498184  0.998179  0.499995  1
  Fe  Fe14  1  0.631341  0.631292  0.999951  1
  Tc  Tc15  1  0.384615  0.384498  0.999883  1
  Tc  Tc16  1  0.000453  0.000330  0.999877  1
