# generated using pymatgen
data_Sr2Fe2CoN3
_symmetry_space_group_name_H-M   'P 1'
_cell_length_a   6.51920207
_cell_length_b   6.51920143
_cell_length_c   6.33539792
_cell_angle_alpha   88.04113747
_cell_angle_beta   88.04113094
_cell_angle_gamma   118.04276507
_symmetry_Int_Tables_number   1
_chemical_formula_structural   Sr2Fe2CoN3
_chemical_formula_sum   'Sr4 Fe4 Co2 N6'
_cell_volume   237.11846829
_cell_formula_units_Z   2
loop_
 _symmetry_equiv_pos_site_id
 _symmetry_equiv_pos_as_xyz
  1  'x, y, z'
loop_
 _atom_site_type_symbol
 _atom_site_label
 _atom_site_symmetry_multiplicity
 _atom_site_fract_x
 _atom_site_fract_y
 _atom_site_fract_z
 _atom_site_occupancy
  Sr  Sr0  1  0.833828  0.675618  0.896455  1
  Sr  Sr1  1  0.324382  0.166172  0.603545  1
  Sr  Sr2  1  0.166172  0.324382  0.103545  1
  Sr  Sr3  1  0.675618  0.833828  0.396455  1
  Fe  Fe4  1  0.558791  0.161323  0.105943  1
  Fe  Fe5  1  0.441209  0.838677  0.894057  1
  Fe  Fe6  1  0.838677  0.441209  0.394057  1
  Fe  Fe7  1  0.161323  0.558791  0.605943  1
  Co  Co8  1  0.807441  0.192559  0.750000  1
  Co  Co9  1  0.192559  0.807441  0.250000  1
  N  N10  1  0.407549  0.592451  0.750000  1
  N  N11  1  0.592451  0.407549  0.250000  1
  N  N12  1  0.019387  0.732244  0.499668  1
  N  N13  1  0.732244  0.019387  0.999668  1
  N  N14  1  0.980613  0.267756  0.500332  1
  N  N15  1  0.267756  0.980613  0.000332  1
