# generated using pymatgen
data_SmY5RhI10
_symmetry_space_group_name_H-M   'P 1'
_cell_length_a   7.76546964
_cell_length_b   9.71471729
_cell_length_c   9.83596107
_cell_angle_alpha   107.38470834
_cell_angle_beta   96.99968940
_cell_angle_gamma   104.30942331
_symmetry_Int_Tables_number   1
_chemical_formula_structural   SmY5RhI10
_chemical_formula_sum   'Sm1 Y5 Rh1 I10'
_cell_volume   670.60983834
_cell_formula_units_Z   1
loop_
 _symmetry_equiv_pos_site_id
 _symmetry_equiv_pos_as_xyz
  1  'x, y, z'
loop_
 _atom_site_type_symbol
 _atom_site_label
 _atom_site_symmetry_multiplicity
 _atom_site_fract_x
 _atom_site_fract_y
 _atom_site_fract_z
 _atom_site_occupancy
  Sm  Sm0  1  0.531325  0.217862  0.416226  1
  Y  Y1  1  0.469194  0.777086  0.582584  1
  Y  Y2  1  0.148590  0.374959  0.332492  1
  Y  Y3  1  0.851739  0.626997  0.667918  1
  Y  Y4  1  0.615263  0.541970  0.257475  1
  Y  Y5  1  0.385659  0.457960  0.742856  1
  Rh  Rh6  1  0.500114  0.499398  0.499930  1
  I  I7  1  0.142835  0.048029  0.225352  1
  I  I8  1  0.849541  0.951869  0.772302  1
  I  I9  1  0.241918  0.412552  0.036659  1
  I  I10  1  0.758808  0.588547  0.963276  1
  I  I11  1  0.723621  0.244918  0.151208  1
  I  I12  1  0.280046  0.758224  0.845643  1
  I  I13  1  0.046967  0.684611  0.409760  1
  I  I14  1  0.956560  0.318094  0.592684  1
  I  I15  1  0.412041  0.126789  0.681858  1
  I  I16  1  0.585778  0.870135  0.321774  1
