# generated using pymatgen
data_Yb4SmIr2
_symmetry_space_group_name_H-M   'P 1'
_cell_length_a   8.53943302
_cell_length_b   8.53943328
_cell_length_c   7.41558326
_cell_angle_alpha   83.12976387
_cell_angle_beta   83.12976590
_cell_angle_gamma   45.17041928
_symmetry_Int_Tables_number   1
_chemical_formula_structural   Yb4SmIr2
_chemical_formula_sum   'Yb8 Sm2 Ir4'
_cell_volume   380.27745230
_cell_formula_units_Z   2
loop_
 _symmetry_equiv_pos_site_id
 _symmetry_equiv_pos_as_xyz
  1  'x, y, z'
loop_
 _atom_site_type_symbol
 _atom_site_label
 _atom_site_symmetry_multiplicity
 _atom_site_fract_x
 _atom_site_fract_y
 _atom_site_fract_z
 _atom_site_occupancy
  Yb  Yb0  1  0.023281  0.803679  0.418431  1
  Yb  Yb1  1  0.196321  0.976719  0.081569  1
  Yb  Yb2  1  0.976719  0.196321  0.581569  1
  Yb  Yb3  1  0.803679  0.023281  0.918431  1
  Yb  Yb4  1  0.357872  0.204251  0.320317  1
  Yb  Yb5  1  0.795749  0.642128  0.179683  1
  Yb  Yb6  1  0.642128  0.795749  0.679683  1
  Yb  Yb7  1  0.204251  0.357872  0.820317  1
  Sm  Sm8  1  0.566843  0.433157  0.250000  1
  Sm  Sm9  1  0.433157  0.566843  0.750000  1
  Ir  Ir10  1  0.182963  0.602143  0.076666  1
  Ir  Ir11  1  0.397857  0.817037  0.423334  1
  Ir  Ir12  1  0.817037  0.397857  0.923334  1
  Ir  Ir13  1  0.602143  0.182963  0.576666  1
