# generated using pymatgen
data_Y4TmRuRh
_symmetry_space_group_name_H-M   'P 1'
_cell_length_a   6.40920604
_cell_length_b   7.27537031
_cell_length_c   8.54571915
_cell_angle_alpha   96.66913444
_cell_angle_beta   112.02401667
_cell_angle_gamma   89.99999851
_symmetry_Int_Tables_number   1
_chemical_formula_structural   Y4TmRuRh
_chemical_formula_sum   'Y8 Tm2 Ru2 Rh2'
_cell_volume   366.49257455
_cell_formula_units_Z   2
loop_
 _symmetry_equiv_pos_site_id
 _symmetry_equiv_pos_as_xyz
  1  'x, y, z'
loop_
 _atom_site_type_symbol
 _atom_site_label
 _atom_site_symmetry_multiplicity
 _atom_site_fract_x
 _atom_site_fract_y
 _atom_site_fract_z
 _atom_site_occupancy
  Y  Y0  1  0.791630  0.081751  0.813115  1
  Y  Y1  1  0.978514  0.418249  0.186885  1
  Y  Y2  1  0.210822  0.915604  0.184215  1
  Y  Y3  1  0.026606  0.584396  0.815785  1
  Y  Y4  1  0.208567  0.183494  0.566227  1
  Y  Y5  1  0.642340  0.316506  0.433773  1
  Y  Y6  1  0.790804  0.812744  0.436347  1
  Y  Y7  1  0.354455  0.687256  0.563653  1
  Tm  Tm8  1  0.422985  0.250000  0.000000  1
  Tm  Tm9  1  0.574934  0.750000  0.000000  1
  Ru  Ru10  1  0.397621  0.573268  0.215943  1
  Ru  Ru11  1  0.181679  0.926732  0.784057  1
  Rh  Rh12  1  0.601188  0.425591  0.783335  1
  Rh  Rh13  1  0.817852  0.074409  0.216665  1
