# generated using pymatgen
data_Th8Ta11Si16W
_symmetry_space_group_name_H-M   'P 1'
_cell_length_a   7.15260860
_cell_length_b   7.15260860
_cell_length_c   13.35423334
_cell_angle_alpha   89.98171244
_cell_angle_beta   90.01828756
_cell_angle_gamma   89.90408404
_symmetry_Int_Tables_number   1
_chemical_formula_structural   Th8Ta11Si16W
_chemical_formula_sum   'Th8 Ta11 Si16 W1'
_cell_volume   683.19900988
_cell_formula_units_Z   1
loop_
 _symmetry_equiv_pos_site_id
 _symmetry_equiv_pos_as_xyz
  1  'x, y, z'
loop_
 _atom_site_type_symbol
 _atom_site_label
 _atom_site_symmetry_multiplicity
 _atom_site_fract_x
 _atom_site_fract_y
 _atom_site_fract_z
 _atom_site_occupancy
  Th  Th0  1  0.999239  0.335990  0.217886  1
  Th  Th1  1  0.002108  0.663226  0.719238  1
  Th  Th2  1  0.162814  0.498112  0.468513  1
  Th  Th3  1  0.500553  0.838494  0.031586  1
  Th  Th4  1  0.838494  0.500553  0.968414  1
  Th  Th5  1  0.498112  0.162814  0.531487  1
  Th  Th6  1  0.335990  0.999239  0.782114  1
  Th  Th7  1  0.663226  0.002108  0.280762  1
  Ta  Ta8  1  0.832281  0.832281  0.500000  1
  Ta  Ta9  1  0.331464  0.667326  0.249060  1
  Ta  Ta10  1  0.667326  0.331464  0.750940  1
  Ta  Ta11  1  0.161692  0.997485  0.374422  1
  Ta  Ta12  1  0.837032  0.003245  0.874654  1
  Ta  Ta13  1  0.503691  0.661897  0.624940  1
  Ta  Ta14  1  0.338677  0.496324  0.875604  1
  Ta  Ta15  1  0.496324  0.338677  0.124396  1
  Ta  Ta16  1  0.661897  0.503691  0.375060  1
  Ta  Ta17  1  0.997485  0.161692  0.625578  1
  Ta  Ta18  1  0.003245  0.837032  0.125346  1
  Si  Si19  1  0.288091  0.040327  0.184790  1
  Si  Si20  1  0.711403  0.961433  0.686366  1
  Si  Si21  1  0.460893  0.788918  0.435914  1
  Si  Si22  1  0.211820  0.536816  0.063180  1
  Si  Si23  1  0.536816  0.211820  0.936820  1
  Si  Si24  1  0.788918  0.460893  0.564086  1
  Si  Si25  1  0.040327  0.288091  0.815210  1
  Si  Si26  1  0.961433  0.711403  0.313634  1
  Si  Si27  1  0.375563  0.299292  0.313816  1
  Si  Si28  1  0.623885  0.700973  0.814043  1
  Si  Si29  1  0.201290  0.875662  0.564494  1
  Si  Si30  1  0.123388  0.801821  0.936599  1
  Si  Si31  1  0.801821  0.123388  0.063401  1
  Si  Si32  1  0.875662  0.201290  0.435506  1
  Si  Si33  1  0.299292  0.375563  0.686184  1
  Si  Si34  1  0.700973  0.623885  0.185957  1
  W  W35  1  0.166775  0.166775  0.000000  1
