# generated using pymatgen
data_Er3LuCo4(SnH)4
_symmetry_space_group_name_H-M   'P 1'
_cell_length_a   4.24733700
_cell_length_b   7.04902398
_cell_length_c   8.08771119
_cell_angle_alpha   90.06130360
_cell_angle_beta   90.00000000
_cell_angle_gamma   90.00000000
_symmetry_Int_Tables_number   1
_chemical_formula_structural   Er3LuCo4(SnH)4
_chemical_formula_sum   'Er3 Lu1 Co4 Sn4 H4'
_cell_volume   242.14254055
_cell_formula_units_Z   1
loop_
 _symmetry_equiv_pos_site_id
 _symmetry_equiv_pos_as_xyz
  1  'x, y, z'
loop_
 _atom_site_type_symbol
 _atom_site_label
 _atom_site_symmetry_multiplicity
 _atom_site_fract_x
 _atom_site_fract_y
 _atom_site_fract_z
 _atom_site_occupancy
  Er  Er0  1  0.250000  0.985668  0.315611  1
  Er  Er1  1  0.250000  0.486777  0.184239  1
  Er  Er2  1  0.750000  0.513634  0.815553  1
  Lu  Lu3  1  0.750000  0.013892  0.682757  1
  Co  Co4  1  0.750000  0.771544  0.103422  1
  Co  Co5  1  0.250000  0.227748  0.895417  1
  Co  Co6  1  0.250000  0.730001  0.603660  1
  Co  Co7  1  0.750000  0.270859  0.397902  1
  Sn  Sn8  1  0.750000  0.653821  0.427689  1
  Sn  Sn9  1  0.250000  0.345724  0.573482  1
  Sn  Sn10  1  0.250000  0.846991  0.924984  1
  Sn  Sn11  1  0.750000  0.153411  0.072757  1
  H  H12  1  0.250000  0.450155  0.917666  1
  H  H13  1  0.750000  0.548979  0.082218  1
  H  H14  1  0.750000  0.048532  0.419652  1
  H  H15  1  0.250000  0.952266  0.582991  1
