# generated using pymatgen
data_BaHg2F8
_symmetry_space_group_name_H-M   'P 1'
_cell_length_a   7.50811495
_cell_length_b   7.50811507
_cell_length_c   7.50811469
_cell_angle_alpha   133.09826395
_cell_angle_beta   133.09826747
_cell_angle_gamma   68.49987384
_symmetry_Int_Tables_number   1
_chemical_formula_structural   BaHg2F8
_chemical_formula_sum   'Ba1 Hg2 F8'
_cell_volume   221.62941433
_cell_formula_units_Z   1
loop_
 _symmetry_equiv_pos_site_id
 _symmetry_equiv_pos_as_xyz
  1  'x, y, z'
loop_
 _atom_site_type_symbol
 _atom_site_label
 _atom_site_symmetry_multiplicity
 _atom_site_fract_x
 _atom_site_fract_y
 _atom_site_fract_z
 _atom_site_occupancy
  Ba  Ba0  1  0.000000  0.000000  0.000000  1
  Hg  Hg1  1  0.750000  0.250000  0.500000  1
  Hg  Hg2  1  0.250000  0.750000  0.500000  1
  F  F3  1  0.690817  0.173855  0.136620  1
  F  F4  1  0.445803  0.962766  0.136620  1
  F  F5  1  0.826146  0.309183  0.863380  1
  F  F6  1  0.309183  0.445803  0.483036  1
  F  F7  1  0.037234  0.554197  0.863380  1
  F  F8  1  0.554197  0.690817  0.516964  1
  F  F9  1  0.173855  0.037234  0.483036  1
  F  F10  1  0.962766  0.826146  0.516964  1
