# generated using pymatgen
data_Tb5SmAl16(SiOs)8
_symmetry_space_group_name_H-M   'P 1'
_cell_length_a   8.70744658
_cell_length_b   8.71388564
_cell_length_c   9.49843500
_cell_angle_alpha   90.01985276
_cell_angle_beta   89.98541753
_cell_angle_gamma   120.04050168
_symmetry_Int_Tables_number   1
_chemical_formula_structural   Tb5SmAl16(SiOs)8
_chemical_formula_sum   'Tb5 Sm1 Al16 Si8 Os8'
_cell_volume   623.88988378
_cell_formula_units_Z   1
loop_
 _symmetry_equiv_pos_site_id
 _symmetry_equiv_pos_as_xyz
  1  'x, y, z'
loop_
 _atom_site_type_symbol
 _atom_site_label
 _atom_site_symmetry_multiplicity
 _atom_site_fract_x
 _atom_site_fract_y
 _atom_site_fract_z
 _atom_site_occupancy
  Tb  Tb0  1  0.192006  0.385421  0.252622  1
  Tb  Tb1  1  0.806442  0.612939  0.749657  1
  Tb  Tb2  1  0.612182  0.807171  0.249731  1
  Tb  Tb3  1  0.383786  0.191123  0.748351  1
  Tb  Tb4  1  0.194329  0.805552  0.249604  1
  Sm  Sm5  1  0.808010  0.191096  0.748084  1
  Al  Al6  1  0.834753  0.671859  0.422269  1
  Al  Al7  1  0.671515  0.834694  0.576135  1
  Al  Al8  1  0.834093  0.670935  0.078457  1
  Al  Al9  1  0.331638  0.165081  0.420236  1
  Al  Al10  1  0.165187  0.330239  0.927258  1
  Al  Al11  1  0.163179  0.835013  0.575581  1
  Al  Al12  1  0.329958  0.165822  0.077962  1
  Al  Al13  1  0.832610  0.163646  0.419420  1
  Al  Al14  1  0.670630  0.834154  0.923828  1
  Al  Al15  1  0.835169  0.164146  0.078687  1
  Al  Al16  1  0.163597  0.834130  0.924474  1
  Al  Al17  1  0.128671  0.567707  0.750131  1
  Al  Al18  1  0.565080  0.435069  0.250458  1
  Al  Al19  1  0.438035  0.567470  0.750273  1
  Al  Al20  1  0.999122  0.998174  0.251167  1
  Al  Al21  1  0.997923  0.994673  0.751296  1
  Si  Si22  1  0.332986  0.664098  0.039549  1
  Si  Si23  1  0.665286  0.334660  0.961402  1
  Si  Si24  1  0.665284  0.335263  0.539569  1
  Si  Si25  1  0.334695  0.668096  0.460257  1
  Si  Si26  1  0.166362  0.332557  0.572451  1
  Si  Si27  1  0.564482  0.124331  0.249394  1
  Si  Si28  1  0.436111  0.873569  0.749483  1
  Si  Si29  1  0.874928  0.434323  0.250505  1
  Os  Os30  1  0.500294  0.000662  0.000806  1
  Os  Os31  1  0.998288  0.499234  0.006448  1
  Os  Os32  1  0.500102  0.000564  0.498039  1
  Os  Os33  1  0.500386  0.499560  0.999844  1
  Os  Os34  1  0.002140  0.497405  0.493871  1
  Os  Os35  1  0.494218  0.497541  0.500300  1
  Os  Os36  1  0.000731  0.000789  0.000239  1
  Os  Os37  1  0.005791  0.011231  0.502167  1
