# generated using pymatgen
data_Tb8Hf9Si16Mo3
_symmetry_space_group_name_H-M   'P 1'
_cell_length_a   7.21323268
_cell_length_b   7.21323268
_cell_length_c   13.19779945
_cell_angle_alpha   90.11539969
_cell_angle_beta   90.11539969
_cell_angle_gamma   90.06143793
_symmetry_Int_Tables_number   1
_chemical_formula_structural   Tb8Hf9Si16Mo3
_chemical_formula_sum   'Tb8 Hf9 Si16 Mo3'
_cell_volume   686.68790002
_cell_formula_units_Z   1
loop_
 _symmetry_equiv_pos_site_id
 _symmetry_equiv_pos_as_xyz
  1  'x, y, z'
loop_
 _atom_site_type_symbol
 _atom_site_label
 _atom_site_symmetry_multiplicity
 _atom_site_fract_x
 _atom_site_fract_y
 _atom_site_fract_z
 _atom_site_occupancy
  Tb  Tb0  1  0.999949  0.343925  0.215126  1
  Tb  Tb1  1  0.003106  0.657190  0.714542  1
  Tb  Tb2  1  0.155431  0.500353  0.464059  1
  Tb  Tb3  1  0.499647  0.844569  0.035941  1
  Tb  Tb4  1  0.845959  0.501244  0.967681  1
  Tb  Tb5  1  0.498756  0.154041  0.532319  1
  Tb  Tb6  1  0.342810  0.996894  0.785458  1
  Tb  Tb7  1  0.656075  0.000051  0.284874  1
  Hf  Hf8  1  0.675265  0.324735  0.750000  1
  Hf  Hf9  1  0.147133  0.992764  0.373605  1
  Hf  Hf10  1  0.854614  0.005056  0.876676  1
  Hf  Hf11  1  0.506065  0.649615  0.621636  1
  Hf  Hf12  1  0.350385  0.493935  0.878364  1
  Hf  Hf13  1  0.492345  0.352420  0.125480  1
  Hf  Hf14  1  0.647580  0.507655  0.374520  1
  Hf  Hf15  1  0.994944  0.145386  0.623324  1
  Hf  Hf16  1  0.007236  0.852867  0.126395  1
  Si  Si17  1  0.361650  0.296843  0.316863  1
  Si  Si18  1  0.637200  0.705832  0.817530  1
  Si  Si19  1  0.204463  0.862227  0.566223  1
  Si  Si20  1  0.137773  0.795537  0.933777  1
  Si  Si21  1  0.796183  0.137569  0.067205  1
  Si  Si22  1  0.862431  0.203817  0.432795  1
  Si  Si23  1  0.294168  0.362800  0.682470  1
  Si  Si24  1  0.703157  0.638350  0.183137  1
  Si  Si25  1  0.295579  0.050855  0.184269  1
  Si  Si26  1  0.705083  0.947761  0.682553  1
  Si  Si27  1  0.448694  0.795112  0.432709  1
  Si  Si28  1  0.204888  0.551306  0.067291  1
  Si  Si29  1  0.547586  0.203427  0.936092  1
  Si  Si30  1  0.796573  0.452414  0.563908  1
  Si  Si31  1  0.052239  0.294917  0.817447  1
  Si  Si32  1  0.949145  0.704421  0.315731  1
  Mo  Mo33  1  0.176277  0.175120  0.001228  1
  Mo  Mo34  1  0.824880  0.823723  0.498772  1
  Mo  Mo35  1  0.324733  0.675267  0.250000  1
