# generated using pymatgen
data_Tb12FeCo3SnRh
_symmetry_space_group_name_H-M   'P 1'
_cell_length_a   8.35010879
_cell_length_b   8.35010869
_cell_length_c   8.35001489
_cell_angle_alpha   111.27735450
_cell_angle_beta   110.71968971
_cell_angle_gamma   106.45898178
_symmetry_Int_Tables_number   1
_chemical_formula_structural   Tb12FeCo3SnRh
_chemical_formula_sum   'Tb12 Fe1 Co3 Sn1 Rh1'
_cell_volume   447.24017083
_cell_formula_units_Z   1
loop_
 _symmetry_equiv_pos_site_id
 _symmetry_equiv_pos_as_xyz
  1  'x, y, z'
loop_
 _atom_site_type_symbol
 _atom_site_label
 _atom_site_symmetry_multiplicity
 _atom_site_fract_x
 _atom_site_fract_y
 _atom_site_fract_z
 _atom_site_occupancy
  Tb  Tb0  1  0.405592  0.210200  0.195376  1
  Tb  Tb1  1  0.593947  0.789616  0.804347  1
  Tb  Tb2  1  0.014731  0.210401  0.804347  1
  Tb  Tb3  1  0.985175  0.789783  0.195376  1
  Tb  Tb4  1  0.187276  0.291310  0.478586  1
  Tb  Tb5  1  0.812718  0.707129  0.519847  1
  Tb  Tb6  1  0.187278  0.708678  0.895955  1
  Tb  Tb7  1  0.812717  0.292881  0.105599  1
  Tb  Tb8  1  0.311117  0.618776  0.304087  1
  Tb  Tb9  1  0.685297  0.381225  0.692328  1
  Tb  Tb10  1  0.311104  0.007032  0.692328  1
  Tb  Tb11  1  0.685311  0.992971  0.304087  1
  Fe  Fe12  1  0.387827  0.000011  0.387838  1
  Co  Co13  1  0.621719  0.999991  0.621709  1
  Co  Co14  1  0.110382  0.610800  0.499581  1
  Co  Co15  1  0.888781  0.389199  0.499581  1
  Sn  Sn16  1  0.499563  0.500000  0.999563  1
  Rh  Rh17  1  0.999467  0.999998  0.999465  1
