# generated using pymatgen
data_LaTb6IrI12
_symmetry_space_group_name_H-M   'P 1'
_cell_length_a   9.86794705
_cell_length_b   9.86794703
_cell_length_c   9.86794720
_cell_angle_alpha   106.43162043
_cell_angle_beta   106.43161033
_cell_angle_gamma   106.43163938
_symmetry_Int_Tables_number   1
_chemical_formula_structural   LaTb6IrI12
_chemical_formula_sum   'La1 Tb6 Ir1 I12'
_cell_volume   812.33920050
_cell_formula_units_Z   1
loop_
 _symmetry_equiv_pos_site_id
 _symmetry_equiv_pos_as_xyz
  1  'x, y, z'
loop_
 _atom_site_type_symbol
 _atom_site_label
 _atom_site_symmetry_multiplicity
 _atom_site_fract_x
 _atom_site_fract_y
 _atom_site_fract_z
 _atom_site_occupancy
  La  La0  1  0.995109  0.995109  0.995109  1
  Tb  Tb1  1  0.517920  0.591663  0.792451  1
  Tb  Tb2  1  0.792451  0.517920  0.591663  1
  Tb  Tb3  1  0.591663  0.792451  0.517920  1
  Tb  Tb4  1  0.480479  0.406756  0.206699  1
  Tb  Tb5  1  0.206699  0.480479  0.406756  1
  Tb  Tb6  1  0.406756  0.206699  0.480479  1
  Ir  Ir7  1  0.499729  0.499729  0.499729  1
  I  I8  1  0.276197  0.822962  0.426310  1
  I  I9  1  0.426310  0.276197  0.822962  1
  I  I10  1  0.822962  0.426310  0.276197  1
  I  I11  1  0.722669  0.175987  0.572473  1
  I  I12  1  0.572473  0.722669  0.175987  1
  I  I13  1  0.175987  0.572473  0.722669  1
  I  I14  1  0.043908  0.122396  0.348462  1
  I  I15  1  0.348462  0.043908  0.122396  1
  I  I16  1  0.122396  0.348462  0.043908  1
  I  I17  1  0.954163  0.875007  0.644027  1
  I  I18  1  0.644027  0.954163  0.875007  1
  I  I19  1  0.875007  0.644027  0.954163  1
