# generated using pymatgen
data_Sc2FeP2Ir
_symmetry_space_group_name_H-M   'P 1'
_cell_length_a   3.84028000
_cell_length_b   6.34160366
_cell_length_c   7.16477242
_cell_angle_alpha   90.00091581
_cell_angle_beta   90.00000000
_cell_angle_gamma   90.00000000
_symmetry_Int_Tables_number   1
_chemical_formula_structural   Sc2FeP2Ir
_chemical_formula_sum   'Sc4 Fe2 P4 Ir2'
_cell_volume   174.48752648
_cell_formula_units_Z   2
loop_
 _symmetry_equiv_pos_site_id
 _symmetry_equiv_pos_as_xyz
  1  'x, y, z'
loop_
 _atom_site_type_symbol
 _atom_site_label
 _atom_site_symmetry_multiplicity
 _atom_site_fract_x
 _atom_site_fract_y
 _atom_site_fract_z
 _atom_site_occupancy
  Sc  Sc0  1  0.250000  0.525735  0.683628  1
  Sc  Sc1  1  0.750000  0.474265  0.316372  1
  Sc  Sc2  1  0.250000  0.014893  0.819673  1
  Sc  Sc3  1  0.750000  0.985107  0.180327  1
  Fe  Fe4  1  0.750000  0.352189  0.941925  1
  Fe  Fe5  1  0.250000  0.647811  0.058075  1
  P  P6  1  0.250000  0.290239  0.104130  1
  P  P7  1  0.750000  0.709761  0.895870  1
  P  P8  1  0.250000  0.770323  0.360492  1
  P  P9  1  0.750000  0.229677  0.639508  1
  Ir  Ir10  1  0.750000  0.841157  0.567329  1
  Ir  Ir11  1  0.250000  0.158843  0.432671  1
