# generated using pymatgen
data_Hf3Be2Ir5
_symmetry_space_group_name_H-M   'P 1'
_cell_length_a   9.43723200
_cell_length_b   9.43723200
_cell_length_c   3.35470200
_cell_angle_alpha   90.00000000
_cell_angle_beta   90.00000000
_cell_angle_gamma   90.00000000
_symmetry_Int_Tables_number   1
_chemical_formula_structural   Hf3Be2Ir5
_chemical_formula_sum   'Hf6 Be4 Ir10'
_cell_volume   298.77428166
_cell_formula_units_Z   2
loop_
 _symmetry_equiv_pos_site_id
 _symmetry_equiv_pos_as_xyz
  1  'x, y, z'
loop_
 _atom_site_type_symbol
 _atom_site_label
 _atom_site_symmetry_multiplicity
 _atom_site_fract_x
 _atom_site_fract_y
 _atom_site_fract_z
 _atom_site_occupancy
  Hf  Hf0  1  0.175614  0.675614  0.000000  1
  Hf  Hf1  1  0.324386  0.175614  0.000000  1
  Hf  Hf2  1  0.824386  0.324386  0.000000  1
  Hf  Hf3  1  0.500000  0.500000  0.000000  1
  Hf  Hf4  1  0.675614  0.824386  0.000000  1
  Hf  Hf5  1  0.000000  0.000000  0.000000  1
  Be  Be6  1  0.380738  0.880738  0.000000  1
  Be  Be7  1  0.119262  0.380738  0.000000  1
  Be  Be8  1  0.880738  0.619262  0.000000  1
  Be  Be9  1  0.619262  0.119262  0.000000  1
  Ir  Ir10  1  0.216189  0.927479  0.500000  1
  Ir  Ir11  1  0.927479  0.783811  0.500000  1
  Ir  Ir12  1  0.427479  0.716189  0.500000  1
  Ir  Ir13  1  0.572521  0.283811  0.500000  1
  Ir  Ir14  1  0.716189  0.572521  0.500000  1
  Ir  Ir15  1  0.283811  0.427479  0.500000  1
  Ir  Ir16  1  0.072521  0.216189  0.500000  1
  Ir  Ir17  1  0.000000  0.500000  0.500000  1
  Ir  Ir18  1  0.500000  0.000000  0.500000  1
  Ir  Ir19  1  0.783811  0.072521  0.500000  1
