# generated using pymatgen
data_Tb16TcNi3Hg4
_symmetry_space_group_name_H-M   'P 1'
_cell_length_a   9.57532905
_cell_length_b   9.57532972
_cell_length_c   9.57532924
_cell_angle_alpha   59.63021387
_cell_angle_beta   59.63021143
_cell_angle_gamma   59.63021078
_symmetry_Int_Tables_number   1
_chemical_formula_structural   Tb16TcNi3Hg4
_chemical_formula_sum   'Tb16 Tc1 Ni3 Hg4'
_cell_volume   615.57537272
_cell_formula_units_Z   1
loop_
 _symmetry_equiv_pos_site_id
 _symmetry_equiv_pos_as_xyz
  1  'x, y, z'
loop_
 _atom_site_type_symbol
 _atom_site_label
 _atom_site_symmetry_multiplicity
 _atom_site_fract_x
 _atom_site_fract_y
 _atom_site_fract_z
 _atom_site_occupancy
  Tb  Tb0  1  0.348633  0.348633  0.348633  1
  Tb  Tb1  1  0.352580  0.352580  0.950171  1
  Tb  Tb2  1  0.352580  0.950171  0.352580  1
  Tb  Tb3  1  0.950171  0.352580  0.352580  1
  Tb  Tb4  1  0.810234  0.188473  0.188473  1
  Tb  Tb5  1  0.187840  0.809927  0.809927  1
  Tb  Tb6  1  0.188473  0.810234  0.188473  1
  Tb  Tb7  1  0.809927  0.187840  0.809927  1
  Tb  Tb8  1  0.188473  0.188473  0.810234  1
  Tb  Tb9  1  0.809927  0.809927  0.187840  1
  Tb  Tb10  1  0.936664  0.564865  0.564865  1
  Tb  Tb11  1  0.555557  0.939497  0.939497  1
  Tb  Tb12  1  0.564865  0.936664  0.564865  1
  Tb  Tb13  1  0.939497  0.555557  0.939497  1
  Tb  Tb14  1  0.564865  0.564865  0.936664  1
  Tb  Tb15  1  0.939497  0.939497  0.555557  1
  Tc  Tc16  1  0.143437  0.143437  0.143437  1
  Ni  Ni17  1  0.142939  0.142939  0.575433  1
  Ni  Ni18  1  0.142939  0.575433  0.142939  1
  Ni  Ni19  1  0.575433  0.142939  0.142939  1
  Hg  Hg20  1  0.583315  0.583315  0.583315  1
  Hg  Hg21  1  0.583678  0.583678  0.244800  1
  Hg  Hg22  1  0.583678  0.244800  0.583678  1
  Hg  Hg23  1  0.244800  0.583678  0.583678  1
