# generated using pymatgen
data_Yb3ScSb3
_symmetry_space_group_name_H-M   'P 1'
_cell_length_a   8.09276052
_cell_length_b   8.03068851
_cell_length_c   7.99440387
_cell_angle_alpha   109.34187848
_cell_angle_beta   109.65760998
_cell_angle_gamma   109.75337250
_symmetry_Int_Tables_number   1
_chemical_formula_structural   Yb3ScSb3
_chemical_formula_sum   'Yb6 Sc2 Sb6'
_cell_volume   398.27003682
_cell_formula_units_Z   2
loop_
 _symmetry_equiv_pos_site_id
 _symmetry_equiv_pos_as_xyz
  1  'x, y, z'
loop_
 _atom_site_type_symbol
 _atom_site_label
 _atom_site_symmetry_multiplicity
 _atom_site_fract_x
 _atom_site_fract_y
 _atom_site_fract_z
 _atom_site_occupancy
  Yb  Yb0  1  0.002317  0.352075  0.497577  1
  Yb  Yb1  1  0.350232  0.495846  0.995980  1
  Yb  Yb2  1  0.004740  0.854499  0.502423  1
  Yb  Yb3  1  0.854252  0.499866  0.004020  1
  Yb  Yb4  1  0.500254  0.004910  0.859004  1
  Yb  Yb5  1  0.141249  0.145905  0.140996  1
  Sc  Sc6  1  0.498746  0.000796  0.356406  1
  Sc  Sc7  1  0.642339  0.644390  0.643594  1
  Sb  Sb8  1  0.854956  0.107437  0.730284  1
  Sb  Sb9  1  0.389184  0.255645  0.617070  1
  Sb  Sb10  1  0.123143  0.752123  0.881344  1
  Sb  Sb11  1  0.741799  0.870779  0.118656  1
  Sb  Sb12  1  0.272114  0.638575  0.382930  1
  Sb  Sb13  1  0.624672  0.377153  0.269716  1
