# generated using pymatgen
data_BaNi(As4Ru)3
_symmetry_space_group_name_H-M   'P 1'
_cell_length_a   7.46238295
_cell_length_b   7.48629603
_cell_length_c   7.46238279
_cell_angle_alpha   109.53615119
_cell_angle_beta   109.40621638
_cell_angle_gamma   109.53615366
_symmetry_Int_Tables_number   1
_chemical_formula_structural   BaNi(As4Ru)3
_chemical_formula_sum   'Ba1 Ni1 As12 Ru3'
_cell_volume   320.66494367
_cell_formula_units_Z   1
loop_
 _symmetry_equiv_pos_site_id
 _symmetry_equiv_pos_as_xyz
  1  'x, y, z'
loop_
 _atom_site_type_symbol
 _atom_site_label
 _atom_site_symmetry_multiplicity
 _atom_site_fract_x
 _atom_site_fract_y
 _atom_site_fract_z
 _atom_site_occupancy
  Ba  Ba0  1  0.000000  0.000000  0.000000  1
  Ni  Ni1  1  0.000000  0.500000  0.000000  1
  As  As2  1  0.848511  0.649616  0.497683  1
  As  As3  1  0.151489  0.350384  0.502317  1
  As  As4  1  0.150756  0.648176  0.801003  1
  As  As5  1  0.849244  0.351824  0.198997  1
  As  As6  1  0.650247  0.497421  0.849244  1
  As  As7  1  0.349753  0.502579  0.150756  1
  As  As8  1  0.649172  0.801105  0.151489  1
  As  As9  1  0.350828  0.198895  0.848511  1
  As  As10  1  0.497683  0.848068  0.649172  1
  As  As11  1  0.502317  0.151932  0.350828  1
  As  As12  1  0.198997  0.847174  0.349753  1
  As  As13  1  0.801003  0.152826  0.650247  1
  Ru  Ru14  1  0.500000  0.500000  0.500000  1
  Ru  Ru15  1  0.500000  0.000000  0.000000  1
  Ru  Ru16  1  0.000000  0.000000  0.500000  1
