# generated using pymatgen
data_MgAl3Ir4
_symmetry_space_group_name_H-M   'P 1'
_cell_length_a   4.29134000
_cell_length_b   4.29050852
_cell_length_c   7.43062500
_cell_angle_alpha   73.17093154
_cell_angle_beta   90.00277857
_cell_angle_gamma   60.01938721
_symmetry_Int_Tables_number   1
_chemical_formula_structural   MgAl3Ir4
_chemical_formula_sum   'Mg1 Al3 Ir4'
_cell_volume   111.68982866
_cell_formula_units_Z   1
loop_
 _symmetry_equiv_pos_site_id
 _symmetry_equiv_pos_as_xyz
  1  'x, y, z'
loop_
 _atom_site_type_symbol
 _atom_site_label
 _atom_site_symmetry_multiplicity
 _atom_site_fract_x
 _atom_site_fract_y
 _atom_site_fract_z
 _atom_site_occupancy
  Mg  Mg0  1  0.619956  0.834762  0.559502  1
  Al  Al1  1  0.368457  0.339030  0.804560  1
  Al  Al2  1  0.872057  0.332442  0.314480  1
  Al  Al3  1  0.120517  0.836996  0.059503  1
  Ir  Ir4  1  0.493019  0.091415  0.176993  1
  Ir  Ir5  1  0.997417  0.080305  0.692483  1
  Ir  Ir6  1  0.242870  0.590213  0.426565  1
  Ir  Ir7  1  0.747841  0.581586  0.942003  1
