# generated using pymatgen
data_Pr6Nd11Er3Sn16
_symmetry_space_group_name_H-M   'P 1'
_cell_length_a   8.27194524
_cell_length_b   8.42663900
_cell_length_c   15.98362006
_cell_angle_alpha   90.00862425
_cell_angle_beta   90.00454918
_cell_angle_gamma   90.04872001
_symmetry_Int_Tables_number   1
_chemical_formula_structural   Pr6Nd11Er3Sn16
_chemical_formula_sum   'Pr6 Nd11 Er3 Sn16'
_cell_volume   1114.13296394
_cell_formula_units_Z   1
loop_
 _symmetry_equiv_pos_site_id
 _symmetry_equiv_pos_as_xyz
  1  'x, y, z'
loop_
 _atom_site_type_symbol
 _atom_site_label
 _atom_site_symmetry_multiplicity
 _atom_site_fract_x
 _atom_site_fract_y
 _atom_site_fract_z
 _atom_site_occupancy
  Pr  Pr0  1  0.481680  0.680641  0.401831  1
  Pr  Pr1  1  0.981464  0.818370  0.098032  1
  Pr  Pr2  1  0.481689  0.680595  0.098149  1
  Pr  Pr3  1  0.981453  0.818408  0.401996  1
  Pr  Pr4  1  0.518208  0.318531  0.598658  1
  Pr  Pr5  1  0.018273  0.181214  0.900416  1
  Nd  Nd6  1  0.366483  0.837616  0.877777  1
  Nd  Nd7  1  0.866747  0.661804  0.620580  1
  Nd  Nd8  1  0.633961  0.163035  0.379498  1
  Nd  Nd9  1  0.132548  0.337796  0.119833  1
  Nd  Nd10  1  0.633969  0.163056  0.120506  1
  Nd  Nd11  1  0.132510  0.337776  0.380176  1
  Nd  Nd12  1  0.366401  0.837648  0.622197  1
  Nd  Nd13  1  0.866642  0.661778  0.879408  1
  Nd  Nd14  1  0.518282  0.318618  0.901098  1
  Nd  Nd15  1  0.018413  0.181117  0.599784  1
  Nd  Nd16  1  0.303653  0.002287  0.249999  1
  Er  Er17  1  0.199001  0.501839  0.750014  1
  Er  Er18  1  0.698498  0.997585  0.750011  1
  Er  Er19  1  0.801896  0.496944  0.249991  1
  Sn  Sn20  1  0.293363  0.036945  0.041306  1
  Sn  Sn21  1  0.792936  0.465573  0.455368  1
  Sn  Sn22  1  0.707258  0.965963  0.545054  1
  Sn  Sn23  1  0.208208  0.534335  0.954620  1
  Sn  Sn24  1  0.706303  0.965896  0.954978  1
  Sn  Sn25  1  0.207168  0.534397  0.545281  1
  Sn  Sn26  1  0.292717  0.037191  0.458926  1
  Sn  Sn27  1  0.792460  0.465371  0.044451  1
  Sn  Sn28  1  0.564025  0.617464  0.750120  1
  Sn  Sn29  1  0.062413  0.882081  0.749912  1
  Sn  Sn30  1  0.437835  0.384867  0.250035  1
  Sn  Sn31  1  0.932959  0.118550  0.250003  1
  Sn  Sn32  1  0.324472  0.147152  0.750207  1
  Sn  Sn33  1  0.822899  0.353927  0.749784  1
  Sn  Sn34  1  0.678455  0.852394  0.249996  1
  Sn  Sn35  1  0.174762  0.641232  0.250005  1
