# generated using pymatgen
data_Zr6Mn3Ga12Os
_symmetry_space_group_name_H-M   'P 1'
_cell_length_a   5.43259419
_cell_length_b   7.77354368
_cell_length_c   8.79855951
_cell_angle_alpha   90.24360530
_cell_angle_beta   90.27174682
_cell_angle_gamma   89.78083325
_symmetry_Int_Tables_number   1
_chemical_formula_structural   Zr6Mn3Ga12Os
_chemical_formula_sum   'Zr6 Mn3 Ga12 Os1'
_cell_volume   371.55741286
_cell_formula_units_Z   1
loop_
 _symmetry_equiv_pos_site_id
 _symmetry_equiv_pos_as_xyz
  1  'x, y, z'
loop_
 _atom_site_type_symbol
 _atom_site_label
 _atom_site_symmetry_multiplicity
 _atom_site_fract_x
 _atom_site_fract_y
 _atom_site_fract_z
 _atom_site_occupancy
  Zr  Zr0  1  0.499528  0.152827  0.778579  1
  Zr  Zr1  1  0.497392  0.152784  0.221644  1
  Zr  Zr2  1  0.000472  0.847173  0.721421  1
  Zr  Zr3  1  0.002608  0.847216  0.278356  1
  Zr  Zr4  1  0.499233  0.719411  0.500049  1
  Zr  Zr5  1  0.000767  0.280589  0.999951  1
  Mn  Mn6  1  0.250000  0.500000  0.750000  1
  Mn  Mn7  1  0.750000  0.500000  0.250000  1
  Mn  Mn8  1  0.750000  0.500000  0.750000  1
  Ga  Ga9  1  0.504265  0.769057  0.187155  1
  Ga  Ga10  1  0.498650  0.763096  0.813142  1
  Ga  Ga11  1  0.995735  0.230943  0.312845  1
  Ga  Ga12  1  0.001350  0.236904  0.686858  1
  Ga  Ga13  1  0.487528  0.368260  0.502833  1
  Ga  Ga14  1  0.012472  0.631740  0.997167  1
  Ga  Ga15  1  0.999711  0.565524  0.503081  1
  Ga  Ga16  1  0.500289  0.434476  0.996919  1
  Ga  Ga17  1  0.258026  0.039393  0.501380  1
  Ga  Ga18  1  0.738886  0.042905  0.500938  1
  Ga  Ga19  1  0.241974  0.960607  0.998620  1
  Ga  Ga20  1  0.761114  0.957095  0.999062  1
  Os  Os21  1  0.250000  0.500000  0.250000  1
