# generated using pymatgen
data_AcIn7Ag5
_symmetry_space_group_name_H-M   'P 1'
_cell_length_a   7.77400013
_cell_length_b   7.77399933
_cell_length_c   7.77551725
_cell_angle_alpha   136.05378308
_cell_angle_beta   97.85641728
_cell_angle_gamma   98.23018283
_symmetry_Int_Tables_number   1
_chemical_formula_structural   AcIn7Ag5
_chemical_formula_sum   'Ac1 In7 Ag5'
_cell_volume   302.45050824
_cell_formula_units_Z   1
loop_
 _symmetry_equiv_pos_site_id
 _symmetry_equiv_pos_as_xyz
  1  'x, y, z'
loop_
 _atom_site_type_symbol
 _atom_site_label
 _atom_site_symmetry_multiplicity
 _atom_site_fract_x
 _atom_site_fract_y
 _atom_site_fract_z
 _atom_site_occupancy
  Ac  Ac0  1  0.000004  0.000004  0.000000  1
  In  In1  1  0.650250  0.650250  0.000000  1
  In  In2  1  0.346675  0.346675  0.000000  1
  In  In3  1  0.340697  0.991921  0.348835  1
  In  In4  1  0.643086  0.991862  0.651165  1
  In  In5  1  0.776348  0.276348  0.500000  1
  In  In6  1  0.802390  0.506870  0.295351  1
  In  In7  1  0.211519  0.507040  0.704649  1
  Ag  Ag8  1  0.500111  0.500515  0.497379  1
  Ag  Ag9  1  0.500124  0.002752  0.999626  1
  Ag  Ag10  1  0.003126  0.500498  0.000374  1
  Ag  Ag11  1  0.003136  0.002733  0.502621  1
  Ag  Ag12  1  0.222533  0.722533  0.500000  1
