# generated using pymatgen
data_La20ZnRu3Pb8
_symmetry_space_group_name_H-M   'P 1'
_cell_length_a   8.54067905
_cell_length_b   9.40760800
_cell_length_c   13.03694400
_cell_angle_alpha   90.00000000
_cell_angle_beta   90.07362662
_cell_angle_gamma   90.00000000
_symmetry_Int_Tables_number   1
_chemical_formula_structural   La20ZnRu3Pb8
_chemical_formula_sum   'La20 Zn1 Ru3 Pb8'
_cell_volume   1047.48317546
_cell_formula_units_Z   1
loop_
 _symmetry_equiv_pos_site_id
 _symmetry_equiv_pos_as_xyz
  1  'x, y, z'
loop_
 _atom_site_type_symbol
 _atom_site_label
 _atom_site_symmetry_multiplicity
 _atom_site_fract_x
 _atom_site_fract_y
 _atom_site_fract_z
 _atom_site_occupancy
  La  La0  1  0.334591  0.750000  0.716007  1
  La  La1  1  0.650347  0.250000  0.294865  1
  La  La2  1  0.846811  0.250000  0.797490  1
  La  La3  1  0.150434  0.750000  0.201333  1
  La  La4  1  0.877898  0.750000  0.806573  1
  La  La5  1  0.118055  0.250000  0.191642  1
  La  La6  1  0.377134  0.250000  0.696542  1
  La  La7  1  0.634212  0.750000  0.292577  1
  La  La8  1  0.683026  0.516658  0.567520  1
  La  La9  1  0.313502  0.448710  0.433614  1
  La  La10  1  0.178636  0.469363  0.932600  1
  La  La11  1  0.313502  0.051290  0.433614  1
  La  La12  1  0.820997  0.532564  0.066180  1
  La  La13  1  0.683026  0.983342  0.567520  1
  La  La14  1  0.820997  0.967436  0.066180  1
  La  La15  1  0.178636  0.030637  0.932600  1
  La  La16  1  0.053204  0.750000  0.496987  1
  La  La17  1  0.951263  0.250000  0.501037  1
  La  La18  1  0.551262  0.250000  0.004726  1
  La  La19  1  0.457018  0.750000  0.999903  1
  Zn  Zn20  1  0.430741  0.750000  0.486620  1
  Ru  Ru21  1  0.084771  0.750000  0.985082  1
  Ru  Ru22  1  0.918550  0.250000  0.012792  1
  Ru  Ru23  1  0.579988  0.250000  0.512359  1
  Pb  Pb24  1  0.571537  0.507434  0.828746  1
  Pb  Pb25  1  0.425285  0.492697  0.173044  1
  Pb  Pb26  1  0.070643  0.492633  0.673399  1
  Pb  Pb27  1  0.425285  0.007303  0.173044  1
  Pb  Pb28  1  0.928233  0.506343  0.326631  1
  Pb  Pb29  1  0.571537  0.992566  0.828746  1
  Pb  Pb30  1  0.928233  0.993657  0.326631  1
  Pb  Pb31  1  0.070643  0.007367  0.673399  1
