# generated using pymatgen
data_TbSmZr2(NiP)4
_symmetry_space_group_name_H-M   'P 1'
_cell_length_a   3.87117900
_cell_length_b   3.87117981
_cell_length_c   14.88596000
_cell_angle_alpha   90.00000000
_cell_angle_beta   90.00000000
_cell_angle_gamma   120.00000165
_symmetry_Int_Tables_number   1
_chemical_formula_structural   TbSmZr2(NiP)4
_chemical_formula_sum   'Tb1 Sm1 Zr2 Ni4 P4'
_cell_volume   193.19419334
_cell_formula_units_Z   1
loop_
 _symmetry_equiv_pos_site_id
 _symmetry_equiv_pos_as_xyz
  1  'x, y, z'
loop_
 _atom_site_type_symbol
 _atom_site_label
 _atom_site_symmetry_multiplicity
 _atom_site_fract_x
 _atom_site_fract_y
 _atom_site_fract_z
 _atom_site_occupancy
  Tb  Tb0  1  0.000000  0.000000  0.500000  1
  Sm  Sm1  1  0.000000  0.000000  0.000000  1
  Zr  Zr2  1  0.000000  0.000000  0.251243  1
  Zr  Zr3  1  0.000000  0.000000  0.748757  1
  Ni  Ni4  1  0.333333  0.666667  0.148575  1
  Ni  Ni5  1  0.666667  0.333333  0.851425  1
  Ni  Ni6  1  0.666667  0.333333  0.645298  1
  Ni  Ni7  1  0.333333  0.666667  0.354702  1
  P  P8  1  0.333333  0.666667  0.625407  1
  P  P9  1  0.666667  0.333333  0.374593  1
  P  P10  1  0.666667  0.333333  0.128629  1
  P  P11  1  0.333333  0.666667  0.871371  1
