# generated using pymatgen
data_DyHo5ErRh3
_symmetry_space_group_name_H-M   'P 1'
_cell_length_a   9.76525900
_cell_length_b   9.76726904
_cell_length_c   6.15772700
_cell_angle_alpha   89.99918592
_cell_angle_beta   90.00162850
_cell_angle_gamma   119.99319601
_symmetry_Int_Tables_number   1
_chemical_formula_structural   DyHo5ErRh3
_chemical_formula_sum   'Dy2 Ho10 Er2 Rh6'
_cell_volume   508.67190499
_cell_formula_units_Z   2
loop_
 _symmetry_equiv_pos_site_id
 _symmetry_equiv_pos_as_xyz
  1  'x, y, z'
loop_
 _atom_site_type_symbol
 _atom_site_label
 _atom_site_symmetry_multiplicity
 _atom_site_fract_x
 _atom_site_fract_y
 _atom_site_fract_z
 _atom_site_occupancy
  Dy  Dy0  1  0.751850  0.875886  0.992714  1
  Dy  Dy1  1  0.875964  0.124114  0.492714  1
  Ho  Ho2  1  0.540876  0.458952  0.797039  1
  Ho  Ho3  1  0.081926  0.541048  0.297039  1
  Ho  Ho4  1  0.458699  0.917909  0.297261  1
  Ho  Ho5  1  0.540788  0.082091  0.797261  1
  Ho  Ho6  1  0.917894  0.459058  0.796970  1
  Ho  Ho7  1  0.458837  0.540942  0.296970  1
  Ho  Ho8  1  0.124306  0.248336  0.992351  1
  Ho  Ho9  1  0.875970  0.751664  0.492351  1
  Ho  Ho10  1  0.248283  0.124065  0.492263  1
  Ho  Ho11  1  0.124219  0.875935  0.992263  1
  Er  Er12  1  0.666753  0.333327  0.285698  1
  Er  Er13  1  0.333425  0.666673  0.785698  1
  Rh  Rh14  1  0.189873  0.810099  0.562905  1
  Rh  Rh15  1  0.379774  0.189901  0.062905  1
  Rh  Rh16  1  0.810215  0.619950  0.062588  1
  Rh  Rh17  1  0.190264  0.380050  0.562588  1
  Rh  Rh18  1  0.619838  0.809593  0.562212  1
  Rh  Rh19  1  0.810246  0.190407  0.062212  1
