# generated using pymatgen
data_Nd2Sb2P6N13
_symmetry_space_group_name_H-M   'P 1'
_cell_length_a   7.40880265
_cell_length_b   7.47783803
_cell_length_c   7.40880400
_cell_angle_alpha   109.19666123
_cell_angle_beta   109.64851116
_cell_angle_gamma   109.19666313
_symmetry_Int_Tables_number   1
_chemical_formula_structural   Nd2Sb2P6N13
_chemical_formula_sum   'Nd2 Sb2 P6 N13'
_cell_volume   317.40995484
_cell_formula_units_Z   1
loop_
 _symmetry_equiv_pos_site_id
 _symmetry_equiv_pos_as_xyz
  1  'x, y, z'
loop_
 _atom_site_type_symbol
 _atom_site_label
 _atom_site_symmetry_multiplicity
 _atom_site_fract_x
 _atom_site_fract_y
 _atom_site_fract_z
 _atom_site_occupancy
  Nd  Nd0  1  0.655608  0.000000  0.999647  1
  Nd  Nd1  1  0.999647  0.000000  0.655608  1
  Sb  Sb2  1  0.037546  0.778750  0.037546  1
  Sb  Sb3  1  0.258794  0.221250  0.258794  1
  P  P4  1  0.255325  0.746045  0.501169  1
  P  P5  1  0.755124  0.253955  0.509280  1
  P  P6  1  0.753961  0.500000  0.253961  1
  P  P7  1  0.253961  0.500000  0.753961  1
  P  P8  1  0.501169  0.746045  0.255325  1
  P  P9  1  0.509280  0.253955  0.755124  1
  N  N10  1  0.940142  0.000000  0.940142  1
  N  N11  1  0.715737  0.300845  0.305729  1
  N  N12  1  0.297425  0.706844  0.297425  1
  N  N13  1  0.320113  0.611732  0.616647  1
  N  N14  1  0.616647  0.611732  0.320113  1
  N  N15  1  0.414892  0.699155  0.004884  1
  N  N16  1  0.004884  0.699155  0.414892  1
  N  N17  1  0.590581  0.293156  0.590581  1
  N  N18  1  0.703431  0.000000  0.396712  1
  N  N19  1  0.396712  0.000000  0.703431  1
  N  N20  1  0.708381  0.388268  0.004915  1
  N  N21  1  0.305729  0.300845  0.715737  1
  N  N22  1  0.004915  0.388268  0.708381  1
