# generated using pymatgen
data_Ho3Er9In2Fe2Ir
_symmetry_space_group_name_H-M   'P 1'
_cell_length_a   8.31347055
_cell_length_b   8.31347019
_cell_length_c   8.31535819
_cell_angle_alpha   108.74348013
_cell_angle_beta   108.74348448
_cell_angle_gamma   110.92774731
_symmetry_Int_Tables_number   1
_chemical_formula_structural   Ho3Er9In2Fe2Ir
_chemical_formula_sum   'Ho3 Er9 In2 Fe2 Ir1'
_cell_volume   442.24138222
_cell_formula_units_Z   1
loop_
 _symmetry_equiv_pos_site_id
 _symmetry_equiv_pos_as_xyz
  1  'x, y, z'
loop_
 _atom_site_type_symbol
 _atom_site_label
 _atom_site_symmetry_multiplicity
 _atom_site_fract_x
 _atom_site_fract_y
 _atom_site_fract_z
 _atom_site_occupancy
  Ho  Ho0  1  0.306988  0.306869  0.613855  1
  Ho  Ho1  1  0.693131  0.693012  0.386145  1
  Ho  Ho2  1  0.306880  0.693120  0.000000  1
  Er  Er3  1  0.692876  0.307124  0.000000  1
  Er  Er4  1  0.432524  0.193712  0.238656  1
  Er  Er5  1  0.567614  0.806466  0.761280  1
  Er  Er6  1  0.954814  0.193665  0.761280  1
  Er  Er7  1  0.193868  0.955057  0.761344  1
  Er  Er8  1  0.044943  0.806132  0.238656  1
  Er  Er9  1  0.806335  0.045186  0.238720  1
  Er  Er10  1  0.193534  0.432386  0.238720  1
  Er  Er11  1  0.806288  0.567476  0.761344  1
  In  In12  1  0.500031  0.000050  0.500081  1
  In  In13  1  0.999950  0.499969  0.499919  1
  Fe  Fe14  1  0.385819  0.385598  0.000000  1
  Fe  Fe15  1  0.614402  0.614181  0.000000  1
  Ir  Ir16  1  0.000005  0.999995  0.000000  1
