# generated using pymatgen
data_Dy6CuSi5Rh12
_symmetry_space_group_name_H-M   'P 1'
_cell_length_a   5.54044700
_cell_length_b   5.54044738
_cell_length_c   15.25061300
_cell_angle_alpha   90.00000000
_cell_angle_beta   90.00000000
_cell_angle_gamma   120.00000370
_symmetry_Int_Tables_number   1
_chemical_formula_structural   Dy6CuSi5Rh12
_chemical_formula_sum   'Dy6 Cu1 Si5 Rh12'
_cell_volume   405.42222738
_cell_formula_units_Z   1
loop_
 _symmetry_equiv_pos_site_id
 _symmetry_equiv_pos_as_xyz
  1  'x, y, z'
loop_
 _atom_site_type_symbol
 _atom_site_label
 _atom_site_symmetry_multiplicity
 _atom_site_fract_x
 _atom_site_fract_y
 _atom_site_fract_z
 _atom_site_occupancy
  Dy  Dy0  1  0.666667  0.333334  0.036229  1
  Dy  Dy1  1  0.666667  0.333334  0.248435  1
  Dy  Dy2  1  0.666667  0.333334  0.461081  1
  Dy  Dy3  1  0.333333  0.666667  0.538919  1
  Dy  Dy4  1  0.333333  0.666667  0.751565  1
  Dy  Dy5  1  0.333333  0.666667  0.963771  1
  Cu  Cu6  1  0.000000  0.000000  0.000000  1
  Si  Si7  1  0.000000  0.000000  0.252402  1
  Si  Si8  1  0.333333  0.666667  0.251427  1
  Si  Si9  1  0.000000  0.000000  0.500000  1
  Si  Si10  1  0.000000  0.000000  0.747598  1
  Si  Si11  1  0.666667  0.333334  0.748573  1
  Rh  Rh12  1  0.166684  0.333369  0.134992  1
  Rh  Rh13  1  0.166685  0.833316  0.134992  1
  Rh  Rh14  1  0.666631  0.833316  0.134992  1
  Rh  Rh15  1  0.167093  0.334187  0.370836  1
  Rh  Rh16  1  0.167094  0.832907  0.370836  1
  Rh  Rh17  1  0.665813  0.832907  0.370836  1
  Rh  Rh18  1  0.334187  0.167093  0.629163  1
  Rh  Rh19  1  0.832908  0.167093  0.629163  1
  Rh  Rh20  1  0.832907  0.665814  0.629163  1
  Rh  Rh21  1  0.333369  0.166684  0.865008  1
  Rh  Rh22  1  0.833317  0.166684  0.865008  1
  Rh  Rh23  1  0.833316  0.666632  0.865008  1
