# generated using pymatgen
data_Dy5SbPbO12
_symmetry_space_group_name_H-M   'P 1'
_cell_length_a   6.54473275
_cell_length_b   6.45088487
_cell_length_c   6.52923263
_cell_angle_alpha   99.13172739
_cell_angle_beta   99.23403860
_cell_angle_gamma   98.33968186
_symmetry_Int_Tables_number   1
_chemical_formula_structural   Dy5SbPbO12
_chemical_formula_sum   'Dy5 Sb1 Pb1 O12'
_cell_volume   264.49525320
_cell_formula_units_Z   1
loop_
 _symmetry_equiv_pos_site_id
 _symmetry_equiv_pos_as_xyz
  1  'x, y, z'
loop_
 _atom_site_type_symbol
 _atom_site_label
 _atom_site_symmetry_multiplicity
 _atom_site_fract_x
 _atom_site_fract_y
 _atom_site_fract_z
 _atom_site_occupancy
  Dy  Dy0  1  0.387954  0.689430  0.857699  1
  Dy  Dy1  1  0.862013  0.392493  0.700263  1
  Dy  Dy2  1  0.303970  0.143615  0.612248  1
  Dy  Dy3  1  0.607824  0.304357  0.132095  1
  Dy  Dy4  1  0.141077  0.610873  0.306999  1
  Sb  Sb5  1  0.001742  0.998839  0.003790  1
  Pb  Pb6  1  0.683273  0.856750  0.395910  1
  O  O7  1  0.432584  0.588082  0.177803  1
  O  O8  1  0.170809  0.435741  0.585809  1
  O  O9  1  0.600214  0.169675  0.430075  1
  O  O10  1  0.563424  0.406981  0.816118  1
  O  O11  1  0.816361  0.577511  0.411876  1
  O  O12  1  0.416441  0.822200  0.569900  1
  O  O13  1  0.930020  0.040016  0.695289  1
  O  O14  1  0.955369  0.305577  0.069081  1
  O  O15  1  0.301688  0.073831  0.956673  1
  O  O16  1  0.083363  0.962677  0.304222  1
  O  O17  1  0.043354  0.694516  0.930836  1
  O  O18  1  0.698520  0.926838  0.043314  1
