# generated using pymatgen
data_DyLu19(Bi2Rh)4
_symmetry_space_group_name_H-M   'P 1'
_cell_length_a   7.80212904
_cell_length_b   8.95751600
_cell_length_c   12.24005456
_cell_angle_alpha   90.00000000
_cell_angle_beta   90.05852740
_cell_angle_gamma   90.00000000
_symmetry_Int_Tables_number   1
_chemical_formula_structural   DyLu19(Bi2Rh)4
_chemical_formula_sum   'Dy1 Lu19 Bi8 Rh4'
_cell_volume   855.42876239
_cell_formula_units_Z   1
loop_
 _symmetry_equiv_pos_site_id
 _symmetry_equiv_pos_as_xyz
  1  'x, y, z'
loop_
 _atom_site_type_symbol
 _atom_site_label
 _atom_site_symmetry_multiplicity
 _atom_site_fract_x
 _atom_site_fract_y
 _atom_site_fract_z
 _atom_site_occupancy
  Dy  Dy0  1  0.551665  0.750000  0.001126  1
  Lu  Lu1  1  0.840309  0.750000  0.791718  1
  Lu  Lu2  1  0.160184  0.250000  0.207863  1
  Lu  Lu3  1  0.339703  0.250000  0.707190  1
  Lu  Lu4  1  0.659771  0.750000  0.293367  1
  Lu  Lu5  1  0.377227  0.750000  0.690661  1
  Lu  Lu6  1  0.622749  0.250000  0.309475  1
  Lu  Lu7  1  0.877318  0.250000  0.808809  1
  Lu  Lu8  1  0.123025  0.750000  0.191426  1
  Lu  Lu9  1  0.946176  0.750000  0.501486  1
  Lu  Lu10  1  0.053852  0.250000  0.498466  1
  Lu  Lu11  1  0.447160  0.250000  0.998700  1
  Lu  Lu12  1  0.674638  0.044359  0.565261  1
  Lu  Lu13  1  0.325237  0.955983  0.434734  1
  Lu  Lu14  1  0.173685  0.957522  0.934106  1
  Lu  Lu15  1  0.325237  0.544017  0.434734  1
  Lu  Lu16  1  0.826126  0.045759  0.065995  1
  Lu  Lu17  1  0.674638  0.455641  0.565261  1
  Lu  Lu18  1  0.826126  0.454241  0.065995  1
  Lu  Lu19  1  0.173685  0.542478  0.934106  1
  Bi  Bi20  1  0.566619  0.489958  0.826294  1
  Bi  Bi21  1  0.433010  0.508229  0.173705  1
  Bi  Bi22  1  0.066371  0.508901  0.672083  1
  Bi  Bi23  1  0.433010  0.991771  0.173705  1
  Bi  Bi24  1  0.933460  0.490694  0.327718  1
  Bi  Bi25  1  0.566619  0.010042  0.826294  1
  Bi  Bi26  1  0.933460  0.009306  0.327718  1
  Bi  Bi27  1  0.066371  0.991099  0.672083  1
  Rh  Rh28  1  0.574051  0.750000  0.509682  1
  Rh  Rh29  1  0.426065  0.250000  0.490641  1
  Rh  Rh30  1  0.073934  0.250000  0.990436  1
  Rh  Rh31  1  0.928517  0.750000  0.009159  1
