# generated using pymatgen
data_HfZr3(NbGa3)2
_symmetry_space_group_name_H-M   'P 1'
_cell_length_a   5.54034700
_cell_length_b   8.54831774
_cell_length_c   9.22846881
_cell_angle_alpha   89.95227843
_cell_angle_beta   90.00000000
_cell_angle_gamma   90.00000000
_symmetry_Int_Tables_number   1
_chemical_formula_structural   HfZr3(NbGa3)2
_chemical_formula_sum   'Hf2 Zr6 Nb4 Ga12'
_cell_volume   437.06609747
_cell_formula_units_Z   2
loop_
 _symmetry_equiv_pos_site_id
 _symmetry_equiv_pos_as_xyz
  1  'x, y, z'
loop_
 _atom_site_type_symbol
 _atom_site_label
 _atom_site_symmetry_multiplicity
 _atom_site_fract_x
 _atom_site_fract_y
 _atom_site_fract_z
 _atom_site_occupancy
  Hf  Hf0  1  0.750000  0.866837  0.818632  1
  Hf  Hf1  1  0.250000  0.133163  0.181368  1
  Zr  Zr2  1  0.750000  0.467825  0.620518  1
  Zr  Zr3  1  0.250000  0.532175  0.379482  1
  Zr  Zr4  1  0.750000  0.968391  0.378398  1
  Zr  Zr5  1  0.250000  0.031609  0.621602  1
  Zr  Zr6  1  0.750000  0.366709  0.183246  1
  Zr  Zr7  1  0.250000  0.633291  0.816754  1
  Nb  Nb8  1  0.999855  0.750592  0.111069  1
  Nb  Nb9  1  0.499855  0.249408  0.888931  1
  Nb  Nb10  1  0.000145  0.249408  0.888931  1
  Nb  Nb11  1  0.500145  0.750592  0.111069  1
  Ga  Ga12  1  0.999105  0.750567  0.572452  1
  Ga  Ga13  1  0.499105  0.249433  0.427548  1
  Ga  Ga14  1  0.000895  0.249433  0.427548  1
  Ga  Ga15  1  0.500895  0.750567  0.572452  1
  Ga  Ga16  1  0.750000  0.044230  0.079750  1
  Ga  Ga17  1  0.250000  0.955770  0.920250  1
  Ga  Ga18  1  0.750000  0.544770  0.919521  1
  Ga  Ga19  1  0.250000  0.455230  0.080479  1
  Ga  Ga20  1  0.750000  0.131217  0.653626  1
  Ga  Ga21  1  0.250000  0.868783  0.346374  1
  Ga  Ga22  1  0.750000  0.632280  0.346776  1
  Ga  Ga23  1  0.250000  0.367720  0.653224  1
