# generated using pymatgen
data_Sr9Yb4Y7Sn16
_symmetry_space_group_name_H-M   'P 1'
_cell_length_a   8.12277434
_cell_length_b   8.55856402
_cell_length_c   16.52274704
_cell_angle_alpha   90.06177489
_cell_angle_beta   89.97053254
_cell_angle_gamma   90.15411520
_symmetry_Int_Tables_number   1
_chemical_formula_structural   Sr9Yb4Y7Sn16
_chemical_formula_sum   'Sr9 Yb4 Y7 Sn16'
_cell_volume   1148.64457492
_cell_formula_units_Z   1
loop_
 _symmetry_equiv_pos_site_id
 _symmetry_equiv_pos_as_xyz
  1  'x, y, z'
loop_
 _atom_site_type_symbol
 _atom_site_label
 _atom_site_symmetry_multiplicity
 _atom_site_fract_x
 _atom_site_fract_y
 _atom_site_fract_z
 _atom_site_occupancy
  Sr  Sr0  1  0.172166  0.330300  0.620809  1
  Sr  Sr1  1  0.503332  0.677998  0.596324  1
  Sr  Sr2  1  0.004108  0.821090  0.906106  1
  Sr  Sr3  1  0.494963  0.321893  0.094491  1
  Sr  Sr4  1  0.995620  0.179978  0.404400  1
  Sr  Sr5  1  0.495290  0.322361  0.404775  1
  Sr  Sr6  1  0.994939  0.178455  0.094377  1
  Sr  Sr7  1  0.505805  0.678513  0.906093  1
  Sr  Sr8  1  0.004971  0.820315  0.594761  1
  Yb  Yb9  1  0.837703  0.507887  0.749836  1
  Yb  Yb10  1  0.334797  0.992841  0.750717  1
  Yb  Yb11  1  0.164852  0.492298  0.249094  1
  Yb  Yb12  1  0.665583  0.007333  0.250135  1
  Y  Y13  1  0.670160  0.167625  0.625339  1
  Y  Y14  1  0.170167  0.331536  0.877157  1
  Y  Y15  1  0.329120  0.831268  0.122978  1
  Y  Y16  1  0.828958  0.668820  0.374811  1
  Y  Y17  1  0.330185  0.832333  0.374924  1
  Y  Y18  1  0.829285  0.668800  0.122953  1
  Y  Y19  1  0.669250  0.168107  0.877818  1
  Sn  Sn20  1  0.666620  0.957593  0.460071  1
  Sn  Sn21  1  0.161686  0.540378  0.040069  1
  Sn  Sn22  1  0.337947  0.040528  0.961332  1
  Sn  Sn23  1  0.826902  0.462672  0.535463  1
  Sn  Sn24  1  0.348399  0.032910  0.537230  1
  Sn  Sn25  1  0.837966  0.459962  0.960750  1
  Sn  Sn26  1  0.661182  0.959231  0.040043  1
  Sn  Sn27  1  0.157611  0.545913  0.454792  1
  Sn  Sn28  1  0.472856  0.376085  0.755769  1
  Sn  Sn29  1  0.964220  0.122087  0.753904  1
  Sn  Sn30  1  0.532306  0.629337  0.249258  1
  Sn  Sn31  1  0.032386  0.870962  0.248653  1
  Sn  Sn32  1  0.710856  0.877030  0.751303  1
  Sn  Sn33  1  0.217597  0.625448  0.755187  1
  Sn  Sn34  1  0.285794  0.119357  0.249312  1
  Sn  Sn35  1  0.784418  0.380757  0.248963  1
