# generated using pymatgen
data_Nb8CoRhSe16
_symmetry_space_group_name_H-M   'P 1'
_cell_length_a   6.96883500
_cell_length_b   6.96883426
_cell_length_c   12.57420900
_cell_angle_alpha   90.00000000
_cell_angle_beta   90.00000000
_cell_angle_gamma   120.00000827
_symmetry_Int_Tables_number   1
_chemical_formula_structural   Nb8CoRhSe16
_chemical_formula_sum   'Nb8 Co1 Rh1 Se16'
_cell_volume   528.84887859
_cell_formula_units_Z   1
loop_
 _symmetry_equiv_pos_site_id
 _symmetry_equiv_pos_as_xyz
  1  'x, y, z'
loop_
 _atom_site_type_symbol
 _atom_site_label
 _atom_site_symmetry_multiplicity
 _atom_site_fract_x
 _atom_site_fract_y
 _atom_site_fract_z
 _atom_site_occupancy
  Nb  Nb0  1  0.000000  0.000000  0.248576  1
  Nb  Nb1  1  0.000000  0.000000  0.751424  1
  Nb  Nb2  1  0.509754  0.019508  0.248996  1
  Nb  Nb3  1  0.980492  0.490246  0.248996  1
  Nb  Nb4  1  0.509754  0.490246  0.248996  1
  Nb  Nb5  1  0.490246  0.980492  0.751004  1
  Nb  Nb6  1  0.019508  0.509754  0.751004  1
  Nb  Nb7  1  0.490246  0.509754  0.751004  1
  Co  Co8  1  0.000000  0.000000  0.000000  1
  Rh  Rh9  1  0.000000  0.000000  0.500000  1
  Se  Se10  1  0.333333  0.666667  0.890858  1
  Se  Se11  1  0.666667  0.333333  0.109142  1
  Se  Se12  1  0.666667  0.333333  0.389511  1
  Se  Se13  1  0.333333  0.666667  0.610489  1
  Se  Se14  1  0.168744  0.831256  0.380508  1
  Se  Se15  1  0.168744  0.337488  0.380508  1
  Se  Se16  1  0.662512  0.831256  0.380508  1
  Se  Se17  1  0.831256  0.168744  0.619492  1
  Se  Se18  1  0.831256  0.662512  0.619492  1
  Se  Se19  1  0.337488  0.168744  0.619492  1
  Se  Se20  1  0.832899  0.167101  0.882617  1
  Se  Se21  1  0.832899  0.665798  0.882617  1
  Se  Se22  1  0.334202  0.167101  0.882617  1
  Se  Se23  1  0.167101  0.832899  0.117383  1
  Se  Se24  1  0.167101  0.334202  0.117383  1
  Se  Se25  1  0.665798  0.832899  0.117383  1
