# generated using pymatgen
data_Zr6Ga3As
_symmetry_space_group_name_H-M   'P 1'
_cell_length_a   7.32199337
_cell_length_b   7.32199337
_cell_length_c   3.72074700
_cell_angle_alpha   90.00000000
_cell_angle_beta   90.00000000
_cell_angle_gamma   89.25109543
_symmetry_Int_Tables_number   1
_chemical_formula_structural   Zr6Ga3As
_chemical_formula_sum   'Zr6 Ga3 As1'
_cell_volume   199.45811137
_cell_formula_units_Z   1
loop_
 _symmetry_equiv_pos_site_id
 _symmetry_equiv_pos_as_xyz
  1  'x, y, z'
loop_
 _atom_site_type_symbol
 _atom_site_label
 _atom_site_symmetry_multiplicity
 _atom_site_fract_x
 _atom_site_fract_y
 _atom_site_fract_z
 _atom_site_occupancy
  Zr  Zr0  1  0.999315  0.002220  0.000000  1
  Zr  Zr1  1  0.502220  0.499315  0.000000  1
  Zr  Zr2  1  0.174775  0.674777  0.499999  1
  Zr  Zr3  1  0.822576  0.322578  0.499999  1
  Zr  Zr4  1  0.675948  0.829362  0.499999  1
  Zr  Zr5  1  0.329364  0.175946  0.499999  1
  Ga  Ga6  1  0.370514  0.870514  0.000000  1
  Ga  Ga7  1  0.124922  0.375558  0.000000  1
  Ga  Ga8  1  0.875558  0.624922  0.000000  1
  As  As9  1  0.624807  0.124807  0.000000  1
