# generated using pymatgen
data_Dy3Y12TmTlCd3Pt4
_symmetry_space_group_name_H-M   'P 1'
_cell_length_a   9.73001327
_cell_length_b   9.71920532
_cell_length_c   9.71926600
_cell_angle_alpha   59.99980028
_cell_angle_beta   60.03672176
_cell_angle_gamma   60.03673197
_symmetry_Int_Tables_number   1
_chemical_formula_structural   Dy3Y12TmTlCd3Pt4
_chemical_formula_sum   'Dy3 Y12 Tm1 Tl1 Cd3 Pt4'
_cell_volume   650.28370110
_cell_formula_units_Z   1
loop_
 _symmetry_equiv_pos_site_id
 _symmetry_equiv_pos_as_xyz
  1  'x, y, z'
loop_
 _atom_site_type_symbol
 _atom_site_label
 _atom_site_symmetry_multiplicity
 _atom_site_fract_x
 _atom_site_fract_y
 _atom_site_fract_z
 _atom_site_occupancy
  Dy  Dy0  1  0.352741  0.352688  0.352684  1
  Dy  Dy1  1  0.352382  0.352495  0.942525  1
  Dy  Dy2  1  0.352381  0.942527  0.352494  1
  Y  Y3  1  0.810458  0.189240  0.189246  1
  Y  Y4  1  0.188791  0.810854  0.810854  1
  Y  Y5  1  0.188794  0.810631  0.188742  1
  Y  Y6  1  0.810466  0.189273  0.810111  1
  Y  Y7  1  0.188795  0.188739  0.810627  1
  Y  Y8  1  0.810467  0.810108  0.189275  1
  Y  Y9  1  0.937367  0.563678  0.563673  1
  Y  Y10  1  0.564834  0.935804  0.935807  1
  Y  Y11  1  0.563965  0.937235  0.564127  1
  Y  Y12  1  0.936167  0.564511  0.936168  1
  Y  Y13  1  0.563962  0.564129  0.937236  1
  Y  Y14  1  0.936170  0.936168  0.564513  1
  Tm  Tm15  1  0.943806  0.352046  0.352046  1
  Tl  Tl16  1  0.584674  0.583256  0.583256  1
  Cd  Cd17  1  0.582980  0.581555  0.251651  1
  Cd  Cd18  1  0.582978  0.251653  0.581552  1
  Cd  Cd19  1  0.251577  0.582080  0.582079  1
  Pt  Pt20  1  0.142547  0.145264  0.145264  1
  Pt  Pt21  1  0.142885  0.145354  0.566623  1
  Pt  Pt22  1  0.142887  0.566617  0.145355  1
  Pt  Pt23  1  0.567930  0.144097  0.144094  1
