# generated using pymatgen
data_Pr3NiIr8
_symmetry_space_group_name_H-M   'P 1'
_cell_length_a   9.25255011
_cell_length_b   9.25254990
_cell_length_c   9.25255017
_cell_angle_alpha   33.87032821
_cell_angle_beta   33.87032823
_cell_angle_gamma   33.87033077
_symmetry_Int_Tables_number   1
_chemical_formula_structural   Pr3NiIr8
_chemical_formula_sum   'Pr3 Ni1 Ir8'
_cell_volume   219.25704569
_cell_formula_units_Z   1
loop_
 _symmetry_equiv_pos_site_id
 _symmetry_equiv_pos_as_xyz
  1  'x, y, z'
loop_
 _atom_site_type_symbol
 _atom_site_label
 _atom_site_symmetry_multiplicity
 _atom_site_fract_x
 _atom_site_fract_y
 _atom_site_fract_z
 _atom_site_occupancy
  Pr  Pr0  1  0.859398  0.859398  0.859398  1
  Pr  Pr1  1  0.139464  0.139464  0.139464  1
  Pr  Pr2  1  0.999781  0.999781  0.999781  1
  Ni  Ni3  1  0.332478  0.332478  0.332478  1
  Ir  Ir4  1  0.419067  0.922340  0.419067  1
  Ir  Ir5  1  0.419067  0.419067  0.922340  1
  Ir  Ir6  1  0.922340  0.419067  0.419067  1
  Ir  Ir7  1  0.576533  0.086396  0.576533  1
  Ir  Ir8  1  0.576533  0.576533  0.086396  1
  Ir  Ir9  1  0.086396  0.576533  0.576533  1
  Ir  Ir10  1  0.667941  0.667941  0.667941  1
  Ir  Ir11  1  0.501000  0.501000  0.501000  1
