# generated using pymatgen
data_AcNdSi2Pb
_symmetry_space_group_name_H-M   'P 1'
_cell_length_a   7.94417993
_cell_length_b   7.94418041
_cell_length_c   4.41792000
_cell_angle_alpha   90.00000000
_cell_angle_beta   90.00000000
_cell_angle_gamma   150.91851975
_symmetry_Int_Tables_number   1
_chemical_formula_structural   AcNdSi2Pb
_chemical_formula_sum   'Ac1 Nd1 Si2 Pb1'
_cell_volume   135.51880967
_cell_formula_units_Z   1
loop_
 _symmetry_equiv_pos_site_id
 _symmetry_equiv_pos_as_xyz
  1  'x, y, z'
loop_
 _atom_site_type_symbol
 _atom_site_label
 _atom_site_symmetry_multiplicity
 _atom_site_fract_x
 _atom_site_fract_y
 _atom_site_fract_z
 _atom_site_occupancy
  Ac  Ac0  1  0.367231  0.632769  0.500000  1
  Nd  Nd1  1  0.639326  0.360674  0.500000  1
  Si  Si2  1  0.197819  0.802181  0.000000  1
  Si  Si3  1  0.785494  0.214506  0.000000  1
  Pb  Pb4  1  0.010131  0.989869  0.000000  1
