# generated using pymatgen
data_La5Y5Sn8
_symmetry_space_group_name_H-M   'P 1'
_cell_length_a   8.22215800
_cell_length_b   8.42298834
_cell_length_c   15.89128800
_cell_angle_alpha   89.94900307
_cell_angle_beta   90.00000000
_cell_angle_gamma   90.00000000
_symmetry_Int_Tables_number   1
_chemical_formula_structural   La5Y5Sn8
_chemical_formula_sum   'La10 Y10 Sn16'
_cell_volume   1100.55295413
_cell_formula_units_Z   2
loop_
 _symmetry_equiv_pos_site_id
 _symmetry_equiv_pos_as_xyz
  1  'x, y, z'
loop_
 _atom_site_type_symbol
 _atom_site_label
 _atom_site_symmetry_multiplicity
 _atom_site_fract_x
 _atom_site_fract_y
 _atom_site_fract_z
 _atom_site_occupancy
  La  La0  1  0.339605  0.833108  0.120326  1
  La  La1  1  0.839605  0.666892  0.379674  1
  La  La2  1  0.998768  0.180317  0.094553  1
  La  La3  1  0.498768  0.319683  0.405447  1
  La  La4  1  0.501432  0.679345  0.901490  1
  La  La5  1  0.001432  0.820655  0.598510  1
  La  La6  1  0.998955  0.822149  0.901982  1
  La  La7  1  0.498955  0.677851  0.598018  1
  La  La8  1  0.499117  0.320181  0.094137  1
  La  La9  1  0.999117  0.179819  0.405863  1
  Y  Y10  1  0.838155  0.666610  0.124019  1
  Y  Y11  1  0.338155  0.833390  0.375981  1
  Y  Y12  1  0.661038  0.164398  0.874615  1
  Y  Y13  1  0.161038  0.335602  0.625385  1
  Y  Y14  1  0.161113  0.333771  0.872936  1
  Y  Y15  1  0.661113  0.166229  0.627064  1
  Y  Y16  1  0.672087  0.999671  0.248646  1
  Y  Y17  1  0.172087  0.500329  0.251354  1
  Y  Y18  1  0.828498  0.497920  0.750263  1
  Y  Y19  1  0.328498  0.002080  0.749737  1
  Sn  Sn20  1  0.035839  0.883390  0.251195  1
  Sn  Sn21  1  0.535839  0.616610  0.248805  1
  Sn  Sn22  1  0.465252  0.378321  0.750570  1
  Sn  Sn23  1  0.965252  0.121679  0.749430  1
  Sn  Sn24  1  0.802412  0.353730  0.249174  1
  Sn  Sn25  1  0.302412  0.146270  0.250826  1
  Sn  Sn26  1  0.696545  0.856657  0.749970  1
  Sn  Sn27  1  0.196545  0.643343  0.750030  1
  Sn  Sn28  1  0.820877  0.460448  0.957697  1
  Sn  Sn29  1  0.320877  0.039552  0.542303  1
  Sn  Sn30  1  0.689470  0.962278  0.040045  1
  Sn  Sn31  1  0.189470  0.537722  0.459955  1
  Sn  Sn32  1  0.171720  0.533461  0.039024  1
  Sn  Sn33  1  0.671720  0.966539  0.460976  1
  Sn  Sn34  1  0.319111  0.042371  0.952770  1
  Sn  Sn35  1  0.819111  0.457629  0.547230  1
