# generated using pymatgen
data_Ho3Er2(SiHg)2
_symmetry_space_group_name_H-M   'P 1'
_cell_length_a   8.72789374
_cell_length_b   8.72176382
_cell_length_c   7.52111590
_cell_angle_alpha   89.99553625
_cell_angle_beta   90.04603785
_cell_angle_gamma   129.11112778
_symmetry_Int_Tables_number   1
_chemical_formula_structural   Ho3Er2(SiHg)2
_chemical_formula_sum   'Ho6 Er4 Si4 Hg4'
_cell_volume   444.23725658
_cell_formula_units_Z   2
loop_
 _symmetry_equiv_pos_site_id
 _symmetry_equiv_pos_as_xyz
  1  'x, y, z'
loop_
 _atom_site_type_symbol
 _atom_site_label
 _atom_site_symmetry_multiplicity
 _atom_site_fract_x
 _atom_site_fract_y
 _atom_site_fract_z
 _atom_site_occupancy
  Ho  Ho0  1  0.052535  0.307538  0.325429  1
  Ho  Ho1  1  0.947465  0.692462  0.674571  1
  Ho  Ho2  1  0.447267  0.192353  0.825166  1
  Ho  Ho3  1  0.807581  0.552622  0.174798  1
  Ho  Ho4  1  0.552733  0.807647  0.174834  1
  Ho  Ho5  1  0.192419  0.447378  0.825202  1
  Er  Er6  1  0.693177  0.947544  0.674340  1
  Er  Er7  1  0.306823  0.052456  0.325660  1
  Er  Er8  1  0.000000  0.000000  0.000000  1
  Er  Er9  1  0.500000  0.500000  0.500000  1
  Si  Si10  1  0.378692  0.378396  0.124241  1
  Si  Si11  1  0.621308  0.621604  0.875759  1
  Si  Si12  1  0.120956  0.120980  0.623728  1
  Si  Si13  1  0.879044  0.879020  0.376272  1
  Hg  Hg14  1  0.783654  0.216141  0.999661  1
  Hg  Hg15  1  0.216347  0.783859  0.000339  1
  Hg  Hg16  1  0.715788  0.283004  0.499992  1
  Hg  Hg17  1  0.284212  0.716996  0.500008  1
