# generated using pymatgen
data_Ba12AgSn12Au11
_symmetry_space_group_name_H-M   'P 1'
_cell_length_a   5.07068600
_cell_length_b   8.54404244
_cell_length_c   25.12979400
_cell_angle_alpha   89.89107546
_cell_angle_beta   90.00000000
_cell_angle_gamma   90.00000000
_symmetry_Int_Tables_number   1
_chemical_formula_structural   Ba12AgSn12Au11
_chemical_formula_sum   'Ba12 Ag1 Sn12 Au11'
_cell_volume   1088.72515770
_cell_formula_units_Z   1
loop_
 _symmetry_equiv_pos_site_id
 _symmetry_equiv_pos_as_xyz
  1  'x, y, z'
loop_
 _atom_site_type_symbol
 _atom_site_label
 _atom_site_symmetry_multiplicity
 _atom_site_fract_x
 _atom_site_fract_y
 _atom_site_fract_z
 _atom_site_occupancy
  Ba  Ba0  1  0.750000  0.210763  0.497013  1
  Ba  Ba1  1  0.250000  0.794727  0.165738  1
  Ba  Ba2  1  0.250000  0.789197  0.502236  1
  Ba  Ba3  1  0.250000  0.794664  0.833173  1
  Ba  Ba4  1  0.250000  0.707445  0.332834  1
  Ba  Ba5  1  0.750000  0.204801  0.834365  1
  Ba  Ba6  1  0.750000  0.293188  0.997415  1
  Ba  Ba7  1  0.750000  0.298082  0.668289  1
  Ba  Ba8  1  0.750000  0.294269  0.333380  1
  Ba  Ba9  1  0.250000  0.701995  0.666220  1
  Ba  Ba10  1  0.250000  0.706676  0.002730  1
  Ba  Ba11  1  0.750000  0.207186  0.166557  1
  Ag  Ag12  1  0.250000  0.084609  0.598683  1
  Sn  Sn13  1  0.250000  0.413027  0.563620  1
  Sn  Sn14  1  0.250000  0.082687  0.395275  1
  Sn  Sn15  1  0.250000  0.085875  0.061935  1
  Sn  Sn16  1  0.250000  0.418182  0.895751  1
  Sn  Sn17  1  0.750000  0.582442  0.104436  1
  Sn  Sn18  1  0.250000  0.418443  0.772406  1
  Sn  Sn19  1  0.750000  0.581907  0.228237  1
  Sn  Sn20  1  0.750000  0.586528  0.436413  1
  Sn  Sn21  1  0.750000  0.913614  0.938026  1
  Sn  Sn22  1  0.250000  0.081590  0.271225  1
  Sn  Sn23  1  0.750000  0.914159  0.603932  1
  Sn  Sn24  1  0.750000  0.919676  0.727318  1
  Au  Au25  1  0.250000  0.085837  0.738716  1
  Au  Au26  1  0.750000  0.587372  0.906314  1
  Au  Au27  1  0.750000  0.913829  0.405651  1
  Au  Au28  1  0.750000  0.577225  0.566443  1
  Au  Au29  1  0.750000  0.587341  0.761403  1
  Au  Au30  1  0.250000  0.418914  0.431628  1
  Au  Au31  1  0.250000  0.414993  0.239402  1
  Au  Au32  1  0.750000  0.920430  0.065591  1
  Au  Au33  1  0.250000  0.413156  0.093816  1
  Au  Au34  1  0.250000  0.080270  0.934242  1
  Au  Au35  1  0.750000  0.914901  0.259587  1
