# generated using pymatgen
data_Hf18Fe2Mo5OsW2
_symmetry_space_group_name_H-M   'P 1'
_cell_length_a   8.48199400
_cell_length_b   8.64659416
_cell_length_c   8.63917429
_cell_angle_alpha   120.02747951
_cell_angle_beta   90.00000000
_cell_angle_gamma   90.00000000
_symmetry_Int_Tables_number   1
_chemical_formula_structural   Hf18Fe2Mo5OsW2
_chemical_formula_sum   'Hf18 Fe2 Mo5 Os1 W2'
_cell_volume   548.56182379
_cell_formula_units_Z   1
loop_
 _symmetry_equiv_pos_site_id
 _symmetry_equiv_pos_as_xyz
  1  'x, y, z'
loop_
 _atom_site_type_symbol
 _atom_site_label
 _atom_site_symmetry_multiplicity
 _atom_site_fract_x
 _atom_site_fract_y
 _atom_site_fract_z
 _atom_site_occupancy
  Hf  Hf0  1  0.557917  0.797828  0.595655  1
  Hf  Hf1  1  0.560278  0.798357  0.201448  1
  Hf  Hf2  1  0.560271  0.403078  0.201443  1
  Hf  Hf3  1  0.442569  0.201817  0.403633  1
  Hf  Hf4  1  0.441585  0.201782  0.797197  1
  Hf  Hf5  1  0.441597  0.595425  0.797200  1
  Hf  Hf6  1  0.057431  0.201817  0.403633  1
  Hf  Hf7  1  0.058415  0.201782  0.797197  1
  Hf  Hf8  1  0.058403  0.595425  0.797200  1
  Hf  Hf9  1  0.942083  0.797828  0.595655  1
  Hf  Hf10  1  0.939722  0.798357  0.201448  1
  Hf  Hf11  1  0.939729  0.403078  0.201443  1
  Hf  Hf12  1  0.750000  0.457822  0.915658  1
  Hf  Hf13  1  0.750000  0.457132  0.540229  1
  Hf  Hf14  1  0.750000  0.083100  0.540239  1
  Hf  Hf15  1  0.250000  0.541288  0.082565  1
  Hf  Hf16  1  0.250000  0.540674  0.457866  1
  Hf  Hf17  1  0.250000  0.917192  0.457859  1
  Fe  Fe18  1  0.750000  0.667412  0.334865  1
  Fe  Fe19  1  0.250000  0.331934  0.663818  1
  Mo  Mo20  1  0.750000  0.114194  0.891175  1
  Mo  Mo21  1  0.750000  0.776977  0.891176  1
  Mo  Mo22  1  0.250000  0.886692  0.773372  1
  Mo  Mo23  1  0.250000  0.888874  0.113465  1
  Mo  Mo24  1  0.250000  0.224599  0.113466  1
  Os  Os25  1  0.750000  0.114505  0.229025  1
  W  W26  1  0.499951  0.000516  0.001034  1
  W  W27  1  0.000049  0.000516  0.001034  1
