# generated using pymatgen
data_U2Fe2SiNi
_symmetry_space_group_name_H-M   'P 1'
_cell_length_a   5.03365515
_cell_length_b   5.28526851
_cell_length_c   7.56788800
_cell_angle_alpha   90.00000000
_cell_angle_beta   90.00000000
_cell_angle_gamma   121.66779126
_symmetry_Int_Tables_number   1
_chemical_formula_structural   U2Fe2SiNi
_chemical_formula_sum   'U4 Fe4 Si2 Ni2'
_cell_volume   171.35984131
_cell_formula_units_Z   2
loop_
 _symmetry_equiv_pos_site_id
 _symmetry_equiv_pos_as_xyz
  1  'x, y, z'
loop_
 _atom_site_type_symbol
 _atom_site_label
 _atom_site_symmetry_multiplicity
 _atom_site_fract_x
 _atom_site_fract_y
 _atom_site_fract_z
 _atom_site_occupancy
  U  U0  1  0.305145  0.652573  0.432754  1
  U  U1  1  0.694855  0.347427  0.932754  1
  U  U2  1  0.694855  0.347427  0.567246  1
  U  U3  1  0.305145  0.652573  0.067246  1
  Fe  Fe4  1  0.174651  0.333291  0.750000  1
  Fe  Fe5  1  0.825349  0.158639  0.250000  1
  Fe  Fe6  1  0.825349  0.666709  0.250000  1
  Fe  Fe7  1  0.174651  0.841361  0.750000  1
  Si  Si8  1  0.000000  0.000000  0.500000  1
  Si  Si9  1  0.000000  0.000000  0.000000  1
  Ni  Ni10  1  0.667523  0.833762  0.750000  1
  Ni  Ni11  1  0.332477  0.166238  0.250000  1
