# generated using pymatgen
data_LaNdCo17Si8Os
_symmetry_space_group_name_H-M   'P 1'
_cell_length_a   7.95171901
_cell_length_b   8.00022959
_cell_length_c   7.97313278
_cell_angle_alpha   121.87193604
_cell_angle_beta   121.68257359
_cell_angle_gamma   86.96820580
_symmetry_Int_Tables_number   1
_chemical_formula_structural   LaNdCo17Si8Os
_chemical_formula_sum   'La1 Nd1 Co17 Si8 Os1'
_cell_volume   348.42482423
_cell_formula_units_Z   1
loop_
 _symmetry_equiv_pos_site_id
 _symmetry_equiv_pos_as_xyz
  1  'x, y, z'
loop_
 _atom_site_type_symbol
 _atom_site_label
 _atom_site_symmetry_multiplicity
 _atom_site_fract_x
 _atom_site_fract_y
 _atom_site_fract_z
 _atom_site_occupancy
  La  La0  1  0.749992  0.750329  0.000654  1
  Nd  Nd1  1  0.249229  0.249659  0.999317  1
  Co  Co2  1  0.447529  0.949729  0.757880  1
  Co  Co3  1  0.189782  0.691605  0.242114  1
  Co  Co4  1  0.546872  0.043557  0.236170  1
  Co  Co5  1  0.947123  0.192062  0.500242  1
  Co  Co6  1  0.197882  0.928469  0.128173  1
  Co  Co7  1  0.800599  0.069426  0.869902  1
  Co  Co8  1  0.430130  0.698977  0.130137  1
  Co  Co9  1  0.569408  0.299516  0.871656  1
  Co  Co10  1  0.701027  0.573053  0.264539  1
  Co  Co11  1  0.299883  0.429862  0.732073  1
  Co  Co12  1  0.936948  0.808699  0.735289  1
  Co  Co13  1  0.311992  0.549283  0.499630  1
  Co  Co14  1  0.811372  0.307178  0.763941  1
  Co  Co15  1  0.002845  0.502913  0.500094  1
  Co  Co16  1  0.499870  0.000919  0.500111  1
  Co  Co17  1  0.068144  0.198222  0.267742  1
  Co  Co18  1  0.051663  0.811650  0.500411  1
  Si  Si19  1  0.289599  0.789299  0.834262  1
  Si  Si20  1  0.054012  0.545447  0.842070  1
  Si  Si21  1  0.541294  0.716116  0.498836  1
  Si  Si22  1  0.791094  0.954678  0.501981  1
  Si  Si23  1  0.443964  0.283863  0.498643  1
  Si  Si24  1  0.956846  0.453179  0.165499  1
  Si  Si25  1  0.710487  0.204746  0.157403  1
  Si  Si26  1  0.210588  0.048482  0.501908  1
  Os  Os27  1  0.689826  0.449082  0.499323  1
