# generated using pymatgen
data_Y3Er2Bi2Os
_symmetry_space_group_name_H-M   'P 1'
_cell_length_a   7.96653200
_cell_length_b   9.01624100
_cell_length_c   12.57453600
_cell_angle_alpha   90.00000000
_cell_angle_beta   90.00000000
_cell_angle_gamma   90.00000000
_symmetry_Int_Tables_number   1
_chemical_formula_structural   Y3Er2Bi2Os
_chemical_formula_sum   'Y12 Er8 Bi8 Os4'
_cell_volume   903.20594024
_cell_formula_units_Z   4
loop_
 _symmetry_equiv_pos_site_id
 _symmetry_equiv_pos_as_xyz
  1  'x, y, z'
loop_
 _atom_site_type_symbol
 _atom_site_label
 _atom_site_symmetry_multiplicity
 _atom_site_fract_x
 _atom_site_fract_y
 _atom_site_fract_z
 _atom_site_occupancy
  Y  Y0  1  0.659921  0.750000  0.708399  1
  Y  Y1  1  0.340079  0.250000  0.291601  1
  Y  Y2  1  0.159921  0.250000  0.791601  1
  Y  Y3  1  0.840079  0.750000  0.208399  1
  Y  Y4  1  0.128339  0.750000  0.809500  1
  Y  Y5  1  0.871661  0.250000  0.190500  1
  Y  Y6  1  0.628339  0.250000  0.690500  1
  Y  Y7  1  0.371661  0.750000  0.309500  1
  Y  Y8  1  0.556221  0.750000  0.995374  1
  Y  Y9  1  0.443779  0.250000  0.004626  1
  Y  Y10  1  0.056221  0.250000  0.504626  1
  Y  Y11  1  0.943779  0.750000  0.495374  1
  Er  Er12  1  0.828519  0.459485  0.934891  1
  Er  Er13  1  0.171481  0.540515  0.065109  1
  Er  Er14  1  0.328519  0.540515  0.565109  1
  Er  Er15  1  0.171481  0.959485  0.065109  1
  Er  Er16  1  0.671481  0.459485  0.434891  1
  Er  Er17  1  0.828519  0.040515  0.934891  1
  Er  Er18  1  0.671481  0.040515  0.434891  1
  Er  Er19  1  0.328519  0.959485  0.565109  1
  Bi  Bi20  1  0.935760  0.005537  0.672529  1
  Bi  Bi21  1  0.064240  0.994463  0.327471  1
  Bi  Bi22  1  0.435760  0.994463  0.827471  1
  Bi  Bi23  1  0.064240  0.505537  0.327471  1
  Bi  Bi24  1  0.564240  0.005537  0.172529  1
  Bi  Bi25  1  0.935760  0.494463  0.672529  1
  Bi  Bi26  1  0.564240  0.494463  0.172529  1
  Bi  Bi27  1  0.435760  0.505537  0.827471  1
  Os  Os28  1  0.928062  0.750000  0.991052  1
  Os  Os29  1  0.071938  0.250000  0.008948  1
  Os  Os30  1  0.428062  0.250000  0.508948  1
  Os  Os31  1  0.571938  0.750000  0.491052  1
