# generated using pymatgen
data_ThCo3P3Rh2
_symmetry_space_group_name_H-M   'P 1'
_cell_length_a   3.81559500
_cell_length_b   10.62971500
_cell_length_c   12.18462700
_cell_angle_alpha   90.00000000
_cell_angle_beta   90.00000000
_cell_angle_gamma   90.00000000
_symmetry_Int_Tables_number   1
_chemical_formula_structural   ThCo3P3Rh2
_chemical_formula_sum   'Th4 Co12 P12 Rh8'
_cell_volume   494.19247764
_cell_formula_units_Z   4
loop_
 _symmetry_equiv_pos_site_id
 _symmetry_equiv_pos_as_xyz
  1  'x, y, z'
loop_
 _atom_site_type_symbol
 _atom_site_label
 _atom_site_symmetry_multiplicity
 _atom_site_fract_x
 _atom_site_fract_y
 _atom_site_fract_z
 _atom_site_occupancy
  Th  Th0  1  0.250000  0.584521  0.708540  1
  Th  Th1  1  0.250000  0.915479  0.208540  1
  Th  Th2  1  0.750000  0.415479  0.291460  1
  Th  Th3  1  0.750000  0.084521  0.791460  1
  Co  Co4  1  0.250000  0.222559  0.178169  1
  Co  Co5  1  0.250000  0.277441  0.678169  1
  Co  Co6  1  0.750000  0.777441  0.821831  1
  Co  Co7  1  0.750000  0.722559  0.321831  1
  Co  Co8  1  0.250000  0.883771  0.696686  1
  Co  Co9  1  0.250000  0.616229  0.196686  1
  Co  Co10  1  0.750000  0.116229  0.303314  1
  Co  Co11  1  0.750000  0.383771  0.803314  1
  Co  Co12  1  0.250000  0.466008  0.931746  1
  Co  Co13  1  0.250000  0.033992  0.431746  1
  Co  Co14  1  0.750000  0.533992  0.068254  1
  Co  Co15  1  0.750000  0.966008  0.568254  1
  P  P16  1  0.250000  0.421140  0.107722  1
  P  P17  1  0.250000  0.078860  0.607722  1
  P  P18  1  0.750000  0.578860  0.892278  1
  P  P19  1  0.750000  0.921140  0.392278  1
  P  P20  1  0.250000  0.281276  0.862888  1
  P  P21  1  0.250000  0.218724  0.362888  1
  P  P22  1  0.750000  0.718724  0.137112  1
  P  P23  1  0.750000  0.781276  0.637112  1
  P  P24  1  0.250000  0.609908  0.380265  1
  P  P25  1  0.250000  0.890092  0.880265  1
  P  P26  1  0.750000  0.390092  0.619735  1
  P  P27  1  0.750000  0.109908  0.119735  1
  Rh  Rh28  1  0.250000  0.710957  0.987552  1
  Rh  Rh29  1  0.250000  0.789043  0.487552  1
  Rh  Rh30  1  0.750000  0.289043  0.012448  1
  Rh  Rh31  1  0.750000  0.210957  0.512448  1
  Rh  Rh32  1  0.250000  0.406668  0.480461  1
  Rh  Rh33  1  0.250000  0.093332  0.980461  1
  Rh  Rh34  1  0.750000  0.593332  0.519539  1
  Rh  Rh35  1  0.750000  0.906668  0.019539  1
