# generated using pymatgen
data_Ca4YSn3H
_symmetry_space_group_name_H-M   'P 1'
_cell_length_a   9.39396445
_cell_length_b   9.39396395
_cell_length_c   9.40880165
_cell_angle_alpha   128.89086547
_cell_angle_beta   128.89086429
_cell_angle_gamma   75.06867866
_symmetry_Int_Tables_number   1
_chemical_formula_structural   Ca4YSn3H
_chemical_formula_sum   'Ca8 Y2 Sn6 H2'
_cell_volume   490.06914581
_cell_formula_units_Z   2
loop_
 _symmetry_equiv_pos_site_id
 _symmetry_equiv_pos_as_xyz
  1  'x, y, z'
loop_
 _atom_site_type_symbol
 _atom_site_label
 _atom_site_symmetry_multiplicity
 _atom_site_fract_x
 _atom_site_fract_y
 _atom_site_fract_z
 _atom_site_occupancy
  Ca  Ca0  1  0.500614  0.500614  0.000000  1
  Ca  Ca1  1  0.000614  0.000614  0.000000  1
  Ca  Ca2  1  0.008326  0.186145  0.500000  1
  Ca  Ca3  1  0.686145  0.508326  0.500000  1
  Ca  Ca4  1  0.489068  0.989068  0.178498  1
  Ca  Ca5  1  0.810570  0.310570  0.821502  1
  Ca  Ca6  1  0.987787  0.812286  0.500000  1
  Ca  Ca7  1  0.312286  0.487787  0.500000  1
  Y  Y8  1  0.516979  0.016979  0.828804  1
  Y  Y9  1  0.188175  0.688175  0.171196  1
  Sn  Sn10  1  0.253816  0.253816  0.000000  1
  Sn  Sn11  1  0.753816  0.753816  0.000000  1
  Sn  Sn12  1  0.868897  0.368897  0.241078  1
  Sn  Sn13  1  0.127820  0.627820  0.758922  1
  Sn  Sn14  1  0.366013  0.122095  0.500000  1
  Sn  Sn15  1  0.622095  0.866013  0.500000  1
  H  H16  1  0.259050  0.759050  0.500000  1
  H  H17  1  0.747931  0.247931  0.500000  1
