# generated using pymatgen
data_AcLa2(ZnPd)4
_symmetry_space_group_name_H-M   'P 1'
_cell_length_a   8.52507480
_cell_length_b   8.52507535
_cell_length_c   8.52507421
_cell_angle_alpha   151.26286245
_cell_angle_beta   126.94295104
_cell_angle_gamma   61.45465172
_symmetry_Int_Tables_number   1
_chemical_formula_structural   AcLa2(ZnPd)4
_chemical_formula_sum   'Ac1 La2 Zn4 Pd4'
_cell_volume   236.12684501
_cell_formula_units_Z   1
loop_
 _symmetry_equiv_pos_site_id
 _symmetry_equiv_pos_as_xyz
  1  'x, y, z'
loop_
 _atom_site_type_symbol
 _atom_site_label
 _atom_site_symmetry_multiplicity
 _atom_site_fract_x
 _atom_site_fract_y
 _atom_site_fract_z
 _atom_site_occupancy
  Ac  Ac0  1  0.500000  0.000000  0.500000  1
  La  La1  1  0.868564  0.868564  0.000000  1
  La  La2  1  0.131436  0.131436  0.000000  1
  Zn  Zn3  1  0.480496  0.673585  0.806911  1
  Zn  Zn4  1  0.866675  0.673585  0.193089  1
  Zn  Zn5  1  0.133325  0.326415  0.806911  1
  Zn  Zn6  1  0.519504  0.326415  0.193089  1
  Pd  Pd7  1  0.282374  0.782374  0.500000  1
  Pd  Pd8  1  0.717626  0.217626  0.500000  1
  Pd  Pd9  1  0.807103  0.500000  0.307103  1
  Pd  Pd10  1  0.192897  0.500000  0.692897  1
