# generated using pymatgen
data_Ba6In2(TeO6)3
_symmetry_space_group_name_H-M   'P 1'
_cell_length_a   10.31002869
_cell_length_b   10.31002866
_cell_length_c   10.31002862
_cell_angle_alpha   146.48834873
_cell_angle_beta   132.03363221
_cell_angle_gamma   59.77876406
_symmetry_Int_Tables_number   1
_chemical_formula_structural   Ba6In2(TeO6)3
_chemical_formula_sum   'Ba6 In2 Te3 O18'
_cell_volume   445.36408940
_cell_formula_units_Z   1
loop_
 _symmetry_equiv_pos_site_id
 _symmetry_equiv_pos_as_xyz
  1  'x, y, z'
loop_
 _atom_site_type_symbol
 _atom_site_label
 _atom_site_symmetry_multiplicity
 _atom_site_fract_x
 _atom_site_fract_y
 _atom_site_fract_z
 _atom_site_occupancy
  Ba  Ba0  1  0.771883  0.500000  0.271883  1
  Ba  Ba1  1  0.397583  0.158508  0.239075  1
  Ba  Ba2  1  0.080566  0.841492  0.239075  1
  Ba  Ba3  1  0.228117  0.500000  0.728117  1
  Ba  Ba4  1  0.919434  0.158508  0.760925  1
  Ba  Ba5  1  0.602417  0.841492  0.760925  1
  In  In6  1  0.665296  0.665296  0.000000  1
  In  In7  1  0.334704  0.334704  0.000000  1
  Te  Te8  1  0.500000  0.000000  0.500000  1
  Te  Te9  1  0.171655  0.671655  0.500000  1
  Te  Te10  1  0.828345  0.328345  0.500000  1
  O  O11  1  0.725484  0.000000  0.725484  1
  O  O12  1  0.410918  0.671703  0.739214  1
  O  O13  1  0.067512  0.328297  0.739214  1
  O  O14  1  0.579223  0.839555  0.260331  1
  O  O15  1  0.249945  0.516976  0.267031  1
  O  O16  1  0.903637  0.175365  0.271728  1
  O  O17  1  0.420777  0.681108  0.260331  1
  O  O18  1  0.096363  0.368090  0.271728  1
  O  O19  1  0.750055  0.017086  0.267031  1
  O  O20  1  0.274516  0.000000  0.274516  1
  O  O21  1  0.932488  0.671703  0.260786  1
  O  O22  1  0.589082  0.328297  0.260786  1
  O  O23  1  0.420777  0.160445  0.739669  1
  O  O24  1  0.096363  0.824635  0.728272  1
  O  O25  1  0.750055  0.483024  0.732969  1
  O  O26  1  0.579223  0.318892  0.739669  1
  O  O27  1  0.249945  0.982914  0.732969  1
  O  O28  1  0.903637  0.631911  0.728272  1
