# generated using pymatgen
data_MgPd3Au8
_symmetry_space_group_name_H-M   'P 1'
_cell_length_a   17.12226500
_cell_length_b   4.19879300
_cell_length_c   5.78572200
_cell_angle_alpha   90.00000000
_cell_angle_beta   90.00000000
_cell_angle_gamma   90.00000000
_symmetry_Int_Tables_number   1
_chemical_formula_structural   MgPd3Au8
_chemical_formula_sum   'Mg2 Pd6 Au16'
_cell_volume   415.95202321
_cell_formula_units_Z   2
loop_
 _symmetry_equiv_pos_site_id
 _symmetry_equiv_pos_as_xyz
  1  'x, y, z'
loop_
 _atom_site_type_symbol
 _atom_site_label
 _atom_site_symmetry_multiplicity
 _atom_site_fract_x
 _atom_site_fract_y
 _atom_site_fract_z
 _atom_site_occupancy
  Mg  Mg0  1  0.000000  0.000000  0.000000  1
  Mg  Mg1  1  0.500000  0.000000  0.000000  1
  Pd  Pd2  1  0.250000  0.500000  0.209451  1
  Pd  Pd3  1  0.582138  0.500000  0.269643  1
  Pd  Pd4  1  0.917862  0.500000  0.269643  1
  Pd  Pd5  1  0.082138  0.500000  0.730358  1
  Pd  Pd6  1  0.417862  0.500000  0.730358  1
  Pd  Pd7  1  0.750000  0.500000  0.790549  1
  Au  Au8  1  0.664530  0.000000  0.034190  1
  Au  Au9  1  0.835470  0.000000  0.034190  1
  Au  Au10  1  0.082007  0.500000  0.225989  1
  Au  Au11  1  0.417993  0.500000  0.225989  1
  Au  Au12  1  0.750000  0.500000  0.286712  1
  Au  Au13  1  0.166779  0.000000  0.465445  1
  Au  Au14  1  0.333221  0.000000  0.465445  1
  Au  Au15  1  0.000000  0.000000  0.500000  1
  Au  Au16  1  0.500000  0.000000  0.500000  1
  Au  Au17  1  0.666778  0.000000  0.534555  1
  Au  Au18  1  0.833221  0.000000  0.534555  1
  Au  Au19  1  0.250000  0.500000  0.713288  1
  Au  Au20  1  0.582007  0.500000  0.774011  1
  Au  Au21  1  0.917993  0.500000  0.774011  1
  Au  Au22  1  0.164530  0.000000  0.965811  1
  Au  Au23  1  0.335470  0.000000  0.965811  1
