# generated using pymatgen
data_YbDy2AlZn10
_symmetry_space_group_name_H-M   'P 1'
_cell_length_a   8.15534659
_cell_length_b   8.15534471
_cell_length_c   8.15534626
_cell_angle_alpha   148.17762957
_cell_angle_beta   114.78870552
_cell_angle_gamma   74.39761376
_symmetry_Int_Tables_number   1
_chemical_formula_structural   YbDy2AlZn10
_chemical_formula_sum   'Yb1 Dy2 Al1 Zn10'
_cell_volume   255.29981618
_cell_formula_units_Z   1
loop_
 _symmetry_equiv_pos_site_id
 _symmetry_equiv_pos_as_xyz
  1  'x, y, z'
loop_
 _atom_site_type_symbol
 _atom_site_label
 _atom_site_symmetry_multiplicity
 _atom_site_fract_x
 _atom_site_fract_y
 _atom_site_fract_z
 _atom_site_occupancy
  Yb  Yb0  1  0.000000  0.000000  0.000000  1
  Dy  Dy1  1  0.297128  0.297128  0.000000  1
  Dy  Dy2  1  0.702872  0.702872  0.000000  1
  Al  Al3  1  0.500000  0.000000  0.500000  1
  Zn  Zn4  1  0.680793  0.500000  0.180793  1
  Zn  Zn5  1  0.319207  0.500000  0.819207  1
  Zn  Zn6  1  0.696258  0.338471  0.357787  1
  Zn  Zn7  1  0.303742  0.661529  0.642213  1
  Zn  Zn8  1  0.980685  0.338471  0.642213  1
  Zn  Zn9  1  0.019315  0.661529  0.357787  1
  Zn  Zn10  1  0.419175  0.138381  0.280794  1
  Zn  Zn11  1  0.580825  0.861619  0.719206  1
  Zn  Zn12  1  0.857587  0.138381  0.719206  1
  Zn  Zn13  1  0.142413  0.861619  0.280794  1
