# generated using pymatgen
data_Yb2(B2Ru)3
_symmetry_space_group_name_H-M   'P 1'
_cell_length_a   6.15103116
_cell_length_b   6.15103076
_cell_length_c   7.44684646
_cell_angle_alpha   90.17753630
_cell_angle_beta   90.17754206
_cell_angle_gamma   114.61454927
_symmetry_Int_Tables_number   1
_chemical_formula_structural   Yb2(B2Ru)3
_chemical_formula_sum   'Yb4 B12 Ru6'
_cell_volume   256.14580398
_cell_formula_units_Z   2
loop_
 _symmetry_equiv_pos_site_id
 _symmetry_equiv_pos_as_xyz
  1  'x, y, z'
loop_
 _atom_site_type_symbol
 _atom_site_label
 _atom_site_symmetry_multiplicity
 _atom_site_fract_x
 _atom_site_fract_y
 _atom_site_fract_z
 _atom_site_occupancy
  Yb  Yb0  1  0.090088  0.442917  0.327034  1
  Yb  Yb1  1  0.557083  0.909912  0.172966  1
  Yb  Yb2  1  0.909912  0.557083  0.672966  1
  Yb  Yb3  1  0.442917  0.090088  0.827034  1
  B  B4  1  0.238412  0.148574  0.131123  1
  B  B5  1  0.851426  0.761588  0.368877  1
  B  B6  1  0.761588  0.851426  0.868877  1
  B  B7  1  0.148574  0.238412  0.631123  1
  B  B8  1  0.586179  0.161444  0.487007  1
  B  B9  1  0.838556  0.413821  0.012993  1
  B  B10  1  0.413821  0.838556  0.512993  1
  B  B11  1  0.161444  0.586179  0.987007  1
  B  B12  1  0.450948  0.349991  0.537619  1
  B  B13  1  0.650009  0.549052  0.962381  1
  B  B14  1  0.549052  0.650009  0.462381  1
  B  B15  1  0.349991  0.450948  0.037619  1
  Ru  Ru16  1  0.582636  0.417364  0.250000  1
  Ru  Ru17  1  0.417364  0.582636  0.750000  1
  Ru  Ru18  1  0.984492  0.798800  0.088058  1
  Ru  Ru19  1  0.201200  0.015508  0.411942  1
  Ru  Ru20  1  0.015508  0.201200  0.911942  1
  Ru  Ru21  1  0.798800  0.984492  0.588058  1
