# generated using pymatgen
data_Ba2Tb(Si3Pd10)2
_symmetry_space_group_name_H-M   'P 1'
_cell_length_a   8.82321583
_cell_length_b   8.82321541
_cell_length_c   8.82321600
_cell_angle_alpha   59.99999780
_cell_angle_beta   59.99999935
_cell_angle_gamma   59.99999801
_symmetry_Int_Tables_number   1
_chemical_formula_structural   Ba2Tb(Si3Pd10)2
_chemical_formula_sum   'Ba2 Tb1 Si6 Pd20'
_cell_volume   485.69729263
_cell_formula_units_Z   1
loop_
 _symmetry_equiv_pos_site_id
 _symmetry_equiv_pos_as_xyz
  1  'x, y, z'
loop_
 _atom_site_type_symbol
 _atom_site_label
 _atom_site_symmetry_multiplicity
 _atom_site_fract_x
 _atom_site_fract_y
 _atom_site_fract_z
 _atom_site_occupancy
  Ba  Ba0  1  0.750000  0.750000  0.750000  1
  Ba  Ba1  1  0.250000  0.250000  0.250000  1
  Tb  Tb2  1  0.000000  0.000000  0.000000  1
  Si  Si3  1  0.732619  0.732619  0.267381  1
  Si  Si4  1  0.267381  0.267381  0.732619  1
  Si  Si5  1  0.732619  0.267381  0.732619  1
  Si  Si6  1  0.267381  0.732619  0.267381  1
  Si  Si7  1  0.267381  0.732619  0.732619  1
  Si  Si8  1  0.732619  0.267381  0.267381  1
  Pd  Pd9  1  0.612303  0.612303  0.612303  1
  Pd  Pd10  1  0.387697  0.387697  0.387697  1
  Pd  Pd11  1  0.163090  0.612303  0.612303  1
  Pd  Pd12  1  0.612303  0.163090  0.612303  1
  Pd  Pd13  1  0.836910  0.387697  0.387697  1
  Pd  Pd14  1  0.387697  0.836910  0.387697  1
  Pd  Pd15  1  0.612303  0.612303  0.163090  1
  Pd  Pd16  1  0.387697  0.387697  0.836910  1
  Pd  Pd17  1  0.000000  0.000000  0.657466  1
  Pd  Pd18  1  0.000000  0.000000  0.342534  1
  Pd  Pd19  1  0.342534  0.657466  0.000000  1
  Pd  Pd20  1  0.657466  0.342534  0.000000  1
  Pd  Pd21  1  0.000000  0.657466  0.000000  1
  Pd  Pd22  1  0.657466  0.000000  0.342534  1
  Pd  Pd23  1  0.000000  0.342534  0.000000  1
  Pd  Pd24  1  0.342534  0.000000  0.657466  1
  Pd  Pd25  1  0.657466  0.000000  0.000000  1
  Pd  Pd26  1  0.342534  0.000000  0.000000  1
  Pd  Pd27  1  0.000000  0.657466  0.342534  1
  Pd  Pd28  1  0.000000  0.342534  0.657466  1
