# generated using pymatgen
data_Th2(AlAu2)3
_symmetry_space_group_name_H-M   'P 1'
_cell_length_a   8.65237208
_cell_length_b   8.65237257
_cell_length_c   8.65237268
_cell_angle_alpha   58.74848721
_cell_angle_beta   58.74849519
_cell_angle_gamma   58.74848114
_symmetry_Int_Tables_number   1
_chemical_formula_structural   Th2(AlAu2)3
_chemical_formula_sum   'Th4 Al6 Au12'
_cell_volume   444.93193869
_cell_formula_units_Z   2
loop_
 _symmetry_equiv_pos_site_id
 _symmetry_equiv_pos_as_xyz
  1  'x, y, z'
loop_
 _atom_site_type_symbol
 _atom_site_label
 _atom_site_symmetry_multiplicity
 _atom_site_fract_x
 _atom_site_fract_y
 _atom_site_fract_z
 _atom_site_occupancy
  Th  Th0  1  0.904309  0.904309  0.904309  1
  Th  Th1  1  0.404309  0.404309  0.404309  1
  Th  Th2  1  0.095691  0.095691  0.095691  1
  Th  Th3  1  0.595691  0.595691  0.595691  1
  Al  Al4  1  0.564936  0.750000  0.935064  1
  Al  Al5  1  0.935064  0.564936  0.750000  1
  Al  Al6  1  0.750000  0.935064  0.564936  1
  Al  Al7  1  0.435064  0.250000  0.064936  1
  Al  Al8  1  0.064936  0.435064  0.250000  1
  Al  Al9  1  0.250000  0.064936  0.435064  1
  Au  Au10  1  0.491062  0.854261  0.202252  1
  Au  Au11  1  0.202252  0.491062  0.854261  1
  Au  Au12  1  0.854261  0.202252  0.491062  1
  Au  Au13  1  0.702252  0.354261  0.991062  1
  Au  Au14  1  0.991062  0.702252  0.354261  1
  Au  Au15  1  0.354261  0.991062  0.702252  1
  Au  Au16  1  0.508938  0.145739  0.797748  1
  Au  Au17  1  0.797748  0.508938  0.145739  1
  Au  Au18  1  0.145739  0.797748  0.508938  1
  Au  Au19  1  0.297748  0.645739  0.008938  1
  Au  Au20  1  0.008938  0.297748  0.645739  1
  Au  Au21  1  0.645739  0.008938  0.297748  1
