# generated using pymatgen
data_Pa8Zn8PtRh7
_symmetry_space_group_name_H-M   'P 1'
_cell_length_a   3.85891100
_cell_length_b   7.31402206
_cell_length_c   16.32960728
_cell_angle_alpha   90.23395656
_cell_angle_beta   90.00000000
_cell_angle_gamma   90.00000000
_symmetry_Int_Tables_number   1
_chemical_formula_structural   Pa8Zn8PtRh7
_chemical_formula_sum   'Pa8 Zn8 Pt1 Rh7'
_cell_volume   460.88560942
_cell_formula_units_Z   1
loop_
 _symmetry_equiv_pos_site_id
 _symmetry_equiv_pos_as_xyz
  1  'x, y, z'
loop_
 _atom_site_type_symbol
 _atom_site_label
 _atom_site_symmetry_multiplicity
 _atom_site_fract_x
 _atom_site_fract_y
 _atom_site_fract_z
 _atom_site_occupancy
  Pa  Pa0  1  0.750000  0.445043  0.214225  1
  Pa  Pa1  1  0.750000  0.944221  0.283592  1
  Pa  Pa2  1  0.750000  0.832840  0.059203  1
  Pa  Pa3  1  0.250000  0.051733  0.717955  1
  Pa  Pa4  1  0.250000  0.167063  0.940985  1
  Pa  Pa5  1  0.250000  0.555769  0.785515  1
  Pa  Pa6  1  0.750000  0.336280  0.435950  1
  Pa  Pa7  1  0.250000  0.666687  0.559140  1
  Zn  Zn8  1  0.250000  0.996896  0.437392  1
  Zn  Zn9  1  0.750000  0.502994  0.938855  1
  Zn  Zn10  1  0.750000  0.003368  0.562244  1
  Zn  Zn11  1  0.250000  0.617111  0.343768  1
  Zn  Zn12  1  0.750000  0.385188  0.657291  1
  Zn  Zn13  1  0.750000  0.883780  0.846312  1
  Zn  Zn14  1  0.250000  0.496578  0.061040  1
  Zn  Zn15  1  0.250000  0.115105  0.154341  1
  Pt  Pt16  1  0.250000  0.261024  0.561327  1
  Rh  Rh17  1  0.750000  0.238500  0.058619  1
  Rh  Rh18  1  0.250000  0.243701  0.312405  1
  Rh  Rh19  1  0.750000  0.254230  0.813908  1
  Rh  Rh20  1  0.250000  0.761127  0.941604  1
  Rh  Rh21  1  0.750000  0.756805  0.687132  1
  Rh  Rh22  1  0.750000  0.739267  0.441332  1
  Rh  Rh23  1  0.250000  0.744689  0.185865  1
