# generated using pymatgen
data_HfPBr9
_symmetry_space_group_name_H-M   'P 1'
_cell_length_a   8.20280003
_cell_length_b   10.71457875
_cell_length_c   10.53643318
_cell_angle_alpha   104.19251721
_cell_angle_beta   98.23761974
_cell_angle_gamma   89.44431116
_symmetry_Int_Tables_number   1
_chemical_formula_structural   HfPBr9
_chemical_formula_sum   'Hf2 P2 Br18'
_cell_volume   888.20201572
_cell_formula_units_Z   2
loop_
 _symmetry_equiv_pos_site_id
 _symmetry_equiv_pos_as_xyz
  1  'x, y, z'
loop_
 _atom_site_type_symbol
 _atom_site_label
 _atom_site_symmetry_multiplicity
 _atom_site_fract_x
 _atom_site_fract_y
 _atom_site_fract_z
 _atom_site_occupancy
  Hf  Hf0  1  0.605566  0.652419  0.659291  1
  Hf  Hf1  1  0.394434  0.347581  0.340709  1
  P  P2  1  0.068149  0.191308  0.787220  1
  P  P3  1  0.931851  0.808692  0.212780  1
  Br  Br4  1  0.361974  0.522562  0.195646  1
  Br  Br5  1  0.638026  0.477438  0.804354  1
  Br  Br6  1  0.449370  0.189528  0.485275  1
  Br  Br7  1  0.550630  0.810472  0.514725  1
  Br  Br8  1  0.092757  0.281580  0.269436  1
  Br  Br9  1  0.907243  0.718420  0.730564  1
  Br  Br10  1  0.528692  0.199590  0.154796  1
  Br  Br11  1  0.471308  0.800410  0.845204  1
  Br  Br12  1  0.304108  0.531689  0.549343  1
  Br  Br13  1  0.695892  0.468311  0.450657  1
  Br  Br14  1  0.811486  0.649053  0.054419  1
  Br  Br15  1  0.188514  0.350947  0.945581  1
  Br  Br16  1  0.997165  0.241790  0.600032  1
  Br  Br17  1  0.002835  0.758210  0.399968  1
  Br  Br18  1  0.235471  0.029742  0.765297  1
  Br  Br19  1  0.764529  0.970258  0.234703  1
  Br  Br20  1  0.846794  0.127956  0.848140  1
  Br  Br21  1  0.153206  0.872044  0.151860  1
