# generated using pymatgen
data_RuBr(NF10)2
_symmetry_space_group_name_H-M   'P 1'
_cell_length_a   5.62948290
_cell_length_b   7.62331903
_cell_length_c   9.02634700
_cell_angle_alpha   88.73946646
_cell_angle_beta   109.33204063
_cell_angle_gamma   96.69047612
_symmetry_Int_Tables_number   1
_chemical_formula_structural   RuBr(NF10)2
_chemical_formula_sum   'Ru1 Br1 N2 F20'
_cell_volume   362.98140105
_cell_formula_units_Z   1
loop_
 _symmetry_equiv_pos_site_id
 _symmetry_equiv_pos_as_xyz
  1  'x, y, z'
loop_
 _atom_site_type_symbol
 _atom_site_label
 _atom_site_symmetry_multiplicity
 _atom_site_fract_x
 _atom_site_fract_y
 _atom_site_fract_z
 _atom_site_occupancy
  Ru  Ru0  1  0.995715  0.754701  0.294880  1
  Br  Br1  1  0.005574  0.245700  0.705665  1
  N  N2  1  0.295867  0.274053  0.214570  1
  N  N3  1  0.704340  0.725727  0.785978  1
  F  F4  1  0.058302  0.232965  0.213789  1
  F  F5  1  0.941366  0.766993  0.786278  1
  F  F6  1  0.371118  0.139023  0.155154  1
  F  F7  1  0.629148  0.861049  0.845310  1
  F  F8  1  0.927787  0.192821  0.895933  1
  F  F9  1  0.069695  0.805314  0.105299  1
  F  F10  1  0.072905  0.297059  0.519423  1
  F  F11  1  0.924334  0.701523  0.481575  1
  F  F12  1  0.785178  0.047643  0.604471  1
  F  F13  1  0.216573  0.956094  0.393570  1
  F  F14  1  0.279492  0.106758  0.777267  1
  F  F15  1  0.720166  0.891361  0.221071  1
  F  F16  1  0.217767  0.456892  0.806893  1
  F  F17  1  0.785316  0.547250  0.193289  1
  F  F18  1  0.725104  0.378770  0.636483  1
  F  F19  1  0.274270  0.619154  0.361834  1
  F  F20  1  0.695621  0.583951  0.874869  1
  F  F21  1  0.304745  0.415973  0.125827  1
  F  F22  1  0.547967  0.691745  0.638750  1
  F  F23  1  0.451653  0.307481  0.361822  1
