# generated using pymatgen
data_Ta2Nb4BiSb(PO4)12
_symmetry_space_group_name_H-M   'P 1'
_cell_length_a   8.90888570
_cell_length_b   9.03193442
_cell_length_c   12.53472300
_cell_angle_alpha   90.01551666
_cell_angle_beta   90.86944318
_cell_angle_gamma   90.00759176
_symmetry_Int_Tables_number   1
_chemical_formula_structural   Ta2Nb4BiSb(PO4)12
_chemical_formula_sum   'Ta2 Nb4 Bi1 Sb1 P12 O48'
_cell_volume   1008.48369105
_cell_formula_units_Z   1
loop_
 _symmetry_equiv_pos_site_id
 _symmetry_equiv_pos_as_xyz
  1  'x, y, z'
loop_
 _atom_site_type_symbol
 _atom_site_label
 _atom_site_symmetry_multiplicity
 _atom_site_fract_x
 _atom_site_fract_y
 _atom_site_fract_z
 _atom_site_occupancy
  Ta  Ta0  1  0.750216  0.466163  0.115130  1
  Ta  Ta1  1  0.746448  0.035139  0.887742  1
  Nb  Nb2  1  0.752627  0.533786  0.615119  1
  Nb  Nb3  1  0.250722  0.033434  0.615497  1
  Nb  Nb4  1  0.252380  0.966147  0.116093  1
  Nb  Nb5  1  0.247175  0.464263  0.385590  1
  Bi  Bi6  1  0.246850  0.533889  0.877132  1
  Sb  Sb7  1  0.748524  0.969080  0.380002  1
  P  P8  1  0.542567  0.754925  0.004336  1
  P  P9  1  0.971292  0.257768  0.507503  1
  P  P10  1  0.473067  0.240308  0.009212  1
  P  P11  1  0.041027  0.745568  0.503600  1
  P  P12  1  0.612563  0.592482  0.350151  1
  P  P13  1  0.902516  0.124154  0.136680  1
  P  P14  1  0.868330  0.387091  0.853181  1
  P  P15  1  0.604801  0.887076  0.646963  1
  P  P16  1  0.403300  0.375781  0.633917  1
  P  P17  1  0.110348  0.910337  0.850851  1
  P  P18  1  0.101434  0.614794  0.147036  1
  P  P19  1  0.371629  0.110747  0.352852  1
  O  O20  1  0.927782  0.596747  0.138074  1
  O  O21  1  0.541190  0.117716  0.354365  1
  O  O22  1  0.574667  0.406844  0.641822  1
  O  O23  1  0.940825  0.952862  0.847164  1
  O  O24  1  0.037280  0.378405  0.854408  1
  O  O25  1  0.430654  0.903323  0.639051  1
  O  O26  1  0.442340  0.550117  0.345304  1
  O  O27  1  0.074456  0.093897  0.142671  1
  O  O28  1  0.956121  0.817504  0.412063  1
  O  O29  1  0.581284  0.326242  0.085843  1
  O  O30  1  0.564787  0.131568  0.940428  1
  O  O31  1  0.933888  0.655882  0.577587  1
  O  O32  1  0.079833  0.173421  0.584506  1
  O  O33  1  0.459491  0.685848  0.911092  1
  O  O34  1  0.433753  0.842883  0.078250  1
  O  O35  1  0.062744  0.365452  0.437678  1
  O  O36  1  0.690726  0.492496  0.265189  1
  O  O37  1  0.817700  0.026097  0.212276  1
  O  O38  1  0.810983  0.500298  0.766580  1
  O  O39  1  0.654456  0.961274  0.754478  1
  O  O40  1  0.315869  0.476869  0.705304  1
  O  O41  1  0.189273  0.010247  0.766465  1
  O  O42  1  0.150917  0.540279  0.254318  1
  O  O43  1  0.312643  0.996976  0.267073  1
  O  O44  1  0.678480  0.550370  0.461710  1
  O  O45  1  0.851999  0.095816  0.019650  1
  O  O46  1  0.805726  0.440980  0.962137  1
  O  O47  1  0.683688  0.958016  0.554602  1
  O  O48  1  0.354861  0.400128  0.516164  1
  O  O49  1  0.177953  0.949220  0.962318  1
  O  O50  1  0.182053  0.543515  0.056097  1
  O  O51  1  0.308245  0.058462  0.461821  1
  O  O52  1  0.623147  0.636207  0.075834  1
  O  O53  1  0.881043  0.156577  0.435528  1
  O  O54  1  0.868608  0.354030  0.578534  1
  O  O55  1  0.670817  0.857990  0.965072  1
  O  O56  1  0.383839  0.338664  0.936131  1
  O  O57  1  0.122281  0.863165  0.576076  1
  O  O58  1  0.169016  0.642728  0.463818  1
  O  O59  1  0.370832  0.144078  0.080714  1
  O  O60  1  0.628593  0.754815  0.325286  1
  O  O61  1  0.877616  0.292939  0.157007  1
  O  O62  1  0.797384  0.233310  0.826042  1
  O  O63  1  0.641056  0.718223  0.654853  1
  O  O64  1  0.378979  0.208019  0.657543  1
  O  O65  1  0.123773  0.748704  0.823248  1
  O  O66  1  0.137360  0.783500  0.155208  1
  O  O67  1  0.301166  0.264372  0.324033  1
