# generated using pymatgen
data_TbEr9Os3Ru
_symmetry_space_group_name_H-M   'P 1'
_cell_length_a   6.30957174
_cell_length_b   7.31943341
_cell_length_c   8.37399352
_cell_angle_alpha   96.84934834
_cell_angle_beta   112.25708491
_cell_angle_gamma   90.09567377
_symmetry_Int_Tables_number   1
_chemical_formula_structural   TbEr9Os3Ru
_chemical_formula_sum   'Tb1 Er9 Os3 Ru1'
_cell_volume   354.90149368
_cell_formula_units_Z   1
loop_
 _symmetry_equiv_pos_site_id
 _symmetry_equiv_pos_as_xyz
  1  'x, y, z'
loop_
 _atom_site_type_symbol
 _atom_site_label
 _atom_site_symmetry_multiplicity
 _atom_site_fract_x
 _atom_site_fract_y
 _atom_site_fract_z
 _atom_site_occupancy
  Tb  Tb0  1  0.794030  0.583586  0.816309  1
  Er  Er1  1  0.975823  0.916110  0.182919  1
  Er  Er2  1  0.207736  0.416265  0.186375  1
  Er  Er3  1  0.024634  0.085168  0.817917  1
  Er  Er4  1  0.203491  0.683124  0.564725  1
  Er  Er5  1  0.640417  0.817529  0.435812  1
  Er  Er6  1  0.794301  0.316048  0.433934  1
  Er  Er7  1  0.360490  0.181700  0.563503  1
  Er  Er8  1  0.421299  0.750050  0.000300  1
  Er  Er9  1  0.579602  0.249941  0.000620  1
  Os  Os10  1  0.603429  0.922955  0.780381  1
  Os  Os11  1  0.822331  0.578052  0.220176  1
  Os  Os12  1  0.395816  0.077755  0.218557  1
  Ru  Ru13  1  0.176601  0.421715  0.778473  1
