# generated using pymatgen
data_Ho11ErCo4SnPt
_symmetry_space_group_name_H-M   'P 1'
_cell_length_a   8.27966824
_cell_length_b   8.27966903
_cell_length_c   8.27854277
_cell_angle_alpha   111.08157950
_cell_angle_beta   110.55148233
_cell_angle_gamma   106.81910137
_symmetry_Int_Tables_number   1
_chemical_formula_structural   Ho11ErCo4SnPt
_chemical_formula_sum   'Ho11 Er1 Co4 Sn1 Pt1'
_cell_volume   436.13527441
_cell_formula_units_Z   1
loop_
 _symmetry_equiv_pos_site_id
 _symmetry_equiv_pos_as_xyz
  1  'x, y, z'
loop_
 _atom_site_type_symbol
 _atom_site_label
 _atom_site_symmetry_multiplicity
 _atom_site_fract_x
 _atom_site_fract_y
 _atom_site_fract_z
 _atom_site_occupancy
  Ho  Ho0  1  0.314516  0.618834  0.304228  1
  Ho  Ho1  1  0.685389  0.381055  0.695860  1
  Ho  Ho2  1  0.314805  0.010471  0.695860  1
  Ho  Ho3  1  0.685395  0.989712  0.304228  1
  Ho  Ho4  1  0.417263  0.216575  0.200500  1
  Ho  Ho5  1  0.582935  0.783619  0.799570  1
  Ho  Ho6  1  0.015950  0.216636  0.799570  1
  Ho  Ho7  1  0.983925  0.783236  0.200500  1
  Ho  Ho8  1  0.184363  0.288559  0.472921  1
  Ho  Ho9  1  0.815485  0.711388  0.526872  1
  Ho  Ho10  1  0.184567  0.711474  0.896041  1
  Er  Er11  1  0.815575  0.288510  0.104085  1
  Co  Co12  1  0.112092  0.612026  0.499759  1
  Co  Co13  1  0.887735  0.387668  0.499759  1
  Co  Co14  1  0.377924  0.000014  0.377938  1
  Co  Co15  1  0.622124  0.000086  0.622209  1
  Sn  Sn16  1  0.500013  0.499995  0.000008  1
  Pt  Pt17  1  0.999944  0.000146  0.000090  1
