# generated using pymatgen
data_CaIn2P2O9
_symmetry_space_group_name_H-M   'P 1'
_cell_length_a   6.77747400
_cell_length_b   7.44016400
_cell_length_c   15.14450300
_cell_angle_alpha   90.00000000
_cell_angle_beta   90.00000000
_cell_angle_gamma   90.00000000
_symmetry_Int_Tables_number   1
_chemical_formula_structural   CaIn2P2O9
_chemical_formula_sum   'Ca4 In8 P8 O36'
_cell_volume   763.66940962
_cell_formula_units_Z   4
loop_
 _symmetry_equiv_pos_site_id
 _symmetry_equiv_pos_as_xyz
  1  'x, y, z'
loop_
 _atom_site_type_symbol
 _atom_site_label
 _atom_site_symmetry_multiplicity
 _atom_site_fract_x
 _atom_site_fract_y
 _atom_site_fract_z
 _atom_site_occupancy
  Ca  Ca0  1  0.750000  0.406032  0.280311  1
  Ca  Ca1  1  0.750000  0.093968  0.780311  1
  Ca  Ca2  1  0.250000  0.906032  0.219689  1
  Ca  Ca3  1  0.250000  0.593968  0.719689  1
  In  In4  1  0.750000  0.868246  0.380284  1
  In  In5  1  0.250000  0.131754  0.619716  1
  In  In6  1  0.250000  0.368246  0.119716  1
  In  In7  1  0.750000  0.631754  0.880284  1
  In  In8  1  0.500000  0.500000  0.500000  1
  In  In9  1  0.500000  0.000000  0.000000  1
  In  In10  1  0.000000  0.000000  0.000000  1
  In  In11  1  0.000000  0.500000  0.500000  1
  P  P12  1  0.250000  0.879320  0.425167  1
  P  P13  1  0.750000  0.120680  0.574833  1
  P  P14  1  0.750000  0.379320  0.074833  1
  P  P15  1  0.250000  0.620680  0.925167  1
  P  P16  1  0.750000  0.892678  0.193154  1
  P  P17  1  0.750000  0.607322  0.693154  1
  P  P18  1  0.250000  0.392678  0.306846  1
  P  P19  1  0.250000  0.107322  0.806846  1
  O  O20  1  0.059032  0.101868  0.863686  1
  O  O21  1  0.559032  0.898132  0.136314  1
  O  O22  1  0.940968  0.601868  0.636314  1
  O  O23  1  0.440968  0.398132  0.363686  1
  O  O24  1  0.940968  0.898132  0.136314  1
  O  O25  1  0.440968  0.101868  0.863686  1
  O  O26  1  0.059032  0.398132  0.363686  1
  O  O27  1  0.559032  0.601868  0.636314  1
  O  O28  1  0.250000  0.801782  0.978560  1
  O  O29  1  0.750000  0.198218  0.021440  1
  O  O30  1  0.750000  0.301782  0.521440  1
  O  O31  1  0.250000  0.698218  0.478560  1
  O  O32  1  0.750000  0.607449  0.435480  1
  O  O33  1  0.250000  0.392551  0.564520  1
  O  O34  1  0.250000  0.107449  0.064520  1
  O  O35  1  0.750000  0.892551  0.935480  1
  O  O36  1  0.750000  0.718711  0.250571  1
  O  O37  1  0.250000  0.281289  0.749429  1
  O  O38  1  0.250000  0.218711  0.249429  1
  O  O39  1  0.750000  0.781289  0.750571  1
  O  O40  1  0.429971  0.616312  0.861672  1
  O  O41  1  0.929971  0.383688  0.138328  1
  O  O42  1  0.570029  0.116312  0.638328  1
  O  O43  1  0.070029  0.883688  0.361672  1
  O  O44  1  0.570029  0.383688  0.138328  1
  O  O45  1  0.070029  0.616312  0.861672  1
  O  O46  1  0.429971  0.883688  0.361672  1
  O  O47  1  0.929971  0.116312  0.638328  1
  O  O48  1  0.750000  0.963616  0.510389  1
  O  O49  1  0.250000  0.551242  0.237633  1
  O  O50  1  0.250000  0.948758  0.737633  1
  O  O51  1  0.750000  0.051242  0.262367  1
  O  O52  1  0.750000  0.536384  0.010389  1
  O  O53  1  0.250000  0.463616  0.989611  1
  O  O54  1  0.250000  0.036384  0.489611  1
  O  O55  1  0.750000  0.448758  0.762367  1
