# generated using pymatgen
data_CsV2CoSe3
_symmetry_space_group_name_H-M   'P 1'
_cell_length_a   9.48332315
_cell_length_b   9.54116346
_cell_length_c   4.31469100
_cell_angle_alpha   90.00000000
_cell_angle_beta   90.00000000
_cell_angle_gamma   117.73993657
_symmetry_Int_Tables_number   1
_chemical_formula_structural   CsV2CoSe3
_chemical_formula_sum   'Cs2 V4 Co2 Se6'
_cell_volume   345.53250852
_cell_formula_units_Z   2
loop_
 _symmetry_equiv_pos_site_id
 _symmetry_equiv_pos_as_xyz
  1  'x, y, z'
loop_
 _atom_site_type_symbol
 _atom_site_label
 _atom_site_symmetry_multiplicity
 _atom_site_fract_x
 _atom_site_fract_y
 _atom_site_fract_z
 _atom_site_occupancy
  Cs  Cs0  1  0.332434  0.663444  0.250000  1
  Cs  Cs1  1  0.667566  0.336556  0.750000  1
  V  V2  1  0.837438  0.972557  0.250000  1
  V  V3  1  0.019254  0.859884  0.250000  1
  V  V4  1  0.980746  0.140116  0.750000  1
  V  V5  1  0.162562  0.027443  0.750000  1
  Co  Co6  1  0.146435  0.171952  0.250000  1
  Co  Co7  1  0.853565  0.828048  0.750000  1
  Se  Se8  1  0.955197  0.270247  0.250000  1
  Se  Se9  1  0.044803  0.729753  0.750000  1
  Se  Se10  1  0.726134  0.677482  0.250000  1
  Se  Se11  1  0.315280  0.048248  0.250000  1
  Se  Se12  1  0.684720  0.951752  0.750000  1
  Se  Se13  1  0.273866  0.322518  0.750000  1
