# generated using pymatgen
data_Yb6Y5In9Pd4
_symmetry_space_group_name_H-M   'P 1'
_cell_length_a   13.32784209
_cell_length_b   13.32887022
_cell_length_c   3.67512600
_cell_angle_alpha   90.00000000
_cell_angle_beta   90.00000000
_cell_angle_gamma   112.12235927
_symmetry_Int_Tables_number   1
_chemical_formula_structural   Yb6Y5In9Pd4
_chemical_formula_sum   'Yb6 Y5 In9 Pd4'
_cell_volume   604.80503504
_cell_formula_units_Z   1
loop_
 _symmetry_equiv_pos_site_id
 _symmetry_equiv_pos_as_xyz
  1  'x, y, z'
loop_
 _atom_site_type_symbol
 _atom_site_label
 _atom_site_symmetry_multiplicity
 _atom_site_fract_x
 _atom_site_fract_y
 _atom_site_fract_z
 _atom_site_occupancy
  Yb  Yb0  1  0.413585  0.069868  0.000000  1
  Yb  Yb1  1  0.586415  0.930132  0.000000  1
  Yb  Yb2  1  0.069856  0.413628  0.000000  1
  Yb  Yb3  1  0.930144  0.586372  0.000000  1
  Yb  Yb4  1  0.160106  0.839908  0.000000  1
  Yb  Yb5  1  0.839894  0.160092  0.000000  1
  Y  Y6  1  0.376997  0.622913  0.000000  1
  Y  Y7  1  0.623003  0.377087  0.000000  1
  Y  Y8  1  0.309999  0.309967  0.000000  1
  Y  Y9  1  0.690001  0.690033  0.000000  1
  Y  Y10  1  0.000000  0.000000  0.000000  1
  In  In11  1  0.369531  0.835513  0.500000  1
  In  In12  1  0.630469  0.164487  0.500000  1
  In  In13  1  0.835705  0.369679  0.500000  1
  In  In14  1  0.164295  0.630321  0.500000  1
  In  In15  1  0.217860  0.078191  0.500000  1
  In  In16  1  0.782140  0.921809  0.500000  1
  In  In17  1  0.077959  0.217828  0.500000  1
  In  In18  1  0.922041  0.782172  0.500000  1
  In  In19  1  0.500000  0.500000  0.500000  1
  Pd  Pd20  1  0.446930  0.244384  0.500000  1
  Pd  Pd21  1  0.553070  0.755616  0.500000  1
  Pd  Pd22  1  0.244418  0.446840  0.500000  1
  Pd  Pd23  1  0.755582  0.553160  0.500000  1
