# generated using pymatgen
data_PrY2Tm(WO6)2
_symmetry_space_group_name_H-M   'P 1'
_cell_length_a   5.45708800
_cell_length_b   7.77718951
_cell_length_c   11.53079017
_cell_angle_alpha   75.68674929
_cell_angle_beta   90.00000000
_cell_angle_gamma   90.00000000
_symmetry_Int_Tables_number   1
_chemical_formula_structural   PrY2Tm(WO6)2
_chemical_formula_sum   'Pr2 Y4 Tm2 W4 O24'
_cell_volume   474.18512054
_cell_formula_units_Z   2
loop_
 _symmetry_equiv_pos_site_id
 _symmetry_equiv_pos_as_xyz
  1  'x, y, z'
loop_
 _atom_site_type_symbol
 _atom_site_label
 _atom_site_symmetry_multiplicity
 _atom_site_fract_x
 _atom_site_fract_y
 _atom_site_fract_z
 _atom_site_occupancy
  Pr  Pr0  1  0.685304  0.498823  0.750695  1
  Pr  Pr1  1  0.314696  0.498823  0.250695  1
  Y  Y2  1  0.742270  0.001035  0.750292  1
  Y  Y3  1  0.257730  0.001035  0.250292  1
  Y  Y4  1  0.185823  0.797567  0.576638  1
  Y  Y5  1  0.814177  0.797567  0.076638  1
  Tm  Tm6  1  0.185885  0.203914  0.922237  1
  Tm  Tm7  1  0.814115  0.203914  0.422237  1
  W  W8  1  0.253559  0.727316  0.884455  1
  W  W9  1  0.746441  0.727316  0.384455  1
  W  W10  1  0.253204  0.271604  0.615293  1
  W  W11  1  0.746796  0.271604  0.115293  1
  O  O12  1  0.047081  0.943524  0.896211  1
  O  O13  1  0.533261  0.845148  0.930796  1
  O  O14  1  0.952919  0.943524  0.396211  1
  O  O15  1  0.455175  0.793895  0.727607  1
  O  O16  1  0.466739  0.845148  0.430796  1
  O  O17  1  0.984939  0.720342  0.770808  1
  O  O18  1  0.544825  0.793895  0.227607  1
  O  O19  1  0.853731  0.640884  0.545627  1
  O  O20  1  0.345410  0.492099  0.887049  1
  O  O21  1  0.015061  0.720342  0.270808  1
  O  O22  1  0.347954  0.505341  0.611957  1
  O  O23  1  0.858494  0.357225  0.954332  1
  O  O24  1  0.146269  0.640884  0.045627  1
  O  O25  1  0.654590  0.492099  0.387049  1
  O  O26  1  0.987951  0.279945  0.731808  1
  O  O27  1  0.652046  0.505341  0.111957  1
  O  O28  1  0.141506  0.357225  0.454332  1
  O  O29  1  0.452405  0.204201  0.773725  1
  O  O30  1  0.012049  0.279945  0.231808  1
  O  O31  1  0.534691  0.156762  0.567652  1
  O  O32  1  0.547595  0.204201  0.273725  1
  O  O33  1  0.040869  0.060375  0.602817  1
  O  O34  1  0.465309  0.156762  0.067652  1
  O  O35  1  0.959131  0.060375  0.102817  1
