# generated using pymatgen
data_Dy6Sc2SnAu9
_symmetry_space_group_name_H-M   'P 1'
_cell_length_a   7.97359076
_cell_length_b   7.97359212
_cell_length_c   7.97359200
_cell_angle_alpha   65.65005671
_cell_angle_beta   65.65006016
_cell_angle_gamma   65.65003258
_symmetry_Int_Tables_number   1
_chemical_formula_structural   Dy6Sc2SnAu9
_chemical_formula_sum   'Dy6 Sc2 Sn1 Au9'
_cell_volume   402.43626136
_cell_formula_units_Z   1
loop_
 _symmetry_equiv_pos_site_id
 _symmetry_equiv_pos_as_xyz
  1  'x, y, z'
loop_
 _atom_site_type_symbol
 _atom_site_label
 _atom_site_symmetry_multiplicity
 _atom_site_fract_x
 _atom_site_fract_y
 _atom_site_fract_z
 _atom_site_occupancy
  Dy  Dy0  1  0.896983  0.183717  0.623455  1
  Dy  Dy1  1  0.623455  0.896983  0.183717  1
  Dy  Dy2  1  0.183717  0.623455  0.896983  1
  Dy  Dy3  1  0.103017  0.816283  0.376545  1
  Dy  Dy4  1  0.376545  0.103017  0.816283  1
  Dy  Dy5  1  0.816283  0.376545  0.103017  1
  Sc  Sc6  1  0.662211  0.662211  0.662211  1
  Sc  Sc7  1  0.337789  0.337789  0.337789  1
  Sn  Sn8  1  0.500000  0.500000  0.500000  1
  Au  Au9  1  0.000000  0.000000  0.000000  1
  Au  Au10  1  0.806586  0.806586  0.806586  1
  Au  Au11  1  0.193414  0.193414  0.193414  1
  Au  Au12  1  0.936977  0.547988  0.321794  1
  Au  Au13  1  0.321794  0.936977  0.547988  1
  Au  Au14  1  0.547988  0.321794  0.936977  1
  Au  Au15  1  0.063023  0.452012  0.678206  1
  Au  Au16  1  0.678206  0.063023  0.452012  1
  Au  Au17  1  0.452012  0.678206  0.063023  1
