# generated using pymatgen
data_La4Y12MgCo4Hg3
_symmetry_space_group_name_H-M   'P 1'
_cell_length_a   9.60670711
_cell_length_b   9.62791040
_cell_length_c   9.62791200
_cell_angle_alpha   60.00000137
_cell_angle_beta   59.92696309
_cell_angle_gamma   59.92696551
_symmetry_Int_Tables_number   1
_chemical_formula_structural   La4Y12MgCo4Hg3
_chemical_formula_sum   'La4 Y12 Mg1 Co4 Hg3'
_cell_volume   628.98949656
_cell_formula_units_Z   1
loop_
 _symmetry_equiv_pos_site_id
 _symmetry_equiv_pos_as_xyz
  1  'x, y, z'
loop_
 _atom_site_type_symbol
 _atom_site_label
 _atom_site_symmetry_multiplicity
 _atom_site_fract_x
 _atom_site_fract_y
 _atom_site_fract_z
 _atom_site_occupancy
  La  La0  1  0.348830  0.346159  0.346159  1
  La  La1  1  0.348830  0.346159  0.958852  1
  La  La2  1  0.348830  0.958852  0.346159  1
  La  La3  1  0.947700  0.350766  0.350766  1
  Y  Y4  1  0.812149  0.187244  0.187244  1
  Y  Y5  1  0.184140  0.815226  0.815226  1
  Y  Y6  1  0.184140  0.815226  0.185408  1
  Y  Y7  1  0.812149  0.187244  0.813364  1
  Y  Y8  1  0.184140  0.185408  0.815226  1
  Y  Y9  1  0.812149  0.813364  0.187244  1
  Y  Y10  1  0.934997  0.564084  0.564084  1
  Y  Y11  1  0.563509  0.935903  0.935903  1
  Y  Y12  1  0.563509  0.935903  0.564684  1
  Y  Y13  1  0.934997  0.564084  0.936836  1
  Y  Y14  1  0.563509  0.564684  0.935903  1
  Y  Y15  1  0.934997  0.936836  0.564084  1
  Mg  Mg16  1  0.285970  0.571343  0.571343  1
  Co  Co17  1  0.138882  0.141795  0.141795  1
  Co  Co18  1  0.138882  0.141795  0.577527  1
  Co  Co19  1  0.138882  0.577527  0.141795  1
  Co  Co20  1  0.574756  0.141748  0.141748  1
  Hg  Hg21  1  0.581349  0.587165  0.587165  1
  Hg  Hg22  1  0.581349  0.587165  0.244323  1
  Hg  Hg23  1  0.581349  0.244323  0.587165  1
