# generated using pymatgen
data_Al4Ag7Au9
_symmetry_space_group_name_H-M   'P 1'
_cell_length_a   7.01634800
_cell_length_b   7.07259851
_cell_length_c   7.07423240
_cell_angle_alpha   89.75662407
_cell_angle_beta   90.48203244
_cell_angle_gamma   90.45913842
_symmetry_Int_Tables_number   1
_chemical_formula_structural   Al4Ag7Au9
_chemical_formula_sum   'Al4 Ag7 Au9'
_cell_volume   351.02361970
_cell_formula_units_Z   1
loop_
 _symmetry_equiv_pos_site_id
 _symmetry_equiv_pos_as_xyz
  1  'x, y, z'
loop_
 _atom_site_type_symbol
 _atom_site_label
 _atom_site_symmetry_multiplicity
 _atom_site_fract_x
 _atom_site_fract_y
 _atom_site_fract_z
 _atom_site_occupancy
  Al  Al0  1  0.066236  0.071788  0.065664  1
  Al  Al1  1  0.436915  0.938439  0.563302  1
  Al  Al2  1  0.561151  0.429656  0.931063  1
  Al  Al3  1  0.937081  0.564272  0.437572  1
  Ag  Ag4  1  0.792236  0.949898  0.379301  1
  Ag  Ag5  1  0.382111  0.787819  0.952767  1
  Ag  Ag6  1  0.953765  0.384962  0.788189  1
  Ag  Ag7  1  0.546912  0.618013  0.290370  1
  Ag  Ag8  1  0.877182  0.708573  0.047341  1
  Ag  Ag9  1  0.045792  0.881219  0.710138  1
  Ag  Ag10  1  0.120085  0.212352  0.452397  1
  Au  Au11  1  0.681258  0.684248  0.681498  1
  Au  Au12  1  0.816610  0.322885  0.186142  1
  Au  Au13  1  0.177952  0.818527  0.312135  1
  Au  Au14  1  0.314245  0.176491  0.814306  1
  Au  Au15  1  0.619117  0.285292  0.552831  1
  Au  Au16  1  0.452028  0.113207  0.217151  1
  Au  Au17  1  0.283785  0.555234  0.615632  1
  Au  Au18  1  0.215581  0.447932  0.113112  1
  Au  Au19  1  0.719958  0.049193  0.889087  1
