# generated using pymatgen
data_La3PrGa8(GeIr3)2
_symmetry_space_group_name_H-M   'P 1'
_cell_length_a   8.64140134
_cell_length_b   8.75390418
_cell_length_c   8.75390495
_cell_angle_alpha   140.71138834
_cell_angle_beta   108.09685913
_cell_angle_gamma   85.31671920
_symmetry_Int_Tables_number   1
_chemical_formula_structural   La3PrGa8(GeIr3)2
_chemical_formula_sum   'La3 Pr1 Ga8 Ge2 Ir6'
_cell_volume   384.46331050
_cell_formula_units_Z   1
loop_
 _symmetry_equiv_pos_site_id
 _symmetry_equiv_pos_as_xyz
  1  'x, y, z'
loop_
 _atom_site_type_symbol
 _atom_site_label
 _atom_site_symmetry_multiplicity
 _atom_site_fract_x
 _atom_site_fract_y
 _atom_site_fract_z
 _atom_site_occupancy
  La  La0  1  0.863368  0.634136  0.229232  1
  La  La1  1  0.136507  0.365746  0.770761  1
  La  La2  1  0.407558  0.136731  0.270827  1
  Pr  Pr3  1  0.593647  0.864065  0.729582  1
  Ga  Ga4  1  0.500290  0.752098  0.252752  1
  Ga  Ga5  1  0.500290  0.247538  0.748192  1
  Ga  Ga6  1  0.212751  0.961579  0.748612  1
  Ga  Ga7  1  0.787414  0.537319  0.749633  1
  Ga  Ga8  1  0.787414  0.037781  0.250095  1
  Ga  Ga9  1  0.212751  0.464139  0.251172  1
  Ga  Ga10  1  0.072489  0.907399  0.165091  1
  Ga  Ga11  1  0.926845  0.091907  0.834938  1
  Ge  Ge12  1  0.740637  0.405724  0.334913  1
  Ge  Ge13  1  0.258561  0.594285  0.664277  1
  Ir  Ir14  1  0.999961  0.748942  0.749109  1
  Ir  Ir15  1  0.999961  0.250851  0.251019  1
  Ir  Ir16  1  0.252158  0.853780  0.398378  1
  Ir  Ir17  1  0.748425  0.146538  0.601887  1
  Ir  Ir18  1  0.456100  0.355075  0.101025  1
  Ir  Ir19  1  0.542874  0.644369  0.898505  1
