# generated using pymatgen
data_La3Tb(WC2)2
_symmetry_space_group_name_H-M   'P 1'
_cell_length_a   5.82271571
_cell_length_b   5.82271651
_cell_length_c   10.52301700
_cell_angle_alpha   90.00000000
_cell_angle_beta   90.00000000
_cell_angle_gamma   89.86019134
_symmetry_Int_Tables_number   1
_chemical_formula_structural   La3Tb(WC2)2
_chemical_formula_sum   'La6 Tb2 W4 C8'
_cell_volume   356.77154696
_cell_formula_units_Z   2
loop_
 _symmetry_equiv_pos_site_id
 _symmetry_equiv_pos_as_xyz
  1  'x, y, z'
loop_
 _atom_site_type_symbol
 _atom_site_label
 _atom_site_symmetry_multiplicity
 _atom_site_fract_x
 _atom_site_fract_y
 _atom_site_fract_z
 _atom_site_occupancy
  La  La0  1  0.200123  0.200123  0.342755  1
  La  La1  1  0.300497  0.687172  0.842163  1
  La  La2  1  0.687172  0.300497  0.842163  1
  La  La3  1  0.687172  0.300497  0.157837  1
  La  La4  1  0.300497  0.687172  0.157837  1
  La  La5  1  0.200123  0.200123  0.657245  1
  Tb  Tb6  1  0.806583  0.806583  0.347342  1
  Tb  Tb7  1  0.806583  0.806583  0.652658  1
  W  W8  1  0.331678  0.688084  0.500000  1
  W  W9  1  0.814779  0.814779  0.000000  1
  W  W10  1  0.166859  0.166859  0.000000  1
  W  W11  1  0.688084  0.331678  0.500000  1
  C  C12  1  0.989263  0.989263  0.144402  1
  C  C13  1  0.511154  0.511154  0.639278  1
  C  C14  1  0.520224  0.005763  0.500000  1
  C  C15  1  0.511154  0.511154  0.360722  1
  C  C16  1  0.989263  0.989263  0.855598  1
  C  C17  1  0.491017  0.992012  0.000000  1
  C  C18  1  0.992012  0.491017  0.000000  1
  C  C19  1  0.005763  0.520224  0.500000  1
