# generated using pymatgen
data_LiTh4Cd3Hg8
_symmetry_space_group_name_H-M   'P 1'
_cell_length_a   7.28978600
_cell_length_b   5.20223400
_cell_length_c   10.44630300
_cell_angle_alpha   90.00000000
_cell_angle_beta   90.00000000
_cell_angle_gamma   90.00000000
_symmetry_Int_Tables_number   1
_chemical_formula_structural   LiTh4Cd3Hg8
_chemical_formula_sum   'Li1 Th4 Cd3 Hg8'
_cell_volume   396.15695151
_cell_formula_units_Z   1
loop_
 _symmetry_equiv_pos_site_id
 _symmetry_equiv_pos_as_xyz
  1  'x, y, z'
loop_
 _atom_site_type_symbol
 _atom_site_label
 _atom_site_symmetry_multiplicity
 _atom_site_fract_x
 _atom_site_fract_y
 _atom_site_fract_z
 _atom_site_occupancy
  Li  Li0  1  0.249999  0.250000  0.124598  1
  Th  Th1  1  0.750000  0.250000  0.124559  1
  Th  Th2  1  0.250001  0.750000  0.379840  1
  Th  Th3  1  0.750000  0.250000  0.624650  1
  Th  Th4  1  0.249999  0.750000  0.870978  1
  Cd  Cd5  1  0.750000  0.750000  0.373678  1
  Cd  Cd6  1  0.250001  0.250000  0.624513  1
  Cd  Cd7  1  0.750001  0.750000  0.877245  1
  Hg  Hg8  1  0.487679  0.750000  0.125410  1
  Hg  Hg9  1  0.012323  0.750000  0.125411  1
  Hg  Hg10  1  0.004997  0.250000  0.366883  1
  Hg  Hg11  1  0.495003  0.250000  0.366883  1
  Hg  Hg12  1  0.997888  0.750000  0.625478  1
  Hg  Hg13  1  0.502112  0.750000  0.625479  1
  Hg  Hg14  1  0.005017  0.250000  0.882199  1
  Hg  Hg15  1  0.494982  0.250000  0.882200  1
