# generated using pymatgen
data_Y5Ho5In8(PdRu)2
_symmetry_space_group_name_H-M   'P 1'
_cell_length_a   3.61206600
_cell_length_b   8.09249446
_cell_length_c   18.34329653
_cell_angle_alpha   90.03307264
_cell_angle_beta   90.00000000
_cell_angle_gamma   90.00000000
_symmetry_Int_Tables_number   1
_chemical_formula_structural   Y5Ho5In8(PdRu)2
_chemical_formula_sum   'Y5 Ho5 In8 Pd2 Ru2'
_cell_volume   536.18591611
_cell_formula_units_Z   1
loop_
 _symmetry_equiv_pos_site_id
 _symmetry_equiv_pos_as_xyz
  1  'x, y, z'
loop_
 _atom_site_type_symbol
 _atom_site_label
 _atom_site_symmetry_multiplicity
 _atom_site_fract_x
 _atom_site_fract_y
 _atom_site_fract_z
 _atom_site_occupancy
  Y  Y0  1  0.500000  0.883017  0.413206  1
  Y  Y1  1  0.500000  0.380183  0.084822  1
  Y  Y2  1  0.500000  0.620118  0.915069  1
  Y  Y3  1  0.500000  0.000005  0.999969  1
  Y  Y4  1  0.500000  0.499336  0.500214  1
  Ho  Ho5  1  0.500000  0.228516  0.777672  1
  Ho  Ho6  1  0.500000  0.771703  0.222237  1
  Ho  Ho7  1  0.500000  0.244401  0.280073  1
  Ho  Ho8  1  0.500000  0.755559  0.719854  1
  Ho  Ho9  1  0.500000  0.116666  0.587848  1
  In  In10  1  0.000000  0.071604  0.150505  1
  In  In11  1  0.000000  0.928461  0.849384  1
  In  In12  1  0.000000  0.425209  0.650318  1
  In  In13  1  0.000000  0.574145  0.349694  1
  In  In14  1  0.000000  0.206678  0.430665  1
  In  In15  1  0.000000  0.793642  0.569428  1
  In  In16  1  0.000000  0.293130  0.932466  1
  In  In17  1  0.000000  0.706920  0.067434  1
  Pd  Pd18  1  0.000000  0.480067  0.197357  1
  Pd  Pd19  1  0.000000  0.519939  0.802678  1
  Ru  Ru20  1  0.000000  0.019925  0.695765  1
  Ru  Ru21  1  0.000000  0.980776  0.303340  1
