# generated using pymatgen
data_Hf8In4CoPt7
_symmetry_space_group_name_H-M   'P 1'
_cell_length_a   7.55016832
_cell_length_b   7.55016846
_cell_length_c   6.69644080
_cell_angle_alpha   90.07799153
_cell_angle_beta   89.92200851
_cell_angle_gamma   89.65257930
_symmetry_Int_Tables_number   1
_chemical_formula_structural   Hf8In4CoPt7
_chemical_formula_sum   'Hf8 In4 Co1 Pt7'
_cell_volume   381.72316464
_cell_formula_units_Z   1
loop_
 _symmetry_equiv_pos_site_id
 _symmetry_equiv_pos_as_xyz
  1  'x, y, z'
loop_
 _atom_site_type_symbol
 _atom_site_label
 _atom_site_symmetry_multiplicity
 _atom_site_fract_x
 _atom_site_fract_y
 _atom_site_fract_z
 _atom_site_occupancy
  Hf  Hf0  1  0.157172  0.142143  0.993333  1
  Hf  Hf1  1  0.857857  0.842828  0.993333  1
  Hf  Hf2  1  0.649440  0.350560  0.500281  1
  Hf  Hf3  1  0.339613  0.660387  0.506573  1
  Hf  Hf4  1  0.680244  0.319756  0.999832  1
  Hf  Hf5  1  0.311549  0.688451  0.992760  1
  Hf  Hf6  1  0.827301  0.818399  0.503729  1
  Hf  Hf7  1  0.181601  0.172699  0.503729  1
  In  In8  1  0.502645  0.999503  0.248671  1
  In  In9  1  0.493937  0.997586  0.749536  1
  In  In10  1  0.000497  0.497355  0.248671  1
  In  In11  1  0.002414  0.506063  0.749536  1
  Co  Co12  1  0.129856  0.870144  0.724988  1
  Pt  Pt13  1  0.366712  0.370003  0.223097  1
  Pt  Pt14  1  0.630087  0.631682  0.777586  1
  Pt  Pt15  1  0.629997  0.633288  0.223097  1
  Pt  Pt16  1  0.872278  0.127722  0.723557  1
  Pt  Pt17  1  0.868048  0.131952  0.277994  1
  Pt  Pt18  1  0.368318  0.369913  0.777586  1
  Pt  Pt19  1  0.130436  0.869564  0.282115  1
