# generated using pymatgen
data_LiCe8(CuSi4)3
_symmetry_space_group_name_H-M   'P 1'
_cell_length_a   8.11412700
_cell_length_b   8.11412752
_cell_length_c   8.37795800
_cell_angle_alpha   90.00000000
_cell_angle_beta   90.00000000
_cell_angle_gamma   119.99999381
_symmetry_Int_Tables_number   1
_chemical_formula_structural   LiCe8(CuSi4)3
_chemical_formula_sum   'Li1 Ce8 Cu3 Si12'
_cell_volume   477.69694867
_cell_formula_units_Z   1
loop_
 _symmetry_equiv_pos_site_id
 _symmetry_equiv_pos_as_xyz
  1  'x, y, z'
loop_
 _atom_site_type_symbol
 _atom_site_label
 _atom_site_symmetry_multiplicity
 _atom_site_fract_x
 _atom_site_fract_y
 _atom_site_fract_z
 _atom_site_occupancy
  Li  Li0  1  0.333333  0.666667  0.999557  1
  Ce  Ce1  1  0.000000  0.000000  0.249964  1
  Ce  Ce2  1  0.000000  0.000000  0.750130  1
  Ce  Ce3  1  0.501036  0.498964  0.249906  1
  Ce  Ce4  1  0.501036  0.002073  0.249906  1
  Ce  Ce5  1  0.997927  0.498964  0.249906  1
  Ce  Ce6  1  0.500416  0.499584  0.750148  1
  Ce  Ce7  1  0.500416  0.000831  0.750148  1
  Ce  Ce8  1  0.999169  0.499584  0.750148  1
  Cu  Cu9  1  0.333333  0.666667  0.499018  1
  Cu  Cu10  1  0.666667  0.333333  0.503034  1
  Cu  Cu11  1  0.666667  0.333333  0.997571  1
  Si  Si12  1  0.168199  0.831801  0.499728  1
  Si  Si13  1  0.168199  0.336399  0.499728  1
  Si  Si14  1  0.663601  0.831801  0.499728  1
  Si  Si15  1  0.831659  0.168341  0.500264  1
  Si  Si16  1  0.831659  0.663318  0.500264  1
  Si  Si17  1  0.336682  0.168341  0.500264  1
  Si  Si18  1  0.831556  0.168444  0.999692  1
  Si  Si19  1  0.831556  0.663111  0.999692  1
  Si  Si20  1  0.336889  0.168444  0.999692  1
  Si  Si21  1  0.166169  0.833831  0.000505  1
  Si  Si22  1  0.166169  0.332338  0.000505  1
  Si  Si23  1  0.667662  0.833831  0.000505  1
