# generated using pymatgen
data_Tb3ZnCdHgPd3
_symmetry_space_group_name_H-M   'P 1'
_cell_length_a   7.61373965
_cell_length_b   7.56877169
_cell_length_c   3.86032600
_cell_angle_alpha   90.00000000
_cell_angle_beta   90.00000000
_cell_angle_gamma   119.46202878
_symmetry_Int_Tables_number   1
_chemical_formula_structural   Tb3ZnCdHgPd3
_chemical_formula_sum   'Tb3 Zn1 Cd1 Hg1 Pd3'
_cell_volume   193.68986565
_cell_formula_units_Z   1
loop_
 _symmetry_equiv_pos_site_id
 _symmetry_equiv_pos_as_xyz
  1  'x, y, z'
loop_
 _atom_site_type_symbol
 _atom_site_label
 _atom_site_symmetry_multiplicity
 _atom_site_fract_x
 _atom_site_fract_y
 _atom_site_fract_z
 _atom_site_occupancy
  Tb  Tb0  1  0.999913  0.395876  0.000000  1
  Tb  Tb1  1  0.591883  0.596661  0.000000  1
  Tb  Tb2  1  0.419452  0.005099  0.000000  1
  Zn  Zn3  1  0.735168  0.996574  0.500000  1
  Cd  Cd4  1  0.004017  0.746306  0.500000  1
  Hg  Hg5  1  0.261912  0.254790  0.500000  1
  Pd  Pd6  1  0.967600  0.995609  0.000000  1
  Pd  Pd7  1  0.342462  0.676792  0.500000  1
  Pd  Pd8  1  0.677595  0.332292  0.500000  1
