# generated using pymatgen
data_Y5Tm3(CdPt)2
_symmetry_space_group_name_H-M   'P 1'
_cell_length_a   9.63382372
_cell_length_b   9.65768481
_cell_length_c   9.65768440
_cell_angle_alpha   59.83660847
_cell_angle_beta   60.08169367
_cell_angle_gamma   60.08169829
_symmetry_Int_Tables_number   1
_chemical_formula_structural   Y5Tm3(CdPt)2
_chemical_formula_sum   'Y10 Tm6 Cd4 Pt4'
_cell_volume   635.36669642
_cell_formula_units_Z   2
loop_
 _symmetry_equiv_pos_site_id
 _symmetry_equiv_pos_as_xyz
  1  'x, y, z'
loop_
 _atom_site_type_symbol
 _atom_site_label
 _atom_site_symmetry_multiplicity
 _atom_site_fract_x
 _atom_site_fract_y
 _atom_site_fract_z
 _atom_site_occupancy
  Y  Y0  1  0.189901  0.810099  0.189901  1
  Y  Y1  1  0.810099  0.189901  0.810099  1
  Y  Y2  1  0.189901  0.189901  0.810099  1
  Y  Y3  1  0.810099  0.810099  0.189901  1
  Y  Y4  1  0.936374  0.563626  0.563626  1
  Y  Y5  1  0.563626  0.936374  0.936374  1
  Y  Y6  1  0.563278  0.936722  0.563278  1
  Y  Y7  1  0.936722  0.563278  0.936722  1
  Y  Y8  1  0.563278  0.563278  0.936722  1
  Y  Y9  1  0.936722  0.936722  0.563278  1
  Tm  Tm10  1  0.352338  0.351828  0.351828  1
  Tm  Tm11  1  0.351828  0.352338  0.944005  1
  Tm  Tm12  1  0.351828  0.944005  0.352338  1
  Tm  Tm13  1  0.944005  0.351828  0.351828  1
  Tm  Tm14  1  0.809585  0.190415  0.190415  1
  Tm  Tm15  1  0.190415  0.809585  0.809585  1
  Cd  Cd16  1  0.581383  0.581582  0.581582  1
  Cd  Cd17  1  0.581582  0.581383  0.255454  1
  Cd  Cd18  1  0.581582  0.255454  0.581383  1
  Cd  Cd19  1  0.255454  0.581582  0.581582  1
  Pt  Pt20  1  0.141463  0.145954  0.145954  1
  Pt  Pt21  1  0.145954  0.141463  0.566629  1
  Pt  Pt22  1  0.145954  0.566629  0.141463  1
  Pt  Pt23  1  0.566629  0.145954  0.145954  1
