# generated using pymatgen
data_SrPr4Nd2OsBr12
_symmetry_space_group_name_H-M   'P 1'
_cell_length_a   9.71703858
_cell_length_b   9.58694659
_cell_length_c   9.59785077
_cell_angle_alpha   106.22457670
_cell_angle_beta   106.24292752
_cell_angle_gamma   106.37585733
_symmetry_Int_Tables_number   1
_chemical_formula_structural   SrPr4Nd2OsBr12
_chemical_formula_sum   'Sr1 Pr4 Nd2 Os1 Br12'
_cell_volume   758.74624071
_cell_formula_units_Z   1
loop_
 _symmetry_equiv_pos_site_id
 _symmetry_equiv_pos_as_xyz
  1  'x, y, z'
loop_
 _atom_site_type_symbol
 _atom_site_label
 _atom_site_symmetry_multiplicity
 _atom_site_fract_x
 _atom_site_fract_y
 _atom_site_fract_z
 _atom_site_occupancy
  Sr  Sr0  1  0.500005  0.500108  0.500220  1
  Pr  Pr1  1  0.101064  0.308644  0.019818  1
  Pr  Pr2  1  0.317848  0.020021  0.106159  1
  Pr  Pr3  1  0.019613  0.101844  0.307848  1
  Pr  Pr4  1  0.980060  0.897434  0.691801  1
  Nd  Nd5  1  0.683606  0.979625  0.894264  1
  Nd  Nd6  1  0.898357  0.692541  0.979670  1
  Os  Os7  1  0.999526  0.999542  0.999672  1
  Br  Br8  1  0.215752  0.680070  0.070600  1
  Br  Br9  1  0.447942  0.367370  0.151080  1
  Br  Br10  1  0.681149  0.071350  0.217548  1
  Br  Br11  1  0.927908  0.779434  0.317115  1
  Br  Br12  1  0.153443  0.450251  0.368293  1
  Br  Br13  1  0.366129  0.151265  0.449268  1
  Br  Br14  1  0.633741  0.849712  0.552758  1
  Br  Br15  1  0.846829  0.549949  0.633621  1
  Br  Br16  1  0.071745  0.219399  0.680738  1
  Br  Br17  1  0.319916  0.928426  0.780765  1
  Br  Br18  1  0.554280  0.634518  0.850187  1
  Br  Br19  1  0.781086  0.318499  0.928575  1
