# generated using pymatgen
data_ErTm5NpO12
_symmetry_space_group_name_H-M   'P 1'
_cell_length_a   6.47574707
_cell_length_b   6.47204330
_cell_length_c   6.46624920
_cell_angle_alpha   98.97563752
_cell_angle_beta   99.00471090
_cell_angle_gamma   98.95458184
_symmetry_Int_Tables_number   1
_chemical_formula_structural   ErTm5NpO12
_chemical_formula_sum   'Er1 Tm5 Np1 O12'
_cell_volume   259.84851015
_cell_formula_units_Z   1
loop_
 _symmetry_equiv_pos_site_id
 _symmetry_equiv_pos_as_xyz
  1  'x, y, z'
loop_
 _atom_site_type_symbol
 _atom_site_label
 _atom_site_symmetry_multiplicity
 _atom_site_fract_x
 _atom_site_fract_y
 _atom_site_fract_z
 _atom_site_occupancy
  Er  Er0  1  0.854991  0.389709  0.677548  1
  Tm  Tm1  1  0.609692  0.323937  0.145716  1
  Tm  Tm2  1  0.323624  0.145537  0.610076  1
  Tm  Tm3  1  0.675634  0.854058  0.389591  1
  Tm  Tm4  1  0.390070  0.676639  0.854381  1
  Tm  Tm5  1  0.145474  0.610484  0.323077  1
  Np  Np6  1  0.000292  0.000157  0.000442  1
  O  O7  1  0.918050  0.045183  0.689387  1
  O  O8  1  0.952315  0.310683  0.081075  1
  O  O9  1  0.586457  0.177177  0.425924  1
  O  O10  1  0.822215  0.573649  0.411120  1
  O  O11  1  0.310485  0.082331  0.953056  1
  O  O12  1  0.572102  0.412430  0.822646  1
  O  O13  1  0.426408  0.587610  0.177962  1
  O  O14  1  0.689883  0.917404  0.046959  1
  O  O15  1  0.178850  0.426958  0.586739  1
  O  O16  1  0.412461  0.822340  0.573381  1
  O  O17  1  0.048715  0.690086  0.919806  1
  O  O18  1  0.082282  0.953627  0.311116  1
