# generated using pymatgen
data_HoEr4Cd2(InPd)2
_symmetry_space_group_name_H-M   'P 1'
_cell_length_a   3.60994200
_cell_length_b   8.01452500
_cell_length_c   18.28783000
_cell_angle_alpha   90.00000000
_cell_angle_beta   90.00000000
_cell_angle_gamma   90.00000000
_symmetry_Int_Tables_number   1
_chemical_formula_structural   HoEr4Cd2(InPd)2
_chemical_formula_sum   'Ho2 Er8 Cd4 In4 Pd4'
_cell_volume   529.10295638
_cell_formula_units_Z   2
loop_
 _symmetry_equiv_pos_site_id
 _symmetry_equiv_pos_as_xyz
  1  'x, y, z'
loop_
 _atom_site_type_symbol
 _atom_site_label
 _atom_site_symmetry_multiplicity
 _atom_site_fract_x
 _atom_site_fract_y
 _atom_site_fract_z
 _atom_site_occupancy
  Ho  Ho0  1  0.000000  0.500000  0.500000  1
  Ho  Ho1  1  0.000000  0.000000  0.000000  1
  Er  Er2  1  0.000000  0.745014  0.279999  1
  Er  Er3  1  0.000000  0.254986  0.720001  1
  Er  Er4  1  0.000000  0.754986  0.779999  1
  Er  Er5  1  0.000000  0.245014  0.220001  1
  Er  Er6  1  0.000000  0.615290  0.084268  1
  Er  Er7  1  0.000000  0.384710  0.915732  1
  Er  Er8  1  0.000000  0.884710  0.584268  1
  Er  Er9  1  0.000000  0.115290  0.415732  1
  Cd  Cd10  1  0.500000  0.710781  0.931619  1
  Cd  Cd11  1  0.500000  0.289219  0.068381  1
  Cd  Cd12  1  0.500000  0.789219  0.431619  1
  Cd  Cd13  1  0.500000  0.210781  0.568381  1
  In  In14  1  0.500000  0.572370  0.647435  1
  In  In15  1  0.500000  0.427630  0.352565  1
  In  In16  1  0.500000  0.927630  0.147435  1
  In  In17  1  0.500000  0.072370  0.852565  1
  Pd  Pd18  1  0.500000  0.527414  0.196553  1
  Pd  Pd19  1  0.500000  0.472586  0.803447  1
  Pd  Pd20  1  0.500000  0.972586  0.696553  1
  Pd  Pd21  1  0.500000  0.027414  0.303447  1
