# generated using pymatgen
data_Sc6AsSe2
_symmetry_space_group_name_H-M   'P 1'
_cell_length_a   3.81185300
_cell_length_b   10.30285500
_cell_length_c   19.05538300
_cell_angle_alpha   90.00000000
_cell_angle_beta   90.00000000
_cell_angle_gamma   90.00000000
_symmetry_Int_Tables_number   1
_chemical_formula_structural   Sc6AsSe2
_chemical_formula_sum   'Sc24 As4 Se8'
_cell_volume   748.36146089
_cell_formula_units_Z   4
loop_
 _symmetry_equiv_pos_site_id
 _symmetry_equiv_pos_as_xyz
  1  'x, y, z'
loop_
 _atom_site_type_symbol
 _atom_site_label
 _atom_site_symmetry_multiplicity
 _atom_site_fract_x
 _atom_site_fract_y
 _atom_site_fract_z
 _atom_site_occupancy
  Sc  Sc0  1  0.250000  0.389275  0.991814  1
  Sc  Sc1  1  0.750000  0.610725  0.008186  1
  Sc  Sc2  1  0.750000  0.889275  0.508186  1
  Sc  Sc3  1  0.250000  0.110725  0.491814  1
  Sc  Sc4  1  0.250000  0.925064  0.644230  1
  Sc  Sc5  1  0.750000  0.074936  0.355770  1
  Sc  Sc6  1  0.750000  0.425064  0.855770  1
  Sc  Sc7  1  0.250000  0.574936  0.144230  1
  Sc  Sc8  1  0.250000  0.877168  0.029738  1
  Sc  Sc9  1  0.750000  0.122832  0.970262  1
  Sc  Sc10  1  0.750000  0.377168  0.470262  1
  Sc  Sc11  1  0.250000  0.622832  0.529738  1
  Sc  Sc12  1  0.250000  0.832421  0.389685  1
  Sc  Sc13  1  0.750000  0.167579  0.610315  1
  Sc  Sc14  1  0.750000  0.332421  0.110315  1
  Sc  Sc15  1  0.250000  0.667579  0.889685  1
  Sc  Sc16  1  0.250000  0.527218  0.340137  1
  Sc  Sc17  1  0.750000  0.472782  0.659863  1
  Sc  Sc18  1  0.750000  0.027218  0.159863  1
  Sc  Sc19  1  0.250000  0.972782  0.840137  1
  Sc  Sc20  1  0.250000  0.252125  0.232833  1
  Sc  Sc21  1  0.750000  0.747875  0.767167  1
  Sc  Sc22  1  0.750000  0.752125  0.267167  1
  Sc  Sc23  1  0.250000  0.247875  0.732833  1
  As  As24  1  0.250000  0.140666  0.076270  1
  As  As25  1  0.750000  0.859334  0.923730  1
  As  As26  1  0.750000  0.640666  0.423730  1
  As  As27  1  0.250000  0.359334  0.576270  1
  Se  Se28  1  0.250000  0.226016  0.876746  1
  Se  Se29  1  0.750000  0.773984  0.123254  1
  Se  Se30  1  0.750000  0.726016  0.623254  1
  Se  Se31  1  0.250000  0.273984  0.376746  1
  Se  Se32  1  0.250000  0.533438  0.762779  1
  Se  Se33  1  0.750000  0.466562  0.237221  1
  Se  Se34  1  0.750000  0.033438  0.737221  1
  Se  Se35  1  0.250000  0.966562  0.262779  1
