# generated using pymatgen
data_La8Y12Ga9Si7
_symmetry_space_group_name_H-M   'P 1'
_cell_length_a   7.59994718
_cell_length_b   7.98079164
_cell_length_c   15.27953400
_cell_angle_alpha   90.02124328
_cell_angle_beta   89.98750793
_cell_angle_gamma   90.05046013
_symmetry_Int_Tables_number   1
_chemical_formula_structural   La8Y12Ga9Si7
_chemical_formula_sum   'La8 Y12 Ga9 Si7'
_cell_volume   926.75822114
_cell_formula_units_Z   1
loop_
 _symmetry_equiv_pos_site_id
 _symmetry_equiv_pos_as_xyz
  1  'x, y, z'
loop_
 _atom_site_type_symbol
 _atom_site_label
 _atom_site_symmetry_multiplicity
 _atom_site_fract_x
 _atom_site_fract_y
 _atom_site_fract_z
 _atom_site_occupancy
  La  La0  1  0.979388  0.824069  0.096054  1
  La  La1  1  0.479537  0.677633  0.404166  1
  La  La2  1  0.520574  0.323311  0.903562  1
  La  La3  1  0.020422  0.177685  0.595842  1
  La  La4  1  0.023168  0.174189  0.903305  1
  La  La5  1  0.523922  0.324742  0.596220  1
  La  La6  1  0.478393  0.676889  0.096724  1
  La  La7  1  0.976059  0.824968  0.403653  1
  Y  Y8  1  0.654627  0.992356  0.250998  1
  Y  Y9  1  0.154307  0.506732  0.249295  1
  Y  Y10  1  0.845185  0.492885  0.749487  1
  Y  Y11  1  0.346086  0.007108  0.751608  1
  Y  Y12  1  0.679528  0.823016  0.876635  1
  Y  Y13  1  0.180238  0.677261  0.622875  1
  Y  Y14  1  0.818668  0.323983  0.123142  1
  Y  Y15  1  0.319667  0.176725  0.377041  1
  Y  Y16  1  0.318367  0.175515  0.122724  1
  Y  Y17  1  0.816940  0.321611  0.378371  1
  Y  Y18  1  0.182045  0.677560  0.877548  1
  Y  Y19  1  0.682797  0.821935  0.621574  1
  Ga  Ga20  1  0.766062  0.618604  0.250623  1
  Ga  Ga21  1  0.265387  0.881487  0.250680  1
  Ga  Ga22  1  0.734116  0.118242  0.749537  1
  Ga  Ga23  1  0.234318  0.381186  0.749223  1
  Ga  Ga24  1  0.850618  0.533696  0.958565  1
  Ga  Ga25  1  0.352279  0.966706  0.540462  1
  Ga  Ga26  1  0.647404  0.032895  0.039837  1
  Ga  Ga27  1  0.147396  0.466848  0.459456  1
  Ga  Ga28  1  0.149112  0.466361  0.040440  1
  Si  Si29  1  0.023804  0.118153  0.250323  1
  Si  Si30  1  0.524498  0.382110  0.251753  1
  Si  Si31  1  0.474997  0.618222  0.749674  1
  Si  Si32  1  0.975579  0.882264  0.748632  1
  Si  Si33  1  0.645395  0.032980  0.460279  1
  Si  Si34  1  0.354609  0.966720  0.959857  1
  Si  Si35  1  0.854511  0.533355  0.539831  1
