# generated using pymatgen
data_Th6Al24Co3Tc5
_symmetry_space_group_name_H-M   'P 1'
_cell_length_a   9.06078732
_cell_length_b   9.07229911
_cell_length_c   9.61908400
_cell_angle_alpha   90.00946057
_cell_angle_beta   89.91352627
_cell_angle_gamma   119.86723126
_symmetry_Int_Tables_number   1
_chemical_formula_structural   Th6Al24Co3Tc5
_chemical_formula_sum   'Th6 Al24 Co3 Tc5'
_cell_volume   685.68796427
_cell_formula_units_Z   1
loop_
 _symmetry_equiv_pos_site_id
 _symmetry_equiv_pos_as_xyz
  1  'x, y, z'
loop_
 _atom_site_type_symbol
 _atom_site_label
 _atom_site_symmetry_multiplicity
 _atom_site_fract_x
 _atom_site_fract_y
 _atom_site_fract_z
 _atom_site_occupancy
  Th  Th0  1  0.799464  0.191588  0.746483  1
  Th  Th1  1  0.200536  0.808412  0.253517  1
  Th  Th2  1  0.389865  0.184893  0.751992  1
  Th  Th3  1  0.610135  0.815107  0.248008  1
  Th  Th4  1  0.811258  0.613175  0.748102  1
  Th  Th5  1  0.188742  0.386825  0.251898  1
  Al  Al6  1  0.669937  0.339406  0.990589  1
  Al  Al7  1  0.330063  0.660594  0.009411  1
  Al  Al8  1  0.336537  0.661896  0.492833  1
  Al  Al9  1  0.663463  0.338104  0.507167  1
  Al  Al10  1  0.837944  0.165113  0.421062  1
  Al  Al11  1  0.162056  0.834887  0.578938  1
  Al  Al12  1  0.326915  0.167307  0.423317  1
  Al  Al13  1  0.162365  0.833273  0.925004  1
  Al  Al14  1  0.673085  0.832693  0.576683  1
  Al  Al15  1  0.837635  0.166727  0.074996  1
  Al  Al16  1  0.835526  0.675200  0.421389  1
  Al  Al17  1  0.673890  0.833695  0.921349  1
  Al  Al18  1  0.164474  0.324800  0.578611  1
  Al  Al19  1  0.326110  0.166305  0.078651  1
  Al  Al20  1  0.164752  0.325371  0.923368  1
  Al  Al21  1  0.835248  0.674629  0.076632  1
  Al  Al22  1  0.440041  0.556559  0.751851  1
  Al  Al23  1  0.559959  0.443441  0.248149  1
  Al  Al24  1  0.123407  0.558285  0.755516  1
  Al  Al25  1  0.876593  0.441715  0.244484  1
  Al  Al26  1  0.435389  0.866038  0.751192  1
  Al  Al27  1  0.564611  0.133962  0.248808  1
  Al  Al28  1  0.999626  0.000185  0.750179  1
  Al  Al29  1  0.000374  0.999815  0.249821  1
  Co  Co30  1  0.500000  0.500000  0.000000  1
  Co  Co31  1  0.000000  0.500000  0.000000  1
  Co  Co32  1  0.500000  0.500000  0.500000  1
  Tc  Tc33  1  0.500000  0.000000  0.000000  1
  Tc  Tc34  1  0.000000  0.500000  0.500000  1
  Tc  Tc35  1  0.500000  0.000000  0.500000  1
  Tc  Tc36  1  0.000000  0.000000  0.000000  1
  Tc  Tc37  1  0.000000  0.000000  0.500000  1
