# generated using pymatgen
data_Dy4GeB4Ir9
_symmetry_space_group_name_H-M   'P 1'
_cell_length_a   10.77931165
_cell_length_b   10.77931097
_cell_length_c   10.77931219
_cell_angle_alpha   29.71240604
_cell_angle_beta   29.71241145
_cell_angle_gamma   29.71241726
_symmetry_Int_Tables_number   1
_chemical_formula_structural   Dy4GeB4Ir9
_chemical_formula_sum   'Dy4 Ge1 B4 Ir9'
_cell_volume   272.43333451
_cell_formula_units_Z   1
loop_
 _symmetry_equiv_pos_site_id
 _symmetry_equiv_pos_as_xyz
  1  'x, y, z'
loop_
 _atom_site_type_symbol
 _atom_site_label
 _atom_site_symmetry_multiplicity
 _atom_site_fract_x
 _atom_site_fract_y
 _atom_site_fract_z
 _atom_site_occupancy
  Dy  Dy0  1  0.149918  0.149918  0.149918  1
  Dy  Dy1  1  0.950262  0.950262  0.950262  1
  Dy  Dy2  1  0.850082  0.850082  0.850082  1
  Dy  Dy3  1  0.049738  0.049738  0.049738  1
  Ge  Ge4  1  0.500000  0.500000  0.500000  1
  B  B5  1  0.616032  0.616032  0.616032  1
  B  B6  1  0.717958  0.717958  0.717958  1
  B  B7  1  0.383968  0.383968  0.383968  1
  B  B8  1  0.282042  0.282042  0.282042  1
  Ir  Ir9  1  0.402521  0.901323  0.402521  1
  Ir  Ir10  1  0.901323  0.402521  0.402521  1
  Ir  Ir11  1  0.500000  0.500000  0.000000  1
  Ir  Ir12  1  0.500000  0.000000  0.500000  1
  Ir  Ir13  1  0.000000  0.500000  0.500000  1
  Ir  Ir14  1  0.597479  0.098677  0.597479  1
  Ir  Ir15  1  0.597479  0.597479  0.098677  1
  Ir  Ir16  1  0.098677  0.597479  0.597479  1
  Ir  Ir17  1  0.402521  0.402521  0.901323  1
