# generated using pymatgen
data_Zr6Ti4Al12Ir5Ru2
_symmetry_space_group_name_H-M   'P 1'
_cell_length_a   8.79255391
_cell_length_b   8.79255409
_cell_length_c   8.79045200
_cell_angle_alpha   60.00790827
_cell_angle_beta   60.00790757
_cell_angle_gamma   59.96113528
_symmetry_Int_Tables_number   1
_chemical_formula_structural   Zr6Ti4Al12Ir5Ru2
_chemical_formula_sum   'Zr6 Ti4 Al12 Ir5 Ru2'
_cell_volume   480.45248473
_cell_formula_units_Z   1
loop_
 _symmetry_equiv_pos_site_id
 _symmetry_equiv_pos_as_xyz
  1  'x, y, z'
loop_
 _atom_site_type_symbol
 _atom_site_label
 _atom_site_symmetry_multiplicity
 _atom_site_fract_x
 _atom_site_fract_y
 _atom_site_fract_z
 _atom_site_occupancy
  Zr  Zr0  1  0.695103  0.695103  0.304897  1
  Zr  Zr1  1  0.306924  0.693003  0.307305  1
  Zr  Zr2  1  0.693003  0.306924  0.307305  1
  Zr  Zr3  1  0.305469  0.305469  0.694531  1
  Zr  Zr4  1  0.693003  0.306924  0.692768  1
  Zr  Zr5  1  0.306924  0.693003  0.692768  1
  Ti  Ti6  1  0.881439  0.881439  0.359066  1
  Ti  Ti7  1  0.880589  0.358174  0.880618  1
  Ti  Ti8  1  0.358174  0.880589  0.880618  1
  Ti  Ti9  1  0.881439  0.881439  0.878057  1
  Al  Al10  1  0.118630  0.118630  0.642333  1
  Al  Al11  1  0.118655  0.642833  0.119255  1
  Al  Al12  1  0.642833  0.118655  0.119255  1
  Al  Al13  1  0.118630  0.118630  0.120408  1
  Al  Al14  1  0.663399  0.663399  0.010139  1
  Al  Al15  1  0.664895  0.008553  0.663276  1
  Al  Al16  1  0.008553  0.664895  0.663276  1
  Al  Al17  1  0.663399  0.663399  0.663063  1
  Al  Al18  1  0.335601  0.335601  0.993075  1
  Al  Al19  1  0.334123  0.994319  0.335781  1
  Al  Al20  1  0.994319  0.334123  0.335781  1
  Al  Al21  1  0.335601  0.335601  0.335726  1
  Ir  Ir22  1  0.501120  0.998485  0.501798  1
  Ir  Ir23  1  0.998485  0.501120  0.501798  1
  Ir  Ir24  1  0.501512  0.501512  0.998488  1
  Ir  Ir25  1  0.998485  0.501120  0.998596  1
  Ir  Ir26  1  0.501120  0.998485  0.998596  1
  Ru  Ru27  1  0.000298  0.000298  0.999702  1
  Ru  Ru28  1  0.998275  0.998275  0.501725  1
