# generated using pymatgen
data_CeSm6(P3Rh5)4
_symmetry_space_group_name_H-M   'P 1'
_cell_length_a   13.58072600
_cell_length_b   13.58072488
_cell_length_c   3.97739300
_cell_angle_alpha   90.00000000
_cell_angle_beta   90.00000000
_cell_angle_gamma   119.99999786
_symmetry_Int_Tables_number   1
_chemical_formula_structural   CeSm6(P3Rh5)4
_chemical_formula_sum   'Ce1 Sm6 P12 Rh20'
_cell_volume   635.29448394
_cell_formula_units_Z   1
loop_
 _symmetry_equiv_pos_site_id
 _symmetry_equiv_pos_as_xyz
  1  'x, y, z'
loop_
 _atom_site_type_symbol
 _atom_site_label
 _atom_site_symmetry_multiplicity
 _atom_site_fract_x
 _atom_site_fract_y
 _atom_site_fract_z
 _atom_site_occupancy
  Ce  Ce0  1  0.000000  0.000000  0.000000  1
  Sm  Sm1  1  0.527618  0.715622  0.258246  1
  Sm  Sm2  1  0.284378  0.811996  0.258246  1
  Sm  Sm3  1  0.188004  0.472382  0.258246  1
  Sm  Sm4  1  0.472382  0.284378  0.741754  1
  Sm  Sm5  1  0.715622  0.188004  0.741754  1
  Sm  Sm6  1  0.811996  0.527618  0.741754  1
  P  P7  1  0.524946  0.137032  0.246803  1
  P  P8  1  0.862968  0.387913  0.246803  1
  P  P9  1  0.612087  0.475054  0.246803  1
  P  P10  1  0.949386  0.717917  0.235664  1
  P  P11  1  0.282083  0.231469  0.235664  1
  P  P12  1  0.768531  0.050614  0.235664  1
  P  P13  1  0.387913  0.524946  0.753197  1
  P  P14  1  0.475054  0.862968  0.753197  1
  P  P15  1  0.137032  0.612087  0.753197  1
  P  P16  1  0.717917  0.768531  0.764336  1
  P  P17  1  0.231469  0.949386  0.764336  1
  P  P18  1  0.050614  0.282083  0.764336  1
  Rh  Rh19  1  0.333333  0.666667  0.749051  1
  Rh  Rh20  1  0.921425  0.254217  0.229123  1
  Rh  Rh21  1  0.745783  0.667208  0.229123  1
  Rh  Rh22  1  0.332792  0.078575  0.229123  1
  Rh  Rh23  1  0.443147  0.025517  0.743789  1
  Rh  Rh24  1  0.974483  0.417629  0.743789  1
  Rh  Rh25  1  0.582371  0.556853  0.743789  1
  Rh  Rh26  1  0.666667  0.333333  0.250949  1
  Rh  Rh27  1  0.100111  0.211221  0.279907  1
  Rh  Rh28  1  0.788779  0.888890  0.279907  1
  Rh  Rh29  1  0.111110  0.899889  0.279907  1
  Rh  Rh30  1  0.025517  0.582371  0.256211  1
  Rh  Rh31  1  0.417629  0.443147  0.256211  1
  Rh  Rh32  1  0.556853  0.974483  0.256211  1
  Rh  Rh33  1  0.667208  0.921425  0.770877  1
  Rh  Rh34  1  0.078575  0.745783  0.770877  1
  Rh  Rh35  1  0.254217  0.332792  0.770877  1
  Rh  Rh36  1  0.899889  0.788779  0.720093  1
  Rh  Rh37  1  0.211221  0.111110  0.720093  1
  Rh  Rh38  1  0.888890  0.100111  0.720093  1
