# generated using pymatgen
data_Nd3Ho(B4W)4
_symmetry_space_group_name_H-M   'P 1'
_cell_length_a   3.68188300
_cell_length_b   6.10642946
_cell_length_c   11.80959059
_cell_angle_alpha   90.13838551
_cell_angle_beta   90.00000000
_cell_angle_gamma   90.00000000
_symmetry_Int_Tables_number   1
_chemical_formula_structural   Nd3Ho(B4W)4
_chemical_formula_sum   'Nd3 Ho1 B16 W4'
_cell_volume   265.51612654
_cell_formula_units_Z   1
loop_
 _symmetry_equiv_pos_site_id
 _symmetry_equiv_pos_as_xyz
  1  'x, y, z'
loop_
 _atom_site_type_symbol
 _atom_site_label
 _atom_site_symmetry_multiplicity
 _atom_site_fract_x
 _atom_site_fract_y
 _atom_site_fract_z
 _atom_site_occupancy
  Nd  Nd0  1  0.000000  0.125633  0.150305  1
  Nd  Nd1  1  0.000000  0.874323  0.848960  1
  Nd  Nd2  1  0.000000  0.625602  0.350307  1
  Ho  Ho3  1  0.000000  0.374247  0.649456  1
  B  B4  1  0.500000  0.475833  0.190772  1
  B  B5  1  0.500000  0.522078  0.805921  1
  B  B6  1  0.500000  0.976023  0.310049  1
  B  B7  1  0.500000  0.026703  0.691483  1
  B  B8  1  0.500000  0.282701  0.316212  1
  B  B9  1  0.500000  0.713072  0.684719  1
  B  B10  1  0.500000  0.782569  0.184985  1
  B  B11  1  0.500000  0.217644  0.812353  1
  B  B12  1  0.500000  0.364370  0.470437  1
  B  B13  1  0.500000  0.635101  0.534034  1
  B  B14  1  0.500000  0.863137  0.031456  1
  B  B15  1  0.500000  0.137060  0.966519  1
  B  B16  1  0.500000  0.387862  0.045204  1
  B  B17  1  0.500000  0.611191  0.952534  1
  B  B18  1  0.500000  0.888973  0.455509  1
  B  B19  1  0.500000  0.115155  0.548500  1
  W  W20  1  0.000000  0.130127  0.418156  1
  W  W21  1  0.000000  0.871157  0.584795  1
  W  W22  1  0.000000  0.628781  0.082844  1
  W  W23  1  0.000000  0.370661  0.914493  1
