# generated using pymatgen
data_Nb3(Fe2Os)2
_symmetry_space_group_name_H-M   'P 1'
_cell_length_a   8.53144671
_cell_length_b   8.47835007
_cell_length_c   8.06146300
_cell_angle_alpha   90.00000000
_cell_angle_beta   90.00000000
_cell_angle_gamma   119.34711417
_symmetry_Int_Tables_number   1
_chemical_formula_structural   Nb3(Fe2Os)2
_chemical_formula_sum   'Nb12 Fe16 Os8'
_cell_volume   508.27444763
_cell_formula_units_Z   4
loop_
 _symmetry_equiv_pos_site_id
 _symmetry_equiv_pos_as_xyz
  1  'x, y, z'
loop_
 _atom_site_type_symbol
 _atom_site_label
 _atom_site_symmetry_multiplicity
 _atom_site_fract_x
 _atom_site_fract_y
 _atom_site_fract_z
 _atom_site_occupancy
  Nb  Nb0  1  0.331867  0.996969  0.066213  1
  Nb  Nb1  1  0.668133  0.003031  0.933787  1
  Nb  Nb2  1  0.001999  0.333922  0.066863  1
  Nb  Nb3  1  0.668133  0.003031  0.566213  1
  Nb  Nb4  1  0.001999  0.333922  0.433137  1
  Nb  Nb5  1  0.998001  0.666078  0.933137  1
  Nb  Nb6  1  0.331867  0.996969  0.433787  1
  Nb  Nb7  1  0.998001  0.666078  0.566863  1
  Nb  Nb8  1  0.665501  0.666578  0.065302  1
  Nb  Nb9  1  0.334499  0.333422  0.934698  1
  Nb  Nb10  1  0.334499  0.333422  0.565302  1
  Nb  Nb11  1  0.665501  0.666578  0.434698  1
  Fe  Fe12  1  0.330113  0.840206  0.750000  1
  Fe  Fe13  1  0.678424  0.509863  0.750000  1
  Fe  Fe14  1  0.669887  0.159794  0.250000  1
  Fe  Fe15  1  0.321576  0.490137  0.250000  1
  Fe  Fe16  1  0.833331  0.327754  0.750000  1
  Fe  Fe17  1  0.166669  0.672246  0.250000  1
  Fe  Fe18  1  0.330158  0.666161  0.498563  1
  Fe  Fe19  1  0.669842  0.333839  0.501437  1
  Fe  Fe20  1  0.669842  0.333839  0.998563  1
  Fe  Fe21  1  0.330158  0.666161  0.001437  1
  Fe  Fe22  1  0.168723  0.999335  0.750000  1
  Fe  Fe23  1  0.831277  0.000665  0.250000  1
  Fe  Fe24  1  0.994301  0.167473  0.750000  1
  Fe  Fe25  1  0.005699  0.832527  0.250000  1
  Fe  Fe26  1  0.834714  0.828266  0.750000  1
  Fe  Fe27  1  0.165286  0.171734  0.250000  1
  Os  Os28  1  0.000000  0.000000  0.500000  1
  Os  Os29  1  0.000000  0.000000  0.000000  1
  Os  Os30  1  0.156222  0.494248  0.750000  1
  Os  Os31  1  0.843778  0.505752  0.250000  1
  Os  Os32  1  0.510653  0.672113  0.750000  1
  Os  Os33  1  0.494256  0.166576  0.750000  1
  Os  Os34  1  0.489347  0.327887  0.250000  1
  Os  Os35  1  0.505744  0.833424  0.250000  1
