# generated using pymatgen
data_Sc2Tc2B4IrRu2
_symmetry_space_group_name_H-M   'P 1'
_cell_length_a   3.04128100
_cell_length_b   8.58258820
_cell_length_c   10.01804728
_cell_angle_alpha   90.41046828
_cell_angle_beta   90.00000000
_cell_angle_gamma   90.00000000
_symmetry_Int_Tables_number   1
_chemical_formula_structural   Sc2Tc2B4IrRu2
_chemical_formula_sum   'Sc4 Tc4 B8 Ir2 Ru4'
_cell_volume   261.48498526
_cell_formula_units_Z   2
loop_
 _symmetry_equiv_pos_site_id
 _symmetry_equiv_pos_as_xyz
  1  'x, y, z'
loop_
 _atom_site_type_symbol
 _atom_site_label
 _atom_site_symmetry_multiplicity
 _atom_site_fract_x
 _atom_site_fract_y
 _atom_site_fract_z
 _atom_site_occupancy
  Sc  Sc0  1  0.500000  0.838232  0.187169  1
  Sc  Sc1  1  0.500000  0.156265  0.815017  1
  Sc  Sc2  1  0.500000  0.663713  0.677765  1
  Sc  Sc3  1  0.500000  0.341316  0.318338  1
  Tc  Tc4  1  0.000000  0.660417  0.953169  1
  Tc  Tc5  1  0.000000  0.338426  0.044793  1
  Tc  Tc6  1  0.000000  0.840309  0.453825  1
  Tc  Tc7  1  0.000000  0.160937  0.548281  1
  B  B8  1  0.500000  0.965478  0.586928  1
  B  B9  1  0.500000  0.034290  0.413096  1
  B  B10  1  0.500000  0.845803  0.897258  1
  B  B11  1  0.500000  0.153471  0.103275  1
  B  B12  1  0.500000  0.651379  0.400656  1
  B  B13  1  0.500000  0.349100  0.594388  1
  B  B14  1  0.500000  0.466331  0.914121  1
  B  B15  1  0.500000  0.534105  0.088539  1
  Ir  Ir16  1  0.000000  0.999201  0.000739  1
  Ir  Ir17  1  0.000000  0.406816  0.761071  1
  Ru  Ru18  1  0.000000  0.593145  0.239868  1
  Ru  Ru19  1  0.000000  0.500676  0.500914  1
  Ru  Ru20  1  0.000000  0.906541  0.739966  1
  Ru  Ru21  1  0.000000  0.094050  0.260825  1
