# generated using pymatgen
data_Th3Mg3TcPt2
_symmetry_space_group_name_H-M   'P 1'
_cell_length_a   7.50288300
_cell_length_b   7.50288264
_cell_length_c   4.14431700
_cell_angle_alpha   90.00000000
_cell_angle_beta   90.00000000
_cell_angle_gamma   120.00001481
_symmetry_Int_Tables_number   1
_chemical_formula_structural   Th3Mg3TcPt2
_chemical_formula_sum   'Th3 Mg3 Tc1 Pt2'
_cell_volume   202.04116391
_cell_formula_units_Z   1
loop_
 _symmetry_equiv_pos_site_id
 _symmetry_equiv_pos_as_xyz
  1  'x, y, z'
loop_
 _atom_site_type_symbol
 _atom_site_label
 _atom_site_symmetry_multiplicity
 _atom_site_fract_x
 _atom_site_fract_y
 _atom_site_fract_z
 _atom_site_occupancy
  Th  Th0  1  0.425026  0.411986  0.500000  1
  Th  Th1  1  0.588014  0.013040  0.500000  1
  Th  Th2  1  0.986960  0.574974  0.500000  1
  Mg  Mg3  1  0.761016  0.763846  0.000000  1
  Mg  Mg4  1  0.236154  0.997169  0.000000  1
  Mg  Mg5  1  0.002831  0.238984  0.000000  1
  Tc  Tc6  1  0.666667  0.333333  0.000000  1
  Pt  Pt7  1  0.333333  0.666667  0.000000  1
  Pt  Pt8  1  0.000000  0.000000  0.500000  1
