# generated using pymatgen
data_Lu12Fe3CuHg
_symmetry_space_group_name_H-M   'P 1'
_cell_length_a   8.05738477
_cell_length_b   8.05738289
_cell_length_c   8.05738473
_cell_angle_alpha   107.58955727
_cell_angle_beta   109.84251690
_cell_angle_gamma   110.99999013
_symmetry_Int_Tables_number   1
_chemical_formula_structural   Lu12Fe3CuHg
_chemical_formula_sum   'Lu12 Fe3 Cu1 Hg1'
_cell_volume   402.31331596
_cell_formula_units_Z   1
loop_
 _symmetry_equiv_pos_site_id
 _symmetry_equiv_pos_as_xyz
  1  'x, y, z'
loop_
 _atom_site_type_symbol
 _atom_site_label
 _atom_site_symmetry_multiplicity
 _atom_site_fract_x
 _atom_site_fract_y
 _atom_site_fract_z
 _atom_site_occupancy
  Lu  Lu0  1  0.309762  0.309545  0.619307  1
  Lu  Lu1  1  0.690238  0.690455  0.380693  1
  Lu  Lu2  1  0.690238  0.309545  0.999782  1
  Lu  Lu3  1  0.309762  0.690455  0.000218  1
  Lu  Lu4  1  0.186868  0.415190  0.228321  1
  Lu  Lu5  1  0.813132  0.584810  0.771679  1
  Lu  Lu6  1  0.186868  0.958546  0.771679  1
  Lu  Lu7  1  0.932429  0.190018  0.742412  1
  Lu  Lu8  1  0.813132  0.041454  0.228321  1
  Lu  Lu9  1  0.067571  0.809982  0.257588  1
  Lu  Lu10  1  0.447606  0.190018  0.257588  1
  Lu  Lu11  1  0.552394  0.809982  0.742412  1
  Fe  Fe12  1  0.379556  0.379556  0.000000  1
  Fe  Fe13  1  0.620444  0.620444  0.000000  1
  Fe  Fe14  1  0.000000  0.000000  0.000000  1
  Cu  Cu15  1  0.500000  0.000000  0.500000  1
  Hg  Hg16  1  0.000000  0.500000  0.500000  1
