# generated using pymatgen
data_Pr5NbPdO12
_symmetry_space_group_name_H-M   'P 1'
_cell_length_a   7.15314610
_cell_length_b   7.15314568
_cell_length_c   7.76053101
_cell_angle_alpha   74.25251805
_cell_angle_beta   74.25252137
_cell_angle_gamma   50.46237571
_symmetry_Int_Tables_number   1
_chemical_formula_structural   Pr5NbPdO12
_chemical_formula_sum   'Pr5 Nb1 Pd1 O12'
_cell_volume   292.12855450
_cell_formula_units_Z   1
loop_
 _symmetry_equiv_pos_site_id
 _symmetry_equiv_pos_as_xyz
  1  'x, y, z'
loop_
 _atom_site_type_symbol
 _atom_site_label
 _atom_site_symmetry_multiplicity
 _atom_site_fract_x
 _atom_site_fract_y
 _atom_site_fract_z
 _atom_site_occupancy
  Pr  Pr0  1  0.314077  0.294654  0.358079  1
  Pr  Pr1  1  0.705346  0.685923  0.641921  1
  Pr  Pr2  1  0.700546  0.685751  0.166159  1
  Pr  Pr3  1  0.314249  0.299454  0.833841  1
  Pr  Pr4  1  0.999041  0.000959  0.500000  1
  Nb  Nb5  1  0.213915  0.786085  0.000000  1
  Pd  Pd6  1  0.744964  0.255036  0.000000  1
  O  O7  1  0.102209  0.594362  0.575238  1
  O  O8  1  0.996667  0.002440  0.185369  1
  O  O9  1  0.405638  0.897791  0.424762  1
  O  O10  1  0.496858  0.503923  0.173283  1
  O  O11  1  0.104523  0.578819  0.079482  1
  O  O12  1  0.910352  0.401668  0.422107  1
  O  O13  1  0.997560  0.003333  0.814631  1
  O  O14  1  0.598332  0.089647  0.577893  1
  O  O15  1  0.496077  0.503142  0.826717  1
  O  O16  1  0.574332  0.095867  0.081877  1
  O  O17  1  0.421181  0.895477  0.920518  1
  O  O18  1  0.904133  0.425668  0.918123  1
