# generated using pymatgen
data_La2ThZrBi5
_symmetry_space_group_name_H-M   'P 1'
_cell_length_a   9.84079700
_cell_length_b   9.78121575
_cell_length_c   6.62058600
_cell_angle_alpha   90.00000000
_cell_angle_beta   90.00000000
_cell_angle_gamma   120.20170373
_symmetry_Int_Tables_number   1
_chemical_formula_structural   La2ThZrBi5
_chemical_formula_sum   'La4 Th2 Zr2 Bi10'
_cell_volume   550.76188533
_cell_formula_units_Z   2
loop_
 _symmetry_equiv_pos_site_id
 _symmetry_equiv_pos_as_xyz
  1  'x, y, z'
loop_
 _atom_site_type_symbol
 _atom_site_label
 _atom_site_symmetry_multiplicity
 _atom_site_fract_x
 _atom_site_fract_y
 _atom_site_fract_z
 _atom_site_occupancy
  La  La0  1  0.997616  0.616035  0.750000  1
  La  La1  1  0.002384  0.383965  0.250000  1
  La  La2  1  0.381580  0.383965  0.750000  1
  La  La3  1  0.618420  0.616035  0.250000  1
  Th  Th4  1  0.618807  0.000000  0.750000  1
  Th  Th5  1  0.381193  0.000000  0.250000  1
  Zr  Zr6  1  0.000000  0.000000  0.500000  1
  Zr  Zr7  1  0.000000  0.000000  0.000000  1
  Bi  Bi8  1  0.268027  0.000000  0.750000  1
  Bi  Bi9  1  0.731973  0.000000  0.250000  1
  Bi  Bi10  1  0.998559  0.263284  0.750000  1
  Bi  Bi11  1  0.001441  0.736716  0.250000  1
  Bi  Bi12  1  0.735275  0.736716  0.750000  1
  Bi  Bi13  1  0.264725  0.263284  0.250000  1
  Bi  Bi14  1  0.336684  0.673367  0.500000  1
  Bi  Bi15  1  0.663316  0.326633  0.500000  1
  Bi  Bi16  1  0.663316  0.326633  0.000000  1
  Bi  Bi17  1  0.336684  0.673367  0.000000  1
