# generated using pymatgen
data_Tm4Al4IrRu3
_symmetry_space_group_name_H-M   'P 1'
_cell_length_a   4.00703100
_cell_length_b   6.96703891
_cell_length_c   8.03433800
_cell_angle_alpha   89.93035192
_cell_angle_beta   90.00000000
_cell_angle_gamma   90.00000000
_symmetry_Int_Tables_number   1
_chemical_formula_structural   Tm4Al4IrRu3
_chemical_formula_sum   'Tm4 Al4 Ir1 Ru3'
_cell_volume   224.29558006
_cell_formula_units_Z   1
loop_
 _symmetry_equiv_pos_site_id
 _symmetry_equiv_pos_as_xyz
  1  'x, y, z'
loop_
 _atom_site_type_symbol
 _atom_site_label
 _atom_site_symmetry_multiplicity
 _atom_site_fract_x
 _atom_site_fract_y
 _atom_site_fract_z
 _atom_site_occupancy
  Tm  Tm0  1  0.250000  0.966041  0.321676  1
  Tm  Tm1  1  0.750000  0.533471  0.824149  1
  Tm  Tm2  1  0.250000  0.465091  0.176782  1
  Tm  Tm3  1  0.750000  0.035705  0.678172  1
  Al  Al4  1  0.750000  0.635915  0.439715  1
  Al  Al5  1  0.750000  0.136459  0.058564  1
  Al  Al6  1  0.250000  0.362291  0.558676  1
  Al  Al7  1  0.250000  0.863646  0.940754  1
  Ir  Ir8  1  0.250000  0.732471  0.625684  1
  Ru  Ru9  1  0.750000  0.766560  0.125403  1
  Ru  Ru10  1  0.750000  0.267606  0.375246  1
  Ru  Ru11  1  0.250000  0.234746  0.875177  1
