# generated using pymatgen
data_Dy3Tm3Mn2(Co4P3)4
_symmetry_space_group_name_H-M   'P 1'
_cell_length_a   3.66941400
_cell_length_b   10.48719223
_cell_length_c   12.13737427
_cell_angle_alpha   90.02409258
_cell_angle_beta   90.00000000
_cell_angle_gamma   90.00000000
_symmetry_Int_Tables_number   1
_chemical_formula_structural   Dy3Tm3Mn2(Co4P3)4
_chemical_formula_sum   'Dy3 Tm3 Mn2 Co16 P12'
_cell_volume   467.06857464
_cell_formula_units_Z   1
loop_
 _symmetry_equiv_pos_site_id
 _symmetry_equiv_pos_as_xyz
  1  'x, y, z'
loop_
 _atom_site_type_symbol
 _atom_site_label
 _atom_site_symmetry_multiplicity
 _atom_site_fract_x
 _atom_site_fract_y
 _atom_site_fract_z
 _atom_site_occupancy
  Dy  Dy0  1  0.000000  0.499795  0.523066  1
  Dy  Dy1  1  0.500000  0.000370  0.477053  1
  Dy  Dy2  1  0.500000  0.818443  0.205059  1
  Tm  Tm3  1  0.500000  0.182337  0.204781  1
  Tm  Tm4  1  0.000000  0.681087  0.795165  1
  Tm  Tm5  1  0.000000  0.318191  0.794675  1
  Mn  Mn6  1  0.500000  0.499794  0.159171  1
  Mn  Mn7  1  0.000000  0.000159  0.840892  1
  Co  Co8  1  0.500000  0.499563  0.703512  1
  Co  Co9  1  0.000000  0.001104  0.296721  1
  Co  Co10  1  0.000000  0.499461  0.985649  1
  Co  Co11  1  0.500000  0.000574  0.013269  1
  Co  Co12  1  0.500000  0.333112  0.993647  1
  Co  Co13  1  0.500000  0.666260  0.993319  1
  Co  Co14  1  0.000000  0.167693  0.006136  1
  Co  Co15  1  0.000000  0.832891  0.005673  1
  Co  Co16  1  0.500000  0.296841  0.430024  1
  Co  Co17  1  0.500000  0.703299  0.431048  1
  Co  Co18  1  0.000000  0.203713  0.569568  1
  Co  Co19  1  0.000000  0.796291  0.570430  1
  Co  Co20  1  0.500000  0.878561  0.710090  1
  Co  Co21  1  0.500000  0.121039  0.709487  1
  Co  Co22  1  0.000000  0.620434  0.291033  1
  Co  Co23  1  0.000000  0.379033  0.290307  1
  P  P24  1  0.500000  0.499522  0.881858  1
  P  P25  1  0.000000  0.001091  0.117228  1
  P  P26  1  0.500000  0.500297  0.345219  1
  P  P27  1  0.000000  0.999792  0.654894  1
  P  P28  1  0.500000  0.311261  0.616886  1
  P  P29  1  0.500000  0.688227  0.617528  1
  P  P30  1  0.000000  0.189181  0.382722  1
  P  P31  1  0.000000  0.811415  0.384220  1
  P  P32  1  0.500000  0.846383  0.892485  1
  P  P33  1  0.500000  0.153528  0.892027  1
  P  P34  1  0.000000  0.651988  0.107318  1
  P  P35  1  0.000000  0.347269  0.107841  1
