# generated using pymatgen
data_Lu5Bi2Pd
_symmetry_space_group_name_H-M   'P 1'
_cell_length_a   7.89401700
_cell_length_b   8.98980000
_cell_length_c   12.09624500
_cell_angle_alpha   90.00000000
_cell_angle_beta   90.00000000
_cell_angle_gamma   90.00000000
_symmetry_Int_Tables_number   1
_chemical_formula_structural   Lu5Bi2Pd
_chemical_formula_sum   'Lu20 Bi8 Pd4'
_cell_volume   858.41769577
_cell_formula_units_Z   4
loop_
 _symmetry_equiv_pos_site_id
 _symmetry_equiv_pos_as_xyz
  1  'x, y, z'
loop_
 _atom_site_type_symbol
 _atom_site_label
 _atom_site_symmetry_multiplicity
 _atom_site_fract_x
 _atom_site_fract_y
 _atom_site_fract_z
 _atom_site_occupancy
  Lu  Lu0  1  0.166206  0.750000  0.212911  1
  Lu  Lu1  1  0.333794  0.750000  0.712911  1
  Lu  Lu2  1  0.833794  0.250000  0.787089  1
  Lu  Lu3  1  0.666206  0.250000  0.287089  1
  Lu  Lu4  1  0.455709  0.750000  0.000754  1
  Lu  Lu5  1  0.044291  0.750000  0.500754  1
  Lu  Lu6  1  0.544291  0.250000  0.999246  1
  Lu  Lu7  1  0.955709  0.250000  0.499246  1
  Lu  Lu8  1  0.628953  0.750000  0.303409  1
  Lu  Lu9  1  0.871047  0.750000  0.803409  1
  Lu  Lu10  1  0.371047  0.250000  0.696591  1
  Lu  Lu11  1  0.128953  0.250000  0.196591  1
  Lu  Lu12  1  0.822975  0.550353  0.066225  1
  Lu  Lu13  1  0.677025  0.949647  0.566225  1
  Lu  Lu14  1  0.177025  0.050353  0.933775  1
  Lu  Lu15  1  0.322975  0.449647  0.433775  1
  Lu  Lu16  1  0.177025  0.449647  0.933775  1
  Lu  Lu17  1  0.322975  0.050353  0.433775  1
  Lu  Lu18  1  0.822975  0.949647  0.066225  1
  Lu  Lu19  1  0.677025  0.550353  0.566225  1
  Bi  Bi20  1  0.932679  0.509382  0.327437  1
  Bi  Bi21  1  0.567321  0.990618  0.827437  1
  Bi  Bi22  1  0.067321  0.009382  0.672563  1
  Bi  Bi23  1  0.432679  0.490618  0.172563  1
  Bi  Bi24  1  0.067321  0.490618  0.672563  1
  Bi  Bi25  1  0.432679  0.009382  0.172563  1
  Bi  Bi26  1  0.932679  0.990618  0.327437  1
  Bi  Bi27  1  0.567321  0.509382  0.827437  1
  Pd  Pd28  1  0.413758  0.750000  0.485873  1
  Pd  Pd29  1  0.086242  0.750000  0.985873  1
  Pd  Pd30  1  0.586242  0.250000  0.514127  1
  Pd  Pd31  1  0.913758  0.250000  0.014127  1
