# generated using pymatgen
data_YEr2Tm(Si2Rh)2
_symmetry_space_group_name_H-M   'P 1'
_cell_length_a   5.65818575
_cell_length_b   5.65818533
_cell_length_c   10.00506109
_cell_angle_alpha   63.77168281
_cell_angle_beta   63.77168233
_cell_angle_gamma   43.41151413
_symmetry_Int_Tables_number   1
_chemical_formula_structural   YEr2Tm(Si2Rh)2
_chemical_formula_sum   'Y1 Er2 Tm1 Si4 Rh2'
_cell_volume   193.63041180
_cell_formula_units_Z   1
loop_
 _symmetry_equiv_pos_site_id
 _symmetry_equiv_pos_as_xyz
  1  'x, y, z'
loop_
 _atom_site_type_symbol
 _atom_site_label
 _atom_site_symmetry_multiplicity
 _atom_site_fract_x
 _atom_site_fract_y
 _atom_site_fract_z
 _atom_site_occupancy
  Y  Y0  1  0.814371  0.814371  0.108560  1
  Er  Er1  1  0.000207  0.000207  0.326326  1
  Er  Er2  1  0.185436  0.185436  0.889383  1
  Tm  Tm3  1  0.999077  0.999077  0.674300  1
  Si  Si4  1  0.361819  0.361819  0.565655  1
  Si  Si5  1  0.488853  0.488853  0.878011  1
  Si  Si6  1  0.638009  0.638009  0.435784  1
  Si  Si7  1  0.512634  0.512634  0.120151  1
  Rh  Rh8  1  0.726048  0.726048  0.628904  1
  Rh  Rh9  1  0.273548  0.273548  0.372925  1
