# generated using pymatgen
data_Gd3Re3MoRuN12
_symmetry_space_group_name_H-M   'P 1'
_cell_length_a   11.11217422
_cell_length_b   11.11217471
_cell_length_c   11.11217500
_cell_angle_alpha   109.47122480
_cell_angle_beta   109.47122570
_cell_angle_gamma   109.47121983
_symmetry_Int_Tables_number   1
_chemical_formula_structural   Gd3Re3MoRuN12
_chemical_formula_sum   'Gd12 Re12 Mo4 Ru4 N48'
_cell_volume   1056.27071513
_cell_formula_units_Z   4
loop_
 _symmetry_equiv_pos_site_id
 _symmetry_equiv_pos_as_xyz
  1  'x, y, z'
loop_
 _atom_site_type_symbol
 _atom_site_label
 _atom_site_symmetry_multiplicity
 _atom_site_fract_x
 _atom_site_fract_y
 _atom_site_fract_z
 _atom_site_occupancy
  Gd  Gd0  1  0.250000  0.376158  0.126158  1
  Gd  Gd1  1  0.373842  0.750000  0.123841  1
  Gd  Gd2  1  0.376158  0.126158  0.250000  1
  Gd  Gd3  1  0.876158  0.626158  0.250000  1
  Gd  Gd4  1  0.750000  0.123841  0.373842  1
  Gd  Gd5  1  0.126158  0.250000  0.376158  1
  Gd  Gd6  1  0.873842  0.750000  0.623842  1
  Gd  Gd7  1  0.250000  0.876158  0.626158  1
  Gd  Gd8  1  0.123841  0.373842  0.750000  1
  Gd  Gd9  1  0.623842  0.873842  0.750000  1
  Gd  Gd10  1  0.626158  0.250000  0.876158  1
  Gd  Gd11  1  0.750000  0.623842  0.873842  1
  Re  Re12  1  0.874377  0.250000  0.124377  1
  Re  Re13  1  0.750000  0.875623  0.125623  1
  Re  Re14  1  0.624377  0.374377  0.250000  1
  Re  Re15  1  0.124377  0.874377  0.250000  1
  Re  Re16  1  0.250000  0.624377  0.374377  1
  Re  Re17  1  0.625623  0.750000  0.375623  1
  Re  Re18  1  0.374377  0.250000  0.624377  1
  Re  Re19  1  0.750000  0.375623  0.625623  1
  Re  Re20  1  0.875623  0.125623  0.750000  1
  Re  Re21  1  0.375623  0.625623  0.750000  1
  Re  Re22  1  0.250000  0.124377  0.874377  1
  Re  Re23  1  0.125623  0.750000  0.875623  1
  Mo  Mo24  1  0.000000  0.000000  0.000000  1
  Mo  Mo25  1  0.500000  0.500000  0.000000  1
  Mo  Mo26  1  0.500000  0.000000  0.500000  1
  Mo  Mo27  1  0.000000  0.500000  0.500000  1
  Ru  Ru28  1  0.499999  0.000000  0.000000  1
  Ru  Ru29  1  0.000000  0.499999  0.000000  1
  Ru  Ru30  1  0.000000  0.000000  0.499999  1
  Ru  Ru31  1  0.499999  0.499999  0.499999  1
  N  N32  1  0.199422  0.116111  0.015701  1
  N  N33  1  0.315556  0.898237  0.015624  1
  N  N34  1  0.882613  0.398238  0.082682  1
  N  N35  1  0.699422  0.683721  0.083311  1
  N  N36  1  0.616111  0.416689  0.100410  1
  N  N37  1  0.984375  0.684442  0.101761  1
  N  N38  1  0.015701  0.199422  0.116111  1
  N  N39  1  0.601761  0.917319  0.117386  1
  N  N40  1  0.200067  0.582681  0.184443  1
  N  N41  1  0.484299  0.600410  0.183721  1
  N  N42  1  0.116111  0.015701  0.199422  1
  N  N43  1  0.582681  0.184443  0.200067  1
  N  N44  1  0.484375  0.382614  0.299932  1
  N  N45  1  0.316279  0.916689  0.300578  1
  N  N46  1  0.898237  0.015624  0.315556  1
  N  N47  1  0.916689  0.300578  0.316279  1
  N  N48  1  0.299932  0.484375  0.382614  1
  N  N49  1  0.583311  0.899590  0.383889  1
  N  N50  1  0.816279  0.515701  0.399590  1
  N  N51  1  0.082682  0.882613  0.398238  1
  N  N52  1  0.100410  0.616111  0.416689  1
  N  N53  1  0.815557  0.799932  0.417318  1
  N  N54  1  0.600410  0.183721  0.484299  1
  N  N55  1  0.382614  0.299932  0.484375  1
  N  N56  1  0.617386  0.700067  0.515624  1
  N  N57  1  0.399590  0.816279  0.515701  1
  N  N58  1  0.184443  0.200067  0.582681  1
  N  N59  1  0.899590  0.383889  0.583311  1
  N  N60  1  0.917319  0.117386  0.601761  1
  N  N61  1  0.183721  0.484299  0.600410  1
  N  N62  1  0.416689  0.100410  0.616111  1
  N  N63  1  0.700067  0.515624  0.617386  1
  N  N64  1  0.083311  0.699422  0.683721  1
  N  N65  1  0.101761  0.984375  0.684442  1
  N  N66  1  0.683721  0.083311  0.699422  1
  N  N67  1  0.515624  0.617386  0.700067  1
  N  N68  1  0.417318  0.815557  0.799932  1
  N  N69  1  0.883889  0.984300  0.800579  1
  N  N70  1  0.515701  0.399590  0.816279  1
  N  N71  1  0.799932  0.417318  0.815557  1
  N  N72  1  0.398238  0.082682  0.882613  1
  N  N73  1  0.984300  0.800579  0.883889  1
  N  N74  1  0.015624  0.315556  0.898237  1
  N  N75  1  0.383889  0.583311  0.899590  1
  N  N76  1  0.300578  0.316279  0.916689  1
  N  N77  1  0.117386  0.601761  0.917319  1
  N  N78  1  0.684442  0.101761  0.984375  1
  N  N79  1  0.800579  0.883889  0.984300  1
