# generated using pymatgen
data_Tb5Lu11(InPt)4
_symmetry_space_group_name_H-M   'P 1'
_cell_length_a   9.58579641
_cell_length_b   9.58855491
_cell_length_c   9.58855694
_cell_angle_alpha   60.06977158
_cell_angle_beta   60.00951527
_cell_angle_gamma   60.00951835
_symmetry_Int_Tables_number   1
_chemical_formula_structural   Tb5Lu11(InPt)4
_chemical_formula_sum   'Tb5 Lu11 In4 Pt4'
_cell_volume   623.60647583
_cell_formula_units_Z   1
loop_
 _symmetry_equiv_pos_site_id
 _symmetry_equiv_pos_as_xyz
  1  'x, y, z'
loop_
 _atom_site_type_symbol
 _atom_site_label
 _atom_site_symmetry_multiplicity
 _atom_site_fract_x
 _atom_site_fract_y
 _atom_site_fract_z
 _atom_site_occupancy
  Tb  Tb0  1  0.559334  0.940666  0.940666  1
  Tb  Tb1  1  0.563352  0.936835  0.561839  1
  Tb  Tb2  1  0.937974  0.561839  0.936835  1
  Tb  Tb3  1  0.563352  0.561839  0.936835  1
  Tb  Tb4  1  0.937974  0.936835  0.561839  1
  Lu  Lu5  1  0.351573  0.349511  0.349511  1
  Lu  Lu6  1  0.350638  0.351764  0.946959  1
  Lu  Lu7  1  0.350638  0.946959  0.351764  1
  Lu  Lu8  1  0.949406  0.349511  0.349511  1
  Lu  Lu9  1  0.811565  0.188435  0.188435  1
  Lu  Lu10  1  0.189329  0.810671  0.810671  1
  Lu  Lu11  1  0.187292  0.811168  0.191102  1
  Lu  Lu12  1  0.810438  0.191102  0.811168  1
  Lu  Lu13  1  0.187292  0.191102  0.811168  1
  Lu  Lu14  1  0.810438  0.811168  0.191102  1
  Lu  Lu15  1  0.940864  0.559136  0.559136  1
  In  In16  1  0.584878  0.582665  0.582665  1
  In  In17  1  0.581532  0.582160  0.254775  1
  In  In18  1  0.581532  0.254775  0.582160  1
  In  In19  1  0.249790  0.582665  0.582665  1
  Pt  Pt20  1  0.144542  0.141684  0.141684  1
  Pt  Pt21  1  0.142087  0.142757  0.573070  1
  Pt  Pt22  1  0.142087  0.573070  0.142757  1
  Pt  Pt23  1  0.572090  0.141684  0.141684  1
