# generated using pymatgen
data_NbTe2H
_symmetry_space_group_name_H-M   'P 1'
_cell_length_a   3.60363300
_cell_length_b   3.60363112
_cell_length_c   17.08748700
_cell_angle_alpha   90.00000000
_cell_angle_beta   90.00000000
_cell_angle_gamma   119.99997133
_symmetry_Int_Tables_number   1
_chemical_formula_structural   NbTe2H
_chemical_formula_sum   'Nb2 Te4 H2'
_cell_volume   192.17187994
_cell_formula_units_Z   2
loop_
 _symmetry_equiv_pos_site_id
 _symmetry_equiv_pos_as_xyz
  1  'x, y, z'
loop_
 _atom_site_type_symbol
 _atom_site_label
 _atom_site_symmetry_multiplicity
 _atom_site_fract_x
 _atom_site_fract_y
 _atom_site_fract_z
 _atom_site_occupancy
  Nb  Nb0  1  0.333333  0.666667  0.337353  1
  Nb  Nb1  1  0.666667  0.333333  0.787546  1
  Te  Te2  1  0.333333  0.666667  0.901770  1
  Te  Te3  1  0.333333  0.666667  0.673162  1
  Te  Te4  1  0.666667  0.333333  0.451760  1
  Te  Te5  1  0.666667  0.333333  0.223090  1
  H  H6  1  0.000000  0.000000  0.788221  1
  H  H7  1  0.000000  0.000000  0.337097  1
