# generated using pymatgen
data_NaH8
_symmetry_space_group_name_H-M   'P 1'
_cell_length_a   3.35974174
_cell_length_b   5.46858618
_cell_length_c   10.29854155
_cell_angle_alpha   97.99801325
_cell_angle_beta   87.31430973
_cell_angle_gamma   111.48662991
_symmetry_Int_Tables_number   1
_chemical_formula_structural   NaH8
_chemical_formula_sum   'Na1 H8'
_cell_volume   174.35125060
_cell_formula_units_Z   1
loop_
 _symmetry_equiv_pos_site_id
 _symmetry_equiv_pos_as_xyz
  1  'x, y, z'
loop_
 _atom_site_type_symbol
 _atom_site_label
 _atom_site_symmetry_multiplicity
 _atom_site_fract_x
 _atom_site_fract_y
 _atom_site_fract_z
 _atom_site_occupancy
  Na  Na0  1  0.110024  0.072105  0.565349  1
  H  H1  1  0.910680  0.308910  0.885877  1
  H  H2  1  0.907150  0.192857  0.228248  1
  H  H3  1  0.711321  0.737470  0.872702  1
  H  H4  1  0.853507  0.202349  0.300132  1
  H  H5  1  0.095137  0.759709  0.139515  1
  H  H6  1  0.175172  0.743505  0.203247  1
  H  H7  1  0.620564  0.777636  0.817510  1
  H  H8  1  0.976922  0.324182  0.956025  1
