# generated using pymatgen
data_NaLa21Fe8(PC2)6
_symmetry_space_group_name_H-M   'P 1'
_cell_length_a   11.38568800
_cell_length_b   11.38568957
_cell_length_c   11.38568800
_cell_angle_alpha   120.00000125
_cell_angle_beta   90.00000000
_cell_angle_gamma   120.00000125
_symmetry_Int_Tables_number   1
_chemical_formula_structural   NaLa21Fe8(PC2)6
_chemical_formula_sum   'Na1 La21 Fe8 P6 C12'
_cell_volume   1043.66923566
_cell_formula_units_Z   1
loop_
 _symmetry_equiv_pos_site_id
 _symmetry_equiv_pos_as_xyz
  1  'x, y, z'
loop_
 _atom_site_type_symbol
 _atom_site_label
 _atom_site_symmetry_multiplicity
 _atom_site_fract_x
 _atom_site_fract_y
 _atom_site_fract_z
 _atom_site_occupancy
  Na  Na0  1  0.000000  0.000000  0.000000  1
  La  La1  1  0.393781  0.262520  0.131260  1
  La  La2  1  0.868741  0.262520  0.131260  1
  La  La3  1  0.868741  0.737481  0.131260  1
  La  La4  1  0.500000  0.000000  0.161523  1
  La  La5  1  0.161523  0.661523  0.161523  1
  La  La6  1  0.500000  0.661523  0.161523  1
  La  La7  1  0.131260  0.262520  0.393781  1
  La  La8  1  0.838477  0.000000  0.500000  1
  La  La9  1  0.500000  0.000000  0.500000  1
  La  La10  1  0.838477  0.338477  0.500000  1
  La  La11  1  0.161523  0.000000  0.500000  1
  La  La12  1  0.500000  0.338477  0.500000  1
  La  La13  1  0.161523  0.661523  0.500000  1
  La  La14  1  0.500000  0.661523  0.500000  1
  La  La15  1  0.868741  0.737481  0.606220  1
  La  La16  1  0.500000  0.000000  0.838477  1
  La  La17  1  0.838477  0.338477  0.838477  1
  La  La18  1  0.500000  0.338477  0.838477  1
  La  La19  1  0.131260  0.262520  0.868741  1
  La  La20  1  0.131260  0.737481  0.868741  1
  La  La21  1  0.606220  0.737481  0.868741  1
  Fe  Fe22  1  0.695315  0.390630  0.085944  1
  Fe  Fe23  1  0.695315  0.390630  0.304685  1
  Fe  Fe24  1  0.695315  0.609370  0.304685  1
  Fe  Fe25  1  0.914055  0.609370  0.304685  1
  Fe  Fe26  1  0.085944  0.390630  0.695315  1
  Fe  Fe27  1  0.304685  0.390630  0.695315  1
  Fe  Fe28  1  0.304685  0.609370  0.695315  1
  Fe  Fe29  1  0.304685  0.609370  0.914055  1
  P  P30  1  0.218552  0.000000  0.218552  1
  P  P31  1  0.218552  0.437105  0.218552  1
  P  P32  1  0.781447  0.000000  0.218552  1
  P  P33  1  0.218552  0.000000  0.781447  1
  P  P34  1  0.781447  0.562894  0.781447  1
  P  P35  1  0.781448  0.000000  0.781448  1
  C  C36  1  0.892365  0.500000  0.107636  1
  C  C37  1  0.607636  0.215270  0.107636  1
  C  C38  1  0.607636  0.500000  0.107636  1
  C  C39  1  0.607636  0.500000  0.392364  1
  C  C40  1  0.892365  0.500000  0.392364  1
  C  C41  1  0.892365  0.784731  0.392364  1
  C  C42  1  0.107636  0.215270  0.607636  1
  C  C43  1  0.107636  0.500000  0.607636  1
  C  C44  1  0.392364  0.500000  0.607636  1
  C  C45  1  0.107636  0.500000  0.892365  1
  C  C46  1  0.392364  0.500000  0.892365  1
  C  C47  1  0.392364  0.784731  0.892365  1
