# generated using pymatgen
data_Sc8Nb12Si15Sb
_symmetry_space_group_name_H-M   'P 1'
_cell_length_a   6.75623796
_cell_length_b   6.94273355
_cell_length_c   13.25550514
_cell_angle_alpha   89.74507183
_cell_angle_beta   90.43501874
_cell_angle_gamma   90.12950059
_symmetry_Int_Tables_number   1
_chemical_formula_structural   Sc8Nb12Si15Sb
_chemical_formula_sum   'Sc8 Nb12 Si15 Sb1'
_cell_volume   621.74718086
_cell_formula_units_Z   1
loop_
 _symmetry_equiv_pos_site_id
 _symmetry_equiv_pos_as_xyz
  1  'x, y, z'
loop_
 _atom_site_type_symbol
 _atom_site_label
 _atom_site_symmetry_multiplicity
 _atom_site_fract_x
 _atom_site_fract_y
 _atom_site_fract_z
 _atom_site_occupancy
  Sc  Sc0  1  0.494115  0.671101  0.598423  1
  Sc  Sc1  1  0.000728  0.826160  0.904208  1
  Sc  Sc2  1  0.499291  0.324627  0.094098  1
  Sc  Sc3  1  0.015225  0.183907  0.399732  1
  Sc  Sc4  1  0.497506  0.331753  0.403034  1
  Sc  Sc5  1  0.999208  0.174228  0.094753  1
  Sc  Sc6  1  0.500714  0.675780  0.905319  1
  Sc  Sc7  1  0.004896  0.820185  0.600969  1
  Nb  Nb8  1  0.655492  0.183053  0.630802  1
  Nb  Nb9  1  0.160448  0.325468  0.876036  1
  Nb  Nb10  1  0.336758  0.825480  0.124269  1
  Nb  Nb11  1  0.846417  0.658250  0.370348  1
  Nb  Nb12  1  0.332353  0.824220  0.374102  1
  Nb  Nb13  1  0.837367  0.672517  0.123595  1
  Nb  Nb14  1  0.662656  0.174996  0.875472  1
  Nb  Nb15  1  0.160731  0.328410  0.626874  1
  Nb  Nb16  1  0.835584  0.495657  0.750379  1
  Nb  Nb17  1  0.335245  0.004488  0.750808  1
  Nb  Nb18  1  0.164203  0.504314  0.249018  1
  Nb  Nb19  1  0.664305  0.993457  0.244823  1
  Si  Si20  1  0.168357  0.532654  0.039078  1
  Si  Si21  1  0.331804  0.032470  0.959809  1
  Si  Si22  1  0.829739  0.466136  0.539317  1
  Si  Si23  1  0.316093  0.036217  0.541458  1
  Si  Si24  1  0.830822  0.467742  0.960287  1
  Si  Si25  1  0.668137  0.966435  0.038580  1
  Si  Si26  1  0.171745  0.534878  0.462991  1
  Si  Si27  1  0.455354  0.387290  0.753736  1
  Si  Si28  1  0.957877  0.114045  0.751099  1
  Si  Si29  1  0.541352  0.615401  0.248707  1
  Si  Si30  1  0.040557  0.886307  0.247942  1
  Si  Si31  1  0.703342  0.863258  0.751354  1
  Si  Si32  1  0.202961  0.636462  0.752967  1
  Si  Si33  1  0.298385  0.136992  0.247889  1
  Si  Si34  1  0.795342  0.359457  0.246634  1
  Sb  Sb35  1  0.684891  0.966202  0.461091  1
