# generated using pymatgen
data_Hf8Co16Si2As9P
_symmetry_space_group_name_H-M   'P 1'
_cell_length_a   12.46901380
_cell_length_b   12.45740110
_cell_length_c   3.72569200
_cell_angle_alpha   90.00000000
_cell_angle_beta   90.00000000
_cell_angle_gamma   120.00148650
_symmetry_Int_Tables_number   1
_chemical_formula_structural   Hf8Co16Si2As9P
_chemical_formula_sum   'Hf8 Co16 Si2 As9 P1'
_cell_volume   501.17641925
_cell_formula_units_Z   1
loop_
 _symmetry_equiv_pos_site_id
 _symmetry_equiv_pos_as_xyz
  1  'x, y, z'
loop_
 _atom_site_type_symbol
 _atom_site_label
 _atom_site_symmetry_multiplicity
 _atom_site_fract_x
 _atom_site_fract_y
 _atom_site_fract_z
 _atom_site_occupancy
  Hf  Hf0  1  0.834194  0.824816  0.500000  1
  Hf  Hf1  1  0.444935  0.443918  0.000000  1
  Hf  Hf2  1  0.998260  0.173999  0.500000  1
  Hf  Hf3  1  0.558393  0.005209  0.000000  1
  Hf  Hf4  1  0.332908  0.666866  0.000000  1
  Hf  Hf5  1  0.674822  0.334844  0.000000  1
  Hf  Hf6  1  0.995998  0.555546  0.000000  1
  Hf  Hf7  1  0.164814  0.991713  0.500000  1
  Co  Co8  1  0.627867  0.823170  0.000000  1
  Co  Co9  1  0.371438  0.196056  0.000000  1
  Co  Co10  1  0.998722  0.722997  0.500000  1
  Co  Co11  1  0.281281  0.281555  0.500000  1
  Co  Co12  1  0.873349  0.357697  0.500000  1
  Co  Co13  1  0.718313  0.001607  0.500000  1
  Co  Co14  1  0.828071  0.629541  0.000000  1
  Co  Co15  1  0.170893  0.806284  0.000000  1
  Co  Co16  1  0.352834  0.875380  0.500000  1
  Co  Co17  1  0.124597  0.479454  0.500000  1
  Co  Co18  1  0.647569  0.522128  0.500000  1
  Co  Co19  1  0.999309  0.990705  0.000000  1
  Co  Co20  1  0.519776  0.645260  0.500000  1
  Co  Co21  1  0.485427  0.125917  0.500000  1
  Co  Co22  1  0.194049  0.370384  0.000000  1
  Co  Co23  1  0.801341  0.176221  0.000000  1
  Si  Si24  1  0.825821  0.517313  0.500000  1
  Si  Si25  1  0.692529  0.176096  0.500000  1
  As  As26  1  0.997558  0.344248  0.000000  1
  As  As27  1  0.172438  0.171617  0.000000  1
  As  As28  1  0.657961  0.655976  0.000000  1
  As  As29  1  0.826265  0.999609  0.000000  1
  As  As30  1  0.514224  0.827416  0.500000  1
  As  As31  1  0.171878  0.687902  0.500000  1
  As  As32  1  0.343065  0.000529  0.000000  1
  As  As33  1  0.489302  0.311817  0.500000  1
  As  As34  1  0.311756  0.486095  0.500000  1
  P  P35  1  0.998047  0.820114  0.000000  1
