# generated using pymatgen
data_Ho4Al2Ga2Ir3Pt
_symmetry_space_group_name_H-M   'P 1'
_cell_length_a   4.28729100
_cell_length_b   6.83165055
_cell_length_c   7.87637773
_cell_angle_alpha   89.83693477
_cell_angle_beta   90.00000000
_cell_angle_gamma   90.00000000
_symmetry_Int_Tables_number   1
_chemical_formula_structural   Ho4Al2Ga2Ir3Pt
_chemical_formula_sum   'Ho4 Al2 Ga2 Ir3 Pt1'
_cell_volume   230.69245037
_cell_formula_units_Z   1
loop_
 _symmetry_equiv_pos_site_id
 _symmetry_equiv_pos_as_xyz
  1  'x, y, z'
loop_
 _atom_site_type_symbol
 _atom_site_label
 _atom_site_symmetry_multiplicity
 _atom_site_fract_x
 _atom_site_fract_y
 _atom_site_fract_z
 _atom_site_occupancy
  Ho  Ho0  1  0.250000  0.030066  0.680315  1
  Ho  Ho1  1  0.250000  0.534950  0.821143  1
  Ho  Ho2  1  0.750000  0.967569  0.317564  1
  Ho  Ho3  1  0.750000  0.471858  0.180482  1
  Al  Al4  1  0.250000  0.639357  0.438199  1
  Al  Al5  1  0.750000  0.361873  0.559328  1
  Ga  Ga6  1  0.250000  0.143147  0.065351  1
  Ga  Ga7  1  0.750000  0.851953  0.937181  1
  Ir  Ir8  1  0.250000  0.267017  0.383001  1
  Ir  Ir9  1  0.250000  0.763871  0.123609  1
  Ir  Ir10  1  0.750000  0.733481  0.618488  1
  Pt  Pt11  1  0.750000  0.234859  0.875339  1
