# generated using pymatgen
data_Hf18Ti2GaRe6P
_symmetry_space_group_name_H-M   'P 1'
_cell_length_a   8.63014600
_cell_length_b   8.63014542
_cell_length_c   8.59632100
_cell_angle_alpha   90.00000000
_cell_angle_beta   90.00000000
_cell_angle_gamma   120.00000224
_symmetry_Int_Tables_number   1
_chemical_formula_structural   Hf18Ti2GaRe6P
_chemical_formula_sum   'Hf18 Ti2 Ga1 Re6 P1'
_cell_volume   554.47185050
_cell_formula_units_Z   1
loop_
 _symmetry_equiv_pos_site_id
 _symmetry_equiv_pos_as_xyz
  1  'x, y, z'
loop_
 _atom_site_type_symbol
 _atom_site_label
 _atom_site_symmetry_multiplicity
 _atom_site_fract_x
 _atom_site_fract_y
 _atom_site_fract_z
 _atom_site_occupancy
  Hf  Hf0  1  0.194422  0.805578  0.452372  1
  Hf  Hf1  1  0.194422  0.388844  0.452372  1
  Hf  Hf2  1  0.611156  0.805578  0.452372  1
  Hf  Hf3  1  0.803333  0.196667  0.549373  1
  Hf  Hf4  1  0.803333  0.606668  0.549373  1
  Hf  Hf5  1  0.393332  0.196667  0.549373  1
  Hf  Hf6  1  0.803333  0.196667  0.950627  1
  Hf  Hf7  1  0.803333  0.606668  0.950627  1
  Hf  Hf8  1  0.393332  0.196667  0.950627  1
  Hf  Hf9  1  0.194422  0.805578  0.047628  1
  Hf  Hf10  1  0.194422  0.388844  0.047628  1
  Hf  Hf11  1  0.611156  0.805578  0.047628  1
  Hf  Hf12  1  0.541042  0.458958  0.250000  1
  Hf  Hf13  1  0.541042  0.082084  0.250000  1
  Hf  Hf14  1  0.917916  0.458958  0.250000  1
  Hf  Hf15  1  0.458781  0.541219  0.750000  1
  Hf  Hf16  1  0.458781  0.917562  0.750000  1
  Hf  Hf17  1  0.082438  0.541219  0.750000  1
  Ti  Ti18  1  0.000000  0.000000  0.500481  1
  Ti  Ti19  1  0.000000  0.000000  0.999519  1
  Ga  Ga20  1  0.333333  0.666667  0.250000  1
  Re  Re21  1  0.888210  0.111790  0.250000  1
  Re  Re22  1  0.888210  0.776419  0.250000  1
  Re  Re23  1  0.223581  0.111790  0.250000  1
  Re  Re24  1  0.111224  0.888776  0.750000  1
  Re  Re25  1  0.111224  0.222448  0.750000  1
  Re  Re26  1  0.777552  0.888776  0.750000  1
  P  P27  1  0.666667  0.333333  0.750000  1
