# generated using pymatgen
data_Pr3Nd3RuPtBr6
_symmetry_space_group_name_H-M   'P 1'
_cell_length_a   10.50213278
_cell_length_b   10.49277916
_cell_length_c   10.59419179
_cell_angle_alpha   109.48705934
_cell_angle_beta   109.46017554
_cell_angle_gamma   109.07732708
_symmetry_Int_Tables_number   1
_chemical_formula_structural   Pr3Nd3RuPtBr6
_chemical_formula_sum   'Pr6 Nd6 Ru2 Pt2 Br12'
_cell_volume   902.97735549
_cell_formula_units_Z   2
loop_
 _symmetry_equiv_pos_site_id
 _symmetry_equiv_pos_as_xyz
  1  'x, y, z'
loop_
 _atom_site_type_symbol
 _atom_site_label
 _atom_site_symmetry_multiplicity
 _atom_site_fract_x
 _atom_site_fract_y
 _atom_site_fract_z
 _atom_site_occupancy
  Pr  Pr0  1  0.019604  0.030859  0.261116  1
  Pr  Pr1  1  0.490752  0.758998  0.021412  1
  Pr  Pr2  1  0.485301  0.234691  0.469720  1
  Pr  Pr3  1  0.014356  0.485047  0.749850  1
  Pr  Pr4  1  0.265318  0.015405  0.030305  1
  Pr  Pr5  1  0.235103  0.264614  0.750132  1
  Nd  Nd6  1  0.468352  0.479858  0.238812  1
  Nd  Nd7  1  0.741466  0.230297  0.261792  1
  Nd  Nd8  1  0.740956  0.009855  0.478612  1
  Nd  Nd9  1  0.237210  0.468825  0.478223  1
  Nd  Nd10  1  0.270223  0.758452  0.238614  1
  Nd  Nd11  1  0.031386  0.263032  0.021628  1
  Ru  Ru12  1  0.250054  0.250725  0.249944  1
  Ru  Ru13  1  0.500385  0.000142  0.250466  1
  Pt  Pt14  1  0.999233  0.249696  0.498848  1
  Pt  Pt15  1  0.250357  0.500435  0.001702  1
  Br  Br16  1  0.250436  0.752639  0.745824  1
  Br  Br17  1  0.505701  0.503976  0.752283  1
  Br  Br18  1  0.990642  0.744100  0.995317  1
  Br  Br19  1  0.747190  0.248168  0.753129  1
  Br  Br20  1  0.995085  0.994129  0.746775  1
  Br  Br21  1  0.249875  0.994476  0.504908  1
  Br  Br22  1  0.755032  0.509506  0.503692  1
  Br  Br23  1  0.505714  0.251289  0.996323  1
  Br  Br24  1  0.753605  0.746042  0.251482  1
  Br  Br25  1  0.745639  0.997075  0.990393  1
  Br  Br26  1  0.996768  0.503372  0.250068  1
  Br  Br27  1  0.504252  0.754296  0.508629  1
