# generated using pymatgen
data_Tb4ReBr4
_symmetry_space_group_name_H-M   'P 1'
_cell_length_a   9.07738260
_cell_length_b   9.07738174
_cell_length_c   6.60228180
_cell_angle_alpha   89.63690587
_cell_angle_beta   89.63690861
_cell_angle_gamma   89.45028504
_symmetry_Int_Tables_number   1
_chemical_formula_structural   Tb4ReBr4
_chemical_formula_sum   'Tb8 Re2 Br8'
_cell_volume   543.97386263
_cell_formula_units_Z   2
loop_
 _symmetry_equiv_pos_site_id
 _symmetry_equiv_pos_as_xyz
  1  'x, y, z'
loop_
 _atom_site_type_symbol
 _atom_site_label
 _atom_site_symmetry_multiplicity
 _atom_site_fract_x
 _atom_site_fract_y
 _atom_site_fract_z
 _atom_site_occupancy
  Tb  Tb0  1  0.247906  0.902281  0.011642  1
  Tb  Tb1  1  0.752094  0.097719  0.988358  1
  Tb  Tb2  1  0.097719  0.752094  0.488358  1
  Tb  Tb3  1  0.902281  0.247906  0.511642  1
  Tb  Tb4  1  0.752634  0.903346  0.505420  1
  Tb  Tb5  1  0.247366  0.096654  0.494580  1
  Tb  Tb6  1  0.096654  0.247366  0.994580  1
  Tb  Tb7  1  0.903346  0.752634  0.005420  1
  Re  Re8  1  0.995427  0.004573  0.250000  1
  Re  Re9  1  0.004573  0.995427  0.750000  1
  Br  Br10  1  0.415574  0.818085  0.414048  1
  Br  Br11  1  0.584426  0.181915  0.585952  1
  Br  Br12  1  0.181915  0.584426  0.085952  1
  Br  Br13  1  0.818085  0.415574  0.914048  1
  Br  Br14  1  0.411578  0.188176  0.088889  1
  Br  Br15  1  0.588422  0.811824  0.911111  1
  Br  Br16  1  0.811824  0.588422  0.411111  1
  Br  Br17  1  0.188176  0.411578  0.588889  1
