# generated using pymatgen
data_DyY2AlSi2Ag3
_symmetry_space_group_name_H-M   'P 1'
_cell_length_a   7.13457009
_cell_length_b   7.13180109
_cell_length_c   4.19809200
_cell_angle_alpha   90.00000000
_cell_angle_beta   90.00000000
_cell_angle_gamma   119.98715590
_symmetry_Int_Tables_number   1
_chemical_formula_structural   DyY2AlSi2Ag3
_chemical_formula_sum   'Dy1 Y2 Al1 Si2 Ag3'
_cell_volume   185.01451796
_cell_formula_units_Z   1
loop_
 _symmetry_equiv_pos_site_id
 _symmetry_equiv_pos_as_xyz
  1  'x, y, z'
loop_
 _atom_site_type_symbol
 _atom_site_label
 _atom_site_symmetry_multiplicity
 _atom_site_fract_x
 _atom_site_fract_y
 _atom_site_fract_z
 _atom_site_occupancy
  Dy  Dy0  1  0.000000  0.570688  0.500000  1
  Y  Y1  1  0.428776  0.428718  0.500000  1
  Y  Y2  1  0.571224  0.999941  0.500000  1
  Al  Al3  1  0.000000  0.999703  0.500000  1
  Si  Si4  1  0.667139  0.333817  0.000000  1
  Si  Si5  1  0.332861  0.666679  0.000000  1
  Ag  Ag6  1  0.751372  0.751309  0.000000  1
  Ag  Ag7  1  0.248628  0.999937  0.000000  1
  Ag  Ag8  1  0.000000  0.249206  0.000000  1
