# generated using pymatgen
data_Yb4Zn4Pd3Rh
_symmetry_space_group_name_H-M   'P 1'
_cell_length_a   4.17748500
_cell_length_b   6.99753920
_cell_length_c   8.02266823
_cell_angle_alpha   89.97277018
_cell_angle_beta   90.00000000
_cell_angle_gamma   90.00000000
_symmetry_Int_Tables_number   1
_chemical_formula_structural   Yb4Zn4Pd3Rh
_chemical_formula_sum   'Yb4 Zn4 Pd3 Rh1'
_cell_volume   234.51953400
_cell_formula_units_Z   1
loop_
 _symmetry_equiv_pos_site_id
 _symmetry_equiv_pos_as_xyz
  1  'x, y, z'
loop_
 _atom_site_type_symbol
 _atom_site_label
 _atom_site_symmetry_multiplicity
 _atom_site_fract_x
 _atom_site_fract_y
 _atom_site_fract_z
 _atom_site_occupancy
  Yb  Yb0  1  0.250000  0.527220  0.183754  1
  Yb  Yb1  1  0.750000  0.468173  0.811969  1
  Yb  Yb2  1  0.750000  0.979827  0.681139  1
  Yb  Yb3  1  0.250000  0.030383  0.320864  1
  Zn  Zn4  1  0.250000  0.639874  0.564713  1
  Zn  Zn5  1  0.750000  0.351765  0.440874  1
  Zn  Zn6  1  0.750000  0.855644  0.063962  1
  Zn  Zn7  1  0.250000  0.146168  0.931743  1
  Pd  Pd8  1  0.250000  0.771695  0.874471  1
  Pd  Pd9  1  0.750000  0.228897  0.125229  1
  Pd  Pd10  1  0.750000  0.727762  0.375058  1
  Rh  Rh11  1  0.250000  0.272592  0.626223  1
