# generated using pymatgen
data_EuCo3P3Ru2
_symmetry_space_group_name_H-M   'P 1'
_cell_length_a   3.75404100
_cell_length_b   10.63798500
_cell_length_c   11.94389400
_cell_angle_alpha   90.00000000
_cell_angle_beta   90.00000000
_cell_angle_gamma   90.00000000
_symmetry_Int_Tables_number   1
_chemical_formula_structural   EuCo3P3Ru2
_chemical_formula_sum   'Eu4 Co12 P12 Ru8'
_cell_volume   476.98456483
_cell_formula_units_Z   4
loop_
 _symmetry_equiv_pos_site_id
 _symmetry_equiv_pos_as_xyz
  1  'x, y, z'
loop_
 _atom_site_type_symbol
 _atom_site_label
 _atom_site_symmetry_multiplicity
 _atom_site_fract_x
 _atom_site_fract_y
 _atom_site_fract_z
 _atom_site_occupancy
  Eu  Eu0  1  0.250000  0.586306  0.707810  1
  Eu  Eu1  1  0.250000  0.913694  0.207810  1
  Eu  Eu2  1  0.750000  0.413694  0.292190  1
  Eu  Eu3  1  0.750000  0.086306  0.792190  1
  Co  Co4  1  0.250000  0.223048  0.179062  1
  Co  Co5  1  0.250000  0.276952  0.679062  1
  Co  Co6  1  0.750000  0.776952  0.820938  1
  Co  Co7  1  0.750000  0.723048  0.320938  1
  Co  Co8  1  0.250000  0.883785  0.697321  1
  Co  Co9  1  0.250000  0.616215  0.197321  1
  Co  Co10  1  0.750000  0.116215  0.302679  1
  Co  Co11  1  0.750000  0.383785  0.802679  1
  Co  Co12  1  0.250000  0.463041  0.934693  1
  Co  Co13  1  0.250000  0.036959  0.434693  1
  Co  Co14  1  0.750000  0.536959  0.065307  1
  Co  Co15  1  0.750000  0.963041  0.565307  1
  P  P16  1  0.250000  0.421643  0.112891  1
  P  P17  1  0.250000  0.078357  0.612891  1
  P  P18  1  0.750000  0.578357  0.887109  1
  P  P19  1  0.750000  0.921643  0.387109  1
  P  P20  1  0.250000  0.275139  0.866281  1
  P  P21  1  0.250000  0.224861  0.366281  1
  P  P22  1  0.750000  0.724861  0.133719  1
  P  P23  1  0.750000  0.775139  0.633719  1
  P  P24  1  0.250000  0.603036  0.386315  1
  P  P25  1  0.250000  0.896964  0.886315  1
  P  P26  1  0.750000  0.396964  0.613685  1
  P  P27  1  0.750000  0.103036  0.113685  1
  Ru  Ru28  1  0.250000  0.704822  0.981829  1
  Ru  Ru29  1  0.250000  0.795178  0.481829  1
  Ru  Ru30  1  0.750000  0.295178  0.018171  1
  Ru  Ru31  1  0.750000  0.204822  0.518171  1
  Ru  Ru32  1  0.250000  0.402489  0.489907  1
  Ru  Ru33  1  0.250000  0.097511  0.989907  1
  Ru  Ru34  1  0.750000  0.597511  0.510093  1
  Ru  Ru35  1  0.750000  0.902489  0.010093  1
