# generated using pymatgen
data_Ho16Tl2In2RuRh3
_symmetry_space_group_name_H-M   'P 1'
_cell_length_a   9.63521764
_cell_length_b   9.63852308
_cell_length_c   9.63748200
_cell_angle_alpha   60.00357984
_cell_angle_beta   59.99223252
_cell_angle_gamma   59.99567149
_symmetry_Int_Tables_number   1
_chemical_formula_structural   Ho16Tl2In2RuRh3
_chemical_formula_sum   'Ho16 Tl2 In2 Ru1 Rh3'
_cell_volume   632.83813322
_cell_formula_units_Z   1
loop_
 _symmetry_equiv_pos_site_id
 _symmetry_equiv_pos_as_xyz
  1  'x, y, z'
loop_
 _atom_site_type_symbol
 _atom_site_label
 _atom_site_symmetry_multiplicity
 _atom_site_fract_x
 _atom_site_fract_y
 _atom_site_fract_z
 _atom_site_occupancy
  Ho  Ho0  1  0.187799  0.188392  0.811904  1
  Ho  Ho1  1  0.599009  0.600370  0.201926  1
  Ho  Ho2  1  0.437946  0.058527  0.439831  1
  Ho  Ho3  1  0.439117  0.439511  0.060686  1
  Ho  Ho4  1  0.812013  0.188809  0.811794  1
  Ho  Ho5  1  0.189738  0.812745  0.189087  1
  Ho  Ho6  1  0.437946  0.058527  0.063697  1
  Ho  Ho7  1  0.189738  0.812745  0.808430  1
  Ho  Ho8  1  0.060530  0.438278  0.061331  1
  Ho  Ho9  1  0.808783  0.812627  0.189295  1
  Ho  Ho10  1  0.201251  0.600630  0.599059  1
  Ho  Ho11  1  0.060530  0.438278  0.439861  1
  Ho  Ho12  1  0.063613  0.059089  0.438649  1
  Ho  Ho13  1  0.812013  0.188809  0.187384  1
  Ho  Ho14  1  0.600050  0.200459  0.599746  1
  Ho  Ho15  1  0.599009  0.600370  0.598695  1
  Tl  Tl16  1  0.834042  0.834425  0.835151  1
  Tl  Tl17  1  0.834042  0.834425  0.496384  1
  In  In18  1  0.499378  0.833218  0.833703  1
  In  In19  1  0.832396  0.500876  0.833365  1
  Ru  Ru20  1  0.392664  0.822674  0.392331  1
  Rh  Rh21  1  0.392379  0.391994  0.392117  1
  Rh  Rh22  1  0.823636  0.392233  0.392065  1
  Rh  Rh23  1  0.392379  0.391994  0.823509  1
