# generated using pymatgen
data_ZrNp3N4
_symmetry_space_group_name_H-M   'P 1'
_cell_length_a   5.88443668
_cell_length_b   5.88443709
_cell_length_c   5.88443737
_cell_angle_alpha   131.71598279
_cell_angle_beta   131.71599097
_cell_angle_gamma   70.67797367
_symmetry_Int_Tables_number   1
_chemical_formula_structural   ZrNp3N4
_chemical_formula_sum   'Zr1 Np3 N4'
_cell_volume   111.21785360
_cell_formula_units_Z   1
loop_
 _symmetry_equiv_pos_site_id
 _symmetry_equiv_pos_as_xyz
  1  'x, y, z'
loop_
 _atom_site_type_symbol
 _atom_site_label
 _atom_site_symmetry_multiplicity
 _atom_site_fract_x
 _atom_site_fract_y
 _atom_site_fract_z
 _atom_site_occupancy
  Zr  Zr0  1  0.000000  0.000000  0.000000  1
  Np  Np1  1  0.250000  0.750000  0.500000  1
  Np  Np2  1  0.500000  0.500000  0.000000  1
  Np  Np3  1  0.750000  0.250000  0.500000  1
  N  N4  1  0.000000  0.500000  0.500000  1
  N  N5  1  0.245941  0.245941  0.000000  1
  N  N6  1  0.500000  0.000000  0.500000  1
  N  N7  1  0.754059  0.754059  0.000000  1
