# generated using pymatgen
data_Tm2Lu2TcB12Os
_symmetry_space_group_name_H-M   'P 1'
_cell_length_a   3.61385900
_cell_length_b   9.05627236
_cell_length_c   11.42864501
_cell_angle_alpha   89.92516808
_cell_angle_beta   90.00000000
_cell_angle_gamma   90.00000000
_symmetry_Int_Tables_number   1
_chemical_formula_structural   Tm2Lu2TcB12Os
_chemical_formula_sum   'Tm4 Lu4 Tc2 B24 Os2'
_cell_volume   374.03741881
_cell_formula_units_Z   2
loop_
 _symmetry_equiv_pos_site_id
 _symmetry_equiv_pos_as_xyz
  1  'x, y, z'
loop_
 _atom_site_type_symbol
 _atom_site_label
 _atom_site_symmetry_multiplicity
 _atom_site_fract_x
 _atom_site_fract_y
 _atom_site_fract_z
 _atom_site_occupancy
  Tm  Tm0  1  0.000000  0.324330  0.415258  1
  Tm  Tm1  1  0.000000  0.675670  0.584742  1
  Tm  Tm2  1  0.000000  0.820231  0.087644  1
  Tm  Tm3  1  0.000000  0.179769  0.912356  1
  Lu  Lu4  1  0.000000  0.942152  0.371471  1
  Lu  Lu5  1  0.000000  0.057848  0.628529  1
  Lu  Lu6  1  0.000000  0.444085  0.129439  1
  Lu  Lu7  1  0.000000  0.555915  0.870561  1
  Tc  Tc8  1  0.000000  0.638694  0.320039  1
  Tc  Tc9  1  0.000000  0.361306  0.679961  1
  B  B10  1  0.500000  0.553013  0.433419  1
  B  B11  1  0.500000  0.446987  0.566581  1
  B  B12  1  0.500000  0.053609  0.066384  1
  B  B13  1  0.500000  0.946391  0.933616  1
  B  B14  1  0.500000  0.749604  0.419621  1
  B  B15  1  0.500000  0.250396  0.580379  1
  B  B16  1  0.500000  0.249972  0.080554  1
  B  B17  1  0.500000  0.750028  0.919446  1
  B  B18  1  0.500000  0.792587  0.265105  1
  B  B19  1  0.500000  0.207413  0.734894  1
  B  B20  1  0.500000  0.291815  0.234556  1
  B  B21  1  0.500000  0.708185  0.765445  1
  B  B22  1  0.500000  0.630910  0.184454  1
  B  B23  1  0.500000  0.369090  0.815546  1
  B  B24  1  0.500000  0.130474  0.314831  1
  B  B25  1  0.500000  0.869526  0.685169  1
  B  B26  1  0.500000  0.981804  0.212318  1
  B  B27  1  0.500000  0.018196  0.787682  1
  B  B28  1  0.500000  0.481502  0.287233  1
  B  B29  1  0.500000  0.518498  0.712767  1
  B  B30  1  0.500000  0.602166  0.028057  1
  B  B31  1  0.500000  0.397834  0.971943  1
  B  B32  1  0.500000  0.102236  0.471371  1
  B  B33  1  0.500000  0.897764  0.528629  1
  Os  Os34  1  0.000000  0.137777  0.178429  1
  Os  Os35  1  0.000000  0.862223  0.821571  1
