# generated using pymatgen
data_TbCo2O5
_symmetry_space_group_name_H-M   'P 1'
_cell_length_a   5.63573500
_cell_length_b   7.25434800
_cell_length_c   8.48810400
_cell_angle_alpha   90.00000000
_cell_angle_beta   90.00000000
_cell_angle_gamma   90.00000000
_symmetry_Int_Tables_number   1
_chemical_formula_structural   TbCo2O5
_chemical_formula_sum   'Tb4 Co8 O20'
_cell_volume   347.02410377
_cell_formula_units_Z   4
loop_
 _symmetry_equiv_pos_site_id
 _symmetry_equiv_pos_as_xyz
  1  'x, y, z'
loop_
 _atom_site_type_symbol
 _atom_site_label
 _atom_site_symmetry_multiplicity
 _atom_site_fract_x
 _atom_site_fract_y
 _atom_site_fract_z
 _atom_site_occupancy
  Tb  Tb0  1  0.000000  0.859124  0.826268  1
  Tb  Tb1  1  0.000000  0.140876  0.173732  1
  Tb  Tb2  1  0.000000  0.359124  0.673732  1
  Tb  Tb3  1  0.000000  0.640876  0.326268  1
  Co  Co4  1  0.743268  0.000000  0.500000  1
  Co  Co5  1  0.500000  0.597551  0.646756  1
  Co  Co6  1  0.500000  0.402449  0.353244  1
  Co  Co7  1  0.500000  0.902449  0.146756  1
  Co  Co8  1  0.500000  0.097551  0.853244  1
  Co  Co9  1  0.256732  0.500000  0.000000  1
  Co  Co10  1  0.743268  0.500000  0.000000  1
  Co  Co11  1  0.256732  0.000000  0.500000  1
  O  O12  1  0.000000  0.338834  0.947328  1
  O  O13  1  0.723911  0.000000  0.000000  1
  O  O14  1  0.276089  0.000000  0.000000  1
  O  O15  1  0.500000  0.153589  0.441380  1
  O  O16  1  0.000000  0.161166  0.447328  1
  O  O17  1  0.723911  0.500000  0.500000  1
  O  O18  1  0.000000  0.838834  0.552672  1
  O  O19  1  0.753893  0.598782  0.789218  1
  O  O20  1  0.246107  0.098782  0.710782  1
  O  O21  1  0.500000  0.653589  0.058620  1
  O  O22  1  0.500000  0.346411  0.941380  1
  O  O23  1  0.000000  0.661166  0.052672  1
  O  O24  1  0.753893  0.901218  0.289218  1
  O  O25  1  0.753893  0.401218  0.210782  1
  O  O26  1  0.753893  0.098782  0.710782  1
  O  O27  1  0.246107  0.598782  0.789218  1
  O  O28  1  0.276089  0.500000  0.500000  1
  O  O29  1  0.246107  0.901218  0.289218  1
  O  O30  1  0.246107  0.401218  0.210782  1
  O  O31  1  0.500000  0.846411  0.558620  1
