# generated using pymatgen
data_Y3Zn3Ni2Pd
_symmetry_space_group_name_H-M   'P 1'
_cell_length_a   7.16201300
_cell_length_b   7.16201308
_cell_length_c   3.76944200
_cell_angle_alpha   90.00000000
_cell_angle_beta   90.00000000
_cell_angle_gamma   120.00000427
_symmetry_Int_Tables_number   1
_chemical_formula_structural   Y3Zn3Ni2Pd
_chemical_formula_sum   'Y3 Zn3 Ni2 Pd1'
_cell_volume   167.44720119
_cell_formula_units_Z   1
loop_
 _symmetry_equiv_pos_site_id
 _symmetry_equiv_pos_as_xyz
  1  'x, y, z'
loop_
 _atom_site_type_symbol
 _atom_site_label
 _atom_site_symmetry_multiplicity
 _atom_site_fract_x
 _atom_site_fract_y
 _atom_site_fract_z
 _atom_site_occupancy
  Y  Y0  1  0.588467  0.598678  0.000000  1
  Y  Y1  1  0.401322  0.989788  0.000000  1
  Y  Y2  1  0.010212  0.411533  0.000000  1
  Zn  Zn3  1  0.236798  0.243629  0.500000  1
  Zn  Zn4  1  0.756371  0.993169  0.500000  1
  Zn  Zn5  1  0.006831  0.763202  0.500000  1
  Ni  Ni6  1  0.000000  0.000000  0.000000  1
  Ni  Ni7  1  0.333333  0.666667  0.500000  1
  Pd  Pd8  1  0.666667  0.333333  0.500000  1
