# generated using pymatgen
data_Li3Pr3SiHgGe
_symmetry_space_group_name_H-M   'P 1'
_cell_length_a   7.52588900
_cell_length_b   7.52588833
_cell_length_c   4.34218300
_cell_angle_alpha   90.00000000
_cell_angle_beta   90.00000000
_cell_angle_gamma   120.00000733
_symmetry_Int_Tables_number   1
_chemical_formula_structural   Li3Pr3SiHgGe
_chemical_formula_sum   'Li3 Pr3 Si1 Hg1 Ge1'
_cell_volume   212.98759074
_cell_formula_units_Z   1
loop_
 _symmetry_equiv_pos_site_id
 _symmetry_equiv_pos_as_xyz
  1  'x, y, z'
loop_
 _atom_site_type_symbol
 _atom_site_label
 _atom_site_symmetry_multiplicity
 _atom_site_fract_x
 _atom_site_fract_y
 _atom_site_fract_z
 _atom_site_occupancy
  Li  Li0  1  0.752048  0.752809  0.500000  1
  Li  Li1  1  0.247191  0.999239  0.500000  1
  Li  Li2  1  0.000761  0.247952  0.500000  1
  Pr  Pr3  1  0.001978  0.571452  0.000000  1
  Pr  Pr4  1  0.428548  0.430525  0.000000  1
  Pr  Pr5  1  0.569475  0.998022  0.000000  1
  Si  Si6  1  0.333333  0.666667  0.500000  1
  Hg  Hg7  1  0.000000  0.000000  0.000000  1
  Ge  Ge8  1  0.666667  0.333333  0.500000  1
