# generated using pymatgen
data_Er4Pa4Re(B8W)3
_symmetry_space_group_name_H-M   'P 1'
_cell_length_a   3.72909600
_cell_length_b   9.17736913
_cell_length_c   11.53535516
_cell_angle_alpha   89.98103469
_cell_angle_beta   90.00000000
_cell_angle_gamma   90.00000000
_symmetry_Int_Tables_number   1
_chemical_formula_structural   Er4Pa4Re(B8W)3
_chemical_formula_sum   'Er4 Pa4 Re1 B24 W3'
_cell_volume   394.77778893
_cell_formula_units_Z   1
loop_
 _symmetry_equiv_pos_site_id
 _symmetry_equiv_pos_as_xyz
  1  'x, y, z'
loop_
 _atom_site_type_symbol
 _atom_site_label
 _atom_site_symmetry_multiplicity
 _atom_site_fract_x
 _atom_site_fract_y
 _atom_site_fract_z
 _atom_site_occupancy
  Er  Er0  1  0.000000  0.945887  0.374668  1
  Er  Er1  1  0.000000  0.054401  0.626253  1
  Er  Er2  1  0.000000  0.445864  0.125507  1
  Er  Er3  1  0.000000  0.554888  0.874041  1
  Pa  Pa4  1  0.000000  0.321489  0.412879  1
  Pa  Pa5  1  0.000000  0.677373  0.585821  1
  Pa  Pa6  1  0.000000  0.821550  0.087683  1
  Pa  Pa7  1  0.000000  0.179316  0.913373  1
  Re  Re8  1  0.000000  0.861528  0.821807  1
  B  B9  1  0.500000  0.553052  0.433341  1
  B  B10  1  0.500000  0.447019  0.566899  1
  B  B11  1  0.500000  0.052701  0.066127  1
  B  B12  1  0.500000  0.946007  0.932327  1
  B  B13  1  0.500000  0.749030  0.420806  1
  B  B14  1  0.500000  0.250926  0.579637  1
  B  B15  1  0.500000  0.249241  0.079263  1
  B  B16  1  0.500000  0.751197  0.919549  1
  B  B17  1  0.500000  0.793812  0.264965  1
  B  B18  1  0.500000  0.206038  0.735144  1
  B  B19  1  0.500000  0.293479  0.234917  1
  B  B20  1  0.500000  0.707637  0.765818  1
  B  B21  1  0.500000  0.632833  0.184501  1
  B  B22  1  0.500000  0.367349  0.815467  1
  B  B23  1  0.500000  0.132267  0.315140  1
  B  B24  1  0.500000  0.867791  0.685609  1
  B  B25  1  0.500000  0.981383  0.212968  1
  B  B26  1  0.500000  0.016777  0.787030  1
  B  B27  1  0.500000  0.481580  0.286713  1
  B  B28  1  0.500000  0.518521  0.713338  1
  B  B29  1  0.500000  0.610452  0.029868  1
  B  B30  1  0.500000  0.390343  0.969389  1
  B  B31  1  0.500000  0.109629  0.469639  1
  B  B32  1  0.500000  0.890168  0.531317  1
  W  W33  1  0.000000  0.638853  0.321575  1
  W  W34  1  0.000000  0.361565  0.678875  1
  W  W35  1  0.000000  0.138054  0.177745  1
