# generated using pymatgen
data_Yb4ZrNi(RuO6)2
_symmetry_space_group_name_H-M   'P 1'
_cell_length_a   5.37469082
_cell_length_b   5.63251134
_cell_length_c   7.77179258
_cell_angle_alpha   89.32018632
_cell_angle_beta   89.95627518
_cell_angle_gamma   90.07413480
_symmetry_Int_Tables_number   1
_chemical_formula_structural   Yb4ZrNi(RuO6)2
_chemical_formula_sum   'Yb4 Zr1 Ni1 Ru2 O12'
_cell_volume   235.25870197
_cell_formula_units_Z   1
loop_
 _symmetry_equiv_pos_site_id
 _symmetry_equiv_pos_as_xyz
  1  'x, y, z'
loop_
 _atom_site_type_symbol
 _atom_site_label
 _atom_site_symmetry_multiplicity
 _atom_site_fract_x
 _atom_site_fract_y
 _atom_site_fract_z
 _atom_site_occupancy
  Yb  Yb0  1  0.516111  0.926193  0.770615  1
  Yb  Yb1  1  0.021576  0.560004  0.231262  1
  Yb  Yb2  1  0.978424  0.439996  0.768738  1
  Yb  Yb3  1  0.483889  0.073807  0.229385  1
  Zr  Zr4  1  0.000000  0.000000  0.500000  1
  Ni  Ni5  1  0.500000  0.500000  0.000000  1
  Ru  Ru6  1  0.500000  0.500000  0.500000  1
  Ru  Ru7  1  0.000000  0.000000  0.000000  1
  O  O8  1  0.202630  0.307981  0.439285  1
  O  O9  1  0.685410  0.204209  0.560869  1
  O  O10  1  0.297221  0.806709  0.045283  1
  O  O11  1  0.810414  0.709188  0.952277  1
  O  O12  1  0.797370  0.692019  0.560715  1
  O  O13  1  0.314590  0.795791  0.439131  1
  O  O14  1  0.702779  0.193291  0.954717  1
  O  O15  1  0.189586  0.290812  0.047723  1
  O  O16  1  0.605607  0.468961  0.260106  1
  O  O17  1  0.102731  0.034215  0.756084  1
  O  O18  1  0.897269  0.965785  0.243916  1
  O  O19  1  0.394393  0.531039  0.739894  1
