# generated using pymatgen
data_Ta20Al9Au
_symmetry_space_group_name_H-M   'P 1'
_cell_length_a   9.94580455
_cell_length_b   9.94580455
_cell_length_c   5.23221700
_cell_angle_alpha   90.00000000
_cell_angle_beta   90.00000000
_cell_angle_gamma   89.55336413
_symmetry_Int_Tables_number   1
_chemical_formula_structural   Ta20Al9Au
_chemical_formula_sum   'Ta20 Al9 Au1'
_cell_volume   517.55009510
_cell_formula_units_Z   1
loop_
 _symmetry_equiv_pos_site_id
 _symmetry_equiv_pos_as_xyz
  1  'x, y, z'
loop_
 _atom_site_type_symbol
 _atom_site_label
 _atom_site_symmetry_multiplicity
 _atom_site_fract_x
 _atom_site_fract_y
 _atom_site_fract_z
 _atom_site_occupancy
  Ta  Ta0  1  0.463091  0.129161  0.000000  1
  Ta  Ta1  1  0.397987  0.397987  0.000000  1
  Ta  Ta2  1  0.129161  0.463091  0.000000  1
  Ta  Ta3  1  0.870840  0.536909  0.000000  1
  Ta  Ta4  1  0.602013  0.602013  0.000000  1
  Ta  Ta5  1  0.536909  0.870840  0.000000  1
  Ta  Ta6  1  0.681977  0.318023  0.248556  1
  Ta  Ta7  1  0.318023  0.681977  0.248556  1
  Ta  Ta8  1  0.183517  0.183517  0.251931  1
  Ta  Ta9  1  0.816483  0.816483  0.251931  1
  Ta  Ta10  1  0.630477  0.035479  0.500001  1
  Ta  Ta11  1  0.897479  0.102521  0.500001  1
  Ta  Ta12  1  0.964521  0.369523  0.500001  1
  Ta  Ta13  1  0.035479  0.630477  0.500001  1
  Ta  Ta14  1  0.102521  0.897479  0.500001  1
  Ta  Ta15  1  0.369523  0.964521  0.500001  1
  Ta  Ta16  1  0.183517  0.183517  0.748069  1
  Ta  Ta17  1  0.816483  0.816483  0.748069  1
  Ta  Ta18  1  0.681977  0.318023  0.751445  1
  Ta  Ta19  1  0.318023  0.681977  0.751445  1
  Al  Al20  1  0.738559  0.066539  0.000000  1
  Al  Al21  1  0.933462  0.261441  0.000000  1
  Al  Al22  1  0.066539  0.738559  0.000000  1
  Al  Al23  1  0.261441  0.933462  0.000000  1
  Al  Al24  1  0.434197  0.237723  0.500001  1
  Al  Al25  1  0.237723  0.434197  0.500001  1
  Al  Al26  1  0.500000  0.500000  0.500001  1
  Al  Al27  1  0.762278  0.565802  0.500001  1
  Al  Al28  1  0.565802  0.762278  0.500001  1
  Au  Au29  1  0.000000  0.000000  0.000000  1
