# generated using pymatgen
data_Nd6GePI6
_symmetry_space_group_name_H-M   'P 1'
_cell_length_a   10.76871434
_cell_length_b   10.76871347
_cell_length_c   10.76507702
_cell_angle_alpha   109.46107534
_cell_angle_beta   109.46107063
_cell_angle_gamma   109.50519235
_symmetry_Int_Tables_number   1
_chemical_formula_structural   Nd6GePI6
_chemical_formula_sum   'Nd12 Ge2 P2 I12'
_cell_volume   960.83660548
_cell_formula_units_Z   2
loop_
 _symmetry_equiv_pos_site_id
 _symmetry_equiv_pos_as_xyz
  1  'x, y, z'
loop_
 _atom_site_type_symbol
 _atom_site_label
 _atom_site_symmetry_multiplicity
 _atom_site_fract_x
 _atom_site_fract_y
 _atom_site_fract_z
 _atom_site_occupancy
  Nd  Nd0  1  0.271314  0.021314  0.042626  1
  Nd  Nd1  1  0.037332  0.265793  0.022974  1
  Nd  Nd2  1  0.485641  0.757181  0.022974  1
  Nd  Nd3  1  0.742807  0.228439  0.265391  1
  Nd  Nd4  1  0.022585  0.036951  0.265391  1
  Nd  Nd5  1  0.015467  0.484533  0.750000  1
  Nd  Nd6  1  0.234533  0.265467  0.750000  1
  Nd  Nd7  1  0.271561  0.757193  0.234609  1
  Nd  Nd8  1  0.234207  0.462668  0.477026  1
  Nd  Nd9  1  0.463049  0.477415  0.234609  1
  Nd  Nd10  1  0.742819  0.014359  0.477026  1
  Nd  Nd11  1  0.478686  0.228686  0.457374  1
  Ge  Ge12  1  0.999499  0.249499  0.498997  1
  Ge  Ge13  1  0.250501  0.500501  0.001003  1
  P  P14  1  0.499268  0.000732  0.250000  1
  P  P15  1  0.250732  0.249268  0.250000  1
  I  I16  1  0.757510  0.742490  0.250000  1
  I  I17  1  0.508312  0.249751  0.992803  1
  I  I18  1  0.250249  0.991688  0.507197  1
  I  I19  1  0.516003  0.507579  0.757154  1
  I  I20  1  0.992421  0.983997  0.742846  1
  I  I21  1  0.741892  0.991892  0.983783  1
  I  I22  1  0.508108  0.758108  0.516217  1
  I  I23  1  0.756948  0.515509  0.507197  1
  I  I24  1  0.992490  0.507510  0.250000  1
  I  I25  1  0.984491  0.743052  0.992803  1
  I  I26  1  0.250425  0.758849  0.742846  1
  I  I27  1  0.741151  0.249575  0.757154  1
