# generated using pymatgen
data_Pr2Nd8InBi5Br2
_symmetry_space_group_name_H-M   'P 1'
_cell_length_a   9.68619400
_cell_length_b   9.63993847
_cell_length_c   6.74834000
_cell_angle_alpha   90.00000000
_cell_angle_beta   90.00000000
_cell_angle_gamma   120.15885457
_symmetry_Int_Tables_number   1
_chemical_formula_structural   Pr2Nd8InBi5Br2
_chemical_formula_sum   'Pr2 Nd8 In1 Bi5 Br2'
_cell_volume   544.82571620
_cell_formula_units_Z   1
loop_
 _symmetry_equiv_pos_site_id
 _symmetry_equiv_pos_as_xyz
  1  'x, y, z'
loop_
 _atom_site_type_symbol
 _atom_site_label
 _atom_site_symmetry_multiplicity
 _atom_site_fract_x
 _atom_site_fract_y
 _atom_site_fract_z
 _atom_site_occupancy
  Pr  Pr0  1  0.000742  0.729920  0.250000  1
  Pr  Pr1  1  0.270823  0.270080  0.250000  1
  Nd  Nd2  1  0.274273  0.000000  0.750000  1
  Nd  Nd3  1  0.727924  0.000000  0.250000  1
  Nd  Nd4  1  0.995576  0.268632  0.750000  1
  Nd  Nd5  1  0.726943  0.731368  0.750000  1
  Nd  Nd6  1  0.334928  0.668342  0.499221  1
  Nd  Nd7  1  0.666588  0.331658  0.499221  1
  Nd  Nd8  1  0.666588  0.331658  0.000779  1
  Nd  Nd9  1  0.334928  0.668342  0.000779  1
  In  In10  1  0.613405  0.000000  0.750000  1
  Bi  Bi11  1  0.388151  0.000000  0.250000  1
  Bi  Bi12  1  0.998631  0.615103  0.750000  1
  Bi  Bi13  1  0.999383  0.383470  0.250000  1
  Bi  Bi14  1  0.383527  0.384897  0.750000  1
  Bi  Bi15  1  0.615913  0.616530  0.250000  1
  Br  Br16  1  0.000838  0.000000  0.500785  1
  Br  Br17  1  0.000838  0.000000  0.999215  1
