# generated using pymatgen
data_Pr5Bi2Ir
_symmetry_space_group_name_H-M   'P 1'
_cell_length_a   8.40079000
_cell_length_b   9.27800000
_cell_length_c   13.03183400
_cell_angle_alpha   90.00000000
_cell_angle_beta   90.00000000
_cell_angle_gamma   90.00000000
_symmetry_Int_Tables_number   1
_chemical_formula_structural   Pr5Bi2Ir
_chemical_formula_sum   'Pr20 Bi8 Ir4'
_cell_volume   1015.73410755
_cell_formula_units_Z   4
loop_
 _symmetry_equiv_pos_site_id
 _symmetry_equiv_pos_as_xyz
  1  'x, y, z'
loop_
 _atom_site_type_symbol
 _atom_site_label
 _atom_site_symmetry_multiplicity
 _atom_site_fract_x
 _atom_site_fract_y
 _atom_site_fract_z
 _atom_site_occupancy
  Pr  Pr0  1  0.347506  0.750000  0.705910  1
  Pr  Pr1  1  0.652494  0.250000  0.294090  1
  Pr  Pr2  1  0.847506  0.250000  0.794090  1
  Pr  Pr3  1  0.152494  0.750000  0.205910  1
  Pr  Pr4  1  0.876306  0.750000  0.805342  1
  Pr  Pr5  1  0.123694  0.250000  0.194658  1
  Pr  Pr6  1  0.376306  0.250000  0.694658  1
  Pr  Pr7  1  0.623694  0.750000  0.305342  1
  Pr  Pr8  1  0.681934  0.539595  0.564790  1
  Pr  Pr9  1  0.318066  0.460405  0.435210  1
  Pr  Pr10  1  0.181934  0.460405  0.935210  1
  Pr  Pr11  1  0.318066  0.039595  0.435210  1
  Pr  Pr12  1  0.818066  0.539595  0.064790  1
  Pr  Pr13  1  0.681934  0.960405  0.564790  1
  Pr  Pr14  1  0.818066  0.960405  0.064790  1
  Pr  Pr15  1  0.181934  0.039595  0.935210  1
  Pr  Pr16  1  0.052815  0.750000  0.497894  1
  Pr  Pr17  1  0.947185  0.250000  0.502106  1
  Pr  Pr18  1  0.552815  0.250000  0.002106  1
  Pr  Pr19  1  0.447185  0.750000  0.997894  1
  Bi  Bi20  1  0.573177  0.506756  0.826965  1
  Bi  Bi21  1  0.426823  0.493244  0.173035  1
  Bi  Bi22  1  0.073177  0.493244  0.673035  1
  Bi  Bi23  1  0.426823  0.006756  0.173035  1
  Bi  Bi24  1  0.926823  0.506756  0.326965  1
  Bi  Bi25  1  0.573177  0.993244  0.826965  1
  Bi  Bi26  1  0.926823  0.993244  0.326965  1
  Bi  Bi27  1  0.073177  0.006756  0.673035  1
  Ir  Ir28  1  0.069930  0.750000  0.989812  1
  Ir  Ir29  1  0.930070  0.250000  0.010188  1
  Ir  Ir30  1  0.569930  0.250000  0.510188  1
  Ir  Ir31  1  0.430070  0.750000  0.489812  1
