# generated using pymatgen
data_Nb2Al(Co10B3)2
_symmetry_space_group_name_H-M   'P 1'
_cell_length_a   7.44364692
_cell_length_b   7.44363717
_cell_length_c   7.44351100
_cell_angle_alpha   59.99785695
_cell_angle_beta   59.99847082
_cell_angle_gamma   60.00087942
_symmetry_Int_Tables_number   1
_chemical_formula_structural   Nb2Al(Co10B3)2
_chemical_formula_sum   'Nb2 Al1 Co20 B6'
_cell_volume   291.62491829
_cell_formula_units_Z   1
loop_
 _symmetry_equiv_pos_site_id
 _symmetry_equiv_pos_as_xyz
  1  'x, y, z'
loop_
 _atom_site_type_symbol
 _atom_site_label
 _atom_site_symmetry_multiplicity
 _atom_site_fract_x
 _atom_site_fract_y
 _atom_site_fract_z
 _atom_site_occupancy
  Nb  Nb0  1  0.749992  0.750032  0.749911  1
  Nb  Nb1  1  0.249977  0.250040  0.250023  1
  Al  Al2  1  0.000186  0.999887  0.000023  1
  Co  Co3  1  0.616331  0.150909  0.616386  1
  Co  Co4  1  0.383616  0.383609  0.849146  1
  Co  Co5  1  0.849114  0.383629  0.383626  1
  Co  Co6  1  0.383611  0.383618  0.383634  1
  Co  Co7  1  0.150900  0.616349  0.616377  1
  Co  Co8  1  0.616338  0.616374  0.616375  1
  Co  Co9  1  0.616362  0.616408  0.150848  1
  Co  Co10  1  0.383628  0.849166  0.383596  1
  Co  Co11  1  0.658356  0.341615  0.000002  1
  Co  Co12  1  0.000005  0.341615  0.658377  1
  Co  Co13  1  0.658348  0.000016  0.000001  1
  Co  Co14  1  0.000002  0.000001  0.341625  1
  Co  Co15  1  0.999990  0.000010  0.658379  1
  Co  Co16  1  0.000016  0.341606  0.999995  1
  Co  Co17  1  0.658361  0.000006  0.341624  1
  Co  Co18  1  0.341626  0.000010  0.000002  1
  Co  Co19  1  0.000006  0.658389  0.999997  1
  Co  Co20  1  0.341618  0.000010  0.658373  1
  Co  Co21  1  0.000007  0.658385  0.341612  1
  Co  Co22  1  0.341632  0.658356  0.000004  1
  B  B23  1  0.274955  0.274960  0.725025  1
  B  B24  1  0.274967  0.725025  0.725047  1
  B  B25  1  0.725035  0.274931  0.275026  1
  B  B26  1  0.274888  0.725030  0.274995  1
  B  B27  1  0.725027  0.275013  0.724963  1
  B  B28  1  0.725107  0.725000  0.275006  1
