# generated using pymatgen
data_Tb6GaNiRu
_symmetry_space_group_name_H-M   'P 1'
_cell_length_a   8.37735941
_cell_length_b   8.37735976
_cell_length_c   8.37736004
_cell_angle_alpha   105.35126302
_cell_angle_beta   110.04264084
_cell_angle_gamma   113.11291561
_symmetry_Int_Tables_number   1
_chemical_formula_structural   Tb6GaNiRu
_chemical_formula_sum   'Tb12 Ga2 Ni2 Ru2'
_cell_volume   450.49588010
_cell_formula_units_Z   2
loop_
 _symmetry_equiv_pos_site_id
 _symmetry_equiv_pos_as_xyz
  1  'x, y, z'
loop_
 _atom_site_type_symbol
 _atom_site_label
 _atom_site_symmetry_multiplicity
 _atom_site_fract_x
 _atom_site_fract_y
 _atom_site_fract_z
 _atom_site_occupancy
  Tb  Tb0  1  0.693396  0.259218  0.952614  1
  Tb  Tb1  1  0.306604  0.740782  0.047386  1
  Tb  Tb2  1  0.693396  0.740782  0.434179  1
  Tb  Tb3  1  0.306604  0.259218  0.565821  1
  Tb  Tb4  1  0.810654  0.140171  0.329517  1
  Tb  Tb5  1  0.810654  0.481137  0.670483  1
  Tb  Tb6  1  0.189346  0.859829  0.670483  1
  Tb  Tb7  1  0.189346  0.518863  0.329517  1
  Tb  Tb8  1  0.599943  0.779905  0.820038  1
  Tb  Tb9  1  0.959867  0.779905  0.179962  1
  Tb  Tb10  1  0.040133  0.220095  0.820038  1
  Tb  Tb11  1  0.400057  0.220095  0.179962  1
  Ga  Ga12  1  0.500000  0.500000  0.000000  1
  Ga  Ga13  1  0.500000  0.000000  0.500000  1
  Ni  Ni14  1  0.000000  0.117037  0.117037  1
  Ni  Ni15  1  0.000000  0.882963  0.882963  1
  Ru  Ru16  1  0.830358  0.500000  0.330358  1
  Ru  Ru17  1  0.169642  0.500000  0.669642  1
