# generated using pymatgen
data_SmY5Nb2(Co4P3)4
_symmetry_space_group_name_H-M   'P 1'
_cell_length_a   3.72463500
_cell_length_b   10.66632000
_cell_length_c   12.37515700
_cell_angle_alpha   90.00000000
_cell_angle_beta   90.00000000
_cell_angle_gamma   90.00000000
_symmetry_Int_Tables_number   1
_chemical_formula_structural   SmY5Nb2(Co4P3)4
_chemical_formula_sum   'Sm1 Y5 Nb2 Co16 P12'
_cell_volume   491.64207864
_cell_formula_units_Z   1
loop_
 _symmetry_equiv_pos_site_id
 _symmetry_equiv_pos_as_xyz
  1  'x, y, z'
loop_
 _atom_site_type_symbol
 _atom_site_label
 _atom_site_symmetry_multiplicity
 _atom_site_fract_x
 _atom_site_fract_y
 _atom_site_fract_z
 _atom_site_occupancy
  Sm  Sm0  1  0.500000  0.000000  0.473520  1
  Y  Y1  1  0.000000  0.500000  0.525788  1
  Y  Y2  1  0.500000  0.819710  0.204837  1
  Y  Y3  1  0.500000  0.180290  0.204837  1
  Y  Y4  1  0.000000  0.679964  0.794827  1
  Y  Y5  1  0.000000  0.320036  0.794827  1
  Nb  Nb6  1  0.500000  0.500000  0.156238  1
  Nb  Nb7  1  0.000000  0.000000  0.844598  1
  Co  Co8  1  0.500000  0.500000  0.702034  1
  Co  Co9  1  0.000000  0.000000  0.296670  1
  Co  Co10  1  0.000000  0.500000  0.985421  1
  Co  Co11  1  0.500000  0.000000  0.014554  1
  Co  Co12  1  0.500000  0.332593  0.991293  1
  Co  Co13  1  0.500000  0.667407  0.991293  1
  Co  Co14  1  0.000000  0.167612  0.008684  1
  Co  Co15  1  0.000000  0.832388  0.008684  1
  Co  Co16  1  0.500000  0.296428  0.432165  1
  Co  Co17  1  0.500000  0.703572  0.432165  1
  Co  Co18  1  0.000000  0.205950  0.568070  1
  Co  Co19  1  0.000000  0.794050  0.568070  1
  Co  Co20  1  0.500000  0.877170  0.705711  1
  Co  Co21  1  0.500000  0.122830  0.705711  1
  Co  Co22  1  0.000000  0.622125  0.294684  1
  Co  Co23  1  0.000000  0.377875  0.294684  1
  P  P24  1  0.500000  0.500000  0.881792  1
  P  P25  1  0.000000  0.000000  0.117809  1
  P  P26  1  0.500000  0.500000  0.354850  1
  P  P27  1  0.000000  0.000000  0.647101  1
  P  P28  1  0.500000  0.310950  0.615653  1
  P  P29  1  0.500000  0.689050  0.615653  1
  P  P30  1  0.000000  0.191014  0.383883  1
  P  P31  1  0.000000  0.808986  0.383883  1
  P  P32  1  0.500000  0.841534  0.893797  1
  P  P33  1  0.500000  0.158466  0.893797  1
  P  P34  1  0.000000  0.658278  0.106208  1
  P  P35  1  0.000000  0.341722  0.106208  1
