# generated using pymatgen
data_Tm20Ir9OsRh2
_symmetry_space_group_name_H-M   'P 1'
_cell_length_a   10.71167700
_cell_length_b   10.71167700
_cell_length_c   6.34125800
_cell_angle_alpha   90.00000000
_cell_angle_beta   90.00000000
_cell_angle_gamma   90.00000000
_symmetry_Int_Tables_number   1
_chemical_formula_structural   Tm20Ir9OsRh2
_chemical_formula_sum   'Tm20 Ir9 Os1 Rh2'
_cell_volume   727.59609608
_cell_formula_units_Z   1
loop_
 _symmetry_equiv_pos_site_id
 _symmetry_equiv_pos_as_xyz
  1  'x, y, z'
loop_
 _atom_site_type_symbol
 _atom_site_label
 _atom_site_symmetry_multiplicity
 _atom_site_fract_x
 _atom_site_fract_y
 _atom_site_fract_z
 _atom_site_occupancy
  Tm  Tm0  1  0.292940  0.086880  0.380948  1
  Tm  Tm1  1  0.291999  0.912945  0.874458  1
  Tm  Tm2  1  0.708001  0.087055  0.874458  1
  Tm  Tm3  1  0.707060  0.913120  0.380948  1
  Tm  Tm4  1  0.587055  0.791999  0.874458  1
  Tm  Tm5  1  0.586880  0.207060  0.380948  1
  Tm  Tm6  1  0.413120  0.792940  0.380948  1
  Tm  Tm7  1  0.412945  0.208001  0.874458  1
  Tm  Tm8  1  0.209175  0.412514  0.620589  1
  Tm  Tm9  1  0.209460  0.588197  0.123834  1
  Tm  Tm10  1  0.790540  0.411803  0.123834  1
  Tm  Tm11  1  0.790825  0.587486  0.620589  1
  Tm  Tm12  1  0.911803  0.709460  0.123834  1
  Tm  Tm13  1  0.912514  0.290825  0.620589  1
  Tm  Tm14  1  0.087486  0.709175  0.620589  1
  Tm  Tm15  1  0.088197  0.290540  0.123834  1
  Tm  Tm16  1  0.000000  0.000000  0.499166  1
  Tm  Tm17  1  0.000000  0.000000  0.999210  1
  Tm  Tm18  1  0.500000  0.500000  0.999210  1
  Tm  Tm19  1  0.500000  0.500000  0.499166  1
  Ir  Ir20  1  0.847099  0.153740  0.249341  1
  Ir  Ir21  1  0.847492  0.845564  0.750427  1
  Ir  Ir22  1  0.152508  0.154436  0.750427  1
  Ir  Ir23  1  0.152901  0.846260  0.249341  1
  Ir  Ir24  1  0.654436  0.347492  0.750427  1
  Ir  Ir25  1  0.653740  0.652901  0.249341  1
  Ir  Ir26  1  0.346260  0.347099  0.249341  1
  Ir  Ir27  1  0.345564  0.652508  0.750427  1
  Ir  Ir28  1  0.000000  0.500000  0.377112  1
  Os  Os29  1  0.500000  0.000000  0.626350  1
  Rh  Rh30  1  0.500000  0.000000  0.123769  1
  Rh  Rh31  1  0.000000  0.500000  0.877625  1
