# generated using pymatgen
data_Lu2InB2Ru5
_symmetry_space_group_name_H-M   'P 1'
_cell_length_a   9.67729500
_cell_length_b   9.67729500
_cell_length_c   3.12772800
_cell_angle_alpha   90.00000000
_cell_angle_beta   90.00000000
_cell_angle_gamma   90.00000000
_symmetry_Int_Tables_number   1
_chemical_formula_structural   Lu2InB2Ru5
_chemical_formula_sum   'Lu4 In2 B4 Ru10'
_cell_volume   292.91184767
_cell_formula_units_Z   2
loop_
 _symmetry_equiv_pos_site_id
 _symmetry_equiv_pos_as_xyz
  1  'x, y, z'
loop_
 _atom_site_type_symbol
 _atom_site_label
 _atom_site_symmetry_multiplicity
 _atom_site_fract_x
 _atom_site_fract_y
 _atom_site_fract_z
 _atom_site_occupancy
  Lu  Lu0  1  0.675097  0.175097  0.000000  1
  Lu  Lu1  1  0.324903  0.824903  0.000000  1
  Lu  Lu2  1  0.175097  0.324903  0.000000  1
  Lu  Lu3  1  0.824903  0.675097  0.000000  1
  In  In4  1  0.000000  0.000000  0.000000  1
  In  In5  1  0.500000  0.500000  0.000000  1
  B  B6  1  0.121205  0.621205  0.000000  1
  B  B7  1  0.878795  0.378795  0.000000  1
  B  B8  1  0.621205  0.878795  0.000000  1
  B  B9  1  0.378795  0.121205  0.000000  1
  Ru  Ru10  1  0.224347  0.071373  0.500000  1
  Ru  Ru11  1  0.775653  0.928627  0.500000  1
  Ru  Ru12  1  0.071373  0.775653  0.500000  1
  Ru  Ru13  1  0.724347  0.428627  0.500000  1
  Ru  Ru14  1  0.928627  0.224347  0.500000  1
  Ru  Ru15  1  0.275653  0.571373  0.500000  1
  Ru  Ru16  1  0.571373  0.724347  0.500000  1
  Ru  Ru17  1  0.428627  0.275653  0.500000  1
  Ru  Ru18  1  0.500000  0.000000  0.500000  1
  Ru  Ru19  1  0.000000  0.500000  0.500000  1
