# generated using pymatgen
data_PaAl10FeRe
_symmetry_space_group_name_H-M   'P 1'
_cell_length_a   6.82459193
_cell_length_b   6.83657114
_cell_length_c   9.08194200
_cell_angle_alpha   90.00000000
_cell_angle_beta   90.00000000
_cell_angle_gamma   97.57739239
_symmetry_Int_Tables_number   1
_chemical_formula_structural   PaAl10FeRe
_chemical_formula_sum   'Pa2 Al20 Fe2 Re2'
_cell_volume   420.03422836
_cell_formula_units_Z   2
loop_
 _symmetry_equiv_pos_site_id
 _symmetry_equiv_pos_as_xyz
  1  'x, y, z'
loop_
 _atom_site_type_symbol
 _atom_site_label
 _atom_site_symmetry_multiplicity
 _atom_site_fract_x
 _atom_site_fract_y
 _atom_site_fract_z
 _atom_site_occupancy
  Pa  Pa0  1  0.884130  0.141868  0.750000  1
  Pa  Pa1  1  0.115870  0.858132  0.250000  1
  Al  Al2  1  0.620830  0.372935  0.548042  1
  Al  Al3  1  0.379170  0.627065  0.451958  1
  Al  Al4  1  0.379170  0.627065  0.048042  1
  Al  Al5  1  0.620830  0.372935  0.951958  1
  Al  Al6  1  0.229616  0.219331  0.500436  1
  Al  Al7  1  0.770384  0.780669  0.499564  1
  Al  Al8  1  0.770384  0.780669  0.000436  1
  Al  Al9  1  0.229616  0.219331  0.999564  1
  Al  Al10  1  0.837074  0.151127  0.100471  1
  Al  Al11  1  0.162926  0.848873  0.899529  1
  Al  Al12  1  0.162926  0.848873  0.600471  1
  Al  Al13  1  0.837074  0.151127  0.399529  1
  Al  Al14  1  0.861167  0.600444  0.750000  1
  Al  Al15  1  0.138833  0.399556  0.250000  1
  Al  Al16  1  0.416986  0.140196  0.750000  1
  Al  Al17  1  0.583014  0.859804  0.250000  1
  Al  Al18  1  0.227572  0.485441  0.750000  1
  Al  Al19  1  0.772428  0.514559  0.250000  1
  Al  Al20  1  0.523970  0.789352  0.750000  1
  Al  Al21  1  0.476030  0.210648  0.250000  1
  Fe  Fe22  1  0.500000  0.000000  0.000000  1
  Fe  Fe23  1  0.500000  0.000000  0.500000  1
  Re  Re24  1  0.000000  0.500000  0.500000  1
  Re  Re25  1  0.000000  0.500000  0.000000  1
