# generated using pymatgen
data_BaAc3(SiPt)4
_symmetry_space_group_name_H-M   'P 1'
_cell_length_a   6.54615305
_cell_length_b   6.54615111
_cell_length_c   6.54615200
_cell_angle_alpha   89.96751914
_cell_angle_beta   89.96751914
_cell_angle_gamma   90.03248870
_symmetry_Int_Tables_number   1
_chemical_formula_structural   BaAc3(SiPt)4
_chemical_formula_sum   'Ba1 Ac3 Si4 Pt4'
_cell_volume   280.51627089
_cell_formula_units_Z   1
loop_
 _symmetry_equiv_pos_site_id
 _symmetry_equiv_pos_as_xyz
  1  'x, y, z'
loop_
 _atom_site_type_symbol
 _atom_site_label
 _atom_site_symmetry_multiplicity
 _atom_site_fract_x
 _atom_site_fract_y
 _atom_site_fract_z
 _atom_site_occupancy
  Ba  Ba0  1  0.870949  0.370949  0.129051  1
  Ac  Ac1  1  0.374327  0.129276  0.872760  1
  Ac  Ac2  1  0.629276  0.627240  0.625673  1
  Ac  Ac3  1  0.127240  0.874327  0.370724  1
  Si  Si4  1  0.087548  0.415123  0.588000  1
  Si  Si5  1  0.575643  0.075643  0.424357  1
  Si  Si6  1  0.412000  0.587548  0.084877  1
  Si  Si7  1  0.915123  0.912000  0.912452  1
  Pt  Pt8  1  0.341061  0.340675  0.340409  1
  Pt  Pt9  1  0.840675  0.159591  0.658939  1
  Pt  Pt10  1  0.166567  0.666567  0.833433  1
  Pt  Pt11  1  0.659591  0.841061  0.159325  1
