# generated using pymatgen
data_Mn2Nb6Re(Si2Ru)3
_symmetry_space_group_name_H-M   'P 1'
_cell_length_a   7.47579968
_cell_length_b   7.47099013
_cell_length_c   7.48030738
_cell_angle_alpha   127.91757614
_cell_angle_beta   123.20851111
_cell_angle_gamma   80.70417611
_symmetry_Int_Tables_number   1
_chemical_formula_structural   Mn2Nb6Re(Si2Ru)3
_chemical_formula_sum   'Mn2 Nb6 Re1 Si6 Ru3'
_cell_volume   265.88982518
_cell_formula_units_Z   1
loop_
 _symmetry_equiv_pos_site_id
 _symmetry_equiv_pos_as_xyz
  1  'x, y, z'
loop_
 _atom_site_type_symbol
 _atom_site_label
 _atom_site_symmetry_multiplicity
 _atom_site_fract_x
 _atom_site_fract_y
 _atom_site_fract_z
 _atom_site_occupancy
  Mn  Mn0  1  0.501720  0.249381  0.749322  1
  Mn  Mn1  1  0.001219  0.245353  0.248496  1
  Nb  Nb2  1  0.556193  0.098295  0.041845  1
  Nb  Nb3  1  0.442361  0.484292  0.537254  1
  Nb  Nb4  1  0.968666  0.492509  0.031749  1
  Nb  Nb5  1  0.036455  0.070159  0.533374  1
  Nb  Nb6  1  0.747677  0.919942  0.665110  1
  Nb  Nb7  1  0.249047  0.912682  0.170555  1
  Re  Re8  1  0.406696  0.495249  0.150667  1
  Si  Si9  1  0.780564  0.528319  0.252451  1
  Si  Si10  1  0.221460  0.475932  0.746192  1
  Si  Si11  1  0.336264  0.832681  0.503756  1
  Si  Si12  1  0.663181  0.163460  0.492750  1
  Si  Si13  1  0.830101  0.828472  0.991799  1
  Si  Si14  1  0.168932  0.157619  0.998672  1
  Ru  Ru15  1  0.158719  0.747253  0.656223  1
  Ru  Ru16  1  0.836846  0.495989  0.583670  1
  Ru  Ru17  1  0.593901  0.744611  0.088317  1
