# generated using pymatgen
data_EuSb12OsRu2Pt
_symmetry_space_group_name_H-M   'P 1'
_cell_length_a   8.18093458
_cell_length_b   8.18318665
_cell_length_c   8.17696887
_cell_angle_alpha   109.42781895
_cell_angle_beta   109.41280341
_cell_angle_gamma   109.44157931
_symmetry_Int_Tables_number   1
_chemical_formula_structural   EuSb12OsRu2Pt
_chemical_formula_sum   'Eu1 Sb12 Os1 Ru2 Pt1'
_cell_volume   422.08353589
_cell_formula_units_Z   1
loop_
 _symmetry_equiv_pos_site_id
 _symmetry_equiv_pos_as_xyz
  1  'x, y, z'
loop_
 _atom_site_type_symbol
 _atom_site_label
 _atom_site_symmetry_multiplicity
 _atom_site_fract_x
 _atom_site_fract_y
 _atom_site_fract_z
 _atom_site_occupancy
  Eu  Eu0  1  0.000000  0.000000  0.000000  1
  Sb  Sb1  1  0.660897  0.849819  0.502846  1
  Sb  Sb2  1  0.339103  0.150181  0.497154  1
  Sb  Sb3  1  0.841050  0.180480  0.337393  1
  Sb  Sb4  1  0.819548  0.661318  0.157746  1
  Sb  Sb5  1  0.850068  0.502837  0.662093  1
  Sb  Sb6  1  0.180452  0.338682  0.842254  1
  Sb  Sb7  1  0.158950  0.819520  0.662607  1
  Sb  Sb8  1  0.502947  0.662323  0.850196  1
  Sb  Sb9  1  0.497053  0.337677  0.149804  1
  Sb  Sb10  1  0.149932  0.497163  0.337907  1
  Sb  Sb11  1  0.337640  0.841191  0.179710  1
  Sb  Sb12  1  0.662360  0.158809  0.820290  1
  Os  Os13  1  0.000000  0.000000  0.500000  1
  Ru  Ru14  1  0.500000  0.000000  0.000000  1
  Ru  Ru15  1  0.000000  0.500000  0.000000  1
  Pt  Pt16  1  0.500000  0.500000  0.500000  1
