# generated using pymatgen
data_Ce2Al2IrAu
_symmetry_space_group_name_H-M   'P 1'
_cell_length_a   7.17261000
_cell_length_b   7.17260996
_cell_length_c   8.47527000
_cell_angle_alpha   90.00000000
_cell_angle_beta   90.00000000
_cell_angle_gamma   119.99999896
_symmetry_Int_Tables_number   1
_chemical_formula_structural   Ce2Al2IrAu
_chemical_formula_sum   'Ce6 Al6 Ir3 Au3'
_cell_volume   377.60576052
_cell_formula_units_Z   3
loop_
 _symmetry_equiv_pos_site_id
 _symmetry_equiv_pos_as_xyz
  1  'x, y, z'
loop_
 _atom_site_type_symbol
 _atom_site_label
 _atom_site_symmetry_multiplicity
 _atom_site_fract_x
 _atom_site_fract_y
 _atom_site_fract_z
 _atom_site_occupancy
  Ce  Ce0  1  0.589901  0.007778  0.757427  1
  Ce  Ce1  1  0.992222  0.582124  0.757427  1
  Ce  Ce2  1  0.417876  0.410099  0.757427  1
  Ce  Ce3  1  0.991804  0.581917  0.242594  1
  Ce  Ce4  1  0.590113  0.008196  0.242594  1
  Ce  Ce5  1  0.418083  0.409887  0.242594  1
  Al  Al6  1  0.775160  0.766626  0.999993  1
  Al  Al7  1  0.233374  0.008534  0.999993  1
  Al  Al8  1  0.991466  0.224840  0.999993  1
  Al  Al9  1  0.770714  0.774163  0.499967  1
  Al  Al10  1  0.225837  0.996552  0.499967  1
  Al  Al11  1  0.003448  0.229286  0.499967  1
  Ir  Ir12  1  0.000000  0.000000  0.749867  1
  Ir  Ir13  1  0.000000  0.000000  0.250092  1
  Ir  Ir14  1  0.666667  0.333333  0.999885  1
  Au  Au15  1  0.666667  0.333333  0.500203  1
  Au  Au16  1  0.333333  0.666667  0.499729  1
  Au  Au17  1  0.333333  0.666667  0.000277  1
