# generated using pymatgen
data_PrNd3MnOs7
_symmetry_space_group_name_H-M   'P 1'
_cell_length_a   5.42164437
_cell_length_b   5.42164311
_cell_length_c   8.97051700
_cell_angle_alpha   90.01704675
_cell_angle_beta   89.98296367
_cell_angle_gamma   119.87030183
_symmetry_Int_Tables_number   1
_chemical_formula_structural   PrNd3MnOs7
_chemical_formula_sum   'Pr1 Nd3 Mn1 Os7'
_cell_volume   228.65259776
_cell_formula_units_Z   1
loop_
 _symmetry_equiv_pos_site_id
 _symmetry_equiv_pos_as_xyz
  1  'x, y, z'
loop_
 _atom_site_type_symbol
 _atom_site_label
 _atom_site_symmetry_multiplicity
 _atom_site_fract_x
 _atom_site_fract_y
 _atom_site_fract_z
 _atom_site_occupancy
  Pr  Pr0  1  0.666629  0.333371  0.929704  1
  Nd  Nd1  1  0.666634  0.333366  0.564712  1
  Nd  Nd2  1  0.333364  0.666636  0.435245  1
  Nd  Nd3  1  0.333361  0.666639  0.070710  1
  Mn  Mn4  1  0.000002  0.999998  0.000244  1
  Os  Os5  1  0.000000  0.000000  0.499920  1
  Os  Os6  1  0.169955  0.339927  0.750962  1
  Os  Os7  1  0.170254  0.829746  0.750987  1
  Os  Os8  1  0.660073  0.830045  0.750962  1
  Os  Os9  1  0.830227  0.660433  0.248861  1
  Os  Os10  1  0.829933  0.170067  0.248832  1
  Os  Os11  1  0.339567  0.169773  0.248861  1
