# generated using pymatgen
data_CsNa3(SiP)12
_symmetry_space_group_name_H-M   'P 1'
_cell_length_a   3.52608000
_cell_length_b   9.89253171
_cell_length_c   18.70064367
_cell_angle_alpha   92.39198235
_cell_angle_beta   90.00000000
_cell_angle_gamma   90.00000000
_symmetry_Int_Tables_number   1
_chemical_formula_structural   CsNa3(SiP)12
_chemical_formula_sum   'Cs1 Na3 Si12 P12'
_cell_volume   651.74482761
_cell_formula_units_Z   1
loop_
 _symmetry_equiv_pos_site_id
 _symmetry_equiv_pos_as_xyz
  1  'x, y, z'
loop_
 _atom_site_type_symbol
 _atom_site_label
 _atom_site_symmetry_multiplicity
 _atom_site_fract_x
 _atom_site_fract_y
 _atom_site_fract_z
 _atom_site_occupancy
  Cs  Cs0  1  0.000000  0.816198  0.197397  1
  Na  Na1  1  0.000000  0.324963  0.304584  1
  Na  Na2  1  0.000000  0.668967  0.700365  1
  Na  Na3  1  0.000000  0.171148  0.795748  1
  Si  Si4  1  0.500000  0.414533  0.026550  1
  Si  Si5  1  0.500000  0.599879  0.951974  1
  Si  Si6  1  0.500000  0.094317  0.540633  1
  Si  Si7  1  0.500000  0.893115  0.470140  1
  Si  Si8  1  0.000000  0.122714  0.012879  1
  Si  Si9  1  0.000000  0.892669  0.977603  1
  Si  Si10  1  0.000000  0.380014  0.522610  1
  Si  Si11  1  0.000000  0.607430  0.495280  1
  Si  Si12  1  0.000000  0.207189  0.133538  1
  Si  Si13  1  0.000000  0.823644  0.855705  1
  Si  Si14  1  0.000000  0.320661  0.642810  1
  Si  Si15  1  0.000000  0.655168  0.374072  1
  P  P16  1  0.500000  0.150682  0.199630  1
  P  P17  1  0.500000  0.884929  0.790197  1
  P  P18  1  0.500000  0.387420  0.709717  1
  P  P19  1  0.500000  0.581581  0.310061  1
  P  P20  1  0.500000  0.275007  0.465791  1
  P  P21  1  0.500000  0.717530  0.548839  1
  P  P22  1  0.500000  0.217955  0.955349  1
  P  P23  1  0.500000  0.788129  0.028924  1
  P  P24  1  0.000000  0.432271  0.103374  1
  P  P25  1  0.000000  0.593222  0.875552  1
  P  P26  1  0.000000  0.090031  0.617190  1
  P  P27  1  0.000000  0.888636  0.393490  1
