# generated using pymatgen
data_YLu5(P2Ir3)6
_symmetry_space_group_name_H-M   'P 1'
_cell_length_a   3.94975700
_cell_length_b   11.14281200
_cell_length_c   12.82653500
_cell_angle_alpha   90.00000000
_cell_angle_beta   90.00000000
_cell_angle_gamma   90.00000000
_symmetry_Int_Tables_number   1
_chemical_formula_structural   YLu5(P2Ir3)6
_chemical_formula_sum   'Y1 Lu5 P12 Ir18'
_cell_volume   564.51375861
_cell_formula_units_Z   1
loop_
 _symmetry_equiv_pos_site_id
 _symmetry_equiv_pos_as_xyz
  1  'x, y, z'
loop_
 _atom_site_type_symbol
 _atom_site_label
 _atom_site_symmetry_multiplicity
 _atom_site_fract_x
 _atom_site_fract_y
 _atom_site_fract_z
 _atom_site_occupancy
  Y  Y0  1  0.000000  0.500000  0.522689  1
  Lu  Lu1  1  0.500000  0.000000  0.477073  1
  Lu  Lu2  1  0.500000  0.814084  0.204362  1
  Lu  Lu3  1  0.500000  0.185916  0.204362  1
  Lu  Lu4  1  0.000000  0.685836  0.795621  1
  Lu  Lu5  1  0.000000  0.314164  0.795621  1
  P  P6  1  0.500000  0.500000  0.873232  1
  P  P7  1  0.000000  0.000000  0.127311  1
  P  P8  1  0.500000  0.500000  0.360898  1
  P  P9  1  0.000000  0.000000  0.637937  1
  P  P10  1  0.500000  0.315541  0.617749  1
  P  P11  1  0.500000  0.684459  0.617749  1
  P  P12  1  0.000000  0.184258  0.382711  1
  P  P13  1  0.000000  0.815742  0.382711  1
  P  P14  1  0.500000  0.846279  0.892772  1
  P  P15  1  0.500000  0.153721  0.892772  1
  P  P16  1  0.000000  0.653686  0.107153  1
  P  P17  1  0.000000  0.346314  0.107153  1
  Ir  Ir18  1  0.500000  0.500000  0.183055  1
  Ir  Ir19  1  0.000000  0.000000  0.816518  1
  Ir  Ir20  1  0.500000  0.500000  0.699091  1
  Ir  Ir21  1  0.000000  0.000000  0.302603  1
  Ir  Ir22  1  0.000000  0.500000  0.965844  1
  Ir  Ir23  1  0.500000  0.000000  0.034329  1
  Ir  Ir24  1  0.500000  0.336836  0.005030  1
  Ir  Ir25  1  0.500000  0.663164  0.005030  1
  Ir  Ir26  1  0.000000  0.163001  0.994944  1
  Ir  Ir27  1  0.000000  0.836999  0.994944  1
  Ir  Ir28  1  0.500000  0.293498  0.429996  1
  Ir  Ir29  1  0.500000  0.706502  0.429996  1
  Ir  Ir30  1  0.000000  0.204871  0.569534  1
  Ir  Ir31  1  0.000000  0.795129  0.569534  1
  Ir  Ir32  1  0.500000  0.867201  0.713978  1
  Ir  Ir33  1  0.500000  0.132799  0.713978  1
  Ir  Ir34  1  0.000000  0.632926  0.285859  1
  Ir  Ir35  1  0.000000  0.367074  0.285859  1
