# generated using pymatgen
data_DyY2Er(Mo2O7)2
_symmetry_space_group_name_H-M   'P 1'
_cell_length_a   7.36622527
_cell_length_b   7.36622556
_cell_length_c   7.27295558
_cell_angle_alpha   60.32567038
_cell_angle_beta   60.32566420
_cell_angle_gamma   60.81135827
_symmetry_Int_Tables_number   1
_chemical_formula_structural   DyY2Er(Mo2O7)2
_chemical_formula_sum   'Dy1 Y2 Er1 Mo4 O14'
_cell_volume   282.11425821
_cell_formula_units_Z   1
loop_
 _symmetry_equiv_pos_site_id
 _symmetry_equiv_pos_as_xyz
  1  'x, y, z'
loop_
 _atom_site_type_symbol
 _atom_site_label
 _atom_site_symmetry_multiplicity
 _atom_site_fract_x
 _atom_site_fract_y
 _atom_site_fract_z
 _atom_site_occupancy
  Dy  Dy0  1  0.125000  0.125000  0.125000  1
  Y  Y1  1  0.625000  0.125000  0.125000  1
  Y  Y2  1  0.125000  0.625000  0.125000  1
  Er  Er3  1  0.125000  0.125000  0.625000  1
  Mo  Mo4  1  0.125000  0.625000  0.625000  1
  Mo  Mo5  1  0.625000  0.125000  0.625000  1
  Mo  Mo6  1  0.625000  0.625000  0.125000  1
  Mo  Mo7  1  0.625000  0.625000  0.625000  1
  O  O8  1  0.712372  0.712372  0.287507  1
  O  O9  1  0.281581  0.281581  0.717426  1
  O  O10  1  0.719741  0.285899  0.709446  1
  O  O11  1  0.286225  0.718515  0.285477  1
  O  O12  1  0.285899  0.719741  0.709446  1
  O  O13  1  0.718515  0.286225  0.285477  1
  O  O14  1  0.537628  0.537628  0.962493  1
  O  O15  1  0.968419  0.968419  0.532574  1
  O  O16  1  0.530259  0.964101  0.540554  1
  O  O17  1  0.963775  0.531485  0.964523  1
  O  O18  1  0.964101  0.530259  0.540554  1
  O  O19  1  0.531485  0.963775  0.964523  1
  O  O20  1  0.252618  0.252618  0.249063  1
  O  O21  1  0.997382  0.997382  0.000937  1
