# generated using pymatgen
data_Tb6Al24Tc5Pd3
_symmetry_space_group_name_H-M   'P 1'
_cell_length_a   8.88754227
_cell_length_b   8.91548111
_cell_length_c   9.68998659
_cell_angle_alpha   90.33863974
_cell_angle_beta   90.04457159
_cell_angle_gamma   120.23674181
_symmetry_Int_Tables_number   1
_chemical_formula_structural   Tb6Al24Tc5Pd3
_chemical_formula_sum   'Tb6 Al24 Tc5 Pd3'
_cell_volume   663.32687870
_cell_formula_units_Z   1
loop_
 _symmetry_equiv_pos_site_id
 _symmetry_equiv_pos_as_xyz
  1  'x, y, z'
loop_
 _atom_site_type_symbol
 _atom_site_label
 _atom_site_symmetry_multiplicity
 _atom_site_fract_x
 _atom_site_fract_y
 _atom_site_fract_z
 _atom_site_occupancy
  Tb  Tb0  1  0.200164  0.385971  0.251942  1
  Tb  Tb1  1  0.799836  0.614029  0.748058  1
  Tb  Tb2  1  0.611363  0.801673  0.251741  1
  Tb  Tb3  1  0.388637  0.198327  0.748259  1
  Tb  Tb4  1  0.192738  0.813213  0.251572  1
  Tb  Tb5  1  0.807262  0.186787  0.748428  1
  Al  Al6  1  0.334640  0.664954  0.021905  1
  Al  Al7  1  0.665360  0.335046  0.978095  1
  Al  Al8  1  0.661623  0.329408  0.520395  1
  Al  Al9  1  0.338377  0.670592  0.479605  1
  Al  Al10  1  0.167460  0.325637  0.577145  1
  Al  Al11  1  0.832540  0.674363  0.422855  1
  Al  Al12  1  0.672638  0.837758  0.576680  1
  Al  Al13  1  0.832924  0.676041  0.077965  1
  Al  Al14  1  0.327362  0.162242  0.423320  1
  Al  Al15  1  0.167076  0.323959  0.922035  1
  Al  Al16  1  0.167202  0.843767  0.576652  1
  Al  Al17  1  0.325792  0.167984  0.079062  1
  Al  Al18  1  0.832798  0.156233  0.423348  1
  Al  Al19  1  0.674208  0.832016  0.920938  1
  Al  Al20  1  0.839467  0.162218  0.079034  1
  Al  Al21  1  0.160533  0.837782  0.920966  1
  Al  Al22  1  0.564028  0.127412  0.253126  1
  Al  Al23  1  0.435972  0.872588  0.746874  1
  Al  Al24  1  0.875891  0.437184  0.249085  1
  Al  Al25  1  0.124109  0.562816  0.750915  1
  Al  Al26  1  0.563592  0.437027  0.249195  1
  Al  Al27  1  0.436408  0.562973  0.750805  1
  Al  Al28  1  0.001104  0.002118  0.250159  1
  Al  Al29  1  0.998896  0.997882  0.749841  1
  Tc  Tc30  1  0.500000  0.000000  0.500000  1
  Tc  Tc31  1  0.500000  0.500000  0.000000  1
  Tc  Tc32  1  0.500000  0.500000  0.500000  1
  Tc  Tc33  1  0.000000  0.000000  0.000000  1
  Tc  Tc34  1  0.000000  0.000000  0.500000  1
  Pd  Pd35  1  0.500000  0.000000  0.000000  1
  Pd  Pd36  1  0.000000  0.500000  0.000000  1
  Pd  Pd37  1  0.000000  0.500000  0.500000  1
