# generated using pymatgen
data_K2BeSe2
_symmetry_space_group_name_H-M   'P 1'
_cell_length_a   7.96784129
_cell_length_b   7.96784214
_cell_length_c   7.96784179
_cell_angle_alpha   134.49346880
_cell_angle_beta   129.23978580
_cell_angle_gamma   70.52502005
_symmetry_Int_Tables_number   1
_chemical_formula_structural   K2BeSe2
_chemical_formula_sum   'K4 Be2 Se4'
_cell_volume   273.88356041
_cell_formula_units_Z   2
loop_
 _symmetry_equiv_pos_site_id
 _symmetry_equiv_pos_as_xyz
  1  'x, y, z'
loop_
 _atom_site_type_symbol
 _atom_site_label
 _atom_site_symmetry_multiplicity
 _atom_site_fract_x
 _atom_site_fract_y
 _atom_site_fract_z
 _atom_site_occupancy
  K  K0  1  0.816082  0.144192  0.671891  1
  K  K1  1  0.183918  0.855808  0.328109  1
  K  K2  1  0.527699  0.355808  0.171891  1
  K  K3  1  0.472301  0.644192  0.828109  1
  Be  Be4  1  0.000000  0.750000  0.750000  1
  Be  Be5  1  0.000000  0.250000  0.250000  1
  Se  Se6  1  0.730930  0.903937  0.826993  1
  Se  Se7  1  0.269070  0.096063  0.173007  1
  Se  Se8  1  0.923057  0.596063  0.326993  1
  Se  Se9  1  0.076943  0.403937  0.673007  1
