# generated using pymatgen
data_Dy3Tm9Tc3Ru
_symmetry_space_group_name_H-M   'P 1'
_cell_length_a   6.22799303
_cell_length_b   7.33435616
_cell_length_c   8.99255700
_cell_angle_alpha   90.00000000
_cell_angle_beta   90.00000000
_cell_angle_gamma   89.99386972
_symmetry_Int_Tables_number   1
_chemical_formula_structural   Dy3Tm9Tc3Ru
_chemical_formula_sum   'Dy3 Tm9 Tc3 Ru1'
_cell_volume   410.76488542
_cell_formula_units_Z   1
loop_
 _symmetry_equiv_pos_site_id
 _symmetry_equiv_pos_as_xyz
  1  'x, y, z'
loop_
 _atom_site_type_symbol
 _atom_site_label
 _atom_site_symmetry_multiplicity
 _atom_site_fract_x
 _atom_site_fract_y
 _atom_site_fract_z
 _atom_site_occupancy
  Dy  Dy0  1  0.628559  0.041838  0.250000  1
  Dy  Dy1  1  0.375887  0.959766  0.750000  1
  Dy  Dy2  1  0.124672  0.460516  0.750000  1
  Tm  Tm3  1  0.875354  0.542056  0.250000  1
  Tm  Tm4  1  0.160502  0.175318  0.063285  1
  Tm  Tm5  1  0.836945  0.823225  0.937466  1
  Tm  Tm6  1  0.659956  0.324689  0.938372  1
  Tm  Tm7  1  0.836945  0.823225  0.562534  1
  Tm  Tm8  1  0.338527  0.675728  0.063104  1
  Tm  Tm9  1  0.160502  0.175318  0.436715  1
  Tm  Tm10  1  0.338527  0.675728  0.436896  1
  Tm  Tm11  1  0.659956  0.324689  0.561628  1
  Tc  Tc12  1  0.460587  0.385128  0.250000  1
  Tc  Tc13  1  0.541803  0.615761  0.750000  1
  Tc  Tc14  1  0.960252  0.113869  0.750000  1
  Ru  Ru15  1  0.041027  0.883144  0.250000  1
