# generated using pymatgen
data_Pr2Dy4Co17TcP12
_symmetry_space_group_name_H-M   'P 1'
_cell_length_a   3.71863700
_cell_length_b   10.55980200
_cell_length_c   12.26072900
_cell_angle_alpha   90.00000000
_cell_angle_beta   90.00000000
_cell_angle_gamma   90.00000000
_symmetry_Int_Tables_number   1
_chemical_formula_structural   Pr2Dy4Co17TcP12
_chemical_formula_sum   'Pr2 Dy4 Co17 Tc1 P12'
_cell_volume   481.45516989
_cell_formula_units_Z   1
loop_
 _symmetry_equiv_pos_site_id
 _symmetry_equiv_pos_as_xyz
  1  'x, y, z'
loop_
 _atom_site_type_symbol
 _atom_site_label
 _atom_site_symmetry_multiplicity
 _atom_site_fract_x
 _atom_site_fract_y
 _atom_site_fract_z
 _atom_site_occupancy
  Pr  Pr0  1  0.000000  0.500000  0.524746  1
  Pr  Pr1  1  0.500000  0.000000  0.478020  1
  Dy  Dy2  1  0.500000  0.817561  0.205282  1
  Dy  Dy3  1  0.500000  0.182439  0.205282  1
  Dy  Dy4  1  0.000000  0.682942  0.796072  1
  Dy  Dy5  1  0.000000  0.317058  0.796072  1
  Co  Co6  1  0.000000  0.000000  0.842724  1
  Co  Co7  1  0.500000  0.500000  0.706511  1
  Co  Co8  1  0.000000  0.000000  0.292655  1
  Co  Co9  1  0.000000  0.500000  0.987335  1
  Co  Co10  1  0.500000  0.000000  0.014150  1
  Co  Co11  1  0.500000  0.331824  0.991391  1
  Co  Co12  1  0.500000  0.668176  0.991391  1
  Co  Co13  1  0.000000  0.166538  0.005457  1
  Co  Co14  1  0.000000  0.833462  0.005457  1
  Co  Co15  1  0.500000  0.296328  0.428838  1
  Co  Co16  1  0.500000  0.703672  0.428838  1
  Co  Co17  1  0.000000  0.203923  0.570711  1
  Co  Co18  1  0.000000  0.796077  0.570711  1
  Co  Co19  1  0.500000  0.879649  0.712462  1
  Co  Co20  1  0.500000  0.120351  0.712462  1
  Co  Co21  1  0.000000  0.620352  0.288557  1
  Co  Co22  1  0.000000  0.379648  0.288557  1
  Tc  Tc23  1  0.500000  0.500000  0.154247  1
  P  P24  1  0.500000  0.500000  0.882801  1
  P  P25  1  0.000000  0.000000  0.115763  1
  P  P26  1  0.500000  0.500000  0.343979  1
  P  P27  1  0.000000  0.000000  0.661071  1
  P  P28  1  0.500000  0.306971  0.618411  1
  P  P29  1  0.500000  0.693029  0.618411  1
  P  P30  1  0.000000  0.192225  0.382452  1
  P  P31  1  0.000000  0.807775  0.382452  1
  P  P32  1  0.500000  0.848744  0.893341  1
  P  P33  1  0.500000  0.151256  0.893341  1
  P  P34  1  0.000000  0.655810  0.105024  1
  P  P35  1  0.000000  0.344190  0.105024  1
