# generated using pymatgen
data_TbDy(BIr)8
_symmetry_space_group_name_H-M   'P 1'
_cell_length_a   7.63941100
_cell_length_b   7.63941100
_cell_length_c   3.99010200
_cell_angle_alpha   90.00000000
_cell_angle_beta   90.00000000
_cell_angle_gamma   90.00000000
_symmetry_Int_Tables_number   1
_chemical_formula_structural   TbDy(BIr)8
_chemical_formula_sum   'Tb1 Dy1 B8 Ir8'
_cell_volume   232.86474848
_cell_formula_units_Z   1
loop_
 _symmetry_equiv_pos_site_id
 _symmetry_equiv_pos_as_xyz
  1  'x, y, z'
loop_
 _atom_site_type_symbol
 _atom_site_label
 _atom_site_symmetry_multiplicity
 _atom_site_fract_x
 _atom_site_fract_y
 _atom_site_fract_z
 _atom_site_occupancy
  Tb  Tb0  1  0.000000  0.000000  0.500000  1
  Dy  Dy1  1  0.500000  0.500000  0.000000  1
  B  B2  1  0.842055  0.278337  0.888583  1
  B  B3  1  0.157945  0.721663  0.888583  1
  B  B4  1  0.278337  0.157945  0.111417  1
  B  B5  1  0.721663  0.842055  0.111417  1
  B  B6  1  0.778306  0.657935  0.388542  1
  B  B7  1  0.221694  0.342065  0.388542  1
  B  B8  1  0.342065  0.778306  0.611458  1
  B  B9  1  0.657935  0.221694  0.611458  1
  Ir  Ir10  1  0.890553  0.659984  0.887183  1
  Ir  Ir11  1  0.109447  0.340016  0.887183  1
  Ir  Ir12  1  0.340016  0.890553  0.112817  1
  Ir  Ir13  1  0.659984  0.109447  0.112817  1
  Ir  Ir14  1  0.839922  0.390613  0.387134  1
  Ir  Ir15  1  0.160078  0.609387  0.387134  1
  Ir  Ir16  1  0.390613  0.160078  0.612866  1
  Ir  Ir17  1  0.609387  0.839922  0.612866  1
