# generated using pymatgen
data_Pr2Sm2HoPb4
_symmetry_space_group_name_H-M   'P 1'
_cell_length_a   8.35667500
_cell_length_b   8.46662400
_cell_length_c   16.05480100
_cell_angle_alpha   90.00000000
_cell_angle_beta   90.00000000
_cell_angle_gamma   90.00000000
_symmetry_Int_Tables_number   1
_chemical_formula_structural   Pr2Sm2HoPb4
_chemical_formula_sum   'Pr8 Sm8 Ho4 Pb16'
_cell_volume   1135.92252741
_cell_formula_units_Z   4
loop_
 _symmetry_equiv_pos_site_id
 _symmetry_equiv_pos_as_xyz
  1  'x, y, z'
loop_
 _atom_site_type_symbol
 _atom_site_label
 _atom_site_symmetry_multiplicity
 _atom_site_fract_x
 _atom_site_fract_y
 _atom_site_fract_z
 _atom_site_occupancy
  Pr  Pr0  1  0.476594  0.677875  0.597602  1
  Pr  Pr1  1  0.976594  0.822125  0.902398  1
  Pr  Pr2  1  0.523406  0.322125  0.097602  1
  Pr  Pr3  1  0.023406  0.177875  0.402398  1
  Pr  Pr4  1  0.523406  0.322125  0.402398  1
  Pr  Pr5  1  0.023406  0.177875  0.097602  1
  Pr  Pr6  1  0.476594  0.677875  0.902398  1
  Pr  Pr7  1  0.976594  0.822125  0.597602  1
  Sm  Sm8  1  0.632925  0.158162  0.621743  1
  Sm  Sm9  1  0.132925  0.341838  0.878257  1
  Sm  Sm10  1  0.367075  0.841838  0.121743  1
  Sm  Sm11  1  0.867075  0.658162  0.378257  1
  Sm  Sm12  1  0.367075  0.841838  0.378257  1
  Sm  Sm13  1  0.867075  0.658162  0.121743  1
  Sm  Sm14  1  0.632925  0.158162  0.878257  1
  Sm  Sm15  1  0.132925  0.341838  0.621743  1
  Ho  Ho16  1  0.798350  0.495896  0.750000  1
  Ho  Ho17  1  0.298350  0.004104  0.750000  1
  Ho  Ho18  1  0.201650  0.504104  0.250000  1
  Ho  Ho19  1  0.701650  0.995896  0.250000  1
  Pb  Pb20  1  0.707174  0.960811  0.456027  1
  Pb  Pb21  1  0.207174  0.539189  0.043973  1
  Pb  Pb22  1  0.292826  0.039189  0.956027  1
  Pb  Pb23  1  0.792826  0.460811  0.543973  1
  Pb  Pb24  1  0.292826  0.039189  0.543973  1
  Pb  Pb25  1  0.792826  0.460811  0.956027  1
  Pb  Pb26  1  0.707174  0.960811  0.043973  1
  Pb  Pb27  1  0.207174  0.539189  0.456027  1
  Pb  Pb28  1  0.437476  0.373105  0.750000  1
  Pb  Pb29  1  0.937476  0.126895  0.750000  1
  Pb  Pb30  1  0.562524  0.626895  0.250000  1
  Pb  Pb31  1  0.062524  0.873105  0.250000  1
  Pb  Pb32  1  0.664290  0.848393  0.750000  1
  Pb  Pb33  1  0.164290  0.651607  0.750000  1
  Pb  Pb34  1  0.335710  0.151607  0.250000  1
  Pb  Pb35  1  0.835710  0.348393  0.250000  1
