# generated using pymatgen
data_Dy6RuO12
_symmetry_space_group_name_H-M   'P 1'
_cell_length_a   6.47012833
_cell_length_b   6.47012847
_cell_length_c   6.47012701
_cell_angle_alpha   98.65037142
_cell_angle_beta   98.65036300
_cell_angle_gamma   98.65035977
_symmetry_Int_Tables_number   1
_chemical_formula_structural   Dy6RuO12
_chemical_formula_sum   'Dy6 Ru1 O12'
_cell_volume   260.54761849
_cell_formula_units_Z   1
loop_
 _symmetry_equiv_pos_site_id
 _symmetry_equiv_pos_as_xyz
  1  'x, y, z'
loop_
 _atom_site_type_symbol
 _atom_site_label
 _atom_site_symmetry_multiplicity
 _atom_site_fract_x
 _atom_site_fract_y
 _atom_site_fract_z
 _atom_site_occupancy
  Dy  Dy0  1  0.856501  0.389324  0.688235  1
  Dy  Dy1  1  0.610676  0.311765  0.143499  1
  Dy  Dy2  1  0.311765  0.143499  0.610676  1
  Dy  Dy3  1  0.688235  0.856501  0.389324  1
  Dy  Dy4  1  0.389324  0.688235  0.856501  1
  Dy  Dy5  1  0.143499  0.610676  0.311765  1
  Ru  Ru6  1  0.000000  0.000000  0.000000  1
  O  O7  1  0.928450  0.034879  0.701994  1
  O  O8  1  0.965121  0.298006  0.071550  1
  O  O9  1  0.590635  0.177339  0.435118  1
  O  O10  1  0.822661  0.564882  0.409365  1
  O  O11  1  0.298006  0.071550  0.965121  1
  O  O12  1  0.564882  0.409365  0.822661  1
  O  O13  1  0.435118  0.590635  0.177339  1
  O  O14  1  0.701994  0.928450  0.034879  1
  O  O15  1  0.177339  0.435118  0.590635  1
  O  O16  1  0.409365  0.822661  0.564882  1
  O  O17  1  0.034879  0.701994  0.928450  1
  O  O18  1  0.071550  0.965121  0.298006  1
