# generated using pymatgen
data_Er4Tm4B24Ru3W
_symmetry_space_group_name_H-M   'P 1'
_cell_length_a   3.61394300
_cell_length_b   9.11669447
_cell_length_c   11.50726013
_cell_angle_alpha   89.86359257
_cell_angle_beta   90.00000000
_cell_angle_gamma   90.00000000
_symmetry_Int_Tables_number   1
_chemical_formula_structural   Er4Tm4B24Ru3W
_chemical_formula_sum   'Er4 Tm4 B24 Ru3 W1'
_cell_volume   379.13108978
_cell_formula_units_Z   1
loop_
 _symmetry_equiv_pos_site_id
 _symmetry_equiv_pos_as_xyz
  1  'x, y, z'
loop_
 _atom_site_type_symbol
 _atom_site_label
 _atom_site_symmetry_multiplicity
 _atom_site_fract_x
 _atom_site_fract_y
 _atom_site_fract_z
 _atom_site_occupancy
  Er  Er0  1  0.000000  0.320956  0.413751  1
  Er  Er1  1  0.000000  0.677943  0.585282  1
  Er  Er2  1  0.000000  0.820154  0.086858  1
  Er  Er3  1  0.000000  0.177287  0.914880  1
  Tm  Tm4  1  0.000000  0.946291  0.373293  1
  Tm  Tm5  1  0.000000  0.057623  0.628745  1
  Tm  Tm6  1  0.000000  0.442450  0.125866  1
  Tm  Tm7  1  0.000000  0.556978  0.871067  1
  B  B8  1  0.500000  0.549899  0.436765  1
  B  B9  1  0.500000  0.445717  0.568398  1
  B  B10  1  0.500000  0.053953  0.066458  1
  B  B11  1  0.500000  0.946300  0.933256  1
  B  B12  1  0.500000  0.752740  0.422641  1
  B  B13  1  0.500000  0.251188  0.581078  1
  B  B14  1  0.500000  0.248670  0.079989  1
  B  B15  1  0.500000  0.751087  0.919164  1
  B  B16  1  0.500000  0.796140  0.263652  1
  B  B17  1  0.500000  0.208381  0.734665  1
  B  B18  1  0.500000  0.290553  0.232797  1
  B  B19  1  0.500000  0.709058  0.765529  1
  B  B20  1  0.500000  0.631703  0.181420  1
  B  B21  1  0.500000  0.368266  0.815460  1
  B  B22  1  0.500000  0.131434  0.314666  1
  B  B23  1  0.500000  0.869462  0.684994  1
  B  B24  1  0.500000  0.983756  0.212537  1
  B  B25  1  0.500000  0.017437  0.788120  1
  B  B26  1  0.500000  0.476316  0.286293  1
  B  B27  1  0.500000  0.516774  0.713080  1
  B  B28  1  0.500000  0.605315  0.027166  1
  B  B29  1  0.500000  0.393642  0.969798  1
  B  B30  1  0.500000  0.106671  0.471559  1
  B  B31  1  0.500000  0.897126  0.530422  1
  Ru  Ru32  1  0.000000  0.361314  0.680309  1
  Ru  Ru33  1  0.000000  0.137756  0.178307  1
  Ru  Ru34  1  0.000000  0.862034  0.820542  1
  W  W35  1  0.000000  0.637625  0.321192  1
