# generated using pymatgen
data_RbLiNp2Se5
_symmetry_space_group_name_H-M   'P 1'
_cell_length_a   7.99319700
_cell_length_b   7.99319895
_cell_length_c   17.44575900
_cell_angle_alpha   90.00000000
_cell_angle_beta   90.00000000
_cell_angle_gamma   149.91145878
_symmetry_Int_Tables_number   1
_chemical_formula_structural   RbLiNp2Se5
_chemical_formula_sum   'Rb2 Li2 Np4 Se10'
_cell_volume   558.80640436
_cell_formula_units_Z   2
loop_
 _symmetry_equiv_pos_site_id
 _symmetry_equiv_pos_as_xyz
  1  'x, y, z'
loop_
 _atom_site_type_symbol
 _atom_site_label
 _atom_site_symmetry_multiplicity
 _atom_site_fract_x
 _atom_site_fract_y
 _atom_site_fract_z
 _atom_site_occupancy
  Rb  Rb0  1  0.043004  0.956996  0.250000  1
  Rb  Rb1  1  0.956996  0.043004  0.750000  1
  Li  Li2  1  0.317589  0.682411  0.250000  1
  Li  Li3  1  0.682411  0.317589  0.750000  1
  Np  Np4  1  0.209360  0.790640  0.903300  1
  Np  Np5  1  0.790640  0.209360  0.403300  1
  Np  Np6  1  0.209360  0.790640  0.596700  1
  Np  Np7  1  0.790640  0.209360  0.096700  1
  Se  Se8  1  0.172325  0.827675  0.438185  1
  Se  Se9  1  0.827675  0.172325  0.938185  1
  Se  Se10  1  0.273069  0.726931  0.750000  1
  Se  Se11  1  0.406698  0.593302  0.370341  1
  Se  Se12  1  0.172325  0.827675  0.061815  1
  Se  Se13  1  0.593302  0.406698  0.870341  1
  Se  Se14  1  0.593302  0.406698  0.629659  1
  Se  Se15  1  0.406698  0.593302  0.129659  1
  Se  Se16  1  0.827675  0.172325  0.561815  1
  Se  Se17  1  0.726931  0.273069  0.250000  1
