# generated using pymatgen
data_Ho2Lu3In4PtAu
_symmetry_space_group_name_H-M   'P 1'
_cell_length_a   3.58047200
_cell_length_b   8.12465641
_cell_length_c   18.22288806
_cell_angle_alpha   90.05721666
_cell_angle_beta   90.00000000
_cell_angle_gamma   90.00000000
_symmetry_Int_Tables_number   1
_chemical_formula_structural   Ho2Lu3In4PtAu
_chemical_formula_sum   'Ho4 Lu6 In8 Pt2 Au2'
_cell_volume   530.10545902
_cell_formula_units_Z   2
loop_
 _symmetry_equiv_pos_site_id
 _symmetry_equiv_pos_as_xyz
  1  'x, y, z'
loop_
 _atom_site_type_symbol
 _atom_site_label
 _atom_site_symmetry_multiplicity
 _atom_site_fract_x
 _atom_site_fract_y
 _atom_site_fract_z
 _atom_site_occupancy
  Ho  Ho0  1  0.000000  0.120675  0.419413  1
  Ho  Ho1  1  0.000000  0.879325  0.580587  1
  Ho  Ho2  1  0.000000  0.000000  0.000000  1
  Ho  Ho3  1  0.000000  0.500000  0.500000  1
  Lu  Lu4  1  0.000000  0.382829  0.916361  1
  Lu  Lu5  1  0.000000  0.617171  0.083639  1
  Lu  Lu6  1  0.000000  0.256434  0.216679  1
  Lu  Lu7  1  0.000000  0.743566  0.783321  1
  Lu  Lu8  1  0.000000  0.267533  0.722803  1
  Lu  Lu9  1  0.000000  0.732467  0.277197  1
  In  In10  1  0.500000  0.424003  0.350952  1
  In  In11  1  0.500000  0.575997  0.649048  1
  In  In12  1  0.500000  0.077666  0.853041  1
  In  In13  1  0.500000  0.922334  0.146959  1
  In  In14  1  0.500000  0.294617  0.064948  1
  In  In15  1  0.500000  0.705383  0.935052  1
  In  In16  1  0.500000  0.210255  0.569286  1
  In  In17  1  0.500000  0.789745  0.430714  1
  Pt  Pt18  1  0.500000  0.471060  0.805111  1
  Pt  Pt19  1  0.500000  0.528940  0.194889  1
  Au  Au20  1  0.500000  0.030070  0.299926  1
  Au  Au21  1  0.500000  0.969930  0.700074  1
