# generated using pymatgen
data_Yb4Co15Ni2(P4Ru)3
_symmetry_space_group_name_H-M   'P 1'
_cell_length_a   3.69180300
_cell_length_b   10.36920361
_cell_length_c   11.79875100
_cell_angle_alpha   90.06470999
_cell_angle_beta   90.00000000
_cell_angle_gamma   90.00000000
_symmetry_Int_Tables_number   1
_chemical_formula_structural   Yb4Co15Ni2(P4Ru)3
_chemical_formula_sum   'Yb4 Co15 Ni2 P12 Ru3'
_cell_volume   451.66837158
_cell_formula_units_Z   1
loop_
 _symmetry_equiv_pos_site_id
 _symmetry_equiv_pos_as_xyz
  1  'x, y, z'
loop_
 _atom_site_type_symbol
 _atom_site_label
 _atom_site_symmetry_multiplicity
 _atom_site_fract_x
 _atom_site_fract_y
 _atom_site_fract_z
 _atom_site_occupancy
  Yb  Yb0  1  0.250000  0.582895  0.701376  1
  Yb  Yb1  1  0.250000  0.914508  0.204993  1
  Yb  Yb2  1  0.750000  0.414403  0.296554  1
  Yb  Yb3  1  0.750000  0.084991  0.795360  1
  Co  Co4  1  0.250000  0.091491  0.988547  1
  Co  Co5  1  0.750000  0.591256  0.509901  1
  Co  Co6  1  0.750000  0.908633  0.011511  1
  Co  Co7  1  0.250000  0.217782  0.174132  1
  Co  Co8  1  0.250000  0.280206  0.676329  1
  Co  Co9  1  0.750000  0.780370  0.824111  1
  Co  Co10  1  0.750000  0.719917  0.324095  1
  Co  Co11  1  0.250000  0.885915  0.701874  1
  Co  Co12  1  0.250000  0.613458  0.201471  1
  Co  Co13  1  0.750000  0.117695  0.301813  1
  Co  Co14  1  0.750000  0.386385  0.798984  1
  Co  Co15  1  0.250000  0.465005  0.933389  1
  Co  Co16  1  0.250000  0.034836  0.431287  1
  Co  Co17  1  0.750000  0.535855  0.067069  1
  Co  Co18  1  0.750000  0.966473  0.568515  1
  Ni  Ni19  1  0.750000  0.214078  0.513816  1
  Ni  Ni20  1  0.250000  0.406702  0.485247  1
  P  P21  1  0.250000  0.419346  0.114517  1
  P  P22  1  0.250000  0.081438  0.612142  1
  P  P23  1  0.750000  0.580361  0.885383  1
  P  P24  1  0.750000  0.920571  0.387495  1
  P  P25  1  0.250000  0.270703  0.865272  1
  P  P26  1  0.250000  0.227651  0.364548  1
  P  P27  1  0.750000  0.729900  0.134590  1
  P  P28  1  0.750000  0.771133  0.634010  1
  P  P29  1  0.250000  0.598217  0.389904  1
  P  P30  1  0.250000  0.904977  0.889689  1
  P  P31  1  0.750000  0.399476  0.609477  1
  P  P32  1  0.750000  0.096246  0.110939  1
  Ru  Ru33  1  0.250000  0.714972  0.990131  1
  Ru  Ru34  1  0.250000  0.786526  0.491837  1
  Ru  Ru35  1  0.750000  0.285631  0.009686  1
