# generated using pymatgen
data_Nb4Tc3P4Pd
_symmetry_space_group_name_H-M   'P 1'
_cell_length_a   3.77742300
_cell_length_b   6.39276717
_cell_length_c   7.33495837
_cell_angle_alpha   90.44242936
_cell_angle_beta   90.00000000
_cell_angle_gamma   90.00000000
_symmetry_Int_Tables_number   1
_chemical_formula_structural   Nb4Tc3P4Pd
_chemical_formula_sum   'Nb4 Tc3 P4 Pd1'
_cell_volume   177.12065658
_cell_formula_units_Z   1
loop_
 _symmetry_equiv_pos_site_id
 _symmetry_equiv_pos_as_xyz
  1  'x, y, z'
loop_
 _atom_site_type_symbol
 _atom_site_label
 _atom_site_symmetry_multiplicity
 _atom_site_fract_x
 _atom_site_fract_y
 _atom_site_fract_z
 _atom_site_occupancy
  Nb  Nb0  1  0.250000  0.522390  0.666358  1
  Nb  Nb1  1  0.250000  0.029234  0.823433  1
  Nb  Nb2  1  0.750000  0.978662  0.174671  1
  Nb  Nb3  1  0.750000  0.463716  0.330826  1
  Tc  Tc4  1  0.750000  0.359420  0.944304  1
  Tc  Tc5  1  0.250000  0.152168  0.439257  1
  Tc  Tc6  1  0.750000  0.853402  0.555459  1
  P  P7  1  0.250000  0.769399  0.380815  1
  P  P8  1  0.250000  0.258516  0.122668  1
  P  P9  1  0.750000  0.226897  0.631137  1
  P  P10  1  0.750000  0.730625  0.863068  1
  Pd  Pd11  1  0.250000  0.655569  0.068005  1
