# generated using pymatgen
data_Pr7Nd(BeSi3)4
_symmetry_space_group_name_H-M   'P 1'
_cell_length_a   7.98110719
_cell_length_b   7.98110768
_cell_length_c   8.67412200
_cell_angle_alpha   90.00000000
_cell_angle_beta   90.00000000
_cell_angle_gamma   120.00520706
_symmetry_Int_Tables_number   1
_chemical_formula_structural   Pr7Nd(BeSi3)4
_chemical_formula_sum   'Pr7 Nd1 Be4 Si12'
_cell_volume   478.47547476
_cell_formula_units_Z   1
loop_
 _symmetry_equiv_pos_site_id
 _symmetry_equiv_pos_as_xyz
  1  'x, y, z'
loop_
 _atom_site_type_symbol
 _atom_site_label
 _atom_site_symmetry_multiplicity
 _atom_site_fract_x
 _atom_site_fract_y
 _atom_site_fract_z
 _atom_site_occupancy
  Pr  Pr0  1  0.500087  0.499913  0.250000  1
  Pr  Pr1  1  0.000190  0.500096  0.750000  1
  Pr  Pr2  1  0.999817  0.499903  0.250000  1
  Pr  Pr3  1  0.499904  0.999810  0.750000  1
  Pr  Pr4  1  0.500097  0.000183  0.250000  1
  Pr  Pr5  1  0.000009  0.999991  0.750000  1
  Pr  Pr6  1  0.999999  0.000001  0.250000  1
  Nd  Nd7  1  0.499902  0.500098  0.750000  1
  Be  Be8  1  0.666525  0.333475  0.998562  1
  Be  Be9  1  0.333468  0.666532  0.999789  1
  Be  Be10  1  0.333468  0.666532  0.500211  1
  Be  Be11  1  0.666525  0.333475  0.501438  1
  Si  Si12  1  0.827561  0.172439  0.000013  1
  Si  Si13  1  0.172435  0.827565  0.999865  1
  Si  Si14  1  0.345061  0.172787  0.999534  1
  Si  Si15  1  0.172435  0.827565  0.500135  1
  Si  Si16  1  0.654948  0.827215  0.999353  1
  Si  Si17  1  0.827561  0.172439  0.499987  1
  Si  Si18  1  0.827213  0.654939  0.999534  1
  Si  Si19  1  0.654948  0.827215  0.500647  1
  Si  Si20  1  0.172785  0.345052  0.999353  1
  Si  Si21  1  0.345061  0.172787  0.500466  1
  Si  Si22  1  0.172785  0.345052  0.500647  1
  Si  Si23  1  0.827213  0.654939  0.500466  1
