# generated using pymatgen
data_CaTm3Lu4(B6Os)4
_symmetry_space_group_name_H-M   'P 1'
_cell_length_a   3.60598300
_cell_length_b   9.06386039
_cell_length_c   11.45043102
_cell_angle_alpha   89.91680256
_cell_angle_beta   90.00000000
_cell_angle_gamma   90.00000000
_symmetry_Int_Tables_number   1
_chemical_formula_structural   CaTm3Lu4(B6Os)4
_chemical_formula_sum   'Ca1 Tm3 Lu4 B24 Os4'
_cell_volume   374.24694105
_cell_formula_units_Z   1
loop_
 _symmetry_equiv_pos_site_id
 _symmetry_equiv_pos_as_xyz
  1  'x, y, z'
loop_
 _atom_site_type_symbol
 _atom_site_label
 _atom_site_symmetry_multiplicity
 _atom_site_fract_x
 _atom_site_fract_y
 _atom_site_fract_z
 _atom_site_occupancy
  Ca  Ca0  1  0.000000  0.321636  0.413676  1
  Tm  Tm1  1  0.000000  0.677225  0.585235  1
  Tm  Tm2  1  0.000000  0.821538  0.086575  1
  Tm  Tm3  1  0.000000  0.179127  0.914448  1
  Lu  Lu4  1  0.000000  0.944276  0.372282  1
  Lu  Lu5  1  0.000000  0.057020  0.627180  1
  Lu  Lu6  1  0.000000  0.443584  0.128134  1
  Lu  Lu7  1  0.000000  0.555859  0.873069  1
  B  B8  1  0.500000  0.554604  0.433017  1
  B  B9  1  0.500000  0.446602  0.567612  1
  B  B10  1  0.500000  0.053080  0.066003  1
  B  B11  1  0.500000  0.946043  0.933138  1
  B  B12  1  0.500000  0.749699  0.419680  1
  B  B13  1  0.500000  0.250641  0.581435  1
  B  B14  1  0.500000  0.249029  0.079953  1
  B  B15  1  0.500000  0.750453  0.919936  1
  B  B16  1  0.500000  0.792738  0.265705  1
  B  B17  1  0.500000  0.208201  0.734777  1
  B  B18  1  0.500000  0.291079  0.233186  1
  B  B19  1  0.500000  0.708093  0.766062  1
  B  B20  1  0.500000  0.631610  0.184830  1
  B  B21  1  0.500000  0.369061  0.815930  1
  B  B22  1  0.500000  0.130185  0.314274  1
  B  B23  1  0.500000  0.868874  0.684583  1
  B  B24  1  0.500000  0.981906  0.212348  1
  B  B25  1  0.500000  0.017810  0.786866  1
  B  B26  1  0.500000  0.483136  0.286661  1
  B  B27  1  0.500000  0.517956  0.713443  1
  B  B28  1  0.500000  0.605287  0.029095  1
  B  B29  1  0.500000  0.394990  0.971240  1
  B  B30  1  0.500000  0.101495  0.471901  1
  B  B31  1  0.500000  0.896208  0.528671  1
  Os  Os32  1  0.000000  0.640509  0.319762  1
  Os  Os33  1  0.000000  0.361857  0.681117  1
  Os  Os34  1  0.000000  0.136453  0.177238  1
  Os  Os35  1  0.000000  0.862138  0.820938  1
