# generated using pymatgen
data_LaPr5TcI10
_symmetry_space_group_name_H-M   'P 1'
_cell_length_a   8.10766503
_cell_length_b   10.01118401
_cell_length_c   10.16600004
_cell_angle_alpha   107.57173250
_cell_angle_beta   97.06628300
_cell_angle_gamma   104.80180106
_symmetry_Int_Tables_number   1
_chemical_formula_structural   LaPr5TcI10
_chemical_formula_sum   'La1 Pr5 Tc1 I10'
_cell_volume   742.39349055
_cell_formula_units_Z   1
loop_
 _symmetry_equiv_pos_site_id
 _symmetry_equiv_pos_as_xyz
  1  'x, y, z'
loop_
 _atom_site_type_symbol
 _atom_site_label
 _atom_site_symmetry_multiplicity
 _atom_site_fract_x
 _atom_site_fract_y
 _atom_site_fract_z
 _atom_site_occupancy
  La  La0  1  0.531013  0.232250  0.421403  1
  Pr  Pr1  1  0.467217  0.778584  0.581808  1
  Pr  Pr2  1  0.138131  0.366186  0.324421  1
  Pr  Pr3  1  0.861856  0.632778  0.675036  1
  Pr  Pr4  1  0.618424  0.543236  0.255862  1
  Pr  Pr5  1  0.383206  0.456195  0.744485  1
  Tc  Tc6  1  0.503012  0.483640  0.495277  1
  I  I7  1  0.144180  0.044059  0.225195  1
  I  I8  1  0.847668  0.954649  0.771887  1
  I  I9  1  0.241138  0.412985  0.041958  1
  I  I10  1  0.759880  0.589057  0.958816  1
  I  I11  1  0.709745  0.241214  0.148602  1
  I  I12  1  0.293453  0.761661  0.847938  1
  I  I13  1  0.048440  0.684139  0.412541  1
  I  I14  1  0.956276  0.318822  0.589797  1
  I  I15  1  0.411060  0.131207  0.681790  1
  I  I16  1  0.585303  0.869338  0.323188  1
