# generated using pymatgen
data_SmYMn2Co10As7
_symmetry_space_group_name_H-M   'P 1'
_cell_length_a   3.75845400
_cell_length_b   9.40489121
_cell_length_c   9.44061013
_cell_angle_alpha   119.82880271
_cell_angle_beta   90.00000000
_cell_angle_gamma   90.00000000
_symmetry_Int_Tables_number   1
_chemical_formula_structural   SmYMn2Co10As7
_chemical_formula_sum   'Sm1 Y1 Mn2 Co10 As7'
_cell_volume   289.49450766
_cell_formula_units_Z   1
loop_
 _symmetry_equiv_pos_site_id
 _symmetry_equiv_pos_as_xyz
  1  'x, y, z'
loop_
 _atom_site_type_symbol
 _atom_site_label
 _atom_site_symmetry_multiplicity
 _atom_site_fract_x
 _atom_site_fract_y
 _atom_site_fract_z
 _atom_site_occupancy
  Sm  Sm0  1  0.000000  0.670027  0.335009  1
  Y  Y1  1  0.500000  0.331772  0.666984  1
  Mn  Mn2  1  0.500000  0.780374  0.893736  1
  Mn  Mn3  1  0.500000  0.117831  0.220057  1
  Co  Co4  1  0.000000  0.568722  0.940528  1
  Co  Co5  1  0.000000  0.369585  0.430000  1
  Co  Co6  1  0.000000  0.058337  0.630825  1
  Co  Co7  1  0.500000  0.095810  0.879039  1
  Co  Co8  1  0.000000  0.883546  0.156209  1
  Co  Co9  1  0.000000  0.279092  0.121129  1
  Co  Co10  1  0.000000  0.843438  0.724102  1
  Co  Co11  1  0.500000  0.950641  0.383787  1
  Co  Co12  1  0.500000  0.430688  0.047828  1
  Co  Co13  1  0.500000  0.616924  0.567838  1
  As  As14  1  0.000000  0.003223  0.997955  1
  As  As15  1  0.500000  0.708642  0.113738  1
  As  As16  1  0.500000  0.409129  0.292499  1
  As  As17  1  0.500000  0.888121  0.598269  1
  As  As18  1  0.000000  0.584729  0.699885  1
  As  As19  1  0.000000  0.113836  0.414585  1
  As  As20  1  0.000000  0.295530  0.885996  1
