# generated using pymatgen
data_AsIr(OF8)2
_symmetry_space_group_name_H-M   'P 1'
_cell_length_a   5.48846857
_cell_length_b   5.75612420
_cell_length_c   10.32299932
_cell_angle_alpha   91.73689904
_cell_angle_beta   93.26825842
_cell_angle_gamma   90.47991698
_symmetry_Int_Tables_number   1
_chemical_formula_structural   AsIr(OF8)2
_chemical_formula_sum   'As1 Ir1 O2 F16'
_cell_volume   325.43065324
_cell_formula_units_Z   1
loop_
 _symmetry_equiv_pos_site_id
 _symmetry_equiv_pos_as_xyz
  1  'x, y, z'
loop_
 _atom_site_type_symbol
 _atom_site_label
 _atom_site_symmetry_multiplicity
 _atom_site_fract_x
 _atom_site_fract_y
 _atom_site_fract_z
 _atom_site_occupancy
  As  As0  1  0.000000  0.000000  0.000000  1
  Ir  Ir1  1  0.000000  0.000000  0.500000  1
  O  O2  1  0.549978  0.531486  0.765313  1
  O  O3  1  0.450022  0.468514  0.234687  1
  F  F4  1  0.756682  0.062685  0.100501  1
  F  F5  1  0.243318  0.937315  0.899499  1
  F  F6  1  0.705812  0.944246  0.401851  1
  F  F7  1  0.294188  0.055754  0.598149  1
  F  F8  1  0.389970  0.446082  0.852266  1
  F  F9  1  0.610030  0.553918  0.147734  1
  F  F10  1  0.408522  0.552426  0.646960  1
  F  F11  1  0.591478  0.447574  0.353040  1
  F  F12  1  0.848519  0.738114  0.943184  1
  F  F13  1  0.151481  0.261886  0.056816  1
  F  F14  1  0.887830  0.819400  0.633006  1
  F  F15  1  0.112170  0.180600  0.366994  1
  F  F16  1  0.850149  0.153963  0.872836  1
  F  F17  1  0.149851  0.846037  0.127164  1
  F  F18  1  0.868058  0.268423  0.575395  1
  F  F19  1  0.131942  0.731577  0.424605  1
