# generated using pymatgen
data_BaMnIO2
_symmetry_space_group_name_H-M   'P 1'
_cell_length_a   7.82511209
_cell_length_b   7.82511206
_cell_length_c   5.66306500
_cell_angle_alpha   90.00000000
_cell_angle_beta   90.00000000
_cell_angle_gamma   133.47240157
_symmetry_Int_Tables_number   1
_chemical_formula_structural   BaMnIO2
_chemical_formula_sum   'Ba2 Mn2 I2 O4'
_cell_volume   251.64789803
_cell_formula_units_Z   2
loop_
 _symmetry_equiv_pos_site_id
 _symmetry_equiv_pos_as_xyz
  1  'x, y, z'
loop_
 _atom_site_type_symbol
 _atom_site_label
 _atom_site_symmetry_multiplicity
 _atom_site_fract_x
 _atom_site_fract_y
 _atom_site_fract_z
 _atom_site_occupancy
  Ba  Ba0  1  0.392029  0.607970  0.249999  1
  Ba  Ba1  1  0.607970  0.392029  0.749999  1
  Mn  Mn2  1  0.005997  0.994002  0.249999  1
  Mn  Mn3  1  0.994002  0.005997  0.749999  1
  I  I4  1  0.763956  0.236043  0.249999  1
  I  I5  1  0.236043  0.763956  0.749999  1
  O  O6  1  0.211893  0.211893  0.000000  1
  O  O7  1  0.788106  0.788106  0.000000  1
  O  O8  1  0.211893  0.211893  0.500000  1
  O  O9  1  0.788106  0.788106  0.500000  1
