# generated using pymatgen
data_Lu2GaB2Ir5
_symmetry_space_group_name_H-M   'P 1'
_cell_length_a   9.50376500
_cell_length_b   9.50376500
_cell_length_c   3.15007900
_cell_angle_alpha   90.00000000
_cell_angle_beta   90.00000000
_cell_angle_gamma   90.00000000
_symmetry_Int_Tables_number   1
_chemical_formula_structural   Lu2GaB2Ir5
_chemical_formula_sum   'Lu4 Ga2 B4 Ir10'
_cell_volume   284.52001530
_cell_formula_units_Z   2
loop_
 _symmetry_equiv_pos_site_id
 _symmetry_equiv_pos_as_xyz
  1  'x, y, z'
loop_
 _atom_site_type_symbol
 _atom_site_label
 _atom_site_symmetry_multiplicity
 _atom_site_fract_x
 _atom_site_fract_y
 _atom_site_fract_z
 _atom_site_occupancy
  Lu  Lu0  1  0.675496  0.175496  0.000000  1
  Lu  Lu1  1  0.324504  0.824504  0.000000  1
  Lu  Lu2  1  0.175496  0.324504  0.000000  1
  Lu  Lu3  1  0.824504  0.675496  0.000000  1
  Ga  Ga4  1  0.000000  0.000000  0.000000  1
  Ga  Ga5  1  0.500000  0.500000  0.000000  1
  B  B6  1  0.124005  0.624005  0.000000  1
  B  B7  1  0.875995  0.375995  0.000000  1
  B  B8  1  0.624005  0.875995  0.000000  1
  B  B9  1  0.375995  0.124005  0.000000  1
  Ir  Ir10  1  0.217889  0.070115  0.500000  1
  Ir  Ir11  1  0.782111  0.929885  0.500000  1
  Ir  Ir12  1  0.070115  0.782111  0.500000  1
  Ir  Ir13  1  0.717889  0.429885  0.500000  1
  Ir  Ir14  1  0.929885  0.217889  0.500000  1
  Ir  Ir15  1  0.282111  0.570115  0.500000  1
  Ir  Ir16  1  0.570115  0.717889  0.500000  1
  Ir  Ir17  1  0.429885  0.282111  0.500000  1
  Ir  Ir18  1  0.500000  0.000000  0.500000  1
  Ir  Ir19  1  0.000000  0.500000  0.500000  1
