# generated using pymatgen
data_Ca2Sc3Pb4
_symmetry_space_group_name_H-M   'P 1'
_cell_length_a   7.81297300
_cell_length_b   8.28838900
_cell_length_c   15.41121800
_cell_angle_alpha   90.00000000
_cell_angle_beta   90.00000000
_cell_angle_gamma   90.00000000
_symmetry_Int_Tables_number   1
_chemical_formula_structural   Ca2Sc3Pb4
_chemical_formula_sum   'Ca8 Sc12 Pb16'
_cell_volume   997.98361942
_cell_formula_units_Z   4
loop_
 _symmetry_equiv_pos_site_id
 _symmetry_equiv_pos_as_xyz
  1  'x, y, z'
loop_
 _atom_site_type_symbol
 _atom_site_label
 _atom_site_symmetry_multiplicity
 _atom_site_fract_x
 _atom_site_fract_y
 _atom_site_fract_z
 _atom_site_occupancy
  Ca  Ca0  1  0.485744  0.681584  0.590699  1
  Ca  Ca1  1  0.985744  0.818416  0.909301  1
  Ca  Ca2  1  0.514256  0.318416  0.090699  1
  Ca  Ca3  1  0.014256  0.181584  0.409301  1
  Ca  Ca4  1  0.514256  0.318416  0.409301  1
  Ca  Ca5  1  0.014256  0.181584  0.090699  1
  Ca  Ca6  1  0.485744  0.681584  0.909301  1
  Ca  Ca7  1  0.985744  0.818416  0.590699  1
  Sc  Sc8  1  0.662033  0.151046  0.625328  1
  Sc  Sc9  1  0.162033  0.348954  0.874672  1
  Sc  Sc10  1  0.337967  0.848954  0.125328  1
  Sc  Sc11  1  0.837967  0.651046  0.374672  1
  Sc  Sc12  1  0.337967  0.848954  0.374672  1
  Sc  Sc13  1  0.837967  0.651046  0.125328  1
  Sc  Sc14  1  0.662033  0.151046  0.874672  1
  Sc  Sc15  1  0.162033  0.348954  0.625328  1
  Sc  Sc16  1  0.822968  0.500463  0.750000  1
  Sc  Sc17  1  0.322968  0.999537  0.750000  1
  Sc  Sc18  1  0.177032  0.499537  0.250000  1
  Sc  Sc19  1  0.677032  0.000463  0.250000  1
  Pb  Pb20  1  0.683636  0.955474  0.454430  1
  Pb  Pb21  1  0.183636  0.544526  0.045570  1
  Pb  Pb22  1  0.316364  0.044526  0.954430  1
  Pb  Pb23  1  0.816364  0.455474  0.545570  1
  Pb  Pb24  1  0.316364  0.044526  0.545570  1
  Pb  Pb25  1  0.816364  0.455474  0.954430  1
  Pb  Pb26  1  0.683636  0.955474  0.045570  1
  Pb  Pb27  1  0.183636  0.544526  0.454430  1
  Pb  Pb28  1  0.467135  0.362777  0.750000  1
  Pb  Pb29  1  0.967135  0.137223  0.750000  1
  Pb  Pb30  1  0.532865  0.637223  0.250000  1
  Pb  Pb31  1  0.032865  0.862777  0.250000  1
  Pb  Pb32  1  0.682456  0.849853  0.750000  1
  Pb  Pb33  1  0.182456  0.650147  0.750000  1
  Pb  Pb34  1  0.317544  0.150147  0.250000  1
  Pb  Pb35  1  0.817544  0.349853  0.250000  1
