# generated using pymatgen
data_Dy2LuSc3CoTe2
_symmetry_space_group_name_H-M   'P 1'
_cell_length_a   3.90592400
_cell_length_b   7.98090658
_cell_length_c   7.98090715
_cell_angle_alpha   120.69348840
_cell_angle_beta   90.00000000
_cell_angle_gamma   90.00000000
_symmetry_Int_Tables_number   1
_chemical_formula_structural   Dy2LuSc3CoTe2
_chemical_formula_sum   'Dy2 Lu1 Sc3 Co1 Te2'
_cell_volume   213.93479222
_cell_formula_units_Z   1
loop_
 _symmetry_equiv_pos_site_id
 _symmetry_equiv_pos_as_xyz
  1  'x, y, z'
loop_
 _atom_site_type_symbol
 _atom_site_label
 _atom_site_symmetry_multiplicity
 _atom_site_fract_x
 _atom_site_fract_y
 _atom_site_fract_z
 _atom_site_occupancy
  Dy  Dy0  1  0.000000  0.998819  0.607223  1
  Dy  Dy1  1  0.000000  0.607223  0.998819  1
  Lu  Lu2  1  0.000000  0.379429  0.379429  1
  Sc  Sc3  1  0.500000  0.770707  0.770707  1
  Sc  Sc4  1  0.500000  0.995150  0.225326  1
  Sc  Sc5  1  0.500000  0.225326  0.995150  1
  Co  Co6  1  0.000000  0.029112  0.029112  1
  Te  Te7  1  0.500000  0.661829  0.332406  1
  Te  Te8  1  0.500000  0.332406  0.661829  1
