# generated using pymatgen
data_Er16MgIn3IrPd3
_symmetry_space_group_name_H-M   'P 1'
_cell_length_a   9.63846359
_cell_length_b   9.63711015
_cell_length_c   9.61437700
_cell_angle_alpha   60.07799830
_cell_angle_beta   60.08262870
_cell_angle_gamma   60.20723182
_symmetry_Int_Tables_number   1
_chemical_formula_structural   Er16MgIn3IrPd3
_chemical_formula_sum   'Er16 Mg1 In3 Ir1 Pd3'
_cell_volume   633.23386947
_cell_formula_units_Z   1
loop_
 _symmetry_equiv_pos_site_id
 _symmetry_equiv_pos_as_xyz
  1  'x, y, z'
loop_
 _atom_site_type_symbol
 _atom_site_label
 _atom_site_symmetry_multiplicity
 _atom_site_fract_x
 _atom_site_fract_y
 _atom_site_fract_z
 _atom_site_occupancy
  Er  Er0  1  0.063540  0.062772  0.436844  1
  Er  Er1  1  0.644372  0.060813  0.647408  1
  Er  Er2  1  0.192266  0.806339  0.191557  1
  Er  Er3  1  0.434794  0.063602  0.436400  1
  Er  Er4  1  0.186377  0.193650  0.809987  1
  Er  Er5  1  0.652470  0.646883  0.652990  1
  Er  Er6  1  0.057116  0.641867  0.650509  1
  Er  Er7  1  0.434794  0.063602  0.065203  1
  Er  Er8  1  0.652470  0.646883  0.047657  1
  Er  Er9  1  0.192266  0.806339  0.809839  1
  Er  Er10  1  0.811487  0.192409  0.811534  1
  Er  Er11  1  0.811487  0.192409  0.184570  1
  Er  Er12  1  0.812751  0.808644  0.189303  1
  Er  Er13  1  0.063226  0.431688  0.440096  1
  Er  Er14  1  0.436905  0.432818  0.065139  1
  Er  Er15  1  0.063226  0.431688  0.064990  1
  Mg  Mg16  1  0.733142  0.425886  0.420487  1
  In  In17  1  0.417515  0.417456  0.750030  1
  In  In18  1  0.418932  0.748735  0.416166  1
  In  In19  1  0.417515  0.417456  0.415000  1
  Ir  Ir20  1  0.861271  0.428006  0.855362  1
  Pd  Pd21  1  0.856975  0.859706  0.852447  1
  Pd  Pd22  1  0.428129  0.860647  0.855612  1
  Pd  Pd23  1  0.856975  0.859706  0.430873  1
