# generated using pymatgen
data_ErTa7(NbN6)2
_symmetry_space_group_name_H-M   'P 1'
_cell_length_a   5.28142279
_cell_length_b   5.28860456
_cell_length_c   10.51109693
_cell_angle_alpha   89.95200749
_cell_angle_beta   90.02218344
_cell_angle_gamma   120.09050508
_symmetry_Int_Tables_number   1
_chemical_formula_structural   ErTa7(NbN6)2
_chemical_formula_sum   'Er1 Ta7 Nb2 N12'
_cell_volume   254.02341817
_cell_formula_units_Z   1
loop_
 _symmetry_equiv_pos_site_id
 _symmetry_equiv_pos_as_xyz
  1  'x, y, z'
loop_
 _atom_site_type_symbol
 _atom_site_label
 _atom_site_symmetry_multiplicity
 _atom_site_fract_x
 _atom_site_fract_y
 _atom_site_fract_z
 _atom_site_occupancy
  Er  Er0  1  0.665282  0.333681  0.000469  1
  Ta  Ta1  1  0.997826  0.321987  0.746130  1
  Ta  Ta2  1  0.324274  0.322363  0.254826  1
  Ta  Ta3  1  0.677395  0.001675  0.254758  1
  Ta  Ta4  1  0.998078  0.675127  0.254647  1
  Ta  Ta5  1  0.334365  0.667720  0.998955  1
  Ta  Ta6  1  0.334809  0.667856  0.499237  1
  Ta  Ta7  1  0.665356  0.333178  0.499381  1
  Nb  Nb8  1  0.676955  0.675157  0.745180  1
  Nb  Nb9  1  0.324978  0.001936  0.745199  1
  N  N10  1  0.659874  0.659974  0.382025  1
  N  N11  1  0.339832  0.999816  0.381978  1
  N  N12  1  0.000143  0.341277  0.381848  1
  N  N13  1  0.337551  0.341468  0.616834  1
  N  N14  1  0.662224  0.003640  0.616713  1
  N  N15  1  0.999983  0.653367  0.617468  1
  N  N16  1  0.330388  0.351336  0.871244  1
  N  N17  1  0.653081  0.986932  0.871156  1
  N  N18  1  0.017531  0.660899  0.870651  1
  N  N19  1  0.648651  0.665284  0.130453  1
  N  N20  1  0.334536  0.983060  0.130384  1
  N  N21  1  0.016890  0.352267  0.130467  1
