# generated using pymatgen
data_LaY7(Si3Pt)4
_symmetry_space_group_name_H-M   'P 1'
_cell_length_a   8.16153100
_cell_length_b   8.16153196
_cell_length_c   8.31145700
_cell_angle_alpha   90.00000000
_cell_angle_beta   90.00000000
_cell_angle_gamma   120.00000016
_symmetry_Int_Tables_number   1
_chemical_formula_structural   LaY7(Si3Pt)4
_chemical_formula_sum   'La1 Y7 Si12 Pt4'
_cell_volume   479.45860069
_cell_formula_units_Z   1
loop_
 _symmetry_equiv_pos_site_id
 _symmetry_equiv_pos_as_xyz
  1  'x, y, z'
loop_
 _atom_site_type_symbol
 _atom_site_label
 _atom_site_symmetry_multiplicity
 _atom_site_fract_x
 _atom_site_fract_y
 _atom_site_fract_z
 _atom_site_occupancy
  La  La0  1  0.000000  0.000000  0.250000  1
  Y  Y1  1  0.000000  0.000000  0.750000  1
  Y  Y2  1  0.000934  0.500466  0.250000  1
  Y  Y3  1  0.499534  0.500466  0.250000  1
  Y  Y4  1  0.500454  0.000910  0.750000  1
  Y  Y5  1  0.499534  0.999066  0.250000  1
  Y  Y6  1  0.500454  0.499546  0.750000  1
  Y  Y7  1  0.999090  0.499546  0.750000  1
  Si  Si8  1  0.166301  0.332602  0.996509  1
  Si  Si9  1  0.667398  0.833699  0.996509  1
  Si  Si10  1  0.166301  0.332602  0.503491  1
  Si  Si11  1  0.332626  0.166314  0.997664  1
  Si  Si12  1  0.166301  0.833699  0.996509  1
  Si  Si13  1  0.667398  0.833699  0.503491  1
  Si  Si14  1  0.833686  0.667374  0.997664  1
  Si  Si15  1  0.332626  0.166314  0.502336  1
  Si  Si16  1  0.166301  0.833699  0.503491  1
  Si  Si17  1  0.833686  0.667374  0.502336  1
  Si  Si18  1  0.833686  0.166314  0.997664  1
  Si  Si19  1  0.833686  0.166314  0.502336  1
  Pt  Pt20  1  0.333333  0.666667  0.998148  1
  Pt  Pt21  1  0.333333  0.666667  0.501852  1
  Pt  Pt22  1  0.666667  0.333333  0.999724  1
  Pt  Pt23  1  0.666667  0.333333  0.500276  1
