# generated using pymatgen
data_Dy2Y(In2Pt)2
_symmetry_space_group_name_H-M   'P 1'
_cell_length_a   7.82741408
_cell_length_b   7.84438697
_cell_length_c   3.92718800
_cell_angle_alpha   90.00000000
_cell_angle_beta   90.00000000
_cell_angle_gamma   120.13774390
_symmetry_Int_Tables_number   1
_chemical_formula_structural   Dy2Y(In2Pt)2
_chemical_formula_sum   'Dy2 Y1 In4 Pt2'
_cell_volume   208.53798235
_cell_formula_units_Z   1
loop_
 _symmetry_equiv_pos_site_id
 _symmetry_equiv_pos_as_xyz
  1  'x, y, z'
loop_
 _atom_site_type_symbol
 _atom_site_label
 _atom_site_symmetry_multiplicity
 _atom_site_fract_x
 _atom_site_fract_y
 _atom_site_fract_z
 _atom_site_occupancy
  Dy  Dy0  1  0.695168  0.743480  0.500000  1
  Dy  Dy1  1  0.256270  0.951423  0.500000  1
  Y  Y2  1  0.049562  0.306916  0.500000  1
  In  In3  1  0.665728  0.076589  0.000000  1
  In  In4  1  0.923100  0.589215  0.000000  1
  In  In5  1  0.410754  0.334442  0.000000  1
  In  In6  1  0.333875  0.667047  0.000000  1
  Pt  Pt7  1  0.665753  0.333126  0.500000  1
  Pt  Pt8  1  0.999792  0.997760  0.000000  1
