# generated using pymatgen
data_Be8ReTc2Mo
_symmetry_space_group_name_H-M   'P 1'
_cell_length_a   4.38252700
_cell_length_b   4.38252663
_cell_length_c   7.18520300
_cell_angle_alpha   90.00000000
_cell_angle_beta   90.00000000
_cell_angle_gamma   120.00001033
_symmetry_Int_Tables_number   1
_chemical_formula_structural   Be8ReTc2Mo
_chemical_formula_sum   'Be8 Re1 Tc2 Mo1'
_cell_volume   119.51400309
_cell_formula_units_Z   1
loop_
 _symmetry_equiv_pos_site_id
 _symmetry_equiv_pos_as_xyz
  1  'x, y, z'
loop_
 _atom_site_type_symbol
 _atom_site_label
 _atom_site_symmetry_multiplicity
 _atom_site_fract_x
 _atom_site_fract_y
 _atom_site_fract_z
 _atom_site_occupancy
  Be  Be0  1  0.000000  0.000000  0.998190  1
  Be  Be1  1  0.000000  0.000000  0.501686  1
  Be  Be2  1  0.831251  0.662503  0.252307  1
  Be  Be3  1  0.169217  0.830783  0.747935  1
  Be  Be4  1  0.661567  0.830783  0.747935  1
  Be  Be5  1  0.337497  0.168749  0.252307  1
  Be  Be6  1  0.831251  0.168749  0.252307  1
  Be  Be7  1  0.169217  0.338433  0.747935  1
  Re  Re8  1  0.333333  0.666667  0.438375  1
  Tc  Tc9  1  0.666667  0.333333  0.561661  1
  Tc  Tc10  1  0.666667  0.333333  0.937783  1
  Mo  Mo11  1  0.333333  0.666667  0.061579  1
