# generated using pymatgen
data_Ba6Ho(IrO6)2
_symmetry_space_group_name_H-M   'P 1'
_cell_length_a   9.25704640
_cell_length_b   9.25704556
_cell_length_c   7.42422486
_cell_angle_alpha   68.05994284
_cell_angle_beta   68.05994270
_cell_angle_gamma   36.87823085
_symmetry_Int_Tables_number   1
_chemical_formula_structural   Ba6Ho(IrO6)2
_chemical_formula_sum   'Ba6 Ho1 Ir2 O12'
_cell_volume   350.93614499
_cell_formula_units_Z   1
loop_
 _symmetry_equiv_pos_site_id
 _symmetry_equiv_pos_as_xyz
  1  'x, y, z'
loop_
 _atom_site_type_symbol
 _atom_site_label
 _atom_site_symmetry_multiplicity
 _atom_site_fract_x
 _atom_site_fract_y
 _atom_site_fract_z
 _atom_site_occupancy
  Ba  Ba0  1  0.215700  0.215700  0.706574  1
  Ba  Ba1  1  0.881232  0.881232  0.710174  1
  Ba  Ba2  1  0.548952  0.548952  0.705572  1
  Ba  Ba3  1  0.784300  0.784300  0.293426  1
  Ba  Ba4  1  0.451048  0.451048  0.294428  1
  Ba  Ba5  1  0.118768  0.118768  0.289826  1
  Ho  Ho6  1  0.000000  0.000000  0.000000  1
  Ir  Ir7  1  0.670480  0.670480  0.999762  1
  Ir  Ir8  1  0.329520  0.329520  0.000238  1
  O  O9  1  0.281442  0.281442  0.305434  1
  O  O10  1  0.943937  0.943937  0.330002  1
  O  O11  1  0.617694  0.617694  0.304233  1
  O  O12  1  0.718558  0.718558  0.694566  1
  O  O13  1  0.382306  0.382306  0.695767  1
  O  O14  1  0.056063  0.056063  0.669998  1
  O  O15  1  0.000000  0.500000  0.000000  1
  O  O16  1  0.644692  0.175848  0.001273  1
  O  O17  1  0.355308  0.824152  0.998727  1
  O  O18  1  0.500000  0.000000  0.000000  1
  O  O19  1  0.175848  0.644692  0.001273  1
  O  O20  1  0.824152  0.355308  0.998727  1
