# generated using pymatgen
data_Ho10TlIn4Hg3IrPd3
_symmetry_space_group_name_H-M   'P 1'
_cell_length_a   3.61642000
_cell_length_b   8.12486529
_cell_length_c   18.25412500
_cell_angle_alpha   90.05885521
_cell_angle_beta   90.00000000
_cell_angle_gamma   90.00000000
_symmetry_Int_Tables_number   1
_chemical_formula_structural   Ho10TlIn4Hg3IrPd3
_chemical_formula_sum   'Ho10 Tl1 In4 Hg3 Ir1 Pd3'
_cell_volume   536.35930867
_cell_formula_units_Z   1
loop_
 _symmetry_equiv_pos_site_id
 _symmetry_equiv_pos_as_xyz
  1  'x, y, z'
loop_
 _atom_site_type_symbol
 _atom_site_label
 _atom_site_symmetry_multiplicity
 _atom_site_fract_x
 _atom_site_fract_y
 _atom_site_fract_z
 _atom_site_occupancy
  Ho  Ho0  1  0.000000  0.498964  0.499778  1
  Ho  Ho1  1  0.000000  0.004219  0.002216  1
  Ho  Ho2  1  0.000000  0.730637  0.281244  1
  Ho  Ho3  1  0.000000  0.257765  0.715630  1
  Ho  Ho4  1  0.000000  0.758924  0.780215  1
  Ho  Ho5  1  0.000000  0.256207  0.216953  1
  Ho  Ho6  1  0.000000  0.607137  0.089276  1
  Ho  Ho7  1  0.000000  0.384232  0.915835  1
  Ho  Ho8  1  0.000000  0.890708  0.582473  1
  Ho  Ho9  1  0.000000  0.108738  0.414342  1
  Tl  Tl10  1  0.500000  0.711416  0.933663  1
  In  In11  1  0.500000  0.580908  0.648493  1
  In  In12  1  0.500000  0.420684  0.352348  1
  In  In13  1  0.500000  0.923010  0.150074  1
  In  In14  1  0.500000  0.082157  0.850176  1
  Hg  Hg15  1  0.500000  0.286837  0.065752  1
  Hg  Hg16  1  0.500000  0.787926  0.434924  1
  Hg  Hg17  1  0.500000  0.211737  0.566095  1
  Ir  Ir18  1  0.500000  0.527209  0.199153  1
  Pd  Pd19  1  0.500000  0.472033  0.802357  1
  Pd  Pd20  1  0.500000  0.972957  0.696968  1
  Pd  Pd21  1  0.500000  0.025597  0.302037  1
