# generated using pymatgen
data_Nd6Dy7Tm3(CdIr)4
_symmetry_space_group_name_H-M   'P 1'
_cell_length_a   9.72796835
_cell_length_b   9.72691677
_cell_length_c   9.71878703
_cell_angle_alpha   60.03480648
_cell_angle_beta   60.02922985
_cell_angle_gamma   59.94114032
_symmetry_Int_Tables_number   1
_chemical_formula_structural   Nd6Dy7Tm3(CdIr)4
_chemical_formula_sum   'Nd6 Dy7 Tm3 Cd4 Ir4'
_cell_volume   650.29539193
_cell_formula_units_Z   1
loop_
 _symmetry_equiv_pos_site_id
 _symmetry_equiv_pos_as_xyz
  1  'x, y, z'
loop_
 _atom_site_type_symbol
 _atom_site_label
 _atom_site_symmetry_multiplicity
 _atom_site_fract_x
 _atom_site_fract_y
 _atom_site_fract_z
 _atom_site_occupancy
  Nd  Nd0  1  0.940800  0.558666  0.558775  1
  Nd  Nd1  1  0.558775  0.941759  0.940800  1
  Nd  Nd2  1  0.559027  0.940973  0.559027  1
  Nd  Nd3  1  0.941574  0.558426  0.941574  1
  Nd  Nd4  1  0.558702  0.558392  0.941054  1
  Nd  Nd5  1  0.941054  0.941852  0.558702  1
  Dy  Dy6  1  0.347654  0.346618  0.348723  1
  Dy  Dy7  1  0.349687  0.346935  0.955431  1
  Dy  Dy8  1  0.348723  0.957006  0.347654  1
  Dy  Dy9  1  0.955431  0.347948  0.349687  1
  Dy  Dy10  1  0.812433  0.188104  0.185471  1
  Dy  Dy11  1  0.185471  0.813992  0.812433  1
  Dy  Dy12  1  0.187458  0.812542  0.187458  1
  Tm  Tm13  1  0.812830  0.187170  0.812830  1
  Tm  Tm14  1  0.186539  0.188890  0.811480  1
  Tm  Tm15  1  0.811480  0.813091  0.186539  1
  Cd  Cd16  1  0.579761  0.579430  0.579366  1
  Cd  Cd17  1  0.580075  0.579939  0.260566  1
  Cd  Cd18  1  0.579366  0.261442  0.579761  1
  Cd  Cd19  1  0.260566  0.579417  0.580075  1
  Ir  Ir20  1  0.142662  0.140492  0.140606  1
  Ir  Ir21  1  0.141338  0.141514  0.577987  1
  Ir  Ir22  1  0.140606  0.576240  0.142662  1
  Ir  Ir23  1  0.577987  0.139160  0.141338  1
