# generated using pymatgen
data_TbLu7Al4
_symmetry_space_group_name_H-M   'P 1'
_cell_length_a   6.46241810
_cell_length_b   5.00703600
_cell_length_c   9.24116881
_cell_angle_alpha   90.00000000
_cell_angle_beta   90.36098630
_cell_angle_gamma   90.00000000
_symmetry_Int_Tables_number   1
_chemical_formula_structural   TbLu7Al4
_chemical_formula_sum   'Tb1 Lu7 Al4'
_cell_volume   299.01573993
_cell_formula_units_Z   1
loop_
 _symmetry_equiv_pos_site_id
 _symmetry_equiv_pos_as_xyz
  1  'x, y, z'
loop_
 _atom_site_type_symbol
 _atom_site_label
 _atom_site_symmetry_multiplicity
 _atom_site_fract_x
 _atom_site_fract_y
 _atom_site_fract_z
 _atom_site_occupancy
  Tb  Tb0  1  0.185696  0.250000  0.071605  1
  Lu  Lu1  1  0.474160  0.750001  0.213120  1
  Lu  Lu2  1  0.970353  0.750001  0.289167  1
  Lu  Lu3  1  0.685160  0.250000  0.428605  1
  Lu  Lu4  1  0.315436  0.750001  0.570648  1
  Lu  Lu5  1  0.028394  0.250000  0.711012  1
  Lu  Lu6  1  0.530329  0.250000  0.786687  1
  Lu  Lu7  1  0.811687  0.750001  0.928692  1
  Al  Al8  1  0.704965  0.250000  0.103382  1
  Al  Al9  1  0.207329  0.250000  0.400460  1
  Al  Al10  1  0.792786  0.750001  0.603206  1
  Al  Al11  1  0.293705  0.750001  0.893419  1
