# generated using pymatgen
data_Tb6Dy2Re3B24Ir
_symmetry_space_group_name_H-M   'P 1'
_cell_length_a   3.69154500
_cell_length_b   9.19966199
_cell_length_c   11.58758407
_cell_angle_alpha   90.15021870
_cell_angle_beta   90.00000000
_cell_angle_gamma   90.00000000
_symmetry_Int_Tables_number   1
_chemical_formula_structural   Tb6Dy2Re3B24Ir
_chemical_formula_sum   'Tb6 Dy2 Re3 B24 Ir1'
_cell_volume   393.52419858
_cell_formula_units_Z   1
loop_
 _symmetry_equiv_pos_site_id
 _symmetry_equiv_pos_as_xyz
  1  'x, y, z'
loop_
 _atom_site_type_symbol
 _atom_site_label
 _atom_site_symmetry_multiplicity
 _atom_site_fract_x
 _atom_site_fract_y
 _atom_site_fract_z
 _atom_site_occupancy
  Tb  Tb0  1  0.000000  0.318732  0.415421  1
  Tb  Tb1  1  0.000000  0.678173  0.591304  1
  Tb  Tb2  1  0.000000  0.827296  0.081501  1
  Tb  Tb3  1  0.000000  0.177057  0.912575  1
  Tb  Tb4  1  0.000000  0.943998  0.370194  1
  Tb  Tb5  1  0.000000  0.055920  0.629006  1
  Dy  Dy6  1  0.000000  0.440972  0.128471  1
  Dy  Dy7  1  0.000000  0.556724  0.871601  1
  Re  Re8  1  0.000000  0.362912  0.677605  1
  Re  Re9  1  0.000000  0.138633  0.179763  1
  Re  Re10  1  0.000000  0.861545  0.821193  1
  B  B11  1  0.500000  0.553919  0.433344  1
  B  B12  1  0.500000  0.446591  0.567109  1
  B  B13  1  0.500000  0.053620  0.066932  1
  B  B14  1  0.500000  0.946893  0.932359  1
  B  B15  1  0.500000  0.748447  0.419816  1
  B  B16  1  0.500000  0.251408  0.581313  1
  B  B17  1  0.500000  0.248526  0.081555  1
  B  B18  1  0.500000  0.752152  0.918614  1
  B  B19  1  0.500000  0.790469  0.265577  1
  B  B20  1  0.500000  0.209184  0.733716  1
  B  B21  1  0.500000  0.291154  0.234561  1
  B  B22  1  0.500000  0.708500  0.766373  1
  B  B23  1  0.500000  0.631818  0.184788  1
  B  B24  1  0.500000  0.369290  0.813629  1
  B  B25  1  0.500000  0.131272  0.314228  1
  B  B26  1  0.500000  0.867982  0.686138  1
  B  B27  1  0.500000  0.983952  0.211835  1
  B  B28  1  0.500000  0.016494  0.787119  1
  B  B29  1  0.500000  0.483482  0.287817  1
  B  B30  1  0.500000  0.517472  0.712501  1
  B  B31  1  0.500000  0.604425  0.029635  1
  B  B32  1  0.500000  0.396551  0.971686  1
  B  B33  1  0.500000  0.103226  0.470691  1
  B  B34  1  0.500000  0.893865  0.528703  1
  Ir  Ir35  1  0.000000  0.637348  0.321332  1
