# generated using pymatgen
data_Sc3Sn3Pd2Pt
_symmetry_space_group_name_H-M   'P 1'
_cell_length_a   7.55299600
_cell_length_b   7.55299651
_cell_length_c   7.22608600
_cell_angle_alpha   90.00000000
_cell_angle_beta   90.00000000
_cell_angle_gamma   119.99999776
_symmetry_Int_Tables_number   1
_chemical_formula_structural   Sc3Sn3Pd2Pt
_chemical_formula_sum   'Sc6 Sn6 Pd4 Pt2'
_cell_volume   357.00336213
_cell_formula_units_Z   2
loop_
 _symmetry_equiv_pos_site_id
 _symmetry_equiv_pos_as_xyz
  1  'x, y, z'
loop_
 _atom_site_type_symbol
 _atom_site_label
 _atom_site_symmetry_multiplicity
 _atom_site_fract_x
 _atom_site_fract_y
 _atom_site_fract_z
 _atom_site_occupancy
  Sc  Sc0  1  0.399307  0.011980  0.250000  1
  Sc  Sc1  1  0.612673  0.600693  0.250000  1
  Sc  Sc2  1  0.988020  0.387327  0.250000  1
  Sc  Sc3  1  0.384574  0.980883  0.750000  1
  Sc  Sc4  1  0.596309  0.615426  0.750000  1
  Sc  Sc5  1  0.019117  0.403691  0.750000  1
  Sn  Sn6  1  0.726347  0.001842  0.000118  1
  Sn  Sn7  1  0.275495  0.273653  0.499882  1
  Sn  Sn8  1  0.998158  0.724505  0.499882  1
  Sn  Sn9  1  0.998158  0.724505  0.000118  1
  Sn  Sn10  1  0.275495  0.273653  0.000118  1
  Sn  Sn11  1  0.726347  0.001842  0.499882  1
  Pd  Pd12  1  0.666667  0.333333  0.969468  1
  Pd  Pd13  1  0.666667  0.333333  0.530532  1
  Pd  Pd14  1  0.000000  0.000000  0.250000  1
  Pd  Pd15  1  0.000000  0.000000  0.750000  1
  Pt  Pt16  1  0.333333  0.666667  0.032724  1
  Pt  Pt17  1  0.333333  0.666667  0.467276  1
