# generated using pymatgen
data_Nd13Th3(HgIr)4
_symmetry_space_group_name_H-M   'P 1'
_cell_length_a   9.97061116
_cell_length_b   9.95427878
_cell_length_c   9.95427900
_cell_angle_alpha   60.00000260
_cell_angle_beta   60.05417414
_cell_angle_gamma   60.05417430
_symmetry_Int_Tables_number   1
_chemical_formula_structural   Nd13Th3(HgIr)4
_chemical_formula_sum   'Nd13 Th3 Hg4 Ir4'
_cell_volume   699.16798411
_cell_formula_units_Z   1
loop_
 _symmetry_equiv_pos_site_id
 _symmetry_equiv_pos_as_xyz
  1  'x, y, z'
loop_
 _atom_site_type_symbol
 _atom_site_label
 _atom_site_symmetry_multiplicity
 _atom_site_fract_x
 _atom_site_fract_y
 _atom_site_fract_z
 _atom_site_occupancy
  Nd  Nd0  1  0.949864  0.350045  0.350045  1
  Nd  Nd1  1  0.809410  0.191707  0.191707  1
  Nd  Nd2  1  0.192858  0.808712  0.808712  1
  Nd  Nd3  1  0.192858  0.808712  0.189718  1
  Nd  Nd4  1  0.809410  0.191707  0.807178  1
  Nd  Nd5  1  0.192858  0.189718  0.808712  1
  Nd  Nd6  1  0.809410  0.807178  0.191707  1
  Nd  Nd7  1  0.937239  0.563306  0.563306  1
  Nd  Nd8  1  0.561350  0.938070  0.938070  1
  Nd  Nd9  1  0.561350  0.938070  0.562509  1
  Nd  Nd10  1  0.937239  0.563306  0.936148  1
  Nd  Nd11  1  0.561350  0.562509  0.938070  1
  Nd  Nd12  1  0.937239  0.936148  0.563306  1
  Th  Th13  1  0.345338  0.347188  0.347188  1
  Th  Th14  1  0.345338  0.347188  0.960287  1
  Th  Th15  1  0.345338  0.960287  0.347188  1
  Hg  Hg16  1  0.582267  0.583278  0.583278  1
  Hg  Hg17  1  0.582267  0.583278  0.251175  1
  Hg  Hg18  1  0.582267  0.251175  0.583278  1
  Hg  Hg19  1  0.248949  0.583683  0.583683  1
  Ir  Ir20  1  0.150166  0.140906  0.140906  1
  Ir  Ir21  1  0.150166  0.140906  0.568021  1
  Ir  Ir22  1  0.150166  0.568021  0.140906  1
  Ir  Ir23  1  0.565299  0.144900  0.144900  1
