# generated using pymatgen
data_Fe2Tc5As12
_symmetry_space_group_name_H-M   'P 1'
_cell_length_a   3.07795300
_cell_length_b   12.87292900
_cell_length_c   15.82620200
_cell_angle_alpha   90.00000000
_cell_angle_beta   90.00000000
_cell_angle_gamma   90.00000000
_symmetry_Int_Tables_number   1
_chemical_formula_structural   Fe2Tc5As12
_chemical_formula_sum   'Fe4 Tc10 As24'
_cell_volume   627.07005559
_cell_formula_units_Z   2
loop_
 _symmetry_equiv_pos_site_id
 _symmetry_equiv_pos_as_xyz
  1  'x, y, z'
loop_
 _atom_site_type_symbol
 _atom_site_label
 _atom_site_symmetry_multiplicity
 _atom_site_fract_x
 _atom_site_fract_y
 _atom_site_fract_z
 _atom_site_occupancy
  Fe  Fe0  1  0.500000  0.126069  0.343452  1
  Fe  Fe1  1  0.500000  0.873931  0.656548  1
  Fe  Fe2  1  0.000000  0.373931  0.843452  1
  Fe  Fe3  1  0.000000  0.626069  0.156548  1
  Tc  Tc4  1  0.500000  0.316596  0.103007  1
  Tc  Tc5  1  0.500000  0.683404  0.896993  1
  Tc  Tc6  1  0.000000  0.183404  0.603007  1
  Tc  Tc7  1  0.000000  0.816596  0.396993  1
  Tc  Tc8  1  0.500000  0.915692  0.260721  1
  Tc  Tc9  1  0.500000  0.084308  0.739279  1
  Tc  Tc10  1  0.000000  0.584308  0.760721  1
  Tc  Tc11  1  0.000000  0.415692  0.239279  1
  Tc  Tc12  1  0.500000  0.500000  0.500000  1
  Tc  Tc13  1  0.000000  0.000000  0.000000  1
  As  As14  1  0.500000  0.903575  0.097017  1
  As  As15  1  0.500000  0.096425  0.902983  1
  As  As16  1  0.000000  0.596425  0.597017  1
  As  As17  1  0.000000  0.403575  0.402983  1
  As  As18  1  0.500000  0.568707  0.260660  1
  As  As19  1  0.500000  0.431293  0.739340  1
  As  As20  1  0.000000  0.931293  0.760660  1
  As  As21  1  0.000000  0.068707  0.239340  1
  As  As22  1  0.500000  0.655025  0.405703  1
  As  As23  1  0.500000  0.344975  0.594297  1
  As  As24  1  0.000000  0.844975  0.905703  1
  As  As25  1  0.000000  0.155025  0.094297  1
  As  As26  1  0.500000  0.969697  0.420799  1
  As  As27  1  0.500000  0.030303  0.579201  1
  As  As28  1  0.000000  0.530303  0.920799  1
  As  As29  1  0.000000  0.469697  0.079201  1
  As  As30  1  0.500000  0.707617  0.060450  1
  As  As31  1  0.500000  0.292383  0.939550  1
  As  As32  1  0.000000  0.792383  0.560450  1
  As  As33  1  0.000000  0.207617  0.439550  1
  As  As34  1  0.500000  0.729311  0.741950  1
  As  As35  1  0.500000  0.270689  0.258050  1
  As  As36  1  0.000000  0.770689  0.241950  1
  As  As37  1  0.000000  0.229311  0.758050  1
