# generated using pymatgen
data_Ho4Er11Th(CdPt)4
_symmetry_space_group_name_H-M   'P 1'
_cell_length_a   9.63410108
_cell_length_b   9.63261481
_cell_length_c   9.63261425
_cell_angle_alpha   60.21246148
_cell_angle_beta   60.21605934
_cell_angle_gamma   60.21605874
_symmetry_Int_Tables_number   1
_chemical_formula_structural   Ho4Er11Th(CdPt)4
_chemical_formula_sum   'Ho4 Er11 Th1 Cd4 Pt4'
_cell_volume   635.17322377
_cell_formula_units_Z   1
loop_
 _symmetry_equiv_pos_site_id
 _symmetry_equiv_pos_as_xyz
  1  'x, y, z'
loop_
 _atom_site_type_symbol
 _atom_site_label
 _atom_site_symmetry_multiplicity
 _atom_site_fract_x
 _atom_site_fract_y
 _atom_site_fract_z
 _atom_site_occupancy
  Ho  Ho0  1  0.816632  0.184956  0.816610  1
  Ho  Ho1  1  0.186270  0.814171  0.186261  1
  Ho  Ho2  1  0.816632  0.816610  0.184956  1
  Ho  Ho3  1  0.186270  0.186261  0.814171  1
  Er  Er4  1  0.603762  0.603608  0.189464  1
  Er  Er5  1  0.603762  0.189464  0.603608  1
  Er  Er6  1  0.189481  0.603750  0.603750  1
  Er  Er7  1  0.062836  0.438725  0.438725  1
  Er  Er8  1  0.440352  0.060700  0.060700  1
  Er  Er9  1  0.438730  0.062810  0.438729  1
  Er  Er10  1  0.060658  0.440358  0.060637  1
  Er  Er11  1  0.438730  0.438729  0.062810  1
  Er  Er12  1  0.060658  0.060637  0.440358  1
  Er  Er13  1  0.185103  0.816444  0.816444  1
  Er  Er14  1  0.814018  0.186449  0.186449  1
  Th  Th15  1  0.600047  0.600127  0.600127  1
  Cd  Cd16  1  0.832018  0.831848  0.831848  1
  Cd  Cd17  1  0.832955  0.833118  0.502321  1
  Cd  Cd18  1  0.832955  0.502321  0.833118  1
  Cd  Cd19  1  0.502205  0.832973  0.832973  1
  Pt  Pt20  1  0.394108  0.394025  0.394025  1
  Pt  Pt21  1  0.390326  0.390421  0.821174  1
  Pt  Pt22  1  0.390326  0.821174  0.390421  1
  Pt  Pt23  1  0.821166  0.390318  0.390318  1
