# generated using pymatgen
data_La3Tm4Co4Sn13
_symmetry_space_group_name_H-M   'P 1'
_cell_length_a   11.20898900
_cell_length_b   11.20898900
_cell_length_c   4.54059600
_cell_angle_alpha   90.00000000
_cell_angle_beta   90.00000000
_cell_angle_gamma   90.00000000
_symmetry_Int_Tables_number   1
_chemical_formula_structural   La3Tm4Co4Sn13
_chemical_formula_sum   'La3 Tm4 Co4 Sn13'
_cell_volume   570.48699448
_cell_formula_units_Z   1
loop_
 _symmetry_equiv_pos_site_id
 _symmetry_equiv_pos_as_xyz
  1  'x, y, z'
loop_
 _atom_site_type_symbol
 _atom_site_label
 _atom_site_symmetry_multiplicity
 _atom_site_fract_x
 _atom_site_fract_y
 _atom_site_fract_z
 _atom_site_occupancy
  La  La0  1  0.000000  0.000000  0.000000  1
  La  La1  1  0.500000  0.000000  0.500000  1
  La  La2  1  0.000000  0.500000  0.500000  1
  Tm  Tm3  1  0.335862  0.672158  0.500000  1
  Tm  Tm4  1  0.664138  0.327842  0.500000  1
  Tm  Tm5  1  0.327842  0.335862  0.500000  1
  Tm  Tm6  1  0.672158  0.664138  0.500000  1
  Co  Co7  1  0.123126  0.720832  0.000000  1
  Co  Co8  1  0.876874  0.279168  0.000000  1
  Co  Co9  1  0.279168  0.123126  0.000000  1
  Co  Co10  1  0.720832  0.876874  0.000000  1
  Sn  Sn11  1  0.284836  0.888049  0.000000  1
  Sn  Sn12  1  0.715164  0.111951  0.000000  1
  Sn  Sn13  1  0.111951  0.284836  0.000000  1
  Sn  Sn14  1  0.888049  0.715164  0.000000  1
  Sn  Sn15  1  0.079700  0.803317  0.500000  1
  Sn  Sn16  1  0.920300  0.196683  0.500000  1
  Sn  Sn17  1  0.196683  0.079700  0.500000  1
  Sn  Sn18  1  0.803317  0.920300  0.500000  1
  Sn  Sn19  1  0.519949  0.778137  0.000000  1
  Sn  Sn20  1  0.480051  0.221863  0.000000  1
  Sn  Sn21  1  0.221863  0.519949  0.000000  1
  Sn  Sn22  1  0.778137  0.480051  0.000000  1
  Sn  Sn23  1  0.500000  0.500000  0.000000  1
