# generated using pymatgen
data_TbDyNi7B2Pt
_symmetry_space_group_name_H-M   'P 1'
_cell_length_a   5.01783800
_cell_length_b   5.01783784
_cell_length_c   7.08881200
_cell_angle_alpha   90.00000000
_cell_angle_beta   90.00000000
_cell_angle_gamma   120.00000103
_symmetry_Int_Tables_number   1
_chemical_formula_structural   TbDyNi7B2Pt
_chemical_formula_sum   'Tb1 Dy1 Ni7 B2 Pt1'
_cell_volume   154.57431999
_cell_formula_units_Z   1
loop_
 _symmetry_equiv_pos_site_id
 _symmetry_equiv_pos_as_xyz
  1  'x, y, z'
loop_
 _atom_site_type_symbol
 _atom_site_label
 _atom_site_symmetry_multiplicity
 _atom_site_fract_x
 _atom_site_fract_y
 _atom_site_fract_z
 _atom_site_occupancy
  Tb  Tb0  1  0.000000  0.000000  0.000000  1
  Dy  Dy1  1  0.000000  0.000000  0.500000  1
  Ni  Ni2  1  0.666667  0.333333  0.000000  1
  Ni  Ni3  1  0.500938  0.001877  0.300114  1
  Ni  Ni4  1  0.500938  0.499062  0.300114  1
  Ni  Ni5  1  0.998123  0.499062  0.300114  1
  Ni  Ni6  1  0.500938  0.001877  0.699886  1
  Ni  Ni7  1  0.500938  0.499062  0.699886  1
  Ni  Ni8  1  0.998123  0.499062  0.699886  1
  B  B9  1  0.666667  0.333333  0.500000  1
  B  B10  1  0.333333  0.666667  0.500000  1
  Pt  Pt11  1  0.333333  0.666667  0.000000  1
