# generated using pymatgen
data_Th4Co13NiP8
_symmetry_space_group_name_H-M   'P 1'
_cell_length_a   3.73864400
_cell_length_b   9.14813714
_cell_length_c   10.47205246
_cell_angle_alpha   90.09404691
_cell_angle_beta   90.00000000
_cell_angle_gamma   90.00000000
_symmetry_Int_Tables_number   1
_chemical_formula_structural   Th4Co13NiP8
_chemical_formula_sum   'Th4 Co13 Ni1 P8'
_cell_volume   358.16076045
_cell_formula_units_Z   1
loop_
 _symmetry_equiv_pos_site_id
 _symmetry_equiv_pos_as_xyz
  1  'x, y, z'
loop_
 _atom_site_type_symbol
 _atom_site_label
 _atom_site_symmetry_multiplicity
 _atom_site_fract_x
 _atom_site_fract_y
 _atom_site_fract_z
 _atom_site_occupancy
  Th  Th0  1  0.000000  0.557594  0.004755  1
  Th  Th1  1  0.500000  0.447220  0.507384  1
  Th  Th2  1  0.000000  0.936707  0.783088  1
  Th  Th3  1  0.500000  0.063208  0.284179  1
  Co  Co4  1  0.000000  0.581770  0.303860  1
  Co  Co5  1  0.500000  0.418059  0.804457  1
  Co  Co6  1  0.000000  0.307836  0.260837  1
  Co  Co7  1  0.500000  0.692677  0.764147  1
  Co  Co8  1  0.000000  0.249792  0.903420  1
  Co  Co9  1  0.500000  0.749402  0.402098  1
  Co  Co10  1  0.000000  0.902731  0.081773  1
  Co  Co11  1  0.500000  0.094869  0.582360  1
  Co  Co12  1  0.000000  0.933636  0.474702  1
  Co  Co13  1  0.500000  0.066488  0.976060  1
  Co  Co14  1  0.000000  0.275747  0.670996  1
  Co  Co15  1  0.500000  0.723036  0.170295  1
  Co  Co16  1  0.000000  0.692228  0.574904  1
  Ni  Ni17  1  0.500000  0.310581  0.073134  1
  P  P18  1  0.000000  0.528470  0.725017  1
  P  P19  1  0.500000  0.474503  0.225745  1
  P  P20  1  0.000000  0.813208  0.282992  1
  P  P21  1  0.500000  0.186952  0.783183  1
  P  P22  1  0.000000  0.151754  0.086520  1
  P  P23  1  0.500000  0.842393  0.586833  1
  P  P24  1  0.000000  0.182054  0.475621  1
  P  P25  1  0.500000  0.817085  0.974037  1
