# generated using pymatgen
data_CaYHo2(Mo2O7)2
_symmetry_space_group_name_H-M   'P 1'
_cell_length_a   7.32279354
_cell_length_b   7.32210157
_cell_length_c   7.42107206
_cell_angle_alpha   60.43170825
_cell_angle_beta   60.43712364
_cell_angle_gamma   59.99687458
_symmetry_Int_Tables_number   1
_chemical_formula_structural   CaYHo2(Mo2O7)2
_chemical_formula_sum   'Ca1 Y1 Ho2 Mo4 O14'
_cell_volume   283.18775254
_cell_formula_units_Z   1
loop_
 _symmetry_equiv_pos_site_id
 _symmetry_equiv_pos_as_xyz
  1  'x, y, z'
loop_
 _atom_site_type_symbol
 _atom_site_label
 _atom_site_symmetry_multiplicity
 _atom_site_fract_x
 _atom_site_fract_y
 _atom_site_fract_z
 _atom_site_occupancy
  Ca  Ca0  1  0.125000  0.125000  0.625000  1
  Y  Y1  1  0.125000  0.625000  0.125000  1
  Ho  Ho2  1  0.125000  0.125000  0.125000  1
  Ho  Ho3  1  0.625000  0.125000  0.125000  1
  Mo  Mo4  1  0.625000  0.625000  0.625000  1
  Mo  Mo5  1  0.125000  0.625000  0.625000  1
  Mo  Mo6  1  0.625000  0.125000  0.625000  1
  Mo  Mo7  1  0.625000  0.625000  0.125000  1
  O  O8  1  0.254021  0.251635  0.240322  1
  O  O9  1  0.995979  0.998365  0.009678  1
  O  O10  1  0.554042  0.961041  0.523792  1
  O  O11  1  0.297230  0.709115  0.285845  1
  O  O12  1  0.542188  0.540885  0.964155  1
  O  O13  1  0.960637  0.553660  0.525067  1
  O  O14  1  0.541182  0.953213  0.964423  1
  O  O15  1  0.961126  0.961041  0.523792  1
  O  O16  1  0.952770  0.540885  0.964155  1
  O  O17  1  0.708818  0.296787  0.285577  1
  O  O18  1  0.289363  0.696340  0.724933  1
  O  O19  1  0.707812  0.709115  0.285845  1
  O  O20  1  0.288874  0.288959  0.726208  1
  O  O21  1  0.695958  0.288959  0.726208  1
