# generated using pymatgen
data_Tb5Y3(ErRu2)2
_symmetry_space_group_name_H-M   'P 1'
_cell_length_a   6.35746183
_cell_length_b   7.29720429
_cell_length_c   8.50266360
_cell_angle_alpha   96.71137747
_cell_angle_beta   112.15305000
_cell_angle_gamma   90.00577554
_symmetry_Int_Tables_number   1
_chemical_formula_structural   Tb5Y3(ErRu2)2
_chemical_formula_sum   'Tb5 Y3 Er2 Ru4'
_cell_volume   362.41241105
_cell_formula_units_Z   1
loop_
 _symmetry_equiv_pos_site_id
 _symmetry_equiv_pos_as_xyz
  1  'x, y, z'
loop_
 _atom_site_type_symbol
 _atom_site_label
 _atom_site_symmetry_multiplicity
 _atom_site_fract_x
 _atom_site_fract_y
 _atom_site_fract_z
 _atom_site_occupancy
  Tb  Tb0  1  0.021434  0.084617  0.814627  1
  Tb  Tb1  1  0.206855  0.685630  0.567345  1
  Tb  Tb2  1  0.639783  0.814604  0.433112  1
  Tb  Tb3  1  0.793168  0.314564  0.432832  1
  Tb  Tb4  1  0.360425  0.185244  0.566672  1
  Y  Y5  1  0.792741  0.583445  0.814164  1
  Y  Y6  1  0.978230  0.916138  0.185234  1
  Y  Y7  1  0.207009  0.416435  0.185846  1
  Er  Er8  1  0.422561  0.749339  0.999384  1
  Er  Er9  1  0.577065  0.250646  0.000262  1
  Ru  Ru10  1  0.602368  0.926778  0.781068  1
  Ru  Ru11  1  0.819429  0.575038  0.219134  1
  Ru  Ru12  1  0.399452  0.073961  0.219277  1
  Ru  Ru13  1  0.179479  0.423559  0.781043  1
