# generated using pymatgen
data_Eu7ErSi12Pd3Pt
_symmetry_space_group_name_H-M   'P 1'
_cell_length_a   8.29599300
_cell_length_b   8.29599302
_cell_length_c   8.53710700
_cell_angle_alpha   90.00000000
_cell_angle_beta   90.00000000
_cell_angle_gamma   119.99999593
_symmetry_Int_Tables_number   1
_chemical_formula_structural   Eu7ErSi12Pd3Pt
_chemical_formula_sum   'Eu7 Er1 Si12 Pd3 Pt1'
_cell_volume   508.83635055
_cell_formula_units_Z   1
loop_
 _symmetry_equiv_pos_site_id
 _symmetry_equiv_pos_as_xyz
  1  'x, y, z'
loop_
 _atom_site_type_symbol
 _atom_site_label
 _atom_site_symmetry_multiplicity
 _atom_site_fract_x
 _atom_site_fract_y
 _atom_site_fract_z
 _atom_site_occupancy
  Eu  Eu0  1  0.499689  0.999379  0.250171  1
  Eu  Eu1  1  0.499640  0.999278  0.749629  1
  Eu  Eu2  1  0.000621  0.500311  0.250171  1
  Eu  Eu3  1  0.000722  0.500360  0.749629  1
  Eu  Eu4  1  0.499689  0.500311  0.250171  1
  Eu  Eu5  1  0.499640  0.500360  0.749629  1
  Eu  Eu6  1  0.000000  0.000000  0.250366  1
  Er  Er7  1  0.000000  0.000000  0.749752  1
  Si  Si8  1  0.164497  0.328993  0.995939  1
  Si  Si9  1  0.835919  0.671840  0.994953  1
  Si  Si10  1  0.671007  0.835503  0.995939  1
  Si  Si11  1  0.836273  0.672545  0.504849  1
  Si  Si12  1  0.328160  0.164081  0.994953  1
  Si  Si13  1  0.163524  0.327049  0.504996  1
  Si  Si14  1  0.164497  0.835503  0.995939  1
  Si  Si15  1  0.327455  0.163727  0.504849  1
  Si  Si16  1  0.835919  0.164081  0.994953  1
  Si  Si17  1  0.672951  0.836476  0.504996  1
  Si  Si18  1  0.836273  0.163727  0.504849  1
  Si  Si19  1  0.163524  0.836476  0.504996  1
  Pd  Pd20  1  0.666667  0.333333  0.998629  1
  Pd  Pd21  1  0.666667  0.333333  0.500489  1
  Pd  Pd22  1  0.333333  0.666667  0.500274  1
  Pt  Pt23  1  0.333333  0.666667  0.998881  1
