# generated using pymatgen
data_Nd3Tm(Si5Os3)2
_symmetry_space_group_name_H-M   'P 1'
_cell_length_a   8.20126383
_cell_length_b   8.18188254
_cell_length_c   5.85699170
_cell_angle_alpha   70.46030111
_cell_angle_beta   70.38170789
_cell_angle_gamma   93.78532300
_symmetry_Int_Tables_number   1
_chemical_formula_structural   Nd3Tm(Si5Os3)2
_chemical_formula_sum   'Nd3 Tm1 Si10 Os6'
_cell_volume   341.76935000
_cell_formula_units_Z   1
loop_
 _symmetry_equiv_pos_site_id
 _symmetry_equiv_pos_as_xyz
  1  'x, y, z'
loop_
 _atom_site_type_symbol
 _atom_site_label
 _atom_site_symmetry_multiplicity
 _atom_site_fract_x
 _atom_site_fract_y
 _atom_site_fract_z
 _atom_site_occupancy
  Nd  Nd0  1  0.868375  0.601757  0.754504  1
  Nd  Nd1  1  0.397228  0.132763  0.745531  1
  Nd  Nd2  1  0.132849  0.397573  0.245203  1
  Tm  Tm3  1  0.602102  0.868577  0.253761  1
  Si  Si4  1  0.063493  0.262125  0.835595  1
  Si  Si5  1  0.738886  0.935845  0.665107  1
  Si  Si6  1  0.932236  0.740139  0.165165  1
  Si  Si7  1  0.260013  0.061214  0.336829  1
  Si  Si8  1  0.207044  0.791772  0.753113  1
  Si  Si9  1  0.790453  0.205722  0.249199  1
  Si  Si10  1  0.513322  0.489012  0.749620  1
  Si  Si11  1  0.490526  0.515493  0.246816  1
  Si  Si12  1  0.773051  0.224832  0.753210  1
  Si  Si13  1  0.230034  0.773547  0.248436  1
  Os  Os14  1  0.259916  0.545191  0.629275  1
  Os  Os15  1  0.459452  0.745112  0.864571  1
  Os  Os16  1  0.742933  0.456283  0.369718  1
  Os  Os17  1  0.541860  0.253558  0.132445  1
  Os  Os18  1  0.000872  0.997350  0.751173  1
  Os  Os19  1  0.995357  0.002133  0.250730  1
