# generated using pymatgen
data_LaPr7(HoIr3)2
_symmetry_space_group_name_H-M   'P 1'
_cell_length_a   11.27263678
_cell_length_b   11.28482200
_cell_length_c   6.56998595
_cell_angle_alpha   90.00000000
_cell_angle_beta   89.87428713
_cell_angle_gamma   90.00000000
_symmetry_Int_Tables_number   1
_chemical_formula_structural   LaPr7(HoIr3)2
_chemical_formula_sum   'La2 Pr14 Ho4 Ir12'
_cell_volume   835.76392762
_cell_formula_units_Z   2
loop_
 _symmetry_equiv_pos_site_id
 _symmetry_equiv_pos_as_xyz
  1  'x, y, z'
loop_
 _atom_site_type_symbol
 _atom_site_label
 _atom_site_symmetry_multiplicity
 _atom_site_fract_x
 _atom_site_fract_y
 _atom_site_fract_z
 _atom_site_occupancy
  La  La0  1  0.288599  0.088256  0.382824  1
  La  La1  1  0.288599  0.911744  0.882824  1
  Pr  Pr2  1  0.711486  0.087786  0.882055  1
  Pr  Pr3  1  0.711486  0.912214  0.382055  1
  Pr  Pr4  1  0.588168  0.788326  0.881830  1
  Pr  Pr5  1  0.588168  0.211674  0.381830  1
  Pr  Pr6  1  0.412754  0.787787  0.381848  1
  Pr  Pr7  1  0.412754  0.212213  0.881848  1
  Pr  Pr8  1  0.211301  0.412666  0.618305  1
  Pr  Pr9  1  0.211301  0.587334  0.118305  1
  Pr  Pr10  1  0.788636  0.412417  0.117967  1
  Pr  Pr11  1  0.788636  0.587583  0.617967  1
  Pr  Pr12  1  0.912159  0.711330  0.117861  1
  Pr  Pr13  1  0.912159  0.288670  0.617861  1
  Pr  Pr14  1  0.087426  0.711029  0.617860  1
  Pr  Pr15  1  0.087426  0.288971  0.117860  1
  Ho  Ho16  1  0.999327  0.999715  0.500016  1
  Ho  Ho17  1  0.999327  0.000285  0.000016  1
  Ho  Ho18  1  0.500136  0.499933  0.000178  1
  Ho  Ho19  1  0.500136  0.500067  0.500178  1
  Ir  Ir20  1  0.852408  0.147440  0.249926  1
  Ir  Ir21  1  0.852408  0.852560  0.749926  1
  Ir  Ir22  1  0.148224  0.147386  0.748874  1
  Ir  Ir23  1  0.148224  0.852614  0.248874  1
  Ir  Ir24  1  0.647488  0.352414  0.749945  1
  Ir  Ir25  1  0.647488  0.647586  0.249945  1
  Ir  Ir26  1  0.352457  0.352338  0.250159  1
  Ir  Ir27  1  0.352457  0.647662  0.750159  1
  Ir  Ir28  1  0.499378  0.000208  0.117826  1
  Ir  Ir29  1  0.499378  0.999792  0.617826  1
  Ir  Ir30  1  0.000052  0.499804  0.882526  1
  Ir  Ir31  1  0.000052  0.500196  0.382526  1
