# generated using pymatgen
data_Dy2URu3
_symmetry_space_group_name_H-M   'P 1'
_cell_length_a   5.84898715
_cell_length_b   5.84898931
_cell_length_c   7.96997600
_cell_angle_alpha   90.00000000
_cell_angle_beta   90.00000000
_cell_angle_gamma   120.02153660
_symmetry_Int_Tables_number   1
_chemical_formula_structural   Dy2URu3
_chemical_formula_sum   'Dy4 U2 Ru6'
_cell_volume   236.07763723
_cell_formula_units_Z   2
loop_
 _symmetry_equiv_pos_site_id
 _symmetry_equiv_pos_as_xyz
  1  'x, y, z'
loop_
 _atom_site_type_symbol
 _atom_site_label
 _atom_site_symmetry_multiplicity
 _atom_site_fract_x
 _atom_site_fract_y
 _atom_site_fract_z
 _atom_site_occupancy
  Dy  Dy0  1  0.666658  0.333342  0.556876  1
  Dy  Dy1  1  0.333342  0.666658  0.443124  1
  Dy  Dy2  1  0.333342  0.666658  0.056876  1
  Dy  Dy3  1  0.666658  0.333342  0.943124  1
  U  U4  1  0.000000  0.000000  0.500000  1
  U  U5  1  0.000000  0.000000  0.000000  1
  Ru  Ru6  1  0.164831  0.329657  0.750000  1
  Ru  Ru7  1  0.164795  0.835205  0.750000  1
  Ru  Ru8  1  0.670343  0.835169  0.750000  1
  Ru  Ru9  1  0.835169  0.670343  0.250000  1
  Ru  Ru10  1  0.835205  0.164795  0.250000  1
  Ru  Ru11  1  0.329657  0.164831  0.250000  1
