# generated using pymatgen
data_Er3Tm2Zn2Bi
_symmetry_space_group_name_H-M   'P 1'
_cell_length_a   8.55014486
_cell_length_b   8.55014534
_cell_length_c   8.54827958
_cell_angle_alpha   123.62024779
_cell_angle_beta   123.62025290
_cell_angle_gamma   83.85008268
_symmetry_Int_Tables_number   1
_chemical_formula_structural   Er3Tm2Zn2Bi
_chemical_formula_sum   'Er6 Tm4 Zn4 Bi2'
_cell_volume   415.03109696
_cell_formula_units_Z   2
loop_
 _symmetry_equiv_pos_site_id
 _symmetry_equiv_pos_as_xyz
  1  'x, y, z'
loop_
 _atom_site_type_symbol
 _atom_site_label
 _atom_site_symmetry_multiplicity
 _atom_site_fract_x
 _atom_site_fract_y
 _atom_site_fract_z
 _atom_site_occupancy
  Er  Er0  1  0.010255  0.205528  0.500000  1
  Er  Er1  1  0.705528  0.510255  0.500000  1
  Er  Er2  1  0.489760  0.989760  0.195120  1
  Er  Er3  1  0.794640  0.294640  0.804880  1
  Er  Er4  1  0.989842  0.794539  0.500000  1
  Er  Er5  1  0.294539  0.489842  0.500000  1
  Tm  Tm6  1  0.499897  0.499897  0.000000  1
  Tm  Tm7  1  0.999897  0.999897  0.000000  1
  Tm  Tm8  1  0.510284  0.010284  0.804409  1
  Tm  Tm9  1  0.205874  0.705874  0.195591  1
  Zn  Zn10  1  0.139392  0.639392  0.778929  1
  Zn  Zn11  1  0.860464  0.360464  0.221071  1
  Zn  Zn12  1  0.638959  0.860661  0.500000  1
  Zn  Zn13  1  0.360661  0.138959  0.500000  1
  Bi  Bi14  1  0.250004  0.250004  0.000000  1
  Bi  Bi15  1  0.750004  0.750004  0.000000  1
