# generated using pymatgen
data_Tm5OsRuO12
_symmetry_space_group_name_H-M   'P 1'
_cell_length_a   6.78203550
_cell_length_b   6.78203642
_cell_length_c   7.35596754
_cell_angle_alpha   74.02817035
_cell_angle_beta   74.02817198
_cell_angle_gamma   49.09870081
_symmetry_Int_Tables_number   1
_chemical_formula_structural   Tm5OsRuO12
_chemical_formula_sum   'Tm5 Os1 Ru1 O12'
_cell_volume   243.75218257
_cell_formula_units_Z   1
loop_
 _symmetry_equiv_pos_site_id
 _symmetry_equiv_pos_as_xyz
  1  'x, y, z'
loop_
 _atom_site_type_symbol
 _atom_site_label
 _atom_site_symmetry_multiplicity
 _atom_site_fract_x
 _atom_site_fract_y
 _atom_site_fract_z
 _atom_site_occupancy
  Tm  Tm0  1  0.809182  0.791588  0.358958  1
  Tm  Tm1  1  0.208412  0.190818  0.641042  1
  Tm  Tm2  1  0.191014  0.185020  0.172405  1
  Tm  Tm3  1  0.814980  0.808986  0.827595  1
  Tm  Tm4  1  0.508107  0.491893  0.500000  1
  Os  Os5  1  0.714926  0.285074  0.000000  1
  Ru  Ru6  1  0.270050  0.729950  0.000000  1
  O  O7  1  0.412758  0.930748  0.912386  1
  O  O8  1  0.069252  0.587242  0.087614  1
  O  O9  1  0.584846  0.085307  0.089173  1
  O  O10  1  0.914693  0.415154  0.910827  1
  O  O11  1  0.606587  0.090963  0.569585  1
  O  O12  1  0.909037  0.393413  0.430415  1
  O  O13  1  0.408458  0.898034  0.426657  1
  O  O14  1  0.990456  0.010678  0.820545  1
  O  O15  1  0.989322  0.009544  0.179455  1
  O  O16  1  0.495371  0.499415  0.796968  1
  O  O17  1  0.500585  0.504629  0.203032  1
  O  O18  1  0.101966  0.591542  0.573343  1
