# generated using pymatgen
data_Sr(ThH4)3
_symmetry_space_group_name_H-M   'P 1'
_cell_length_a   6.97167100
_cell_length_b   6.99846600
_cell_length_c   6.99846600
_cell_angle_alpha   90.00000000
_cell_angle_beta   90.00000000
_cell_angle_gamma   90.00000000
_symmetry_Int_Tables_number   1
_chemical_formula_structural   Sr(ThH4)3
_chemical_formula_sum   'Sr2 Th6 H24'
_cell_volume   341.46217180
_cell_formula_units_Z   2
loop_
 _symmetry_equiv_pos_site_id
 _symmetry_equiv_pos_as_xyz
  1  'x, y, z'
loop_
 _atom_site_type_symbol
 _atom_site_label
 _atom_site_symmetry_multiplicity
 _atom_site_fract_x
 _atom_site_fract_y
 _atom_site_fract_z
 _atom_site_occupancy
  Sr  Sr0  1  0.250000  0.000000  0.500000  1
  Sr  Sr1  1  0.750000  0.000000  0.500000  1
  Th  Th2  1  0.000000  0.000000  0.000000  1
  Th  Th3  1  0.500000  0.500000  0.500000  1
  Th  Th4  1  0.000000  0.500000  0.250206  1
  Th  Th5  1  0.000000  0.500000  0.749794  1
  Th  Th6  1  0.500000  0.750206  0.000000  1
  Th  Th7  1  0.500000  0.249794  0.000000  1
  H  H8  1  0.000000  0.164616  0.286384  1
  H  H9  1  0.500000  0.213616  0.664616  1
  H  H10  1  0.500000  0.786384  0.335384  1
  H  H11  1  0.810511  0.643606  0.500000  1
  H  H12  1  0.189489  0.643606  0.500000  1
  H  H13  1  0.345064  0.500000  0.804280  1
  H  H14  1  0.654936  0.500000  0.804280  1
  H  H15  1  0.310511  0.000000  0.143606  1
  H  H16  1  0.154936  0.304280  0.000000  1
  H  H17  1  0.845064  0.695720  0.000000  1
  H  H18  1  0.310511  0.000000  0.856394  1
  H  H19  1  0.845064  0.304280  0.000000  1
  H  H20  1  0.689489  0.000000  0.143606  1
  H  H21  1  0.689489  0.000000  0.856394  1
  H  H22  1  0.154936  0.695720  0.000000  1
  H  H23  1  0.000000  0.835384  0.713616  1
  H  H24  1  0.000000  0.164616  0.713616  1
  H  H25  1  0.000000  0.835384  0.286384  1
  H  H26  1  0.654936  0.500000  0.195720  1
  H  H27  1  0.345064  0.500000  0.195720  1
  H  H28  1  0.810511  0.356394  0.500000  1
  H  H29  1  0.189489  0.356394  0.500000  1
  H  H30  1  0.500000  0.786384  0.664616  1
  H  H31  1  0.500000  0.213616  0.335384  1
