# generated using pymatgen
data_Tb11In9AgAu3
_symmetry_space_group_name_H-M   'P 1'
_cell_length_a   13.39048400
_cell_length_b   13.42504136
_cell_length_c   3.71524400
_cell_angle_alpha   90.00000000
_cell_angle_beta   90.00000000
_cell_angle_gamma   112.91437631
_symmetry_Int_Tables_number   1
_chemical_formula_structural   Tb11In9AgAu3
_chemical_formula_sum   'Tb11 In9 Ag1 Au3'
_cell_volume   615.17722721
_cell_formula_units_Z   1
loop_
 _symmetry_equiv_pos_site_id
 _symmetry_equiv_pos_as_xyz
  1  'x, y, z'
loop_
 _atom_site_type_symbol
 _atom_site_label
 _atom_site_symmetry_multiplicity
 _atom_site_fract_x
 _atom_site_fract_y
 _atom_site_fract_z
 _atom_site_occupancy
  Tb  Tb0  1  0.415989  0.065626  0.000000  1
  Tb  Tb1  1  0.583558  0.934221  0.000000  1
  Tb  Tb2  1  0.066127  0.416287  0.000000  1
  Tb  Tb3  1  0.937169  0.584739  0.000000  1
  Tb  Tb4  1  0.160158  0.840814  0.000000  1
  Tb  Tb5  1  0.839662  0.159272  0.000000  1
  Tb  Tb6  1  0.367921  0.631692  0.000000  1
  Tb  Tb7  1  0.629961  0.364347  0.000000  1
  Tb  Tb8  1  0.303861  0.303735  0.000000  1
  Tb  Tb9  1  0.695987  0.700210  0.000000  1
  Tb  Tb10  1  0.000043  0.999520  0.000000  1
  In  In11  1  0.366067  0.843221  0.500000  1
  In  In12  1  0.634100  0.156217  0.500000  1
  In  In13  1  0.842031  0.367715  0.500000  1
  In  In14  1  0.157704  0.634542  0.500000  1
  In  In15  1  0.215781  0.067713  0.500000  1
  In  In16  1  0.784784  0.932362  0.500000  1
  In  In17  1  0.067985  0.215430  0.500000  1
  In  In18  1  0.930100  0.782358  0.500000  1
  In  In19  1  0.501368  0.500071  0.500000  1
  Ag  Ag20  1  0.751429  0.551286  0.500000  1
  Au  Au21  1  0.448393  0.247927  0.500000  1
  Au  Au22  1  0.550821  0.751848  0.500000  1
  Au  Au23  1  0.249000  0.448845  0.500000  1
