# generated using pymatgen
data_YTh2ScAl2Rh3
_symmetry_space_group_name_H-M   'P 1'
_cell_length_a   7.31837494
_cell_length_b   7.14323695
_cell_length_c   4.19032200
_cell_angle_alpha   90.00000000
_cell_angle_beta   90.00000000
_cell_angle_gamma   119.20859111
_symmetry_Int_Tables_number   1
_chemical_formula_structural   YTh2ScAl2Rh3
_chemical_formula_sum   'Y1 Th2 Sc1 Al2 Rh3'
_cell_volume   191.20365350
_cell_formula_units_Z   1
loop_
 _symmetry_equiv_pos_site_id
 _symmetry_equiv_pos_as_xyz
  1  'x, y, z'
loop_
 _atom_site_type_symbol
 _atom_site_label
 _atom_site_symmetry_multiplicity
 _atom_site_fract_x
 _atom_site_fract_y
 _atom_site_fract_z
 _atom_site_occupancy
  Y  Y0  1  0.999995  0.395005  0.500000  1
  Th  Th1  1  0.564455  0.575525  0.500000  1
  Th  Th2  1  0.435550  0.011095  0.500000  1
  Sc  Sc3  1  0.000027  0.758890  0.000000  1
  Al  Al4  1  0.226125  0.237411  0.000000  1
  Al  Al5  1  0.773799  0.011266  0.000000  1
  Rh  Rh6  1  0.354316  0.684600  0.000000  1
  Rh  Rh7  1  0.645712  0.330300  0.000000  1
  Rh  Rh8  1  0.000021  0.995910  0.500000  1
