# generated using pymatgen
data_NdAg(MoO4)2
_symmetry_space_group_name_H-M   'P 1'
_cell_length_a   6.97443846
_cell_length_b   6.97443787
_cell_length_c   6.97443701
_cell_angle_alpha   134.60370827
_cell_angle_beta   134.60370265
_cell_angle_gamma   66.14657971
_symmetry_Int_Tables_number   1
_chemical_formula_structural   NdAg(MoO4)2
_chemical_formula_sum   'Nd1 Ag1 Mo2 O8'
_cell_volume   169.32213961
_cell_formula_units_Z   1
loop_
 _symmetry_equiv_pos_site_id
 _symmetry_equiv_pos_as_xyz
  1  'x, y, z'
loop_
 _atom_site_type_symbol
 _atom_site_label
 _atom_site_symmetry_multiplicity
 _atom_site_fract_x
 _atom_site_fract_y
 _atom_site_fract_z
 _atom_site_occupancy
  Nd  Nd0  1  0.750000  0.250000  0.500000  1
  Ag  Ag1  1  0.000000  0.000000  0.000000  1
  Mo  Mo2  1  0.500000  0.500000  0.000000  1
  Mo  Mo3  1  0.250000  0.750000  0.500000  1
  O  O4  1  0.651161  0.271763  0.098465  1
  O  O5  1  0.012025  0.429104  0.103390  1
  O  O6  1  0.728237  0.826702  0.379398  1
  O  O7  1  0.091365  0.987975  0.417079  1
  O  O8  1  0.570896  0.674286  0.582921  1
  O  O9  1  0.447304  0.348839  0.620602  1
  O  O10  1  0.325714  0.908635  0.896610  1
  O  O11  1  0.173298  0.552696  0.901535  1
