# generated using pymatgen
data_Nd2Fe7CoB8
_symmetry_space_group_name_H-M   'P 1'
_cell_length_a   7.07238555
_cell_length_b   7.06189643
_cell_length_c   3.79933478
_cell_angle_alpha   89.98209636
_cell_angle_beta   89.89056085
_cell_angle_gamma   89.84655166
_symmetry_Int_Tables_number   1
_chemical_formula_structural   Nd2Fe7CoB8
_chemical_formula_sum   'Nd2 Fe7 Co1 B8'
_cell_volume   189.75466648
_cell_formula_units_Z   1
loop_
 _symmetry_equiv_pos_site_id
 _symmetry_equiv_pos_as_xyz
  1  'x, y, z'
loop_
 _atom_site_type_symbol
 _atom_site_label
 _atom_site_symmetry_multiplicity
 _atom_site_fract_x
 _atom_site_fract_y
 _atom_site_fract_z
 _atom_site_occupancy
  Nd  Nd0  1  0.999305  0.000701  0.000028  1
  Nd  Nd1  1  0.500384  0.500115  0.500438  1
  Fe  Fe2  1  0.868707  0.611757  0.893551  1
  Fe  Fe3  1  0.889083  0.368476  0.394553  1
  Fe  Fe4  1  0.113114  0.630721  0.393933  1
  Fe  Fe5  1  0.366895  0.112831  0.605963  1
  Fe  Fe6  1  0.632126  0.887866  0.605650  1
  Fe  Fe7  1  0.611685  0.132392  0.105537  1
  Fe  Fe8  1  0.387564  0.868405  0.105813  1
  Co  Co9  1  0.134729  0.388048  0.893072  1
  B  B10  1  0.665790  0.798404  0.104738  1
  B  B11  1  0.335509  0.198283  0.106175  1
  B  B12  1  0.299338  0.834441  0.604922  1
  B  B13  1  0.702242  0.164957  0.604861  1
  B  B14  1  0.834674  0.701651  0.394543  1
  B  B15  1  0.164358  0.297061  0.395678  1
  B  B16  1  0.200210  0.668619  0.894923  1
  B  B17  1  0.794285  0.335271  0.895620  1
