# generated using pymatgen
data_ScMnZnH6
_symmetry_space_group_name_H-M   'P 1'
_cell_length_a   4.43685153
_cell_length_b   4.43685054
_cell_length_c   4.43685100
_cell_angle_alpha   59.99998912
_cell_angle_beta   59.99999648
_cell_angle_gamma   59.99999890
_symmetry_Int_Tables_number   1
_chemical_formula_structural   ScMnZnH6
_chemical_formula_sum   'Sc1 Mn1 Zn1 H6'
_cell_volume   61.76031337
_cell_formula_units_Z   1
loop_
 _symmetry_equiv_pos_site_id
 _symmetry_equiv_pos_as_xyz
  1  'x, y, z'
loop_
 _atom_site_type_symbol
 _atom_site_label
 _atom_site_symmetry_multiplicity
 _atom_site_fract_x
 _atom_site_fract_y
 _atom_site_fract_z
 _atom_site_occupancy
  Sc  Sc0  1  0.250000  0.250000  0.250000  1
  Mn  Mn1  1  0.000000  0.000000  0.000000  1
  Zn  Zn2  1  0.750000  0.750000  0.750000  1
  H  H3  1  0.745272  0.745272  0.254728  1
  H  H4  1  0.254728  0.745272  0.254728  1
  H  H5  1  0.745272  0.254728  0.254728  1
  H  H6  1  0.254728  0.254728  0.745272  1
  H  H7  1  0.745272  0.254728  0.745272  1
  H  H8  1  0.254728  0.745272  0.745272  1
