# generated using pymatgen
data_Dy2TaFe8P6Ru
_symmetry_space_group_name_H-M   'P 1'
_cell_length_a   3.69435700
_cell_length_b   10.33455600
_cell_length_c   12.20294500
_cell_angle_alpha   90.00000000
_cell_angle_beta   90.00000000
_cell_angle_gamma   90.00000000
_symmetry_Int_Tables_number   1
_chemical_formula_structural   Dy2TaFe8P6Ru
_chemical_formula_sum   'Dy4 Ta2 Fe16 P12 Ru2'
_cell_volume   465.90281821
_cell_formula_units_Z   2
loop_
 _symmetry_equiv_pos_site_id
 _symmetry_equiv_pos_as_xyz
  1  'x, y, z'
loop_
 _atom_site_type_symbol
 _atom_site_label
 _atom_site_symmetry_multiplicity
 _atom_site_fract_x
 _atom_site_fract_y
 _atom_site_fract_z
 _atom_site_occupancy
  Dy  Dy0  1  0.250000  0.585240  0.711595  1
  Dy  Dy1  1  0.250000  0.914760  0.211595  1
  Dy  Dy2  1  0.750000  0.418740  0.289194  1
  Dy  Dy3  1  0.750000  0.081260  0.789194  1
  Ta  Ta4  1  0.750000  0.296411  0.008177  1
  Ta  Ta5  1  0.750000  0.203589  0.508177  1
  Fe  Fe6  1  0.250000  0.418687  0.490877  1
  Fe  Fe7  1  0.250000  0.081313  0.990877  1
  Fe  Fe8  1  0.750000  0.587926  0.507814  1
  Fe  Fe9  1  0.750000  0.912074  0.007814  1
  Fe  Fe10  1  0.250000  0.215612  0.169978  1
  Fe  Fe11  1  0.250000  0.284388  0.669978  1
  Fe  Fe12  1  0.750000  0.777558  0.828198  1
  Fe  Fe13  1  0.750000  0.722442  0.328198  1
  Fe  Fe14  1  0.250000  0.880565  0.698323  1
  Fe  Fe15  1  0.250000  0.619435  0.198323  1
  Fe  Fe16  1  0.750000  0.120505  0.301409  1
  Fe  Fe17  1  0.750000  0.379495  0.801409  1
  Fe  Fe18  1  0.250000  0.466721  0.935433  1
  Fe  Fe19  1  0.250000  0.033279  0.435433  1
  Fe  Fe20  1  0.750000  0.539363  0.065097  1
  Fe  Fe21  1  0.750000  0.960637  0.565097  1
  P  P22  1  0.250000  0.426055  0.114359  1
  P  P23  1  0.250000  0.073945  0.614359  1
  P  P24  1  0.750000  0.576619  0.888762  1
  P  P25  1  0.750000  0.923381  0.388762  1
  P  P26  1  0.250000  0.274461  0.855384  1
  P  P27  1  0.250000  0.225539  0.355384  1
  P  P28  1  0.750000  0.728714  0.141588  1
  P  P29  1  0.750000  0.771286  0.641588  1
  P  P30  1  0.250000  0.606932  0.380202  1
  P  P31  1  0.250000  0.893068  0.880202  1
  P  P32  1  0.750000  0.407014  0.621611  1
  P  P33  1  0.750000  0.092986  0.121611  1
  Ru  Ru34  1  0.250000  0.710595  0.991998  1
  Ru  Ru35  1  0.250000  0.789405  0.491998  1
