# generated using pymatgen
data_DyLuB6Rh
_symmetry_space_group_name_H-M   'P 1'
_cell_length_a   3.62375200
_cell_length_b   9.11071800
_cell_length_c   11.45678000
_cell_angle_alpha   90.00000000
_cell_angle_beta   90.00000000
_cell_angle_gamma   90.00000000
_symmetry_Int_Tables_number   1
_chemical_formula_structural   DyLuB6Rh
_chemical_formula_sum   'Dy4 Lu4 B24 Rh4'
_cell_volume   378.24539205
_cell_formula_units_Z   4
loop_
 _symmetry_equiv_pos_site_id
 _symmetry_equiv_pos_as_xyz
  1  'x, y, z'
loop_
 _atom_site_type_symbol
 _atom_site_label
 _atom_site_symmetry_multiplicity
 _atom_site_fract_x
 _atom_site_fract_y
 _atom_site_fract_z
 _atom_site_occupancy
  Dy  Dy0  1  0.500000  0.321685  0.413830  1
  Dy  Dy1  1  0.500000  0.678315  0.586170  1
  Dy  Dy2  1  0.500000  0.178315  0.913830  1
  Dy  Dy3  1  0.500000  0.821685  0.086170  1
  Lu  Lu4  1  0.500000  0.444454  0.126832  1
  Lu  Lu5  1  0.500000  0.555546  0.873168  1
  Lu  Lu6  1  0.500000  0.055546  0.626832  1
  Lu  Lu7  1  0.500000  0.944454  0.373168  1
  B  B8  1  0.000000  0.105853  0.471477  1
  B  B9  1  0.000000  0.894147  0.528523  1
  B  B10  1  0.000000  0.394147  0.971477  1
  B  B11  1  0.000000  0.605853  0.028523  1
  B  B12  1  0.000000  0.132246  0.316951  1
  B  B13  1  0.000000  0.867754  0.683049  1
  B  B14  1  0.000000  0.367754  0.816951  1
  B  B15  1  0.000000  0.632246  0.183049  1
  B  B16  1  0.000000  0.054703  0.065542  1
  B  B17  1  0.000000  0.945297  0.934458  1
  B  B18  1  0.000000  0.445297  0.565542  1
  B  B19  1  0.000000  0.554703  0.434458  1
  B  B20  1  0.000000  0.482987  0.285720  1
  B  B21  1  0.000000  0.517013  0.714280  1
  B  B22  1  0.000000  0.017013  0.785720  1
  B  B23  1  0.000000  0.982987  0.214280  1
  B  B24  1  0.000000  0.251123  0.079879  1
  B  B25  1  0.000000  0.748877  0.920121  1
  B  B26  1  0.000000  0.248877  0.579879  1
  B  B27  1  0.000000  0.751123  0.420121  1
  B  B28  1  0.000000  0.294914  0.235804  1
  B  B29  1  0.000000  0.705086  0.764196  1
  B  B30  1  0.000000  0.205086  0.735804  1
  B  B31  1  0.000000  0.794914  0.264196  1
  Rh  Rh32  1  0.500000  0.140564  0.179852  1
  Rh  Rh33  1  0.500000  0.859436  0.820148  1
  Rh  Rh34  1  0.500000  0.359436  0.679852  1
  Rh  Rh35  1  0.500000  0.640564  0.320148  1
