# generated using pymatgen
data_CaTm(CuO2)4
_symmetry_space_group_name_H-M   'P 1'
_cell_length_a   6.24989811
_cell_length_b   6.24989783
_cell_length_c   6.24989714
_cell_angle_alpha   125.73967631
_cell_angle_beta   125.73968353
_cell_angle_gamma   80.31641248
_symmetry_Int_Tables_number   1
_chemical_formula_structural   CaTm(CuO2)4
_chemical_formula_sum   'Ca1 Tm1 Cu4 O8'
_cell_volume   155.19542643
_cell_formula_units_Z   1
loop_
 _symmetry_equiv_pos_site_id
 _symmetry_equiv_pos_as_xyz
  1  'x, y, z'
loop_
 _atom_site_type_symbol
 _atom_site_label
 _atom_site_symmetry_multiplicity
 _atom_site_fract_x
 _atom_site_fract_y
 _atom_site_fract_z
 _atom_site_occupancy
  Ca  Ca0  1  0.000000  0.000000  0.000000  1
  Tm  Tm1  1  0.750000  0.250000  0.500000  1
  Cu  Cu2  1  0.872800  0.631901  0.255253  1
  Cu  Cu3  1  0.376648  0.617546  0.744747  1
  Cu  Cu4  1  0.382454  0.127200  0.759101  1
  Cu  Cu5  1  0.368099  0.623352  0.240899  1
  O  O6  1  0.016894  0.959026  0.378399  1
  O  O7  1  0.040974  0.419373  0.057867  1
  O  O8  1  0.361506  0.983106  0.942133  1
  O  O9  1  0.157583  0.582514  0.845416  1
  O  O10  1  0.417486  0.262902  0.575068  1
  O  O11  1  0.687834  0.842417  0.424932  1
  O  O12  1  0.580627  0.638494  0.621601  1
  O  O13  1  0.737098  0.312166  0.154584  1
