# generated using pymatgen
data_Sm6P12RuRh16W
_symmetry_space_group_name_H-M   'P 1'
_cell_length_a   3.96514200
_cell_length_b   11.25788100
_cell_length_c   12.81192500
_cell_angle_alpha   90.00000000
_cell_angle_beta   90.00000000
_cell_angle_gamma   90.00000000
_symmetry_Int_Tables_number   1
_chemical_formula_structural   Sm6P12RuRh16W
_chemical_formula_sum   'Sm6 P12 Ru1 Rh16 W1'
_cell_volume   571.91276007
_cell_formula_units_Z   1
loop_
 _symmetry_equiv_pos_site_id
 _symmetry_equiv_pos_as_xyz
  1  'x, y, z'
loop_
 _atom_site_type_symbol
 _atom_site_label
 _atom_site_symmetry_multiplicity
 _atom_site_fract_x
 _atom_site_fract_y
 _atom_site_fract_z
 _atom_site_occupancy
  Sm  Sm0  1  0.000000  0.500000  0.518735  1
  Sm  Sm1  1  0.500000  0.000000  0.479315  1
  Sm  Sm2  1  0.500000  0.816323  0.204983  1
  Sm  Sm3  1  0.500000  0.183677  0.204983  1
  Sm  Sm4  1  0.000000  0.681823  0.797094  1
  Sm  Sm5  1  0.000000  0.318177  0.797094  1
  P  P6  1  0.500000  0.500000  0.875992  1
  P  P7  1  0.000000  0.000000  0.116650  1
  P  P8  1  0.500000  0.500000  0.345191  1
  P  P9  1  0.000000  0.000000  0.654387  1
  P  P10  1  0.500000  0.313593  0.618239  1
  P  P11  1  0.500000  0.686407  0.618239  1
  P  P12  1  0.000000  0.188073  0.382672  1
  P  P13  1  0.000000  0.811927  0.382672  1
  P  P14  1  0.500000  0.847081  0.893292  1
  P  P15  1  0.500000  0.152919  0.893292  1
  P  P16  1  0.000000  0.652539  0.109367  1
  P  P17  1  0.000000  0.347461  0.109367  1
  Ru  Ru18  1  0.500000  0.000000  0.013230  1
  Rh  Rh19  1  0.000000  0.000000  0.837710  1
  Rh  Rh20  1  0.500000  0.500000  0.697967  1
  Rh  Rh21  1  0.000000  0.000000  0.299086  1
  Rh  Rh22  1  0.000000  0.500000  0.988835  1
  Rh  Rh23  1  0.500000  0.334383  0.989123  1
  Rh  Rh24  1  0.500000  0.665617  0.989123  1
  Rh  Rh25  1  0.000000  0.169729  0.010114  1
  Rh  Rh26  1  0.000000  0.830271  0.010114  1
  Rh  Rh27  1  0.500000  0.292261  0.431587  1
  Rh  Rh28  1  0.500000  0.707739  0.431587  1
  Rh  Rh29  1  0.000000  0.203733  0.570171  1
  Rh  Rh30  1  0.000000  0.796267  0.570171  1
  Rh  Rh31  1  0.500000  0.874453  0.711710  1
  Rh  Rh32  1  0.500000  0.125547  0.711710  1
  Rh  Rh33  1  0.000000  0.623945  0.289323  1
  Rh  Rh34  1  0.000000  0.376055  0.289323  1
  W  W35  1  0.500000  0.500000  0.157550  1
