# generated using pymatgen
data_Er8Ga3Fe
_symmetry_space_group_name_H-M   'P 1'
_cell_length_a   9.91829700
_cell_length_b   9.91831962
_cell_length_c   6.84882700
_cell_angle_alpha   90.00000000
_cell_angle_beta   90.00000000
_cell_angle_gamma   119.99992788
_symmetry_Int_Tables_number   1
_chemical_formula_structural   Er8Ga3Fe
_chemical_formula_sum   'Er16 Ga6 Fe2'
_cell_volume   583.47513348
_cell_formula_units_Z   2
loop_
 _symmetry_equiv_pos_site_id
 _symmetry_equiv_pos_as_xyz
  1  'x, y, z'
loop_
 _atom_site_type_symbol
 _atom_site_label
 _atom_site_symmetry_multiplicity
 _atom_site_fract_x
 _atom_site_fract_y
 _atom_site_fract_z
 _atom_site_occupancy
  Er  Er0  1  0.666671  0.333343  0.171503  1
  Er  Er1  1  0.000009  0.000019  0.268852  1
  Er  Er2  1  0.463732  0.927465  0.293603  1
  Er  Er3  1  0.072490  0.536260  0.293639  1
  Er  Er4  1  0.463770  0.536260  0.293639  1
  Er  Er5  1  0.346403  0.173203  0.490914  1
  Er  Er6  1  0.826801  0.173203  0.490914  1
  Er  Er7  1  0.826788  0.653575  0.490931  1
  Er  Er8  1  0.333329  0.666657  0.671502  1
  Er  Er9  1  0.999991  0.999981  0.768852  1
  Er  Er10  1  0.536268  0.072536  0.793604  1
  Er  Er11  1  0.536230  0.463739  0.793640  1
  Er  Er12  1  0.927510  0.463739  0.793640  1
  Er  Er13  1  0.173199  0.826797  0.990915  1
  Er  Er14  1  0.653597  0.826797  0.990915  1
  Er  Er15  1  0.173212  0.346425  0.990932  1
  Ga  Ga16  1  0.836253  0.672505  0.040486  1
  Ga  Ga17  1  0.327520  0.163751  0.040484  1
  Ga  Ga18  1  0.836232  0.163751  0.040484  1
  Ga  Ga19  1  0.163747  0.327494  0.540487  1
  Ga  Ga20  1  0.163769  0.836250  0.540484  1
  Ga  Ga21  1  0.672480  0.836250  0.540484  1
  Fe  Fe22  1  0.333329  0.666657  0.057551  1
  Fe  Fe23  1  0.666671  0.333342  0.557551  1
