# generated using pymatgen
data_TbHf11(TaSi2)8
_symmetry_space_group_name_H-M   'P 1'
_cell_length_a   6.92568574
_cell_length_b   6.92669926
_cell_length_c   12.73899800
_cell_angle_alpha   90.32285557
_cell_angle_beta   89.94049274
_cell_angle_gamma   89.98361816
_symmetry_Int_Tables_number   1
_chemical_formula_structural   TbHf11(TaSi2)8
_chemical_formula_sum   'Tb1 Hf11 Ta8 Si16'
_cell_volume   611.10696685
_cell_formula_units_Z   1
loop_
 _symmetry_equiv_pos_site_id
 _symmetry_equiv_pos_as_xyz
  1  'x, y, z'
loop_
 _atom_site_type_symbol
 _atom_site_label
 _atom_site_symmetry_multiplicity
 _atom_site_fract_x
 _atom_site_fract_y
 _atom_site_fract_z
 _atom_site_occupancy
  Tb  Tb0  1  0.338967  0.005411  0.468316  1
  Hf  Hf1  1  0.650177  0.495800  0.876907  1
  Hf  Hf2  1  0.503851  0.351560  0.624887  1
  Hf  Hf3  1  0.500264  0.647438  0.123732  1
  Hf  Hf4  1  0.147572  0.999275  0.874523  1
  Hf  Hf5  1  0.000448  0.656395  0.033442  1
  Hf  Hf6  1  0.998366  0.346196  0.529313  1
  Hf  Hf7  1  0.658286  0.998112  0.969647  1
  Hf  Hf8  1  0.154338  0.499604  0.780354  1
  Hf  Hf9  1  0.842976  0.501312  0.279529  1
  Hf  Hf10  1  0.500959  0.157633  0.220293  1
  Hf  Hf11  1  0.500600  0.841280  0.717613  1
  Ta  Ta12  1  0.350423  0.506990  0.374461  1
  Ta  Ta13  1  0.851880  0.997602  0.372961  1
  Ta  Ta14  1  0.006129  0.148520  0.125324  1
  Ta  Ta15  1  0.995177  0.848038  0.627152  1
  Ta  Ta16  1  0.674842  0.672161  0.499059  1
  Ta  Ta17  1  0.829261  0.170945  0.750430  1
  Ta  Ta18  1  0.170390  0.830433  0.249941  1
  Ta  Ta19  1  0.328199  0.324478  0.001588  1
  Si  Si20  1  0.043675  0.699648  0.435323  1
  Si  Si21  1  0.957125  0.301686  0.936778  1
  Si  Si22  1  0.706088  0.044947  0.564257  1
  Si  Si23  1  0.198103  0.454736  0.185613  1
  Si  Si24  1  0.802759  0.546886  0.684940  1
  Si  Si25  1  0.454275  0.194823  0.815283  1
  Si  Si26  1  0.550205  0.799524  0.313984  1
  Si  Si27  1  0.302159  0.955133  0.065792  1
  Si  Si28  1  0.855297  0.795119  0.820393  1
  Si  Si29  1  0.134622  0.212743  0.320257  1
  Si  Si30  1  0.796929  0.863160  0.178045  1
  Si  Si31  1  0.289124  0.637854  0.573207  1
  Si  Si32  1  0.709312  0.353920  0.074555  1
  Si  Si33  1  0.641686  0.297423  0.425550  1
  Si  Si34  1  0.355692  0.701651  0.928017  1
  Si  Si35  1  0.199846  0.141565  0.678535  1
