# generated using pymatgen
data_TbHo2Bi3(SbO7)2
_symmetry_space_group_name_H-M   'P 1'
_cell_length_a   6.48416930
_cell_length_b   6.68702314
_cell_length_c   7.63077136
_cell_angle_alpha   106.63838178
_cell_angle_beta   89.63754159
_cell_angle_gamma   98.36053047
_symmetry_Int_Tables_number   1
_chemical_formula_structural   TbHo2Bi3(SbO7)2
_chemical_formula_sum   'Tb1 Ho2 Bi3 Sb2 O14'
_cell_volume   313.42886494
_cell_formula_units_Z   1
loop_
 _symmetry_equiv_pos_site_id
 _symmetry_equiv_pos_as_xyz
  1  'x, y, z'
loop_
 _atom_site_type_symbol
 _atom_site_label
 _atom_site_symmetry_multiplicity
 _atom_site_fract_x
 _atom_site_fract_y
 _atom_site_fract_z
 _atom_site_occupancy
  Tb  Tb0  1  0.544029  0.995041  0.752741  1
  Ho  Ho1  1  0.458620  0.002708  0.251057  1
  Ho  Ho2  1  0.255951  0.530951  0.882777  1
  Bi  Bi3  1  0.742585  0.483156  0.116913  1
  Bi  Bi4  1  0.727287  0.462244  0.613611  1
  Bi  Bi5  1  0.260760  0.530355  0.387746  1
  Sb  Sb6  1  0.002821  0.007131  0.501761  1
  Sb  Sb7  1  0.004734  0.001187  0.000042  1
  O  O8  1  0.443181  0.651814  0.164525  1
  O  O9  1  0.542136  0.346777  0.826310  1
  O  O10  1  0.294448  0.931548  0.954601  1
  O  O11  1  0.709568  0.041452  0.047957  1
  O  O12  1  0.290370  0.931063  0.514101  1
  O  O13  1  0.711577  0.075367  0.486959  1
  O  O14  1  0.530854  0.352771  0.346026  1
  O  O15  1  0.452055  0.642480  0.660373  1
  O  O16  1  0.938926  0.681205  0.954207  1
  O  O17  1  0.085812  0.311043  0.034148  1
  O  O18  1  0.092413  0.316115  0.621277  1
  O  O19  1  0.905991  0.698711  0.381699  1
  O  O20  1  0.901947  0.945771  0.736182  1
  O  O21  1  0.103935  0.061110  0.264988  1
