# generated using pymatgen
data_CaNiB2Ru
_symmetry_space_group_name_H-M   'P 1'
_cell_length_a   6.85275538
_cell_length_b   5.94702477
_cell_length_c   5.37126796
_cell_angle_alpha   74.32817981
_cell_angle_beta   56.67503289
_cell_angle_gamma   48.99680619
_symmetry_Int_Tables_number   1
_chemical_formula_structural   CaNiB2Ru
_chemical_formula_sum   'Ca2 Ni2 B4 Ru2'
_cell_volume   136.60937953
_cell_formula_units_Z   2
loop_
 _symmetry_equiv_pos_site_id
 _symmetry_equiv_pos_as_xyz
  1  'x, y, z'
loop_
 _atom_site_type_symbol
 _atom_site_label
 _atom_site_symmetry_multiplicity
 _atom_site_fract_x
 _atom_site_fract_y
 _atom_site_fract_z
 _atom_site_occupancy
  Ca  Ca0  1  0.500295  0.500295  0.499705  1
  Ca  Ca1  1  0.750295  0.750295  0.749705  1
  Ni  Ni2  1  0.120896  0.120896  0.379104  1
  Ni  Ni3  1  0.870896  0.870896  0.129104  1
  B  B4  1  0.824989  0.176764  0.818728  1
  B  B5  1  0.070480  0.431272  0.073236  1
  B  B6  1  0.176764  0.824989  0.179520  1
  B  B7  1  0.431272  0.070480  0.425011  1
  Ru  Ru8  1  0.127057  0.127057  0.872943  1
  Ru  Ru9  1  0.377057  0.377057  0.122943  1
