# generated using pymatgen
data_Yb9PrSi5Pb
_symmetry_space_group_name_H-M   'P 1'
_cell_length_a   7.69289099
_cell_length_b   7.68976521
_cell_length_c   9.20846391
_cell_angle_alpha   114.57418932
_cell_angle_beta   114.50989367
_cell_angle_gamma   90.10701958
_symmetry_Int_Tables_number   1
_chemical_formula_structural   Yb9PrSi5Pb
_chemical_formula_sum   'Yb9 Pr1 Si5 Pb1'
_cell_volume   440.63510634
_cell_formula_units_Z   1
loop_
 _symmetry_equiv_pos_site_id
 _symmetry_equiv_pos_as_xyz
  1  'x, y, z'
loop_
 _atom_site_type_symbol
 _atom_site_label
 _atom_site_symmetry_multiplicity
 _atom_site_fract_x
 _atom_site_fract_y
 _atom_site_fract_z
 _atom_site_occupancy
  Yb  Yb0  1  0.508122  0.514610  0.022546  1
  Yb  Yb1  1  0.996723  0.991280  0.987904  1
  Yb  Yb2  1  0.973470  0.824459  0.280455  1
  Yb  Yb3  1  0.306257  0.455800  0.281075  1
  Yb  Yb4  1  0.825529  0.307159  0.280000  1
  Yb  Yb5  1  0.452796  0.970591  0.277541  1
  Yb  Yb6  1  0.045214  0.191570  0.719155  1
  Yb  Yb7  1  0.673930  0.531986  0.720096  1
  Yb  Yb8  1  0.191506  0.672428  0.718969  1
  Pr  Pr9  1  0.531301  0.051304  0.723604  1
  Si  Si10  1  0.250539  0.244977  0.499160  1
  Si  Si11  1  0.612690  0.887581  0.998562  1
  Si  Si12  1  0.388198  0.114653  0.999998  1
  Si  Si13  1  0.883205  0.383585  0.994586  1
  Si  Si14  1  0.110386  0.610670  0.998199  1
  Pb  Pb15  1  0.750134  0.747346  0.498152  1
