# generated using pymatgen
data_CeY4Tm3(Si3Rh)4
_symmetry_space_group_name_H-M   'P 1'
_cell_length_a   8.16379200
_cell_length_b   8.16372207
_cell_length_c   7.91245000
_cell_angle_alpha   90.00166205
_cell_angle_beta   89.99832484
_cell_angle_gamma   120.00087313
_symmetry_Int_Tables_number   1
_chemical_formula_structural   CeY4Tm3(Si3Rh)4
_chemical_formula_sum   'Ce1 Y4 Tm3 Si12 Rh4'
_cell_volume   456.68624507
_cell_formula_units_Z   1
loop_
 _symmetry_equiv_pos_site_id
 _symmetry_equiv_pos_as_xyz
  1  'x, y, z'
loop_
 _atom_site_type_symbol
 _atom_site_label
 _atom_site_symmetry_multiplicity
 _atom_site_fract_x
 _atom_site_fract_y
 _atom_site_fract_z
 _atom_site_occupancy
  Ce  Ce0  1  0.999999  0.000000  0.250000  1
  Y  Y1  1  0.000000  0.999999  0.750001  1
  Y  Y2  1  0.491402  0.508596  0.750003  1
  Y  Y3  1  0.491399  0.982810  0.750002  1
  Y  Y4  1  0.017190  0.508600  0.750002  1
  Tm  Tm5  1  0.508502  0.491497  0.249997  1
  Tm  Tm6  1  0.508505  0.017004  0.249998  1
  Tm  Tm7  1  0.982998  0.491496  0.249998  1
  Si  Si8  1  0.167122  0.832879  0.498348  1
  Si  Si9  1  0.167126  0.334249  0.498353  1
  Si  Si10  1  0.665750  0.832873  0.498355  1
  Si  Si11  1  0.832806  0.167193  0.497366  1
  Si  Si12  1  0.832802  0.665609  0.497382  1
  Si  Si13  1  0.334392  0.167198  0.497385  1
  Si  Si14  1  0.832807  0.167192  0.002643  1
  Si  Si15  1  0.832802  0.665607  0.002626  1
  Si  Si16  1  0.334394  0.167199  0.002623  1
  Si  Si17  1  0.167122  0.832878  0.001642  1
  Si  Si18  1  0.167128  0.334249  0.001642  1
  Si  Si19  1  0.665750  0.832872  0.001642  1
  Rh  Rh20  1  0.333333  0.666666  0.463024  1
  Rh  Rh21  1  0.666670  0.333334  0.528329  1
  Rh  Rh22  1  0.666671  0.333332  0.971663  1
  Rh  Rh23  1  0.333331  0.666666  0.036976  1
