# generated using pymatgen
data_Gd4TcCBr2
_symmetry_space_group_name_H-M   'P 1'
_cell_length_a   3.68808615
_cell_length_b   3.68694017
_cell_length_c   16.60142194
_cell_angle_alpha   90.11976648
_cell_angle_beta   90.01468878
_cell_angle_gamma   119.98284368
_symmetry_Int_Tables_number   1
_chemical_formula_structural   Gd4TcCBr2
_chemical_formula_sum   'Gd4 Tc1 C1 Br2'
_cell_volume   195.53147775
_cell_formula_units_Z   1
loop_
 _symmetry_equiv_pos_site_id
 _symmetry_equiv_pos_as_xyz
  1  'x, y, z'
loop_
 _atom_site_type_symbol
 _atom_site_label
 _atom_site_symmetry_multiplicity
 _atom_site_fract_x
 _atom_site_fract_y
 _atom_site_fract_z
 _atom_site_occupancy
  Gd  Gd0  1  0.331424  0.665452  0.155724  1
  Gd  Gd1  1  0.667470  0.334620  0.583356  1
  Gd  Gd2  1  0.666038  0.333428  0.797085  1
  Gd  Gd3  1  0.333831  0.666199  0.483782  1
  Tc  Tc4  1  0.999921  0.999602  0.905404  1
  C  C5  1  0.000612  0.000442  0.508113  1
  Br  Br6  1  0.333870  0.666767  0.722868  1
  Br  Br7  1  0.666834  0.333490  0.343668  1
