# generated using pymatgen
data_Li2Mn2Ni9MoP7
_symmetry_space_group_name_H-M   'P 1'
_cell_length_a   9.03666336
_cell_length_b   9.06837590
_cell_length_c   3.56079400
_cell_angle_alpha   90.00000000
_cell_angle_beta   90.00000000
_cell_angle_gamma   119.75937288
_symmetry_Int_Tables_number   1
_chemical_formula_structural   Li2Mn2Ni9MoP7
_chemical_formula_sum   'Li2 Mn2 Ni9 Mo1 P7'
_cell_volume   253.31624543
_cell_formula_units_Z   1
loop_
 _symmetry_equiv_pos_site_id
 _symmetry_equiv_pos_as_xyz
  1  'x, y, z'
loop_
 _atom_site_type_symbol
 _atom_site_label
 _atom_site_symmetry_multiplicity
 _atom_site_fract_x
 _atom_site_fract_y
 _atom_site_fract_z
 _atom_site_occupancy
  Li  Li0  1  0.333341  0.665380  0.000000  1
  Li  Li1  1  0.667531  0.332961  0.500000  1
  Mn  Mn2  1  0.873277  0.775709  0.500000  1
  Mn  Mn3  1  0.903860  0.127683  0.500000  1
  Ni  Ni4  1  0.717820  0.879255  0.000000  1
  Ni  Ni5  1  0.160453  0.285846  0.000000  1
  Ni  Ni6  1  0.121354  0.834672  0.000000  1
  Ni  Ni7  1  0.627300  0.566175  0.000000  1
  Ni  Ni8  1  0.937289  0.375494  0.000000  1
  Ni  Ni9  1  0.438062  0.061798  0.000000  1
  Ni  Ni10  1  0.561411  0.946593  0.500000  1
  Ni  Ni11  1  0.387158  0.442998  0.500000  1
  Ni  Ni12  1  0.051464  0.612446  0.500000  1
  Mo  Mo13  1  0.217911  0.094344  0.500000  1
  P  P14  1  0.588825  0.710358  0.500000  1
  P  P15  1  0.120500  0.412219  0.500000  1
  P  P16  1  0.291606  0.872681  0.500000  1
  P  P17  1  0.995190  0.997795  0.000000  1
  P  P18  1  0.877609  0.585109  0.000000  1
  P  P19  1  0.708862  0.122705  0.000000  1
  P  P20  1  0.419176  0.297779  0.000000  1
