# generated using pymatgen
data_Dy5TlSe4
_symmetry_space_group_name_H-M   'P 1'
_cell_length_a   7.18998145
_cell_length_b   7.18998092
_cell_length_c   7.18998200
_cell_angle_alpha   99.60770138
_cell_angle_beta   99.60770066
_cell_angle_gamma   131.77425656
_symmetry_Int_Tables_number   1
_chemical_formula_structural   Dy5TlSe4
_chemical_formula_sum   'Dy5 Tl1 Se4'
_cell_volume   253.01111641
_cell_formula_units_Z   1
loop_
 _symmetry_equiv_pos_site_id
 _symmetry_equiv_pos_as_xyz
  1  'x, y, z'
loop_
 _atom_site_type_symbol
 _atom_site_label
 _atom_site_symmetry_multiplicity
 _atom_site_fract_x
 _atom_site_fract_y
 _atom_site_fract_z
 _atom_site_occupancy
  Dy  Dy0  1  0.398295  0.804369  0.202664  1
  Dy  Dy1  1  0.000000  0.000000  0.000000  1
  Dy  Dy2  1  0.601705  0.195631  0.797336  1
  Dy  Dy3  1  0.195631  0.398295  0.593926  1
  Dy  Dy4  1  0.804369  0.601705  0.406074  1
  Tl  Tl5  1  0.500000  0.500000  0.000000  1
  Se  Se6  1  0.101707  0.699177  0.800882  1
  Se  Se7  1  0.699177  0.898293  0.597471  1
  Se  Se8  1  0.300823  0.101707  0.402529  1
  Se  Se9  1  0.898293  0.300823  0.199118  1
