# generated using pymatgen
data_Ti6Zn16Cu7Si
_symmetry_space_group_name_H-M   'P 1'
_cell_length_a   8.45170145
_cell_length_b   8.45170130
_cell_length_c   8.45170100
_cell_angle_alpha   59.99999725
_cell_angle_beta   59.99999784
_cell_angle_gamma   59.99999797
_symmetry_Int_Tables_number   1
_chemical_formula_structural   Ti6Zn16Cu7Si
_chemical_formula_sum   'Ti6 Zn16 Cu7 Si1'
_cell_volume   426.89138537
_cell_formula_units_Z   1
loop_
 _symmetry_equiv_pos_site_id
 _symmetry_equiv_pos_as_xyz
  1  'x, y, z'
loop_
 _atom_site_type_symbol
 _atom_site_label
 _atom_site_symmetry_multiplicity
 _atom_site_fract_x
 _atom_site_fract_y
 _atom_site_fract_z
 _atom_site_occupancy
  Ti  Ti0  1  0.708239  0.291761  0.291761  1
  Ti  Ti1  1  0.291761  0.708239  0.708239  1
  Ti  Ti2  1  0.291761  0.708239  0.291761  1
  Ti  Ti3  1  0.708239  0.291761  0.708239  1
  Ti  Ti4  1  0.291761  0.291761  0.708239  1
  Ti  Ti5  1  0.708239  0.708239  0.291761  1
  Zn  Zn6  1  0.120720  0.120720  0.120720  1
  Zn  Zn7  1  0.879280  0.879280  0.879280  1
  Zn  Zn8  1  0.120720  0.120720  0.637841  1
  Zn  Zn9  1  0.120720  0.637841  0.120720  1
  Zn  Zn10  1  0.879280  0.879280  0.362159  1
  Zn  Zn11  1  0.879280  0.362159  0.879280  1
  Zn  Zn12  1  0.637841  0.120720  0.120720  1
  Zn  Zn13  1  0.362159  0.879280  0.879280  1
  Zn  Zn14  1  0.340177  0.340177  0.340177  1
  Zn  Zn15  1  0.659823  0.659823  0.659823  1
  Zn  Zn16  1  0.340177  0.340177  0.979470  1
  Zn  Zn17  1  0.340177  0.979470  0.340177  1
  Zn  Zn18  1  0.659823  0.659823  0.020530  1
  Zn  Zn19  1  0.659823  0.020530  0.659823  1
  Zn  Zn20  1  0.979470  0.340177  0.340177  1
  Zn  Zn21  1  0.020530  0.659823  0.659823  1
  Cu  Cu22  1  0.500000  0.000000  0.000000  1
  Cu  Cu23  1  0.000000  0.500000  0.500000  1
  Cu  Cu24  1  0.000000  0.500000  0.000000  1
  Cu  Cu25  1  0.500000  0.000000  0.500000  1
  Cu  Cu26  1  0.000000  0.000000  0.500000  1
  Cu  Cu27  1  0.500000  0.500000  0.000000  1
  Cu  Cu28  1  0.000000  0.000000  0.000000  1
  Si  Si29  1  0.500000  0.500000  0.500000  1
