# generated using pymatgen
data_HoP2Rh3
_symmetry_space_group_name_H-M   'P 1'
_cell_length_a   3.92143500
_cell_length_b   11.20078800
_cell_length_c   12.74373200
_cell_angle_alpha   90.00000000
_cell_angle_beta   90.00000000
_cell_angle_gamma   90.00000000
_symmetry_Int_Tables_number   1
_chemical_formula_structural   HoP2Rh3
_chemical_formula_sum   'Ho6 P12 Rh18'
_cell_volume   559.74500628
_cell_formula_units_Z   6
loop_
 _symmetry_equiv_pos_site_id
 _symmetry_equiv_pos_as_xyz
  1  'x, y, z'
loop_
 _atom_site_type_symbol
 _atom_site_label
 _atom_site_symmetry_multiplicity
 _atom_site_fract_x
 _atom_site_fract_y
 _atom_site_fract_z
 _atom_site_occupancy
  Ho  Ho0  1  0.000000  0.500000  0.521476  1
  Ho  Ho1  1  0.500000  0.000000  0.478524  1
  Ho  Ho2  1  0.500000  0.814182  0.205213  1
  Ho  Ho3  1  0.500000  0.185818  0.205213  1
  Ho  Ho4  1  0.000000  0.685818  0.794787  1
  Ho  Ho5  1  0.000000  0.314182  0.794787  1
  P  P6  1  0.500000  0.315491  0.618922  1
  P  P7  1  0.500000  0.684509  0.618922  1
  P  P8  1  0.000000  0.184509  0.381078  1
  P  P9  1  0.000000  0.815491  0.381078  1
  P  P10  1  0.500000  0.500000  0.877117  1
  P  P11  1  0.000000  0.000000  0.122883  1
  P  P12  1  0.500000  0.846764  0.892618  1
  P  P13  1  0.500000  0.153236  0.892618  1
  P  P14  1  0.000000  0.653236  0.107382  1
  P  P15  1  0.000000  0.346764  0.107382  1
  P  P16  1  0.500000  0.500000  0.352501  1
  P  P17  1  0.000000  0.000000  0.647499  1
  Rh  Rh18  1  0.000000  0.500000  0.977882  1
  Rh  Rh19  1  0.500000  0.000000  0.022118  1
  Rh  Rh20  1  0.500000  0.295482  0.431573  1
  Rh  Rh21  1  0.500000  0.704518  0.431573  1
  Rh  Rh22  1  0.000000  0.204518  0.568427  1
  Rh  Rh23  1  0.000000  0.795482  0.568427  1
  Rh  Rh24  1  0.500000  0.872793  0.710766  1
  Rh  Rh25  1  0.500000  0.127207  0.710766  1
  Rh  Rh26  1  0.000000  0.627207  0.289234  1
  Rh  Rh27  1  0.000000  0.372793  0.289234  1
  Rh  Rh28  1  0.500000  0.334115  0.993224  1
  Rh  Rh29  1  0.500000  0.665885  0.993224  1
  Rh  Rh30  1  0.000000  0.165885  0.006776  1
  Rh  Rh31  1  0.000000  0.834115  0.006776  1
  Rh  Rh32  1  0.500000  0.500000  0.169736  1
  Rh  Rh33  1  0.000000  0.000000  0.830264  1
  Rh  Rh34  1  0.500000  0.500000  0.700079  1
  Rh  Rh35  1  0.000000  0.000000  0.299921  1
