# generated using pymatgen
data_SmY3HgPt
_symmetry_space_group_name_H-M   'P 1'
_cell_length_a   9.69648223
_cell_length_b   9.69648242
_cell_length_c   9.69648200
_cell_angle_alpha   60.00000143
_cell_angle_beta   60.00000077
_cell_angle_gamma   60.00000314
_symmetry_Int_Tables_number   1
_chemical_formula_structural   SmY3HgPt
_chemical_formula_sum   'Sm4 Y12 Hg4 Pt4'
_cell_volume   644.65541548
_cell_formula_units_Z   4
loop_
 _symmetry_equiv_pos_site_id
 _symmetry_equiv_pos_as_xyz
  1  'x, y, z'
loop_
 _atom_site_type_symbol
 _atom_site_label
 _atom_site_symmetry_multiplicity
 _atom_site_fract_x
 _atom_site_fract_y
 _atom_site_fract_z
 _atom_site_occupancy
  Sm  Sm0  1  0.355499  0.355499  0.355499  1
  Sm  Sm1  1  0.355499  0.355499  0.933501  1
  Sm  Sm2  1  0.355499  0.933501  0.355499  1
  Sm  Sm3  1  0.933501  0.355499  0.355499  1
  Y  Y4  1  0.810984  0.189016  0.189016  1
  Y  Y5  1  0.189016  0.810984  0.810984  1
  Y  Y6  1  0.189016  0.810984  0.189016  1
  Y  Y7  1  0.810984  0.189016  0.810984  1
  Y  Y8  1  0.189016  0.189016  0.810984  1
  Y  Y9  1  0.810984  0.810984  0.189016  1
  Y  Y10  1  0.935637  0.564363  0.564363  1
  Y  Y11  1  0.564363  0.935637  0.935637  1
  Y  Y12  1  0.564363  0.935637  0.564363  1
  Y  Y13  1  0.935637  0.564363  0.935637  1
  Y  Y14  1  0.564363  0.564363  0.935637  1
  Y  Y15  1  0.935637  0.935637  0.564363  1
  Hg  Hg16  1  0.587066  0.587066  0.587066  1
  Hg  Hg17  1  0.587066  0.587066  0.238801  1
  Hg  Hg18  1  0.587066  0.238801  0.587066  1
  Hg  Hg19  1  0.238801  0.587066  0.587066  1
  Pt  Pt20  1  0.143207  0.143207  0.143207  1
  Pt  Pt21  1  0.143207  0.143207  0.570378  1
  Pt  Pt22  1  0.143207  0.570378  0.143207  1
  Pt  Pt23  1  0.570378  0.143207  0.143207  1
