# generated using pymatgen
data_Gd12CdCo5
_symmetry_space_group_name_H-M   'P 1'
_cell_length_a   8.39804135
_cell_length_b   8.39804102
_cell_length_c   8.39804100
_cell_angle_alpha   110.78921489
_cell_angle_beta   110.56881028
_cell_angle_gamma   107.08180728
_symmetry_Int_Tables_number   1
_chemical_formula_structural   Gd12CdCo5
_chemical_formula_sum   'Gd12 Cd1 Co5'
_cell_volume   455.35130278
_cell_formula_units_Z   1
loop_
 _symmetry_equiv_pos_site_id
 _symmetry_equiv_pos_as_xyz
  1  'x, y, z'
loop_
 _atom_site_type_symbol
 _atom_site_label
 _atom_site_symmetry_multiplicity
 _atom_site_fract_x
 _atom_site_fract_y
 _atom_site_fract_z
 _atom_site_occupancy
  Gd  Gd0  1  0.294483  0.182881  0.477364  1
  Gd  Gd1  1  0.705517  0.817119  0.522636  1
  Gd  Gd2  1  0.294483  0.817119  0.111602  1
  Gd  Gd3  1  0.705517  0.182881  0.888398  1
  Gd  Gd4  1  0.627582  0.317945  0.309638  1
  Gd  Gd5  1  0.372418  0.682055  0.690362  1
  Gd  Gd6  1  0.008309  0.317945  0.690362  1
  Gd  Gd7  1  0.991691  0.682055  0.309638  1
  Gd  Gd8  1  0.204867  0.394448  0.189581  1
  Gd  Gd9  1  0.795133  0.605552  0.810419  1
  Gd  Gd10  1  0.204867  0.015286  0.810419  1
  Gd  Gd11  1  0.795133  0.984714  0.189581  1
  Cd  Cd12  1  0.500000  0.500000  0.000000  1
  Co  Co13  1  0.000000  0.371750  0.371750  1
  Co  Co14  1  0.000000  0.628250  0.628250  1
  Co  Co15  1  0.385665  0.885665  0.500000  1
  Co  Co16  1  0.614335  0.114335  0.500000  1
  Co  Co17  1  0.000000  0.000000  0.000000  1
