# generated using pymatgen
data_Hf3Ta7Si5Ge
_symmetry_space_group_name_H-M   'P 1'
_cell_length_a   7.72063138
_cell_length_b   7.71753010
_cell_length_c   7.74081226
_cell_angle_alpha   129.19853903
_cell_angle_beta   129.18168071
_cell_angle_gamma   74.84663206
_symmetry_Int_Tables_number   1
_chemical_formula_structural   Hf3Ta7Si5Ge
_chemical_formula_sum   'Hf3 Ta7 Si5 Ge1'
_cell_volume   269.66662056
_cell_formula_units_Z   1
loop_
 _symmetry_equiv_pos_site_id
 _symmetry_equiv_pos_as_xyz
  1  'x, y, z'
loop_
 _atom_site_type_symbol
 _atom_site_label
 _atom_site_symmetry_multiplicity
 _atom_site_fract_x
 _atom_site_fract_y
 _atom_site_fract_z
 _atom_site_occupancy
  Hf  Hf0  1  0.017684  0.187083  0.505098  1
  Hf  Hf1  1  0.682809  0.513546  0.496527  1
  Hf  Hf2  1  0.508393  0.012754  0.823245  1
  Ta  Ta3  1  0.189190  0.683292  0.165999  1
  Ta  Ta4  1  0.986250  0.811585  0.504277  1
  Ta  Ta5  1  0.306400  0.481411  0.494112  1
  Ta  Ta6  1  0.483521  0.988754  0.177283  1
  Ta  Ta7  1  0.817391  0.312409  0.831845  1
  Ta  Ta8  1  0.006980  0.005932  0.000394  1
  Ta  Ta9  1  0.504266  0.505422  0.000112  1
  Si  Si10  1  0.244413  0.248132  0.001275  1
  Si  Si11  1  0.371166  0.131438  0.499808  1
  Si  Si12  1  0.631388  0.870926  0.499531  1
  Si  Si13  1  0.869167  0.369443  0.237483  1
  Si  Si14  1  0.132506  0.632426  0.761980  1
  Ge  Ge15  1  0.748477  0.745450  0.001028  1
