# generated using pymatgen
data_SmMoBrO4
_symmetry_space_group_name_H-M   'P 1'
_cell_length_a   6.51041787
_cell_length_b   6.51041852
_cell_length_c   7.06542649
_cell_angle_alpha   76.35210430
_cell_angle_beta   76.35210633
_cell_angle_gamma   69.70173736
_symmetry_Int_Tables_number   1
_chemical_formula_structural   SmMoBrO4
_chemical_formula_sum   'Sm2 Mo2 Br2 O8'
_cell_volume   269.01419230
_cell_formula_units_Z   2
loop_
 _symmetry_equiv_pos_site_id
 _symmetry_equiv_pos_as_xyz
  1  'x, y, z'
loop_
 _atom_site_type_symbol
 _atom_site_label
 _atom_site_symmetry_multiplicity
 _atom_site_fract_x
 _atom_site_fract_y
 _atom_site_fract_z
 _atom_site_occupancy
  Sm  Sm0  1  0.230207  0.230207  0.881541  1
  Sm  Sm1  1  0.769793  0.769793  0.118459  1
  Mo  Mo2  1  0.637334  0.637334  0.732762  1
  Mo  Mo3  1  0.362666  0.362666  0.267238  1
  Br  Br4  1  0.011307  0.011307  0.244592  1
  Br  Br5  1  0.988693  0.988693  0.755408  1
  O  O6  1  0.116085  0.490337  0.150923  1
  O  O7  1  0.883915  0.509663  0.849077  1
  O  O8  1  0.536470  0.536470  0.204230  1
  O  O9  1  0.702844  0.702844  0.471632  1
  O  O10  1  0.463530  0.463530  0.795770  1
  O  O11  1  0.297156  0.297156  0.528368  1
  O  O12  1  0.509663  0.883915  0.849077  1
  O  O13  1  0.490337  0.116085  0.150923  1
