# generated using pymatgen
data_Sr4Mg3Al10Au9
_symmetry_space_group_name_H-M   'P 1'
_cell_length_a   11.93089952
_cell_length_b   11.91695444
_cell_length_c   4.38783100
_cell_angle_alpha   90.00000000
_cell_angle_beta   90.00000000
_cell_angle_gamma   119.10214959
_symmetry_Int_Tables_number   1
_chemical_formula_structural   Sr4Mg3Al10Au9
_chemical_formula_sum   'Sr4 Mg3 Al10 Au9'
_cell_volume   545.10168491
_cell_formula_units_Z   1
loop_
 _symmetry_equiv_pos_site_id
 _symmetry_equiv_pos_as_xyz
  1  'x, y, z'
loop_
 _atom_site_type_symbol
 _atom_site_label
 _atom_site_symmetry_multiplicity
 _atom_site_fract_x
 _atom_site_fract_y
 _atom_site_fract_z
 _atom_site_occupancy
  Sr  Sr0  1  0.208561  0.793422  0.500000  1
  Sr  Sr1  1  0.588288  0.794192  0.500000  1
  Sr  Sr2  1  0.210213  0.414119  0.500000  1
  Sr  Sr3  1  0.665780  0.333131  0.000000  1
  Mg  Mg4  1  0.944549  0.291126  0.000000  1
  Mg  Mg5  1  0.168247  0.084193  0.500000  1
  Mg  Mg6  1  0.914182  0.833003  0.500000  1
  Al  Al7  1  0.710701  0.656023  0.000000  1
  Al  Al8  1  0.939677  0.652772  0.000000  1
  Al  Al9  1  0.346305  0.058324  0.000000  1
  Al  Al10  1  0.705031  0.054660  0.000000  1
  Al  Al11  1  0.528919  0.060396  0.500000  1
  Al  Al12  1  0.916279  0.083168  0.500000  1
  Al  Al13  1  0.346683  0.290743  0.000000  1
  Al  Al14  1  0.531204  0.469225  0.500000  1
  Al  Al15  1  0.935905  0.467594  0.500000  1
  Al  Al16  1  0.335515  0.667013  0.000000  1
  Au  Au17  1  0.460280  0.541281  0.000000  1
  Au  Au18  1  0.827179  0.918896  0.000000  1
  Au  Au19  1  0.456921  0.915229  0.000000  1
  Au  Au20  1  0.088406  0.170138  0.000000  1
  Au  Au21  1  0.089858  0.908362  0.000000  1
  Au  Au22  1  0.785477  0.575218  0.500000  1
  Au  Au23  1  0.087894  0.549520  0.000000  1
  Au  Au24  1  0.782686  0.204358  0.500000  1
  Au  Au25  1  0.425263  0.213892  0.500000  1
