# generated using pymatgen
data_YbDy3Ir3Ru5
_symmetry_space_group_name_H-M   'P 1'
_cell_length_a   5.20391065
_cell_length_b   5.33062243
_cell_length_c   8.90728481
_cell_angle_alpha   90.03247309
_cell_angle_beta   90.01509978
_cell_angle_gamma   119.50692677
_symmetry_Int_Tables_number   1
_chemical_formula_structural   YbDy3Ir3Ru5
_chemical_formula_sum   'Yb1 Dy3 Ir3 Ru5'
_cell_volume   215.04037326
_cell_formula_units_Z   1
loop_
 _symmetry_equiv_pos_site_id
 _symmetry_equiv_pos_as_xyz
  1  'x, y, z'
loop_
 _atom_site_type_symbol
 _atom_site_label
 _atom_site_symmetry_multiplicity
 _atom_site_fract_x
 _atom_site_fract_y
 _atom_site_fract_z
 _atom_site_occupancy
  Yb  Yb0  1  0.666004  0.332559  0.933978  1
  Dy  Dy1  1  0.665894  0.332719  0.575319  1
  Dy  Dy2  1  0.333833  0.667700  0.431777  1
  Dy  Dy3  1  0.333659  0.666984  0.062276  1
  Ir  Ir4  1  0.998577  0.997908  0.499452  1
  Ir  Ir5  1  0.999133  0.998824  0.998589  1
  Ir  Ir6  1  0.169309  0.339141  0.749129  1
  Ru  Ru7  1  0.172202  0.830705  0.749457  1
  Ru  Ru8  1  0.659186  0.830694  0.749458  1
  Ru  Ru9  1  0.829798  0.659226  0.249980  1
  Ru  Ru10  1  0.829731  0.171523  0.250241  1
  Ru  Ru11  1  0.342674  0.172014  0.250347  1
