# generated using pymatgen
data_CeErNbB2Ru5
_symmetry_space_group_name_H-M   'P 1'
_cell_length_a   9.69332171
_cell_length_b   9.69332171
_cell_length_c   3.14940800
_cell_angle_alpha   90.00000000
_cell_angle_beta   90.00000000
_cell_angle_gamma   89.83784166
_symmetry_Int_Tables_number   1
_chemical_formula_structural   CeErNbB2Ru5
_chemical_formula_sum   'Ce2 Er2 Nb2 B4 Ru10'
_cell_volume   295.91872014
_cell_formula_units_Z   2
loop_
 _symmetry_equiv_pos_site_id
 _symmetry_equiv_pos_as_xyz
  1  'x, y, z'
loop_
 _atom_site_type_symbol
 _atom_site_label
 _atom_site_symmetry_multiplicity
 _atom_site_fract_x
 _atom_site_fract_y
 _atom_site_fract_z
 _atom_site_occupancy
  Ce  Ce0  1  0.324338  0.824338  0.000000  1
  Ce  Ce1  1  0.675662  0.175662  0.000000  1
  Er  Er2  1  0.825591  0.674409  0.000000  1
  Er  Er3  1  0.174409  0.325591  0.000000  1
  Nb  Nb4  1  0.500000  0.500000  0.000000  1
  Nb  Nb5  1  0.000000  0.000000  0.000000  1
  B  B6  1  0.624014  0.875986  0.000000  1
  B  B7  1  0.375986  0.124014  0.000000  1
  B  B8  1  0.118506  0.618506  0.000000  1
  B  B9  1  0.881494  0.381494  0.000000  1
  Ru  Ru10  1  0.570442  0.719052  0.500000  1
  Ru  Ru11  1  0.429558  0.280948  0.500000  1
  Ru  Ru12  1  0.071473  0.780993  0.500000  1
  Ru  Ru13  1  0.928527  0.219007  0.500000  1
  Ru  Ru14  1  0.280993  0.571473  0.500000  1
  Ru  Ru15  1  0.719007  0.428527  0.500000  1
  Ru  Ru16  1  0.219052  0.070442  0.500000  1
  Ru  Ru17  1  0.780948  0.929558  0.500000  1
  Ru  Ru18  1  0.500000  0.000000  0.500000  1
  Ru  Ru19  1  0.000000  0.500000  0.500000  1
