# generated using pymatgen
data_Rb4TbBi11S20
_symmetry_space_group_name_H-M   'P 1'
_cell_length_a   4.04538400
_cell_length_b   12.01312840
_cell_length_c   21.62504100
_cell_angle_alpha   90.02764839
_cell_angle_beta   90.00000000
_cell_angle_gamma   90.00000000
_symmetry_Int_Tables_number   1
_chemical_formula_structural   Rb4TbBi11S20
_chemical_formula_sum   'Rb4 Tb1 Bi11 S20'
_cell_volume   1050.92750922
_cell_formula_units_Z   1
loop_
 _symmetry_equiv_pos_site_id
 _symmetry_equiv_pos_as_xyz
  1  'x, y, z'
loop_
 _atom_site_type_symbol
 _atom_site_label
 _atom_site_symmetry_multiplicity
 _atom_site_fract_x
 _atom_site_fract_y
 _atom_site_fract_z
 _atom_site_occupancy
  Rb  Rb0  1  0.250000  0.827942  0.096494  1
  Rb  Rb1  1  0.750000  0.168916  0.900200  1
  Rb  Rb2  1  0.750000  0.329184  0.402141  1
  Rb  Rb3  1  0.250000  0.673179  0.598015  1
  Tb  Tb4  1  0.750000  0.821051  0.836380  1
  Bi  Bi5  1  0.250000  0.177865  0.162859  1
  Bi  Bi6  1  0.250000  0.320949  0.662476  1
  Bi  Bi7  1  0.750000  0.679370  0.336837  1
  Bi  Bi8  1  0.250000  0.971963  0.703654  1
  Bi  Bi9  1  0.750000  0.027042  0.298388  1
  Bi  Bi10  1  0.750000  0.473422  0.798512  1
  Bi  Bi11  1  0.250000  0.527157  0.201605  1
  Bi  Bi12  1  0.750000  0.382532  0.052469  1
  Bi  Bi13  1  0.250000  0.617801  0.947187  1
  Bi  Bi14  1  0.250000  0.883640  0.447814  1
  Bi  Bi15  1  0.750000  0.115468  0.552906  1
  S  S16  1  0.250000  0.952627  0.573862  1
  S  S17  1  0.750000  0.047816  0.426586  1
  S  S18  1  0.750000  0.453208  0.925958  1
  S  S19  1  0.250000  0.546615  0.073812  1
  S  S20  1  0.750000  0.779620  0.960726  1
  S  S21  1  0.250000  0.220774  0.035371  1
  S  S22  1  0.250000  0.277965  0.536155  1
  S  S23  1  0.750000  0.721863  0.464492  1
  S  S24  1  0.250000  0.972521  0.833789  1
  S  S25  1  0.750000  0.019924  0.166051  1
  S  S26  1  0.750000  0.478658  0.665575  1
  S  S27  1  0.250000  0.521493  0.334127  1
  S  S28  1  0.750000  0.150388  0.681063  1
  S  S29  1  0.250000  0.849491  0.319712  1
  S  S30  1  0.250000  0.658937  0.821947  1
  S  S31  1  0.750000  0.348389  0.179846  1
  S  S32  1  0.750000  0.679723  0.204366  1
  S  S33  1  0.250000  0.323144  0.795993  1
  S  S34  1  0.250000  0.179908  0.295085  1
  S  S35  1  0.750000  0.819458  0.707549  1
