# generated using pymatgen
data_Sm6MgCd22Ge
_symmetry_space_group_name_H-M   'P 1'
_cell_length_a   10.03309822
_cell_length_b   10.03309785
_cell_length_c   10.03309700
_cell_angle_alpha   59.99999951
_cell_angle_beta   60.00000072
_cell_angle_gamma   59.99999927
_symmetry_Int_Tables_number   1
_chemical_formula_structural   Sm6MgCd22Ge
_chemical_formula_sum   'Sm6 Mg1 Cd22 Ge1'
_cell_volume   714.15112255
_cell_formula_units_Z   1
loop_
 _symmetry_equiv_pos_site_id
 _symmetry_equiv_pos_as_xyz
  1  'x, y, z'
loop_
 _atom_site_type_symbol
 _atom_site_label
 _atom_site_symmetry_multiplicity
 _atom_site_fract_x
 _atom_site_fract_y
 _atom_site_fract_z
 _atom_site_occupancy
  Sm  Sm0  1  0.792757  0.792757  0.207243  1
  Sm  Sm1  1  0.207243  0.792757  0.207243  1
  Sm  Sm2  1  0.792757  0.207243  0.207243  1
  Sm  Sm3  1  0.207243  0.207243  0.792757  1
  Sm  Sm4  1  0.792757  0.207243  0.792757  1
  Sm  Sm5  1  0.207243  0.792757  0.792757  1
  Mg  Mg6  1  0.500000  0.500000  0.500000  1
  Cd  Cd7  1  0.835406  0.835406  0.493779  1
  Cd  Cd8  1  0.835406  0.493779  0.835406  1
  Cd  Cd9  1  0.493779  0.835406  0.835406  1
  Cd  Cd10  1  0.835406  0.835406  0.835406  1
  Cd  Cd11  1  0.164594  0.164594  0.506221  1
  Cd  Cd12  1  0.164594  0.506221  0.164594  1
  Cd  Cd13  1  0.506221  0.164594  0.164594  1
  Cd  Cd14  1  0.164594  0.164594  0.164594  1
  Cd  Cd15  1  0.620827  0.620827  0.137522  1
  Cd  Cd16  1  0.620827  0.137522  0.620827  1
  Cd  Cd17  1  0.137522  0.620827  0.620827  1
  Cd  Cd18  1  0.620827  0.620827  0.620827  1
  Cd  Cd19  1  0.379173  0.379173  0.862478  1
  Cd  Cd20  1  0.379173  0.862478  0.379173  1
  Cd  Cd21  1  0.862478  0.379173  0.379173  1
  Cd  Cd22  1  0.379173  0.379173  0.379173  1
  Cd  Cd23  1  0.000000  0.000000  0.500000  1
  Cd  Cd24  1  0.500000  0.000000  0.500000  1
  Cd  Cd25  1  0.000000  0.500000  0.500000  1
  Cd  Cd26  1  0.500000  0.500000  0.000000  1
  Cd  Cd27  1  0.000000  0.500000  0.000000  1
  Cd  Cd28  1  0.500000  0.000000  0.000000  1
  Ge  Ge29  1  0.000000  0.000000  0.000000  1
