# generated using pymatgen
data_Dy2B8OsRh
_symmetry_space_group_name_H-M   'P 1'
_cell_length_a   3.57289400
_cell_length_b   5.96537624
_cell_length_c   11.55819940
_cell_angle_alpha   89.92607150
_cell_angle_beta   90.00000000
_cell_angle_gamma   90.00000000
_symmetry_Int_Tables_number   1
_chemical_formula_structural   Dy2B8OsRh
_chemical_formula_sum   'Dy4 B16 Os2 Rh2'
_cell_volume   246.34729237
_cell_formula_units_Z   2
loop_
 _symmetry_equiv_pos_site_id
 _symmetry_equiv_pos_as_xyz
  1  'x, y, z'
loop_
 _atom_site_type_symbol
 _atom_site_label
 _atom_site_symmetry_multiplicity
 _atom_site_fract_x
 _atom_site_fract_y
 _atom_site_fract_z
 _atom_site_occupancy
  Dy  Dy0  1  0.000000  0.629876  0.350952  1
  Dy  Dy1  1  0.000000  0.370124  0.649048  1
  Dy  Dy2  1  0.000000  0.129557  0.149148  1
  Dy  Dy3  1  0.000000  0.870443  0.850852  1
  B  B4  1  0.500000  0.788078  0.187396  1
  B  B5  1  0.500000  0.211922  0.812604  1
  B  B6  1  0.500000  0.288689  0.313214  1
  B  B7  1  0.500000  0.711311  0.686786  1
  B  B8  1  0.500000  0.862881  0.029831  1
  B  B9  1  0.500000  0.137119  0.970169  1
  B  B10  1  0.500000  0.363253  0.469907  1
  B  B11  1  0.500000  0.636747  0.530093  1
  B  B12  1  0.500000  0.887857  0.453590  1
  B  B13  1  0.500000  0.112143  0.546410  1
  B  B14  1  0.500000  0.387564  0.047247  1
  B  B15  1  0.500000  0.612436  0.952753  1
  B  B16  1  0.500000  0.973942  0.308264  1
  B  B17  1  0.500000  0.026058  0.691736  1
  B  B18  1  0.500000  0.478053  0.193266  1
  B  B19  1  0.500000  0.521947  0.806734  1
  Os  Os20  1  0.000000  0.142281  0.406942  1
  Os  Os21  1  0.000000  0.857719  0.593058  1
  Rh  Rh22  1  0.000000  0.640836  0.095189  1
  Rh  Rh23  1  0.000000  0.359164  0.904811  1
