# generated using pymatgen
data_Ba6TaV2H27
_symmetry_space_group_name_H-M   'P 1'
_cell_length_a   9.45558200
_cell_length_b   9.45558144
_cell_length_c   5.40439100
_cell_angle_alpha   90.00000000
_cell_angle_beta   90.00000000
_cell_angle_gamma   120.00000894
_symmetry_Int_Tables_number   1
_chemical_formula_structural   Ba6TaV2H27
_chemical_formula_sum   'Ba6 Ta1 V2 H27'
_cell_volume   418.45991217
_cell_formula_units_Z   1
loop_
 _symmetry_equiv_pos_site_id
 _symmetry_equiv_pos_as_xyz
  1  'x, y, z'
loop_
 _atom_site_type_symbol
 _atom_site_label
 _atom_site_symmetry_multiplicity
 _atom_site_fract_x
 _atom_site_fract_y
 _atom_site_fract_z
 _atom_site_occupancy
  Ba  Ba0  1  0.006317  0.267279  0.500000  1
  Ba  Ba1  1  0.732721  0.739039  0.500000  1
  Ba  Ba2  1  0.260961  0.993683  0.500000  1
  Ba  Ba3  1  0.004435  0.600466  0.000000  1
  Ba  Ba4  1  0.399534  0.403969  0.000000  1
  Ba  Ba5  1  0.596031  0.995565  0.000000  1
  Ta  Ta6  1  0.666667  0.333333  0.500000  1
  V  V7  1  0.333333  0.666667  0.500000  1
  V  V8  1  0.000000  0.000000  0.000000  1
  H  H9  1  0.797748  0.319935  0.752685  1
  H  H10  1  0.680065  0.477812  0.752685  1
  H  H11  1  0.522188  0.202252  0.752685  1
  H  H12  1  0.213688  0.532461  0.263057  1
  H  H13  1  0.522188  0.202252  0.247315  1
  H  H14  1  0.797748  0.319935  0.247315  1
  H  H15  1  0.680065  0.477812  0.247315  1
  H  H16  1  0.318771  0.786312  0.736943  1
  H  H17  1  0.467539  0.681229  0.736943  1
  H  H18  1  0.178876  0.991623  0.000000  1
  H  H19  1  0.812747  0.821124  0.000000  1
  H  H20  1  0.008377  0.187253  0.000000  1
  H  H21  1  0.870552  0.004490  0.221968  1
  H  H22  1  0.133938  0.129448  0.778032  1
  H  H23  1  0.995510  0.866062  0.778032  1
  H  H24  1  0.995510  0.866062  0.221968  1
  H  H25  1  0.133938  0.129448  0.221968  1
  H  H26  1  0.870552  0.004490  0.778032  1
  H  H27  1  0.145481  0.650970  0.500000  1
  H  H28  1  0.505488  0.854519  0.500000  1
  H  H29  1  0.349030  0.494512  0.500000  1
  H  H30  1  0.476897  0.345041  0.500000  1
  H  H31  1  0.868144  0.523103  0.500000  1
  H  H32  1  0.654959  0.131856  0.500000  1
  H  H33  1  0.213688  0.532461  0.736943  1
  H  H34  1  0.318771  0.786312  0.263057  1
  H  H35  1  0.467539  0.681229  0.263057  1
