# generated using pymatgen
data_Cs8Zr(SeO4)6
_symmetry_space_group_name_H-M   'P 1'
_cell_length_a   11.01039097
_cell_length_b   11.01039202
_cell_length_c   8.53627506
_cell_angle_alpha   79.44631038
_cell_angle_beta   79.44631038
_cell_angle_gamma   122.03290364
_symmetry_Int_Tables_number   1
_chemical_formula_structural   Cs8Zr(SeO4)6
_chemical_formula_sum   'Cs8 Zr1 Se6 O24'
_cell_volume   812.19581343
_cell_formula_units_Z   1
loop_
 _symmetry_equiv_pos_site_id
 _symmetry_equiv_pos_as_xyz
  1  'x, y, z'
loop_
 _atom_site_type_symbol
 _atom_site_label
 _atom_site_symmetry_multiplicity
 _atom_site_fract_x
 _atom_site_fract_y
 _atom_site_fract_z
 _atom_site_occupancy
  Cs  Cs0  1  0.221606  0.221606  0.372804  1
  Cs  Cs1  1  0.778394  0.778394  0.627196  1
  Cs  Cs2  1  0.665783  0.334217  0.500000  1
  Cs  Cs3  1  0.334217  0.665783  0.500000  1
  Cs  Cs4  1  0.870035  0.527723  0.888334  1
  Cs  Cs5  1  0.527723  0.870035  0.888334  1
  Cs  Cs6  1  0.129965  0.472277  0.111666  1
  Cs  Cs7  1  0.472277  0.129965  0.111666  1
  Zr  Zr8  1  0.000000  0.000000  0.000000  1
  Se  Se9  1  0.949199  0.257296  0.726270  1
  Se  Se10  1  0.257296  0.949199  0.726270  1
  Se  Se11  1  0.050801  0.742704  0.273730  1
  Se  Se12  1  0.742704  0.050801  0.273730  1
  Se  Se13  1  0.371486  0.371486  0.799165  1
  Se  Se14  1  0.628514  0.628514  0.200835  1
  O  O15  1  0.942453  0.096601  0.812894  1
  O  O16  1  0.096601  0.942453  0.812894  1
  O  O17  1  0.057547  0.903399  0.187106  1
  O  O18  1  0.903399  0.057547  0.187106  1
  O  O19  1  0.771290  0.206004  0.779741  1
  O  O20  1  0.206004  0.771290  0.779741  1
  O  O21  1  0.228710  0.793996  0.220259  1
  O  O22  1  0.793996  0.228710  0.220259  1
  O  O23  1  0.051701  0.390398  0.804492  1
  O  O24  1  0.390398  0.051701  0.804492  1
  O  O25  1  0.948299  0.609602  0.195508  1
  O  O26  1  0.609602  0.948299  0.195508  1
  O  O27  1  0.028227  0.311885  0.518148  1
  O  O28  1  0.311885  0.028227  0.518148  1
  O  O29  1  0.971773  0.688115  0.481852  1
  O  O30  1  0.688115  0.971773  0.481852  1
  O  O31  1  0.383632  0.524026  0.822739  1
  O  O32  1  0.524026  0.383632  0.822739  1
  O  O33  1  0.616368  0.475974  0.177261  1
  O  O34  1  0.475974  0.616368  0.177261  1
  O  O35  1  0.210787  0.210787  0.962884  1
  O  O36  1  0.789213  0.789213  0.037116  1
  O  O37  1  0.345143  0.345143  0.620424  1
  O  O38  1  0.654857  0.654857  0.379576  1
