# generated using pymatgen
data_La3Y2P12Ru19
_symmetry_space_group_name_H-M   'P 1'
_cell_length_a   12.63933100
_cell_length_b   12.63933185
_cell_length_c   4.02065200
_cell_angle_alpha   90.00000000
_cell_angle_beta   90.00000000
_cell_angle_gamma   119.99999516
_symmetry_Int_Tables_number   1
_chemical_formula_structural   La3Y2P12Ru19
_chemical_formula_sum   'La3 Y2 P12 Ru19'
_cell_volume   556.25681121
_cell_formula_units_Z   1
loop_
 _symmetry_equiv_pos_site_id
 _symmetry_equiv_pos_as_xyz
  1  'x, y, z'
loop_
 _atom_site_type_symbol
 _atom_site_label
 _atom_site_symmetry_multiplicity
 _atom_site_fract_x
 _atom_site_fract_y
 _atom_site_fract_z
 _atom_site_occupancy
  La  La0  1  0.000000  0.183347  0.500000  1
  La  La1  1  0.816653  0.816653  0.500000  1
  La  La2  1  0.183347  0.000000  0.500000  1
  Y  Y3  1  0.666667  0.333333  0.000000  1
  Y  Y4  1  0.333333  0.666667  0.000000  1
  P  P5  1  0.000000  0.809590  0.000000  1
  P  P6  1  0.190410  0.190410  0.000000  1
  P  P7  1  0.809590  0.000000  0.000000  1
  P  P8  1  0.695262  0.174097  0.500000  1
  P  P9  1  0.825903  0.521164  0.500000  1
  P  P10  1  0.478836  0.304738  0.500000  1
  P  P11  1  0.174097  0.695262  0.500000  1
  P  P12  1  0.521164  0.825903  0.500000  1
  P  P13  1  0.304738  0.478836  0.500000  1
  P  P14  1  0.000000  0.375353  0.000000  1
  P  P15  1  0.624647  0.624647  0.000000  1
  P  P16  1  0.375353  0.000000  0.000000  1
  Ru  Ru17  1  0.000000  0.554048  0.000000  1
  Ru  Ru18  1  0.445952  0.445952  0.000000  1
  Ru  Ru19  1  0.554048  0.000000  0.000000  1
  Ru  Ru20  1  0.000000  0.711438  0.500000  1
  Ru  Ru21  1  0.288562  0.288562  0.500000  1
  Ru  Ru22  1  0.711438  0.000000  0.500000  1
  Ru  Ru23  1  0.803574  0.185631  0.000000  1
  Ru  Ru24  1  0.814369  0.617944  0.000000  1
  Ru  Ru25  1  0.382056  0.196426  0.000000  1
  Ru  Ru26  1  0.185631  0.803574  0.000000  1
  Ru  Ru27  1  0.617944  0.814369  0.000000  1
  Ru  Ru28  1  0.196426  0.382056  0.000000  1
  Ru  Ru29  1  0.874367  0.368085  0.500000  1
  Ru  Ru30  1  0.631915  0.506282  0.500000  1
  Ru  Ru31  1  0.493718  0.125633  0.500000  1
  Ru  Ru32  1  0.368085  0.874367  0.500000  1
  Ru  Ru33  1  0.506282  0.631915  0.500000  1
  Ru  Ru34  1  0.125633  0.493718  0.500000  1
  Ru  Ru35  1  0.000000  0.000000  0.000000  1
