# generated using pymatgen
data_Ho5Tm3(Si3Rh)4
_symmetry_space_group_name_H-M   'P 1'
_cell_length_a   8.15228524
_cell_length_b   8.14868609
_cell_length_c   7.81875400
_cell_angle_alpha   90.00007372
_cell_angle_beta   89.99969090
_cell_angle_gamma   120.04286027
_symmetry_Int_Tables_number   1
_chemical_formula_structural   Ho5Tm3(Si3Rh)4
_chemical_formula_sum   'Ho5 Tm3 Si12 Rh4'
_cell_volume   449.62184848
_cell_formula_units_Z   1
loop_
 _symmetry_equiv_pos_site_id
 _symmetry_equiv_pos_as_xyz
  1  'x, y, z'
loop_
 _atom_site_type_symbol
 _atom_site_label
 _atom_site_symmetry_multiplicity
 _atom_site_fract_x
 _atom_site_fract_y
 _atom_site_fract_z
 _atom_site_occupancy
  Ho  Ho0  1  0.510033  0.489897  0.249999  1
  Ho  Ho1  1  0.490148  0.510113  0.750000  1
  Ho  Ho2  1  0.019956  0.510140  0.750004  1
  Ho  Ho3  1  0.999999  0.000221  0.249998  1
  Ho  Ho4  1  0.999987  0.999767  0.750006  1
  Tm  Tm5  1  0.509898  0.019554  0.250003  1
  Tm  Tm6  1  0.490292  0.980645  0.750003  1
  Tm  Tm7  1  0.980408  0.490044  0.250002  1
  Si  Si8  1  0.166860  0.333932  0.002055  1
  Si  Si9  1  0.833186  0.666048  0.501365  1
  Si  Si10  1  0.665911  0.833223  0.001621  1
  Si  Si11  1  0.167167  0.833153  0.001731  1
  Si  Si12  1  0.832879  0.166922  0.501049  1
  Si  Si13  1  0.333908  0.166693  0.501475  1
  Si  Si14  1  0.833182  0.666040  0.998633  1
  Si  Si15  1  0.832873  0.166926  0.998951  1
  Si  Si16  1  0.333919  0.166698  0.998522  1
  Si  Si17  1  0.665905  0.833219  0.498379  1
  Si  Si18  1  0.167173  0.833146  0.498271  1
  Si  Si19  1  0.166866  0.333941  0.497943  1
  Rh  Rh20  1  0.333162  0.667279  0.036505  1
  Rh  Rh21  1  0.666510  0.332563  0.535258  1
  Rh  Rh22  1  0.666507  0.332556  0.964744  1
  Rh  Rh23  1  0.333167  0.667281  0.463489  1
