# generated using pymatgen
data_YTh(Ni2B)12
_symmetry_space_group_name_H-M   'P 1'
_cell_length_a   6.02107796
_cell_length_b   6.02107852
_cell_length_c   11.01544591
_cell_angle_alpha   90.03275504
_cell_angle_beta   90.03276620
_cell_angle_gamma   104.56462163
_symmetry_Int_Tables_number   1
_chemical_formula_structural   YTh(Ni2B)12
_chemical_formula_sum   'Y1 Th1 Ni24 B12'
_cell_volume   386.51384380
_cell_formula_units_Z   1
loop_
 _symmetry_equiv_pos_site_id
 _symmetry_equiv_pos_as_xyz
  1  'x, y, z'
loop_
 _atom_site_type_symbol
 _atom_site_label
 _atom_site_symmetry_multiplicity
 _atom_site_fract_x
 _atom_site_fract_y
 _atom_site_fract_z
 _atom_site_occupancy
  Y  Y0  1  0.166356  0.166356  0.995239  1
  Th  Th1  1  0.831126  0.831126  0.496234  1
  Ni  Ni2  1  0.565704  0.565704  0.918560  1
  Ni  Ni3  1  0.433884  0.433884  0.418602  1
  Ni  Ni4  1  0.780311  0.780311  0.098202  1
  Ni  Ni5  1  0.219521  0.219521  0.599146  1
  Ni  Ni6  1  0.543360  0.805373  0.734515  1
  Ni  Ni7  1  0.805373  0.543360  0.734515  1
  Ni  Ni8  1  0.457026  0.195922  0.233291  1
  Ni  Ni9  1  0.195922  0.457026  0.233291  1
  Ni  Ni10  1  0.145728  0.881613  0.755722  1
  Ni  Ni11  1  0.881613  0.145728  0.755722  1
  Ni  Ni12  1  0.853509  0.119893  0.254920  1
  Ni  Ni13  1  0.119893  0.853509  0.254920  1
  Ni  Ni14  1  0.657609  0.270328  0.567906  1
  Ni  Ni15  1  0.270328  0.657609  0.567906  1
  Ni  Ni16  1  0.341559  0.730241  0.067390  1
  Ni  Ni17  1  0.730241  0.341559  0.067390  1
  Ni  Ni18  1  0.630465  0.996346  0.937553  1
  Ni  Ni19  1  0.996346  0.630465  0.937553  1
  Ni  Ni20  1  0.369559  0.004655  0.437674  1
  Ni  Ni21  1  0.004655  0.369559  0.437674  1
  Ni  Ni22  1  0.473911  0.211247  0.776697  1
  Ni  Ni23  1  0.211247  0.473911  0.776697  1
  Ni  Ni24  1  0.526408  0.787758  0.275984  1
  Ni  Ni25  1  0.787758  0.526408  0.275984  1
  B  B26  1  0.836737  0.836737  0.838351  1
  B  B27  1  0.163162  0.163162  0.334883  1
  B  B28  1  0.487523  0.487523  0.658186  1
  B  B29  1  0.511920  0.511920  0.153386  1
  B  B30  1  0.326061  0.758050  0.885573  1
  B  B31  1  0.758050  0.326061  0.885573  1
  B  B32  1  0.674200  0.243959  0.384912  1
  B  B33  1  0.243959  0.674200  0.384912  1
  B  B34  1  0.400585  0.986959  0.622798  1
  B  B35  1  0.986959  0.400585  0.622798  1
  B  B36  1  0.599134  0.012297  0.122672  1
  B  B37  1  0.012297  0.599134  0.122672  1
