# generated using pymatgen
data_Tm15ThMgCd2HgPt4
_symmetry_space_group_name_H-M   'P 1'
_cell_length_a   9.57543638
_cell_length_b   9.57543625
_cell_length_c   9.56946158
_cell_angle_alpha   60.37991969
_cell_angle_beta   60.37991250
_cell_angle_gamma   60.42046387
_symmetry_Int_Tables_number   1
_chemical_formula_structural   Tm15ThMgCd2HgPt4
_chemical_formula_sum   'Tm15 Th1 Mg1 Cd2 Hg1 Pt4'
_cell_volume   625.94566109
_cell_formula_units_Z   1
loop_
 _symmetry_equiv_pos_site_id
 _symmetry_equiv_pos_as_xyz
  1  'x, y, z'
loop_
 _atom_site_type_symbol
 _atom_site_label
 _atom_site_symmetry_multiplicity
 _atom_site_fract_x
 _atom_site_fract_y
 _atom_site_fract_z
 _atom_site_occupancy
  Tm  Tm0  1  0.353554  0.353554  0.939397  1
  Tm  Tm1  1  0.354227  0.937917  0.353942  1
  Tm  Tm2  1  0.937917  0.354227  0.353942  1
  Tm  Tm3  1  0.812346  0.189180  0.189959  1
  Tm  Tm4  1  0.191734  0.811587  0.811421  1
  Tm  Tm5  1  0.189180  0.812346  0.189959  1
  Tm  Tm6  1  0.811587  0.191734  0.811421  1
  Tm  Tm7  1  0.189109  0.189109  0.813009  1
  Tm  Tm8  1  0.811327  0.811327  0.192252  1
  Tm  Tm9  1  0.934967  0.568304  0.568589  1
  Tm  Tm10  1  0.563485  0.936401  0.939586  1
  Tm  Tm11  1  0.568304  0.934967  0.568589  1
  Tm  Tm12  1  0.936401  0.563485  0.939586  1
  Tm  Tm13  1  0.567799  0.567799  0.936632  1
  Tm  Tm14  1  0.937639  0.937639  0.564042  1
  Th  Th15  1  0.350328  0.350328  0.349905  1
  Mg  Mg16  1  0.576406  0.576406  0.574473  1
  Cd  Cd17  1  0.583242  0.249878  0.584375  1
  Cd  Cd18  1  0.249878  0.583242  0.584375  1
  Hg  Hg19  1  0.587786  0.587786  0.240912  1
  Pt  Pt20  1  0.144084  0.144084  0.144765  1
  Pt  Pt21  1  0.138650  0.138650  0.571206  1
  Pt  Pt22  1  0.138473  0.571578  0.138834  1
  Pt  Pt23  1  0.571578  0.138473  0.138834  1
