# generated using pymatgen
data_ThZn2InCu2Rh
_symmetry_space_group_name_H-M   'P 1'
_cell_length_a   5.14556600
_cell_length_b   8.48034100
_cell_length_c   10.98880700
_cell_angle_alpha   90.00000000
_cell_angle_beta   90.00000000
_cell_angle_gamma   90.00000000
_symmetry_Int_Tables_number   1
_chemical_formula_structural   ThZn2InCu2Rh
_chemical_formula_sum   'Th4 Zn8 In4 Cu8 Rh4'
_cell_volume   479.50927802
_cell_formula_units_Z   4
loop_
 _symmetry_equiv_pos_site_id
 _symmetry_equiv_pos_as_xyz
  1  'x, y, z'
loop_
 _atom_site_type_symbol
 _atom_site_label
 _atom_site_symmetry_multiplicity
 _atom_site_fract_x
 _atom_site_fract_y
 _atom_site_fract_z
 _atom_site_occupancy
  Th  Th0  1  0.749425  0.233954  0.943005  1
  Th  Th1  1  0.249425  0.766046  0.056995  1
  Th  Th2  1  0.750575  0.733954  0.556995  1
  Th  Th3  1  0.250575  0.266046  0.443005  1
  Zn  Zn4  1  0.999015  0.438902  0.185679  1
  Zn  Zn5  1  0.499015  0.561098  0.814321  1
  Zn  Zn6  1  0.500985  0.938902  0.314321  1
  Zn  Zn7  1  0.000985  0.061098  0.685679  1
  Zn  Zn8  1  0.752132  0.191428  0.261292  1
  Zn  Zn9  1  0.252132  0.808572  0.738708  1
  Zn  Zn10  1  0.747868  0.691428  0.238708  1
  Zn  Zn11  1  0.247868  0.308572  0.761292  1
  In  In12  1  0.749573  0.356728  0.642879  1
  In  In13  1  0.249573  0.643272  0.357121  1
  In  In14  1  0.750427  0.856728  0.857121  1
  In  In15  1  0.250427  0.143272  0.142879  1
  Cu  Cu16  1  0.996096  0.561891  0.813418  1
  Cu  Cu17  1  0.496096  0.438109  0.186582  1
  Cu  Cu18  1  0.503904  0.061891  0.686582  1
  Cu  Cu19  1  0.003904  0.938109  0.313418  1
  Cu  Cu20  1  0.748920  0.078671  0.486224  1
  Cu  Cu21  1  0.248920  0.921329  0.513776  1
  Cu  Cu22  1  0.751080  0.578671  0.013776  1
  Cu  Cu23  1  0.251080  0.421329  0.986224  1
  Rh  Rh24  1  0.752164  0.445751  0.405057  1
  Rh  Rh25  1  0.252164  0.554249  0.594943  1
  Rh  Rh26  1  0.747836  0.945751  0.094943  1
  Rh  Rh27  1  0.247836  0.054249  0.905057  1
