# generated using pymatgen
data_K5Sc2InBr12
_symmetry_space_group_name_H-M   'P 1'
_cell_length_a   8.34489204
_cell_length_b   7.83751178
_cell_length_c   13.66943800
_cell_angle_alpha   55.58624419
_cell_angle_beta   89.92560033
_cell_angle_gamma   90.17710484
_symmetry_Int_Tables_number   1
_chemical_formula_structural   K5Sc2InBr12
_chemical_formula_sum   'K5 Sc2 In1 Br12'
_cell_volume   737.54213193
_cell_formula_units_Z   1
loop_
 _symmetry_equiv_pos_site_id
 _symmetry_equiv_pos_as_xyz
  1  'x, y, z'
loop_
 _atom_site_type_symbol
 _atom_site_label
 _atom_site_symmetry_multiplicity
 _atom_site_fract_x
 _atom_site_fract_y
 _atom_site_fract_z
 _atom_site_occupancy
  K  K0  1  0.500000  0.500000  0.000000  1
  K  K1  1  0.069715  0.723429  0.753640  1
  K  K2  1  0.930285  0.276571  0.246360  1
  K  K3  1  0.570759  0.278006  0.744461  1
  K  K4  1  0.429241  0.721994  0.255539  1
  Sc  Sc5  1  0.500000  0.000000  0.500000  1
  Sc  Sc6  1  0.000000  0.000000  0.000000  1
  In  In7  1  0.000000  0.500000  0.500000  1
  Br  Br8  1  0.770285  0.771806  0.567508  1
  Br  Br9  1  0.229715  0.228194  0.432492  1
  Br  Br10  1  0.271423  0.226706  0.931583  1
  Br  Br11  1  0.728577  0.773294  0.068417  1
  Br  Br12  1  0.449371  0.893159  0.721439  1
  Br  Br13  1  0.550629  0.106841  0.278561  1
  Br  Br14  1  0.950482  0.109188  0.777178  1
  Br  Br15  1  0.049518  0.890812  0.222822  1
  Br  Br16  1  0.327921  0.669726  0.549351  1
  Br  Br17  1  0.672079  0.330274  0.450649  1
  Br  Br18  1  0.831303  0.330014  0.950578  1
  Br  Br19  1  0.168697  0.669986  0.049422  1
