# generated using pymatgen
data_CaNd9(SnSb)4
_symmetry_space_group_name_H-M   'P 1'
_cell_length_a   8.35201000
_cell_length_b   8.38961100
_cell_length_c   15.97133400
_cell_angle_alpha   90.00000000
_cell_angle_beta   90.00000000
_cell_angle_gamma   90.00000000
_symmetry_Int_Tables_number   1
_chemical_formula_structural   CaNd9(SnSb)4
_chemical_formula_sum   'Ca2 Nd18 Sn8 Sb8'
_cell_volume   1119.11320957
_cell_formula_units_Z   2
loop_
 _symmetry_equiv_pos_site_id
 _symmetry_equiv_pos_as_xyz
  1  'x, y, z'
loop_
 _atom_site_type_symbol
 _atom_site_label
 _atom_site_symmetry_multiplicity
 _atom_site_fract_x
 _atom_site_fract_y
 _atom_site_fract_z
 _atom_site_occupancy
  Ca  Ca0  1  0.225750  0.500247  0.250000  1
  Ca  Ca1  1  0.725750  0.999753  0.250000  1
  Nd  Nd2  1  0.050198  0.174105  0.393221  1
  Nd  Nd3  1  0.396283  0.835636  0.117045  1
  Nd  Nd4  1  0.105431  0.335817  0.617410  1
  Nd  Nd5  1  0.448004  0.674560  0.892315  1
  Nd  Nd6  1  0.896283  0.664364  0.117045  1
  Nd  Nd7  1  0.105431  0.335817  0.882590  1
  Nd  Nd8  1  0.448004  0.674560  0.607685  1
  Nd  Nd9  1  0.277792  0.997300  0.750000  1
  Nd  Nd10  1  0.605431  0.164183  0.617410  1
  Nd  Nd11  1  0.777792  0.502700  0.750000  1
  Nd  Nd12  1  0.896283  0.664364  0.382955  1
  Nd  Nd13  1  0.050198  0.174105  0.106779  1
  Nd  Nd14  1  0.948004  0.825440  0.892315  1
  Nd  Nd15  1  0.605431  0.164183  0.882590  1
  Nd  Nd16  1  0.550198  0.325895  0.106779  1
  Nd  Nd17  1  0.396283  0.835636  0.382955  1
  Nd  Nd18  1  0.948004  0.825440  0.607685  1
  Nd  Nd19  1  0.550198  0.325895  0.393221  1
  Sn  Sn20  1  0.646810  0.863466  0.750000  1
  Sn  Sn21  1  0.849681  0.365447  0.250000  1
  Sn  Sn22  1  0.597269  0.619455  0.250000  1
  Sn  Sn23  1  0.406679  0.376457  0.750000  1
  Sn  Sn24  1  0.146810  0.636534  0.750000  1
  Sn  Sn25  1  0.906679  0.123543  0.750000  1
  Sn  Sn26  1  0.349681  0.134553  0.250000  1
  Sn  Sn27  1  0.097269  0.880545  0.250000  1
  Sb  Sb28  1  0.765593  0.481570  0.545779  1
  Sb  Sb29  1  0.732500  0.981738  0.453998  1
  Sb  Sb30  1  0.232500  0.518262  0.453998  1
  Sb  Sb31  1  0.265593  0.018430  0.954221  1
  Sb  Sb32  1  0.765593  0.481570  0.954221  1
  Sb  Sb33  1  0.232500  0.518262  0.046002  1
  Sb  Sb34  1  0.265593  0.018430  0.545779  1
  Sb  Sb35  1  0.732500  0.981738  0.046002  1
