# generated using pymatgen
data_Pr7Sm3(Sn3Br)2
_symmetry_space_group_name_H-M   'P 1'
_cell_length_a   9.54656800
_cell_length_b   9.54656765
_cell_length_c   6.84815200
_cell_angle_alpha   90.00000000
_cell_angle_beta   90.00000000
_cell_angle_gamma   120.00000122
_symmetry_Int_Tables_number   1
_chemical_formula_structural   Pr7Sm3(Sn3Br)2
_chemical_formula_sum   'Pr7 Sm3 Sn6 Br2'
_cell_volume   540.50353957
_cell_formula_units_Z   1
loop_
 _symmetry_equiv_pos_site_id
 _symmetry_equiv_pos_as_xyz
  1  'x, y, z'
loop_
 _atom_site_type_symbol
 _atom_site_label
 _atom_site_symmetry_multiplicity
 _atom_site_fract_x
 _atom_site_fract_y
 _atom_site_fract_z
 _atom_site_occupancy
  Pr  Pr0  1  0.268113  0.267924  0.750236  1
  Pr  Pr1  1  0.999812  0.731887  0.750236  1
  Pr  Pr2  1  0.732076  0.000188  0.750236  1
  Pr  Pr3  1  0.999812  0.267924  0.249764  1
  Pr  Pr4  1  0.333333  0.666667  0.500000  1
  Pr  Pr5  1  0.732076  0.731887  0.249764  1
  Pr  Pr6  1  0.268113  0.000188  0.249764  1
  Sm  Sm7  1  0.666667  0.333333  0.500000  1
  Sm  Sm8  1  0.333333  0.666667  0.000000  1
  Sm  Sm9  1  0.666667  0.333333  0.000000  1
  Sn  Sn10  1  0.612952  0.001157  0.249227  1
  Sn  Sn11  1  0.998843  0.387048  0.750773  1
  Sn  Sn12  1  0.388205  0.001157  0.750773  1
  Sn  Sn13  1  0.612952  0.611795  0.750773  1
  Sn  Sn14  1  0.998843  0.611795  0.249227  1
  Sn  Sn15  1  0.388205  0.387048  0.249227  1
  Br  Br16  1  0.000000  0.000000  0.000000  1
  Br  Br17  1  0.000000  0.000000  0.500000  1
