# generated using pymatgen
data_Tb(ScPb)5
_symmetry_space_group_name_H-M   'P 1'
_cell_length_a   11.22484280
_cell_length_b   11.22484204
_cell_length_c   11.22755710
_cell_angle_alpha   132.01570464
_cell_angle_beta   59.28846432
_cell_angle_gamma   147.28223357
_symmetry_Int_Tables_number   1
_chemical_formula_structural   Tb(ScPb)5
_chemical_formula_sum   'Tb2 Sc10 Pb10'
_cell_volume   563.21744321
_cell_formula_units_Z   2
loop_
 _symmetry_equiv_pos_site_id
 _symmetry_equiv_pos_as_xyz
  1  'x, y, z'
loop_
 _atom_site_type_symbol
 _atom_site_label
 _atom_site_symmetry_multiplicity
 _atom_site_fract_x
 _atom_site_fract_y
 _atom_site_fract_z
 _atom_site_occupancy
  Tb  Tb0  1  0.141807  0.112363  0.254170  1
  Tb  Tb1  1  0.858192  0.887639  0.745831  1
  Sc  Sc2  1  0.357957  0.612141  0.970098  1
  Sc  Sc3  1  0.642043  0.387860  0.029900  1
  Sc  Sc4  1  0.556443  0.249779  0.306401  1
  Sc  Sc5  1  0.943377  0.250041  0.693599  1
  Sc  Sc6  1  0.443558  0.750221  0.693599  1
  Sc  Sc7  1  0.056623  0.749959  0.306401  1
  Sc  Sc8  1  0.438541  0.235748  0.674289  1
  Sc  Sc9  1  0.561460  0.764252  0.325711  1
  Sc  Sc10  1  0.062248  0.740558  0.802806  1
  Sc  Sc11  1  0.937752  0.259444  0.197195  1
  Pb  Pb12  1  0.292418  0.304355  0.596773  1
  Pb  Pb13  1  0.707582  0.695645  0.403226  1
  Pb  Pb14  1  0.210314  0.797397  0.007709  1
  Pb  Pb15  1  0.789688  0.202603  0.992291  1
  Pb  Pb16  1  0.252920  0.252920  0.000000  1
  Pb  Pb17  1  0.747079  0.747079  0.000000  1
  Pb  Pb18  1  0.070864  0.407714  0.478579  1
  Pb  Pb19  1  0.929137  0.592286  0.521421  1
  Pb  Pb20  1  0.426289  0.898807  0.325095  1
  Pb  Pb21  1  0.573711  0.101193  0.674905  1
