# generated using pymatgen
data_TbDy5Lu4(Si3H)2
_symmetry_space_group_name_H-M   'P 1'
_cell_length_a   8.39130413
_cell_length_b   8.39130655
_cell_length_c   6.14030800
_cell_angle_alpha   90.00000000
_cell_angle_beta   90.00000000
_cell_angle_gamma   120.02000650
_symmetry_Int_Tables_number   1
_chemical_formula_structural   TbDy5Lu4(Si3H)2
_chemical_formula_sum   'Tb1 Dy5 Lu4 Si6 H2'
_cell_volume   374.36242164
_cell_formula_units_Z   1
loop_
 _symmetry_equiv_pos_site_id
 _symmetry_equiv_pos_as_xyz
  1  'x, y, z'
loop_
 _atom_site_type_symbol
 _atom_site_label
 _atom_site_symmetry_multiplicity
 _atom_site_fract_x
 _atom_site_fract_y
 _atom_site_fract_z
 _atom_site_occupancy
  Tb  Tb0  1  0.749743  0.749743  0.750000  1
  Dy  Dy1  1  0.250371  0.999996  0.750000  1
  Dy  Dy2  1  0.999996  0.250371  0.750000  1
  Dy  Dy3  1  0.250351  0.250351  0.250000  1
  Dy  Dy4  1  0.749634  0.000026  0.250000  1
  Dy  Dy5  1  0.000026  0.749634  0.250000  1
  Lu  Lu6  1  0.666657  0.333294  0.000004  1
  Lu  Lu7  1  0.333294  0.666657  0.000004  1
  Lu  Lu8  1  0.333294  0.666657  0.499996  1
  Lu  Lu9  1  0.666657  0.333294  0.499996  1
  Si  Si10  1  0.391433  0.391433  0.750000  1
  Si  Si11  1  0.608400  0.000117  0.750000  1
  Si  Si12  1  0.000117  0.608400  0.750000  1
  Si  Si13  1  0.608431  0.608431  0.250000  1
  Si  Si14  1  0.391549  0.000004  0.250000  1
  Si  Si15  1  0.000004  0.391549  0.250000  1
  H  H16  1  0.000021  0.000021  0.499954  1
  H  H17  1  0.000021  0.000021  0.000046  1
