# generated using pymatgen
data_Er2Al20IrRu3
_symmetry_space_group_name_H-M   'P 1'
_cell_length_a   6.84003896
_cell_length_b   6.84492020
_cell_length_c   9.13796716
_cell_angle_alpha   90.09889663
_cell_angle_beta   90.10472441
_cell_angle_gamma   96.64433889
_symmetry_Int_Tables_number   1
_chemical_formula_structural   Er2Al20IrRu3
_chemical_formula_sum   'Er2 Al20 Ir1 Ru3'
_cell_volume   424.96018036
_cell_formula_units_Z   1
loop_
 _symmetry_equiv_pos_site_id
 _symmetry_equiv_pos_as_xyz
  1  'x, y, z'
loop_
 _atom_site_type_symbol
 _atom_site_label
 _atom_site_symmetry_multiplicity
 _atom_site_fract_x
 _atom_site_fract_y
 _atom_site_fract_z
 _atom_site_occupancy
  Er  Er0  1  0.870978  0.127484  0.750497  1
  Er  Er1  1  0.129022  0.872516  0.249503  1
  Al  Al2  1  0.620788  0.375787  0.550980  1
  Al  Al3  1  0.379212  0.624213  0.449020  1
  Al  Al4  1  0.377022  0.623624  0.050250  1
  Al  Al5  1  0.622978  0.376376  0.949750  1
  Al  Al6  1  0.226907  0.223854  0.498976  1
  Al  Al7  1  0.773093  0.776146  0.501024  1
  Al  Al8  1  0.774165  0.774829  0.000443  1
  Al  Al9  1  0.225835  0.225171  0.999557  1
  Al  Al10  1  0.844686  0.155852  0.099825  1
  Al  Al11  1  0.155314  0.844148  0.900175  1
  Al  Al12  1  0.156736  0.846303  0.601202  1
  Al  Al13  1  0.843264  0.153697  0.398798  1
  Al  Al14  1  0.857373  0.586781  0.751584  1
  Al  Al15  1  0.142627  0.413219  0.248416  1
  Al  Al16  1  0.414350  0.141624  0.750527  1
  Al  Al17  1  0.585650  0.858376  0.249473  1
  Al  Al18  1  0.222445  0.480465  0.752154  1
  Al  Al19  1  0.777555  0.519535  0.247846  1
  Al  Al20  1  0.519496  0.778636  0.749752  1
  Al  Al21  1  0.480504  0.221364  0.250248  1
  Ir  Ir22  1  0.000000  0.500000  0.500000  1
  Ru  Ru23  1  0.000000  0.500000  0.000000  1
  Ru  Ru24  1  0.500000  0.000000  0.000000  1
  Ru  Ru25  1  0.500000  0.000000  0.500000  1
