# generated using pymatgen
data_Y4Sc15Si16Mo
_symmetry_space_group_name_H-M   'P 1'
_cell_length_a   6.95238683
_cell_length_b   7.28102445
_cell_length_c   13.75912670
_cell_angle_alpha   89.96979577
_cell_angle_beta   89.89979448
_cell_angle_gamma   89.67525713
_symmetry_Int_Tables_number   1
_chemical_formula_structural   Y4Sc15Si16Mo
_chemical_formula_sum   'Y4 Sc15 Si16 Mo1'
_cell_volume   696.48150725
_cell_formula_units_Z   1
loop_
 _symmetry_equiv_pos_site_id
 _symmetry_equiv_pos_as_xyz
  1  'x, y, z'
loop_
 _atom_site_type_symbol
 _atom_site_label
 _atom_site_symmetry_multiplicity
 _atom_site_fract_x
 _atom_site_fract_y
 _atom_site_fract_z
 _atom_site_occupancy
  Y  Y0  1  0.993886  0.679988  0.600147  1
  Y  Y1  1  0.012271  0.324120  0.406441  1
  Y  Y2  1  0.509607  0.174771  0.408531  1
  Y  Y3  1  0.012419  0.323988  0.089763  1
  Sc  Sc4  1  0.841339  0.005176  0.247581  1
  Sc  Sc5  1  0.341554  0.497127  0.248295  1
  Sc  Sc6  1  0.656959  0.508626  0.751965  1
  Sc  Sc7  1  0.483826  0.822368  0.601851  1
  Sc  Sc8  1  0.991637  0.687167  0.897387  1
  Sc  Sc9  1  0.484904  0.822750  0.901885  1
  Sc  Sc10  1  0.514936  0.180745  0.094639  1
  Sc  Sc11  1  0.328868  0.320520  0.630818  1
  Sc  Sc12  1  0.669794  0.678934  0.374680  1
  Sc  Sc13  1  0.173518  0.827216  0.375937  1
  Sc  Sc14  1  0.670318  0.678062  0.123710  1
  Sc  Sc15  1  0.826409  0.168029  0.630207  1
  Sc  Sc16  1  0.329214  0.318558  0.873382  1
  Sc  Sc17  1  0.823748  0.167978  0.871784  1
  Sc  Sc18  1  0.173507  0.827181  0.120015  1
  Si  Si19  1  0.029759  0.382991  0.752675  1
  Si  Si20  1  0.970321  0.616182  0.248549  1
  Si  Si21  1  0.469053  0.890342  0.247482  1
  Si  Si22  1  0.517559  0.090890  0.751313  1
  Si  Si23  1  0.285237  0.644391  0.753638  1
  Si  Si24  1  0.714856  0.369746  0.247079  1
  Si  Si25  1  0.218595  0.131054  0.246544  1
  Si  Si26  1  0.788286  0.865756  0.752728  1
  Si  Si27  1  0.163141  0.031255  0.548565  1
  Si  Si28  1  0.844867  0.963754  0.464276  1
  Si  Si29  1  0.345438  0.541255  0.466347  1
  Si  Si30  1  0.837649  0.963227  0.034748  1
  Si  Si31  1  0.656358  0.469263  0.541950  1
  Si  Si32  1  0.156466  0.024014  0.949337  1
  Si  Si33  1  0.662715  0.468876  0.958975  1
  Si  Si34  1  0.349264  0.535506  0.035094  1
  Mo  Mo35  1  0.151724  0.998189  0.751683  1
