# generated using pymatgen
data_Be3CoRe2
_symmetry_space_group_name_H-M   'P 1'
_cell_length_a   4.44949680
_cell_length_b   4.41645282
_cell_length_c   7.25092700
_cell_angle_alpha   90.00000000
_cell_angle_beta   90.00000000
_cell_angle_gamma   119.75463850
_symmetry_Int_Tables_number   1
_chemical_formula_structural   Be3CoRe2
_chemical_formula_sum   'Be6 Co2 Re4'
_cell_volume   123.70211323
_cell_formula_units_Z   2
loop_
 _symmetry_equiv_pos_site_id
 _symmetry_equiv_pos_as_xyz
  1  'x, y, z'
loop_
 _atom_site_type_symbol
 _atom_site_label
 _atom_site_symmetry_multiplicity
 _atom_site_fract_x
 _atom_site_fract_y
 _atom_site_fract_z
 _atom_site_occupancy
  Be  Be0  1  0.000000  0.000933  0.000000  1
  Be  Be1  1  0.000000  0.000933  0.500000  1
  Be  Be2  1  0.661956  0.827975  0.750000  1
  Be  Be3  1  0.338044  0.166019  0.250000  1
  Be  Be4  1  0.827822  0.165398  0.250000  1
  Be  Be5  1  0.172178  0.337575  0.750000  1
  Co  Co6  1  0.837187  0.666754  0.250000  1
  Co  Co7  1  0.162813  0.829567  0.750000  1
  Re  Re8  1  0.340344  0.671384  0.060389  1
  Re  Re9  1  0.659656  0.331039  0.560389  1
  Re  Re10  1  0.659656  0.331039  0.939611  1
  Re  Re11  1  0.340344  0.671384  0.439611  1
