# generated using pymatgen
data_ErMg2ScIr8
_symmetry_space_group_name_H-M   'P 1'
_cell_length_a   5.24847200
_cell_length_b   5.24847106
_cell_length_c   8.53825100
_cell_angle_alpha   90.00000000
_cell_angle_beta   90.00000000
_cell_angle_gamma   120.00000591
_symmetry_Int_Tables_number   1
_chemical_formula_structural   ErMg2ScIr8
_chemical_formula_sum   'Er1 Mg2 Sc1 Ir8'
_cell_volume   203.68789272
_cell_formula_units_Z   1
loop_
 _symmetry_equiv_pos_site_id
 _symmetry_equiv_pos_as_xyz
  1  'x, y, z'
loop_
 _atom_site_type_symbol
 _atom_site_label
 _atom_site_symmetry_multiplicity
 _atom_site_fract_x
 _atom_site_fract_y
 _atom_site_fract_z
 _atom_site_occupancy
  Er  Er0  1  0.333333  0.666667  0.069796  1
  Mg  Mg1  1  0.666667  0.333333  0.931378  1
  Mg  Mg2  1  0.333333  0.666667  0.440710  1
  Sc  Sc3  1  0.666667  0.333333  0.572078  1
  Ir  Ir4  1  0.000000  0.000000  0.995889  1
  Ir  Ir5  1  0.000000  0.000000  0.496270  1
  Ir  Ir6  1  0.828775  0.657549  0.251081  1
  Ir  Ir7  1  0.170812  0.829188  0.746880  1
  Ir  Ir8  1  0.658376  0.829188  0.746880  1
  Ir  Ir9  1  0.342451  0.171225  0.251081  1
  Ir  Ir10  1  0.828775  0.171225  0.251081  1
  Ir  Ir11  1  0.170812  0.341624  0.746880  1
