# generated using pymatgen
data_DyTh3(Ga8Pt3)3
_symmetry_space_group_name_H-M   'P 1'
_cell_length_a   7.65335203
_cell_length_b   7.67524089
_cell_length_c   13.32480418
_cell_angle_alpha   84.50465097
_cell_angle_beta   79.08134626
_cell_angle_gamma   60.03214907
_symmetry_Int_Tables_number   1
_chemical_formula_structural   DyTh3(Ga8Pt3)3
_chemical_formula_sum   'Dy1 Th3 Ga24 Pt9'
_cell_volume   665.79626142
_cell_formula_units_Z   1
loop_
 _symmetry_equiv_pos_site_id
 _symmetry_equiv_pos_as_xyz
  1  'x, y, z'
loop_
 _atom_site_type_symbol
 _atom_site_label
 _atom_site_symmetry_multiplicity
 _atom_site_fract_x
 _atom_site_fract_y
 _atom_site_fract_z
 _atom_site_occupancy
  Dy  Dy0  1  0.267101  0.501410  0.192091  1
  Th  Th1  1  0.396387  0.167627  0.807978  1
  Th  Th2  1  0.603115  0.832208  0.192389  1
  Th  Th3  1  0.732605  0.499224  0.807970  1
  Ga  Ga4  1  0.687542  0.833700  0.941824  1
  Ga  Ga5  1  0.312005  0.170814  0.061296  1
  Ga  Ga6  1  0.144333  0.834574  0.559758  1
  Ga  Ga7  1  0.855946  0.165397  0.438320  1
  Ga  Ga8  1  0.479930  0.167696  0.556301  1
  Ga  Ga9  1  0.520299  0.833000  0.442889  1
  Ga  Ga10  1  0.218052  0.169468  0.326700  1
  Ga  Ga11  1  0.783372  0.834610  0.670630  1
  Ga  Ga12  1  0.435380  0.507768  0.670763  1
  Ga  Ga13  1  0.561106  0.492328  0.327067  1
  Ga  Ga14  1  0.108944  0.159344  0.669837  1
  Ga  Ga15  1  0.895751  0.836260  0.327796  1
  Ga  Ga16  1  0.351252  0.501584  0.943759  1
  Ga  Ga17  1  0.642980  0.498482  0.060578  1
  Ga  Ga18  1  0.018359  0.165869  0.947272  1
  Ga  Ga19  1  0.983796  0.829941  0.056994  1
  Ga  Ga20  1  0.187365  0.500047  0.441378  1
  Ga  Ga21  1  0.813788  0.499493  0.556357  1
  Ga  Ga22  1  0.734102  0.166618  0.182577  1
  Ga  Ga23  1  0.262388  0.835622  0.818022  1
  Ga  Ga24  1  0.062851  0.634693  0.816869  1
  Ga  Ga25  1  0.940283  0.365638  0.183351  1
  Ga  Ga26  1  0.862861  0.035761  0.816504  1
  Ga  Ga27  1  0.137914  0.960477  0.183721  1
  Pt  Pt28  1  0.119050  0.494511  0.639764  1
  Pt  Pt29  1  0.880062  0.505850  0.359872  1
  Pt  Pt30  1  0.660948  0.169121  0.998413  1
  Pt  Pt31  1  0.339920  0.831285  0.001247  1
  Pt  Pt32  1  0.541521  0.164870  0.360287  1
  Pt  Pt33  1  0.459340  0.834060  0.639823  1
  Pt  Pt34  1  0.779884  0.173577  0.638290  1
  Pt  Pt35  1  0.220666  0.826880  0.361525  1
  Pt  Pt36  1  0.998802  0.500195  0.999790  1
