# generated using pymatgen
data_Tb2Ho3Si3Ni
_symmetry_space_group_name_H-M   'P 1'
_cell_length_a   7.05128300
_cell_length_b   7.90639300
_cell_length_c   14.56332000
_cell_angle_alpha   90.00000000
_cell_angle_beta   90.00000000
_cell_angle_gamma   90.00000000
_symmetry_Int_Tables_number   1
_chemical_formula_structural   Tb2Ho3Si3Ni
_chemical_formula_sum   'Tb8 Ho12 Si12 Ni4'
_cell_volume   811.90821459
_cell_formula_units_Z   4
loop_
 _symmetry_equiv_pos_site_id
 _symmetry_equiv_pos_as_xyz
  1  'x, y, z'
loop_
 _atom_site_type_symbol
 _atom_site_label
 _atom_site_symmetry_multiplicity
 _atom_site_fract_x
 _atom_site_fract_y
 _atom_site_fract_z
 _atom_site_occupancy
  Tb  Tb0  1  0.007601  0.184665  0.089648  1
  Tb  Tb1  1  0.992399  0.815335  0.910352  1
  Tb  Tb2  1  0.492399  0.684665  0.910352  1
  Tb  Tb3  1  0.992399  0.815335  0.589648  1
  Tb  Tb4  1  0.507601  0.315335  0.089648  1
  Tb  Tb5  1  0.007601  0.184665  0.410352  1
  Tb  Tb6  1  0.507601  0.315335  0.410352  1
  Tb  Tb7  1  0.492399  0.684665  0.589648  1
  Ho  Ho8  1  0.181393  0.516109  0.750000  1
  Ho  Ho9  1  0.818607  0.483891  0.250000  1
  Ho  Ho10  1  0.318607  0.016109  0.250000  1
  Ho  Ho11  1  0.681393  0.983891  0.750000  1
  Ho  Ho12  1  0.316772  0.171868  0.628889  1
  Ho  Ho13  1  0.683228  0.828132  0.371111  1
  Ho  Ho14  1  0.183228  0.671868  0.371111  1
  Ho  Ho15  1  0.683228  0.828132  0.128889  1
  Ho  Ho16  1  0.816772  0.328132  0.628889  1
  Ho  Ho17  1  0.316772  0.171868  0.871111  1
  Ho  Ho18  1  0.816772  0.328132  0.871111  1
  Ho  Ho19  1  0.183228  0.671868  0.128889  1
  Si  Si20  1  0.269642  0.872612  0.750000  1
  Si  Si21  1  0.730358  0.127388  0.250000  1
  Si  Si22  1  0.230358  0.372612  0.250000  1
  Si  Si23  1  0.769642  0.627388  0.750000  1
  Si  Si24  1  0.158777  0.469590  0.537756  1
  Si  Si25  1  0.841223  0.530410  0.462244  1
  Si  Si26  1  0.341223  0.969590  0.462244  1
  Si  Si27  1  0.841223  0.530410  0.037756  1
  Si  Si28  1  0.658777  0.030410  0.537756  1
  Si  Si29  1  0.158777  0.469590  0.962244  1
  Si  Si30  1  0.658777  0.030410  0.962244  1
  Si  Si31  1  0.341223  0.969590  0.037756  1
  Ni  Ni32  1  0.033412  0.092227  0.750000  1
  Ni  Ni33  1  0.966588  0.907773  0.250000  1
  Ni  Ni34  1  0.466588  0.592227  0.250000  1
  Ni  Ni35  1  0.533412  0.407773  0.750000  1
