# generated using pymatgen
data_Pr11Nd(PBr3)4
_symmetry_space_group_name_H-M   'P 1'
_cell_length_a   10.36719783
_cell_length_b   10.36390300
_cell_length_c   10.36606526
_cell_angle_alpha   109.44955581
_cell_angle_beta   109.48195074
_cell_angle_gamma   109.47349705
_symmetry_Int_Tables_number   1
_chemical_formula_structural   Pr11Nd(PBr3)4
_chemical_formula_sum   'Pr11 Nd1 P4 Br12'
_cell_volume   857.47831046
_cell_formula_units_Z   1
loop_
 _symmetry_equiv_pos_site_id
 _symmetry_equiv_pos_as_xyz
  1  'x, y, z'
loop_
 _atom_site_type_symbol
 _atom_site_label
 _atom_site_symmetry_multiplicity
 _atom_site_fract_x
 _atom_site_fract_y
 _atom_site_fract_z
 _atom_site_occupancy
  Pr  Pr0  1  0.750178  0.236184  0.264083  1
  Pr  Pr1  1  0.750178  0.013994  0.486095  1
  Pr  Pr2  1  0.236073  0.472162  0.486143  1
  Pr  Pr3  1  0.263970  0.750039  0.236035  1
  Pr  Pr4  1  0.027889  0.263945  0.013945  1
  Pr  Pr5  1  0.014604  0.028414  0.263843  1
  Pr  Pr6  1  0.486190  0.750025  0.014039  1
  Pr  Pr7  1  0.486190  0.236165  0.472151  1
  Pr  Pr8  1  0.014604  0.486190  0.750761  1
  Pr  Pr9  1  0.263970  0.013931  0.027935  1
  Pr  Pr10  1  0.236073  0.263911  0.749930  1
  Nd  Nd11  1  0.470838  0.485419  0.235419  1
  P  P12  1  0.250715  0.250705  0.250144  1
  P  P13  1  0.500087  0.000044  0.250044  1
  P  P14  1  0.000043  0.250022  0.500022  1
  P  P15  1  0.250715  0.500011  0.000571  1
  Br  Br16  1  0.250067  0.755463  0.744582  1
  Br  Br17  1  0.510897  0.505449  0.755449  1
  Br  Br18  1  0.989179  0.744589  0.994589  1
  Br  Br19  1  0.744607  0.249976  0.755442  1
  Br  Br20  1  0.994614  0.989173  0.744624  1
  Br  Br21  1  0.250067  0.994604  0.505485  1
  Br  Br22  1  0.753905  0.510817  0.503750  1
  Br  Br23  1  0.505610  0.252119  0.996598  1
  Br  Br24  1  0.753905  0.743088  0.250156  1
  Br  Br25  1  0.744607  0.994631  0.989166  1
  Br  Br26  1  0.994614  0.505442  0.249990  1
  Br  Br27  1  0.505610  0.753491  0.509011  1
