# generated using pymatgen
data_NaYb3(ZnAu)4
_symmetry_space_group_name_H-M   'P 1'
_cell_length_a   4.38680200
_cell_length_b   7.22060536
_cell_length_c   7.98839338
_cell_angle_alpha   90.66530008
_cell_angle_beta   90.00000000
_cell_angle_gamma   90.00000000
_symmetry_Int_Tables_number   1
_chemical_formula_structural   NaYb3(ZnAu)4
_chemical_formula_sum   'Na1 Yb3 Zn4 Au4'
_cell_volume   253.01822589
_cell_formula_units_Z   1
loop_
 _symmetry_equiv_pos_site_id
 _symmetry_equiv_pos_as_xyz
  1  'x, y, z'
loop_
 _atom_site_type_symbol
 _atom_site_label
 _atom_site_symmetry_multiplicity
 _atom_site_fract_x
 _atom_site_fract_y
 _atom_site_fract_z
 _atom_site_occupancy
  Na  Na0  1  0.750000  0.479430  0.810905  1
  Yb  Yb1  1  0.250000  0.022316  0.309584  1
  Yb  Yb2  1  0.750000  0.977816  0.693515  1
  Yb  Yb3  1  0.250000  0.522022  0.183698  1
  Zn  Zn4  1  0.250000  0.651648  0.569513  1
  Zn  Zn5  1  0.250000  0.157679  0.931454  1
  Zn  Zn6  1  0.750000  0.348661  0.434054  1
  Zn  Zn7  1  0.750000  0.842339  0.067784  1
  Au  Au8  1  0.250000  0.780042  0.885813  1
  Au  Au9  1  0.250000  0.267866  0.612019  1
  Au  Au10  1  0.750000  0.726850  0.385144  1
  Au  Au11  1  0.750000  0.223332  0.116518  1
