# generated using pymatgen
data_HfMo(SeO3)4
_symmetry_space_group_name_H-M   'P 1'
_cell_length_a   8.52303851
_cell_length_b   8.42769700
_cell_length_c   8.52970832
_cell_angle_alpha   90.00000000
_cell_angle_beta   90.41631712
_cell_angle_gamma   90.00000000
_symmetry_Int_Tables_number   1
_chemical_formula_structural   HfMo(SeO3)4
_chemical_formula_sum   'Hf2 Mo2 Se8 O24'
_cell_volume   612.66924472
_cell_formula_units_Z   2
loop_
 _symmetry_equiv_pos_site_id
 _symmetry_equiv_pos_as_xyz
  1  'x, y, z'
loop_
 _atom_site_type_symbol
 _atom_site_label
 _atom_site_symmetry_multiplicity
 _atom_site_fract_x
 _atom_site_fract_y
 _atom_site_fract_z
 _atom_site_occupancy
  Hf  Hf0  1  0.500000  0.500000  0.000000  1
  Hf  Hf1  1  0.500000  0.000000  0.500000  1
  Mo  Mo2  1  0.000000  0.000000  0.000000  1
  Mo  Mo3  1  0.000000  0.500000  0.500000  1
  Se  Se4  1  0.836694  0.183849  0.682745  1
  Se  Se5  1  0.163306  0.816151  0.317255  1
  Se  Se6  1  0.690614  0.671539  0.673023  1
  Se  Se7  1  0.163306  0.683849  0.817255  1
  Se  Se8  1  0.309386  0.171539  0.826977  1
  Se  Se9  1  0.836694  0.316151  0.182745  1
  Se  Se10  1  0.690614  0.828461  0.173023  1
  Se  Se11  1  0.309386  0.328461  0.326977  1
  O  O12  1  0.235342  0.459505  0.467343  1
  O  O13  1  0.966088  0.238151  0.045097  1
  O  O14  1  0.033912  0.738151  0.454903  1
  O  O15  1  0.446917  0.267242  0.941131  1
  O  O16  1  0.272961  0.934502  0.439800  1
  O  O17  1  0.571542  0.541752  0.771640  1
  O  O18  1  0.960624  0.040714  0.762708  1
  O  O19  1  0.553083  0.732758  0.058869  1
  O  O20  1  0.571542  0.958248  0.271640  1
  O  O21  1  0.428458  0.041752  0.728360  1
  O  O22  1  0.764658  0.959505  0.032657  1
  O  O23  1  0.272961  0.565498  0.939800  1
  O  O24  1  0.039376  0.540714  0.737292  1
  O  O25  1  0.039376  0.959286  0.237292  1
  O  O26  1  0.235342  0.040495  0.967343  1
  O  O27  1  0.428458  0.458248  0.228360  1
  O  O28  1  0.764658  0.540495  0.532657  1
  O  O29  1  0.960624  0.459286  0.262708  1
  O  O30  1  0.033912  0.761849  0.954903  1
  O  O31  1  0.446917  0.232758  0.441131  1
  O  O32  1  0.553083  0.767242  0.558869  1
  O  O33  1  0.966088  0.261849  0.545097  1
  O  O34  1  0.727039  0.065498  0.560200  1
  O  O35  1  0.727039  0.434502  0.060200  1
