# generated using pymatgen
data_Tb17Y3Ir11Ru
_symmetry_space_group_name_H-M   'P 1'
_cell_length_a   10.92617423
_cell_length_b   10.92263931
_cell_length_c   6.42182018
_cell_angle_alpha   89.97856667
_cell_angle_beta   89.98383419
_cell_angle_gamma   89.98300550
_symmetry_Int_Tables_number   1
_chemical_formula_structural   Tb17Y3Ir11Ru
_chemical_formula_sum   'Tb17 Y3 Ir11 Ru1'
_cell_volume   766.39698503
_cell_formula_units_Z   1
loop_
 _symmetry_equiv_pos_site_id
 _symmetry_equiv_pos_as_xyz
  1  'x, y, z'
loop_
 _atom_site_type_symbol
 _atom_site_label
 _atom_site_symmetry_multiplicity
 _atom_site_fract_x
 _atom_site_fract_y
 _atom_site_fract_z
 _atom_site_occupancy
  Tb  Tb0  1  0.292328  0.087327  0.377699  1
  Tb  Tb1  1  0.292753  0.912562  0.880640  1
  Tb  Tb2  1  0.707278  0.087477  0.880676  1
  Tb  Tb3  1  0.707724  0.912733  0.377876  1
  Tb  Tb4  1  0.587372  0.792661  0.880770  1
  Tb  Tb5  1  0.587283  0.207711  0.377969  1
  Tb  Tb6  1  0.412700  0.792265  0.377901  1
  Tb  Tb7  1  0.412580  0.207331  0.880890  1
  Tb  Tb8  1  0.208828  0.411514  0.621055  1
  Tb  Tb9  1  0.208949  0.588232  0.120627  1
  Tb  Tb10  1  0.791086  0.411586  0.120705  1
  Tb  Tb11  1  0.791089  0.588389  0.621145  1
  Tb  Tb12  1  0.911748  0.708995  0.120625  1
  Tb  Tb13  1  0.999989  0.000033  0.499052  1
  Tb  Tb14  1  0.000059  0.000129  0.998888  1
  Tb  Tb15  1  0.499968  0.499935  0.999089  1
  Tb  Tb16  1  0.500023  0.500032  0.499177  1
  Y  Y17  1  0.911651  0.290996  0.621009  1
  Y  Y18  1  0.088504  0.709063  0.621240  1
  Y  Y19  1  0.088243  0.290863  0.120718  1
  Ir  Ir20  1  0.846891  0.153667  0.249654  1
  Ir  Ir21  1  0.846996  0.846656  0.749761  1
  Ir  Ir22  1  0.152991  0.153182  0.749399  1
  Ir  Ir23  1  0.153001  0.846234  0.249692  1
  Ir  Ir24  1  0.653227  0.346967  0.749804  1
  Ir  Ir25  1  0.653853  0.653045  0.249854  1
  Ir  Ir26  1  0.346308  0.346962  0.250015  1
  Ir  Ir27  1  0.346756  0.653015  0.749822  1
  Ir  Ir28  1  0.500019  0.000023  0.624681  1
  Ir  Ir29  1  0.999873  0.500203  0.877098  1
  Ir  Ir30  1  0.999930  0.500190  0.376700  1
  Ru  Ru31  1  0.499999  0.000020  0.125762  1
