# generated using pymatgen
data_ErCd4In(BiO6)2
_symmetry_space_group_name_H-M   'P 1'
_cell_length_a   6.64448269
_cell_length_b   6.69860893
_cell_length_c   6.69533722
_cell_angle_alpha   90.46962604
_cell_angle_beta   90.37137686
_cell_angle_gamma   90.68630917
_symmetry_Int_Tables_number   1
_chemical_formula_structural   ErCd4In(BiO6)2
_chemical_formula_sum   'Er1 Cd4 In1 Bi2 O12'
_cell_volume   297.96352568
_cell_formula_units_Z   1
loop_
 _symmetry_equiv_pos_site_id
 _symmetry_equiv_pos_as_xyz
  1  'x, y, z'
loop_
 _atom_site_type_symbol
 _atom_site_label
 _atom_site_symmetry_multiplicity
 _atom_site_fract_x
 _atom_site_fract_y
 _atom_site_fract_z
 _atom_site_occupancy
  Er  Er0  1  0.057748  0.748054  0.563891  1
  Cd  Cd1  1  0.560723  0.048620  0.747460  1
  Cd  Cd2  1  0.947341  0.250212  0.439117  1
  Cd  Cd3  1  0.252165  0.435490  0.948748  1
  Cd  Cd4  1  0.438582  0.956742  0.252263  1
  In  In5  1  0.748260  0.565841  0.055328  1
  Bi  Bi6  1  0.505779  0.500321  0.501333  1
  Bi  Bi7  1  0.995871  0.003322  0.002930  1
  O  O8  1  0.026013  0.689788  0.904498  1
  O  O9  1  0.693863  0.894088  0.040308  1
  O  O10  1  0.915076  0.026436  0.694576  1
  O  O11  1  0.943734  0.308113  0.092721  1
  O  O12  1  0.300456  0.092765  0.961324  1
  O  O13  1  0.084676  0.951375  0.303515  1
  O  O14  1  0.810166  0.585031  0.407993  1
  O  O15  1  0.581202  0.432879  0.806505  1
  O  O16  1  0.403458  0.799709  0.564346  1
  O  O17  1  0.197435  0.438059  0.579176  1
  O  O18  1  0.448254  0.572580  0.193614  1
  O  O19  1  0.589201  0.200573  0.440355  1
