# generated using pymatgen
data_Li3Y4Si6Pd
_symmetry_space_group_name_H-M   'P 1'
_cell_length_a   9.23289672
_cell_length_b   9.23289828
_cell_length_c   6.73307414
_cell_angle_alpha   90.25830540
_cell_angle_beta   89.74169577
_cell_angle_gamma   153.41577127
_symmetry_Int_Tables_number   1
_chemical_formula_structural   Li3Y4Si6Pd
_chemical_formula_sum   'Li3 Y4 Si6 Pd1'
_cell_volume   256.85638625
_cell_formula_units_Z   1
loop_
 _symmetry_equiv_pos_site_id
 _symmetry_equiv_pos_as_xyz
  1  'x, y, z'
loop_
 _atom_site_type_symbol
 _atom_site_label
 _atom_site_symmetry_multiplicity
 _atom_site_fract_x
 _atom_site_fract_y
 _atom_site_fract_z
 _atom_site_occupancy
  Li  Li0  1  0.190205  0.809795  0.439678  1
  Li  Li1  1  0.190052  0.809948  0.060080  1
  Li  Li2  1  0.812328  0.187672  0.938197  1
  Y  Y3  1  0.550603  0.449397  0.252958  1
  Y  Y4  1  0.447209  0.552791  0.750453  1
  Y  Y5  1  0.343674  0.656326  0.248066  1
  Y  Y6  1  0.656169  0.343831  0.746196  1
  Si  Si7  1  0.941209  0.058791  0.075005  1
  Si  Si8  1  0.059663  0.940337  0.928493  1
  Si  Si9  1  0.058381  0.941619  0.574325  1
  Si  Si10  1  0.937899  0.062101  0.430229  1
  Si  Si11  1  0.721538  0.278462  0.255207  1
  Si  Si12  1  0.280822  0.719178  0.740569  1
  Pd  Pd13  1  0.810248  0.189752  0.560542  1
