# generated using pymatgen
data_Nd8In4PtAu7
_symmetry_space_group_name_H-M   'P 1'
_cell_length_a   8.18706607
_cell_length_b   8.18706477
_cell_length_c   7.67148207
_cell_angle_alpha   90.03751131
_cell_angle_beta   90.03751328
_cell_angle_gamma   90.21096761
_symmetry_Int_Tables_number   1
_chemical_formula_structural   Nd8In4PtAu7
_chemical_formula_sum   'Nd8 In4 Pt1 Au7'
_cell_volume   514.20070159
_cell_formula_units_Z   1
loop_
 _symmetry_equiv_pos_site_id
 _symmetry_equiv_pos_as_xyz
  1  'x, y, z'
loop_
 _atom_site_type_symbol
 _atom_site_label
 _atom_site_symmetry_multiplicity
 _atom_site_fract_x
 _atom_site_fract_y
 _atom_site_fract_z
 _atom_site_occupancy
  Nd  Nd0  1  0.174184  0.174184  0.005543  1
  Nd  Nd1  1  0.833007  0.833007  0.998523  1
  Nd  Nd2  1  0.662215  0.328483  0.495844  1
  Nd  Nd3  1  0.328483  0.662215  0.495844  1
  Nd  Nd4  1  0.668731  0.322016  0.003756  1
  Nd  Nd5  1  0.322016  0.668731  0.003756  1
  Nd  Nd6  1  0.825746  0.825746  0.501421  1
  Nd  Nd7  1  0.180365  0.180365  0.494756  1
  In  In8  1  0.498960  0.000901  0.250105  1
  In  In9  1  0.499198  0.997202  0.749602  1
  In  In10  1  0.000901  0.498960  0.250105  1
  In  In11  1  0.997202  0.499198  0.749602  1
  Pt  Pt12  1  0.374001  0.374001  0.245167  1
  Au  Au13  1  0.626892  0.626892  0.756740  1
  Au  Au14  1  0.629012  0.629012  0.242673  1
  Au  Au15  1  0.874584  0.130870  0.743179  1
  Au  Au16  1  0.873259  0.128022  0.256867  1
  Au  Au17  1  0.372352  0.372352  0.756471  1
  Au  Au18  1  0.128022  0.873259  0.256867  1
  Au  Au19  1  0.130870  0.874584  0.743179  1
