# generated using pymatgen
data_Nd3Ho5Cd2IrRu
_symmetry_space_group_name_H-M   'P 1'
_cell_length_a   9.71515064
_cell_length_b   9.71515061
_cell_length_c   9.76186500
_cell_angle_alpha   59.84080790
_cell_angle_beta   59.84080802
_cell_angle_gamma   59.75399436
_symmetry_Int_Tables_number   1
_chemical_formula_structural   Nd3Ho5Cd2IrRu
_chemical_formula_sum   'Nd6 Ho10 Cd4 Ir2 Ru2'
_cell_volume   648.72050816
_cell_formula_units_Z   2
loop_
 _symmetry_equiv_pos_site_id
 _symmetry_equiv_pos_as_xyz
  1  'x, y, z'
loop_
 _atom_site_type_symbol
 _atom_site_label
 _atom_site_symmetry_multiplicity
 _atom_site_fract_x
 _atom_site_fract_y
 _atom_site_fract_z
 _atom_site_occupancy
  Nd  Nd0  1  0.940599  0.557249  0.560157  1
  Nd  Nd1  1  0.557249  0.940599  0.941995  1
  Nd  Nd2  1  0.557249  0.940599  0.560157  1
  Nd  Nd3  1  0.940599  0.557249  0.941995  1
  Nd  Nd4  1  0.559467  0.559467  0.940533  1
  Nd  Nd5  1  0.942046  0.942046  0.557954  1
  Ho  Ho6  1  0.346480  0.346480  0.346280  1
  Ho  Ho7  1  0.346480  0.346480  0.960758  1
  Ho  Ho8  1  0.346330  0.961601  0.346034  1
  Ho  Ho9  1  0.961601  0.346330  0.346034  1
  Ho  Ho10  1  0.813984  0.186871  0.187115  1
  Ho  Ho11  1  0.186871  0.813984  0.812029  1
  Ho  Ho12  1  0.186871  0.813984  0.187115  1
  Ho  Ho13  1  0.813984  0.186871  0.812029  1
  Ho  Ho14  1  0.186529  0.186529  0.813471  1
  Ho  Ho15  1  0.812167  0.812167  0.187833  1
  Cd  Cd16  1  0.579089  0.579089  0.579318  1
  Cd  Cd17  1  0.579089  0.579089  0.262504  1
  Cd  Cd18  1  0.579232  0.261718  0.579525  1
  Cd  Cd19  1  0.261718  0.579232  0.579525  1
  Ir  Ir20  1  0.142442  0.578171  0.139693  1
  Ir  Ir21  1  0.578171  0.142442  0.139693  1
  Ru  Ru22  1  0.140875  0.140875  0.138766  1
  Ru  Ru23  1  0.140875  0.140875  0.579482  1
