# generated using pymatgen
data_Dy5YB14MoW
_symmetry_space_group_name_H-M   'P 1'
_cell_length_a   8.18561600
_cell_length_b   8.18561581
_cell_length_c   9.49288800
_cell_angle_alpha   90.00000000
_cell_angle_beta   90.00000000
_cell_angle_gamma   155.56474188
_symmetry_Int_Tables_number   1
_chemical_formula_structural   Dy5YB14MoW
_chemical_formula_sum   'Dy5 Y1 B14 Mo1 W1'
_cell_volume   263.11742217
_cell_formula_units_Z   1
loop_
 _symmetry_equiv_pos_site_id
 _symmetry_equiv_pos_as_xyz
  1  'x, y, z'
loop_
 _atom_site_type_symbol
 _atom_site_label
 _atom_site_symmetry_multiplicity
 _atom_site_fract_x
 _atom_site_fract_y
 _atom_site_fract_z
 _atom_site_occupancy
  Dy  Dy0  1  0.892940  0.107060  0.439182  1
  Dy  Dy1  1  0.107062  0.892938  0.559925  1
  Dy  Dy2  1  0.892940  0.107060  0.060818  1
  Dy  Dy3  1  0.107062  0.892938  0.940075  1
  Dy  Dy4  1  0.244340  0.755660  0.250000  1
  Y  Y5  1  0.755050  0.244950  0.750000  1
  B  B6  1  0.727414  0.272586  0.467333  1
  B  B7  1  0.272549  0.727451  0.532443  1
  B  B8  1  0.727414  0.272586  0.032667  1
  B  B9  1  0.272549  0.727451  0.967557  1
  B  B10  1  0.635033  0.364967  0.147402  1
  B  B11  1  0.365085  0.634915  0.852878  1
  B  B12  1  0.635033  0.364967  0.352598  1
  B  B13  1  0.365085  0.634915  0.647122  1
  B  B14  1  0.519814  0.480186  0.091990  1
  B  B15  1  0.480259  0.519741  0.908365  1
  B  B16  1  0.519814  0.480186  0.408010  1
  B  B17  1  0.480259  0.519741  0.591635  1
  B  B18  1  0.456077  0.543923  0.250000  1
  B  B19  1  0.544190  0.455810  0.750000  1
  Mo  Mo20  1  0.053297  0.946703  0.250000  1
  W  W21  1  0.946731  0.053269  0.750000  1
