# generated using pymatgen
data_Sr7CeSb6
_symmetry_space_group_name_H-M   'P 1'
_cell_length_a   8.63040585
_cell_length_b   8.63040556
_cell_length_c   8.63040577
_cell_angle_alpha   109.77385680
_cell_angle_beta   109.77386077
_cell_angle_gamma   109.77386210
_symmetry_Int_Tables_number   1
_chemical_formula_structural   Sr7CeSb6
_chemical_formula_sum   'Sr7 Ce1 Sb6'
_cell_volume   489.22465956
_cell_formula_units_Z   1
loop_
 _symmetry_equiv_pos_site_id
 _symmetry_equiv_pos_as_xyz
  1  'x, y, z'
loop_
 _atom_site_type_symbol
 _atom_site_label
 _atom_site_symmetry_multiplicity
 _atom_site_fract_x
 _atom_site_fract_y
 _atom_site_fract_z
 _atom_site_occupancy
  Sr  Sr0  1  0.497310  0.003574  0.862225  1
  Sr  Sr1  1  0.862225  0.497310  0.003574  1
  Sr  Sr2  1  0.143723  0.143723  0.143723  1
  Sr  Sr3  1  0.003574  0.862225  0.497310  1
  Sr  Sr4  1  0.498395  0.999498  0.353857  1
  Sr  Sr5  1  0.999498  0.353857  0.498395  1
  Sr  Sr6  1  0.353857  0.498395  0.999498  1
  Ce  Ce7  1  0.644188  0.644188  0.644188  1
  Sb  Sb8  1  0.744244  0.864507  0.106528  1
  Sb  Sb9  1  0.387601  0.267230  0.627121  1
  Sb  Sb10  1  0.267230  0.627121  0.387601  1
  Sb  Sb11  1  0.864507  0.106528  0.744244  1
  Sb  Sb12  1  0.627121  0.387601  0.267230  1
  Sb  Sb13  1  0.106528  0.744244  0.864507  1
