# generated using pymatgen
data_Rb8Li4Er3TmBi8
_symmetry_space_group_name_H-M   'P 1'
_cell_length_a   11.35345712
_cell_length_b   11.35345848
_cell_length_c   7.35919507
_cell_angle_alpha   89.99754442
_cell_angle_beta   90.00245368
_cell_angle_gamma   99.46168616
_symmetry_Int_Tables_number   1
_chemical_formula_structural   Rb8Li4Er3TmBi8
_chemical_formula_sum   'Rb8 Li4 Er3 Tm1 Bi8'
_cell_volume   935.70253526
_cell_formula_units_Z   1
loop_
 _symmetry_equiv_pos_site_id
 _symmetry_equiv_pos_as_xyz
  1  'x, y, z'
loop_
 _atom_site_type_symbol
 _atom_site_label
 _atom_site_symmetry_multiplicity
 _atom_site_fract_x
 _atom_site_fract_y
 _atom_site_fract_z
 _atom_site_occupancy
  Rb  Rb0  1  0.571047  0.929225  0.750106  1
  Rb  Rb1  1  0.929225  0.571047  0.249894  1
  Rb  Rb2  1  0.429273  0.070623  0.249893  1
  Rb  Rb3  1  0.070623  0.429273  0.750107  1
  Rb  Rb4  1  0.675839  0.324243  0.786435  1
  Rb  Rb5  1  0.824160  0.175576  0.286348  1
  Rb  Rb6  1  0.324243  0.675839  0.213565  1
  Rb  Rb7  1  0.175576  0.824160  0.713652  1
  Li  Li8  1  0.621051  0.621051  0.000000  1
  Li  Li9  1  0.879167  0.879167  0.500000  1
  Li  Li10  1  0.379189  0.379189  0.000000  1
  Li  Li11  1  0.120523  0.120523  0.500000  1
  Er  Er12  1  0.629879  0.629879  0.500000  1
  Er  Er13  1  0.129535  0.129535  0.000000  1
  Er  Er14  1  0.370223  0.370223  0.500000  1
  Tm  Tm15  1  0.870492  0.870492  0.000000  1
  Bi  Bi16  1  0.347330  0.152450  0.749978  1
  Bi  Bi17  1  0.152450  0.347330  0.250022  1
  Bi  Bi18  1  0.653154  0.847486  0.249413  1
  Bi  Bi19  1  0.847486  0.653154  0.750587  1
  Bi  Bi20  1  0.904017  0.095344  0.759918  1
  Bi  Bi21  1  0.595813  0.404363  0.259777  1
  Bi  Bi22  1  0.095344  0.904017  0.240082  1
  Bi  Bi23  1  0.404363  0.595813  0.740223  1
