# generated using pymatgen
data_Pr12CoGeI17
_symmetry_space_group_name_H-M   'P 1'
_cell_length_a   10.05464363
_cell_length_b   12.04570934
_cell_length_c   11.92242799
_cell_angle_alpha   93.67588635
_cell_angle_beta   104.75578483
_cell_angle_gamma   115.09410519
_symmetry_Int_Tables_number   1
_chemical_formula_structural   Pr12CoGeI17
_chemical_formula_sum   'Pr12 Co1 Ge1 I17'
_cell_volume   1239.89849381
_cell_formula_units_Z   1
loop_
 _symmetry_equiv_pos_site_id
 _symmetry_equiv_pos_as_xyz
  1  'x, y, z'
loop_
 _atom_site_type_symbol
 _atom_site_label
 _atom_site_symmetry_multiplicity
 _atom_site_fract_x
 _atom_site_fract_y
 _atom_site_fract_z
 _atom_site_occupancy
  Pr  Pr0  1  0.063040  0.521453  0.330597  1
  Pr  Pr1  1  0.989587  0.807370  0.581988  1
  Pr  Pr2  1  0.632451  0.239345  0.283253  1
  Pr  Pr3  1  0.012586  0.187916  0.425365  1
  Pr  Pr4  1  0.224472  0.670781  0.991846  1
  Pr  Pr5  1  0.264300  0.985285  0.896767  1
  Pr  Pr6  1  0.355126  0.759886  0.715889  1
  Pr  Pr7  1  0.942980  0.487725  0.676391  1
  Pr  Pr8  1  0.726063  0.003206  0.097491  1
  Pr  Pr9  1  0.159586  0.289037  0.146097  1
  Pr  Pr10  1  0.777723  0.335462  0.998367  1
  Pr  Pr11  1  0.851029  0.710302  0.852743  1
  Co  Co12  1  0.104784  0.737401  0.786665  1
  Ge  Ge13  1  0.894713  0.262368  0.213808  1
  I  I14  1  0.777072  0.525705  0.414222  1
  I  I15  1  0.630290  0.417483  0.747198  1
  I  I16  1  0.839891  0.895140  0.322517  1
  I  I17  1  0.324166  0.213011  0.371777  1
  I  I18  1  0.157944  0.104283  0.677904  1
  I  I19  1  0.590021  0.056842  0.837622  1
  I  I20  1  0.749433  0.177839  0.537816  1
  I  I21  1  0.544683  0.694726  0.951868  1
  I  I22  1  0.362592  0.582392  0.247335  1
  I  I23  1  0.221728  0.470091  0.582728  1
  I  I24  1  0.059935  0.365115  0.894188  1
  I  I25  1  0.458128  0.301771  0.043701  1
  I  I26  1  0.000221  0.000756  0.002872  1
  I  I27  1  0.253624  0.829454  0.461842  1
  I  I28  1  0.413412  0.947695  0.166642  1
  I  I29  1  0.674466  0.787228  0.632529  1
  I  I30  1  0.943953  0.632936  0.109973  1
