# generated using pymatgen
data_Yb(CuAu2)4
_symmetry_space_group_name_H-M   'P 1'
_cell_length_a   7.00342161
_cell_length_b   7.00342151
_cell_length_c   7.00342175
_cell_angle_alpha   98.21588393
_cell_angle_beta   98.21588270
_cell_angle_gamma   135.57713458
_symmetry_Int_Tables_number   1
_chemical_formula_structural   Yb(CuAu2)4
_chemical_formula_sum   'Yb1 Cu4 Au8'
_cell_volume   222.59313064
_cell_formula_units_Z   1
loop_
 _symmetry_equiv_pos_site_id
 _symmetry_equiv_pos_as_xyz
  1  'x, y, z'
loop_
 _atom_site_type_symbol
 _atom_site_label
 _atom_site_symmetry_multiplicity
 _atom_site_fract_x
 _atom_site_fract_y
 _atom_site_fract_z
 _atom_site_occupancy
  Yb  Yb0  1  0.000000  0.000000  0.000000  1
  Cu  Cu1  1  0.000000  0.000000  0.500000  1
  Cu  Cu2  1  0.500000  0.500000  0.500000  1
  Cu  Cu3  1  0.500000  0.000000  0.000000  1
  Cu  Cu4  1  0.000000  0.500000  0.000000  1
  Au  Au5  1  0.000000  0.336822  0.336822  1
  Au  Au6  1  0.000000  0.663178  0.663178  1
  Au  Au7  1  0.663178  0.000000  0.663178  1
  Au  Au8  1  0.336822  0.000000  0.336822  1
  Au  Au9  1  0.500000  0.280110  0.780110  1
  Au  Au10  1  0.500000  0.719890  0.219890  1
  Au  Au11  1  0.719890  0.500000  0.219890  1
  Au  Au12  1  0.280110  0.500000  0.780110  1
