# generated using pymatgen
data_Tb4Mg3Sc(B6Ir)4
_symmetry_space_group_name_H-M   'P 1'
_cell_length_a   3.56514600
_cell_length_b   8.95721680
_cell_length_c   11.35647601
_cell_angle_alpha   90.04836292
_cell_angle_beta   90.00000000
_cell_angle_gamma   90.00000000
_symmetry_Int_Tables_number   1
_chemical_formula_structural   Tb4Mg3Sc(B6Ir)4
_chemical_formula_sum   'Tb4 Mg3 Sc1 B24 Ir4'
_cell_volume   362.65514135
_cell_formula_units_Z   1
loop_
 _symmetry_equiv_pos_site_id
 _symmetry_equiv_pos_as_xyz
  1  'x, y, z'
loop_
 _atom_site_type_symbol
 _atom_site_label
 _atom_site_symmetry_multiplicity
 _atom_site_fract_x
 _atom_site_fract_y
 _atom_site_fract_z
 _atom_site_occupancy
  Tb  Tb0  1  0.500000  0.319230  0.415026  1
  Tb  Tb1  1  0.500000  0.680413  0.586497  1
  Tb  Tb2  1  0.500000  0.181309  0.913944  1
  Tb  Tb3  1  0.500000  0.818797  0.084631  1
  Mg  Mg4  1  0.500000  0.448336  0.118102  1
  Mg  Mg5  1  0.500000  0.551601  0.881419  1
  Mg  Mg6  1  0.500000  0.053072  0.620990  1
  Sc  Sc7  1  0.500000  0.946108  0.377845  1
  B  B8  1  0.000000  0.101071  0.473155  1
  B  B9  1  0.000000  0.899360  0.527223  1
  B  B10  1  0.000000  0.400009  0.973025  1
  B  B11  1  0.000000  0.599875  0.026763  1
  B  B12  1  0.000000  0.129596  0.319265  1
  B  B13  1  0.000000  0.871286  0.682019  1
  B  B14  1  0.000000  0.372119  0.819203  1
  B  B15  1  0.000000  0.627960  0.180129  1
  B  B16  1  0.000000  0.056666  0.066492  1
  B  B17  1  0.000000  0.943972  0.932664  1
  B  B18  1  0.000000  0.444268  0.567571  1
  B  B19  1  0.000000  0.555651  0.433397  1
  B  B20  1  0.000000  0.481740  0.284190  1
  B  B21  1  0.000000  0.517835  0.715717  1
  B  B22  1  0.000000  0.018451  0.784569  1
  B  B23  1  0.000000  0.981981  0.215467  1
  B  B24  1  0.000000  0.255763  0.079701  1
  B  B25  1  0.000000  0.744272  0.919388  1
  B  B26  1  0.000000  0.245513  0.581053  1
  B  B27  1  0.000000  0.754507  0.420563  1
  B  B28  1  0.000000  0.295192  0.234626  1
  B  B29  1  0.000000  0.705372  0.765609  1
  B  B30  1  0.000000  0.206072  0.735014  1
  B  B31  1  0.000000  0.793575  0.265041  1
  Ir  Ir32  1  0.500000  0.141481  0.182330  1
  Ir  Ir33  1  0.500000  0.859366  0.817129  1
  Ir  Ir34  1  0.500000  0.358762  0.681686  1
  Ir  Ir35  1  0.500000  0.639420  0.318556  1
