# generated using pymatgen
data_Sr8As5I
_symmetry_space_group_name_H-M   'P 1'
_cell_length_a   8.33235784
_cell_length_b   8.33237256
_cell_length_c   8.33235964
_cell_angle_alpha   109.27850537
_cell_angle_beta   109.27777784
_cell_angle_gamma   109.85792733
_symmetry_Int_Tables_number   1
_chemical_formula_structural   Sr8As5I
_chemical_formula_sum   'Sr8 As5 I1'
_cell_volume   445.31634165
_cell_formula_units_Z   1
loop_
 _symmetry_equiv_pos_site_id
 _symmetry_equiv_pos_as_xyz
  1  'x, y, z'
loop_
 _atom_site_type_symbol
 _atom_site_label
 _atom_site_symmetry_multiplicity
 _atom_site_fract_x
 _atom_site_fract_y
 _atom_site_fract_z
 _atom_site_occupancy
  Sr  Sr0  1  0.479616  0.990074  0.340827  1
  Sr  Sr1  1  0.621010  0.610548  0.624157  1
  Sr  Sr2  1  0.003146  0.378990  0.489537  1
  Sr  Sr3  1  0.389452  0.513608  0.010462  1
  Sr  Sr4  1  0.009925  0.850756  0.489544  1
  Sr  Sr5  1  0.861214  0.520386  0.010460  1
  Sr  Sr6  1  0.486388  0.996852  0.875843  1
  Sr  Sr7  1  0.149248  0.138787  0.159172  1
  As  As8  1  0.376515  0.241859  0.629790  1
  As  As9  1  0.112070  0.746724  0.870209  1
  As  As10  1  0.758140  0.887929  0.134654  1
  As  As11  1  0.253278  0.623487  0.365345  1
  As  As12  1  0.624998  0.374999  0.250001  1
  I  I13  1  0.875000  0.125002  0.750000  1
