# generated using pymatgen
data_Tm7LuSc12Tl7Si9
_symmetry_space_group_name_H-M   'P 1'
_cell_length_a   7.31894670
_cell_length_b   7.38792378
_cell_length_c   14.89503168
_cell_angle_alpha   89.92644752
_cell_angle_beta   89.29307214
_cell_angle_gamma   90.22505682
_symmetry_Int_Tables_number   1
_chemical_formula_structural   Tm7LuSc12Tl7Si9
_chemical_formula_sum   'Tm7 Lu1 Sc12 Tl7 Si9'
_cell_volume   805.33324706
_cell_formula_units_Z   1
loop_
 _symmetry_equiv_pos_site_id
 _symmetry_equiv_pos_as_xyz
  1  'x, y, z'
loop_
 _atom_site_type_symbol
 _atom_site_label
 _atom_site_symmetry_multiplicity
 _atom_site_fract_x
 _atom_site_fract_y
 _atom_site_fract_z
 _atom_site_occupancy
  Tm  Tm0  1  0.014684  0.829057  0.895642  1
  Tm  Tm1  1  0.506117  0.677924  0.895437  1
  Tm  Tm2  1  0.013221  0.826203  0.616993  1
  Tm  Tm3  1  0.487303  0.319425  0.107328  1
  Tm  Tm4  1  0.987551  0.173119  0.381798  1
  Tm  Tm5  1  0.485917  0.321553  0.381414  1
  Tm  Tm6  1  0.513672  0.676001  0.617644  1
  Lu  Lu7  1  0.000911  0.163750  0.104983  1
  Sc  Sc8  1  0.185300  0.498927  0.753829  1
  Sc  Sc9  1  0.816950  0.501551  0.244111  1
  Sc  Sc10  1  0.312798  0.998535  0.241144  1
  Sc  Sc11  1  0.684770  0.002833  0.754113  1
  Sc  Sc12  1  0.355328  0.165274  0.640101  1
  Sc  Sc13  1  0.644781  0.834373  0.359618  1
  Sc  Sc14  1  0.143017  0.666230  0.359052  1
  Sc  Sc15  1  0.639805  0.834284  0.133011  1
  Sc  Sc16  1  0.853552  0.336265  0.640998  1
  Sc  Sc17  1  0.346518  0.160354  0.871403  1
  Sc  Sc18  1  0.848513  0.335742  0.866156  1
  Sc  Sc19  1  0.159973  0.676265  0.128485  1
  Tl  Tl20  1  0.194979  0.458548  0.531589  1
  Tl  Tl21  1  0.802985  0.537486  0.467192  1
  Tl  Tl22  1  0.304887  0.956497  0.467568  1
  Tl  Tl23  1  0.812901  0.545629  0.037069  1
  Tl  Tl24  1  0.695546  0.041960  0.531904  1
  Tl  Tl25  1  0.182688  0.454773  0.964204  1
  Tl  Tl26  1  0.682493  0.047492  0.966082  1
  Si  Si27  1  0.049517  0.120402  0.753365  1
  Si  Si28  1  0.948943  0.877801  0.245806  1
  Si  Si29  1  0.449379  0.615995  0.247295  1
  Si  Si30  1  0.547062  0.380085  0.754169  1
  Si  Si31  1  0.309570  0.863377  0.754760  1
  Si  Si32  1  0.694333  0.135727  0.244672  1
  Si  Si33  1  0.189698  0.364693  0.244621  1
  Si  Si34  1  0.809304  0.639738  0.755083  1
  Si  Si35  1  0.325034  0.962133  0.041369  1
