# generated using pymatgen
data_Dy2Th5Sn23Ru6
_symmetry_space_group_name_H-M   'P 1'
_cell_length_a   9.93149225
_cell_length_b   9.95036623
_cell_length_c   10.22566384
_cell_angle_alpha   90.00000215
_cell_angle_beta   89.64805879
_cell_angle_gamma   120.06288076
_symmetry_Int_Tables_number   1
_chemical_formula_structural   Dy2Th5Sn23Ru6
_chemical_formula_sum   'Dy2 Th5 Sn23 Ru6'
_cell_volume   874.55927226
_cell_formula_units_Z   1
loop_
 _symmetry_equiv_pos_site_id
 _symmetry_equiv_pos_as_xyz
  1  'x, y, z'
loop_
 _atom_site_type_symbol
 _atom_site_label
 _atom_site_symmetry_multiplicity
 _atom_site_fract_x
 _atom_site_fract_y
 _atom_site_fract_z
 _atom_site_occupancy
  Dy  Dy0  1  0.036291  0.518145  0.303638  1
  Dy  Dy1  1  0.963709  0.481855  0.696362  1
  Th  Th2  1  0.000000  0.000000  0.000000  1
  Th  Th3  1  0.483126  0.517644  0.303595  1
  Th  Th4  1  0.516874  0.482356  0.696405  1
  Th  Th5  1  0.483126  0.965483  0.303595  1
  Th  Th6  1  0.516874  0.034517  0.696405  1
  Sn  Sn7  1  0.350776  0.000307  0.001211  1
  Sn  Sn8  1  0.649224  0.999693  0.998789  1
  Sn  Sn9  1  0.000000  0.350790  0.000000  1
  Sn  Sn10  1  0.000000  0.649210  0.000000  1
  Sn  Sn11  1  0.649224  0.649531  0.998789  1
  Sn  Sn12  1  0.350776  0.350469  0.001211  1
  Sn  Sn13  1  0.329952  0.664977  0.823588  1
  Sn  Sn14  1  0.670048  0.335023  0.176412  1
  Sn  Sn15  1  0.000000  0.000000  0.500000  1
  Sn  Sn16  1  0.789122  0.224932  0.459846  1
  Sn  Sn17  1  0.210878  0.775068  0.540154  1
  Sn  Sn18  1  0.789122  0.564191  0.459846  1
  Sn  Sn19  1  0.210878  0.435809  0.540154  1
  Sn  Sn20  1  0.435008  0.217505  0.461738  1
  Sn  Sn21  1  0.564992  0.782495  0.538262  1
  Sn  Sn22  1  0.328751  0.664376  0.116532  1
  Sn  Sn23  1  0.671249  0.335624  0.883468  1
  Sn  Sn24  1  0.113226  0.879687  0.277578  1
  Sn  Sn25  1  0.886774  0.120313  0.722422  1
  Sn  Sn26  1  0.113226  0.233538  0.277578  1
  Sn  Sn27  1  0.886774  0.766462  0.722422  1
  Sn  Sn28  1  0.772314  0.886157  0.279573  1
  Sn  Sn29  1  0.227686  0.113843  0.720427  1
  Ru  Ru30  1  0.827293  0.166037  0.199578  1
  Ru  Ru31  1  0.172707  0.833963  0.800422  1
  Ru  Ru32  1  0.827293  0.661255  0.199578  1
  Ru  Ru33  1  0.172707  0.338745  0.800422  1
  Ru  Ru34  1  0.338038  0.169019  0.201794  1
  Ru  Ru35  1  0.661962  0.830981  0.798206  1
