# generated using pymatgen
data_Pr3MnFeCo7P6
_symmetry_space_group_name_H-M   'P 1'
_cell_length_a   3.77400800
_cell_length_b   10.74310200
_cell_length_c   12.38662100
_cell_angle_alpha   90.00000000
_cell_angle_beta   90.00000000
_cell_angle_gamma   90.00000000
_symmetry_Int_Tables_number   1
_chemical_formula_structural   Pr3MnFeCo7P6
_chemical_formula_sum   'Pr6 Mn2 Fe2 Co14 P12'
_cell_volume   502.21001030
_cell_formula_units_Z   2
loop_
 _symmetry_equiv_pos_site_id
 _symmetry_equiv_pos_as_xyz
  1  'x, y, z'
loop_
 _atom_site_type_symbol
 _atom_site_label
 _atom_site_symmetry_multiplicity
 _atom_site_fract_x
 _atom_site_fract_y
 _atom_site_fract_z
 _atom_site_occupancy
  Pr  Pr0  1  0.000000  0.500000  0.521986  1
  Pr  Pr1  1  0.500000  0.000000  0.478014  1
  Pr  Pr2  1  0.500000  0.819955  0.204992  1
  Pr  Pr3  1  0.500000  0.180045  0.204992  1
  Pr  Pr4  1  0.000000  0.680045  0.795008  1
  Pr  Pr5  1  0.000000  0.319955  0.795008  1
  Mn  Mn6  1  0.500000  0.500000  0.150993  1
  Mn  Mn7  1  0.000000  0.000000  0.849007  1
  Fe  Fe8  1  0.000000  0.500000  0.990420  1
  Fe  Fe9  1  0.500000  0.000000  0.009580  1
  Co  Co10  1  0.500000  0.500000  0.703173  1
  Co  Co11  1  0.000000  0.000000  0.296827  1
  Co  Co12  1  0.500000  0.332282  0.996570  1
  Co  Co13  1  0.500000  0.667718  0.996570  1
  Co  Co14  1  0.000000  0.167718  0.003430  1
  Co  Co15  1  0.000000  0.832282  0.003430  1
  Co  Co16  1  0.500000  0.296775  0.429952  1
  Co  Co17  1  0.500000  0.703225  0.429952  1
  Co  Co18  1  0.000000  0.203225  0.570048  1
  Co  Co19  1  0.000000  0.796775  0.570048  1
  Co  Co20  1  0.500000  0.881050  0.710517  1
  Co  Co21  1  0.500000  0.118950  0.710517  1
  Co  Co22  1  0.000000  0.618950  0.289483  1
  Co  Co23  1  0.000000  0.381050  0.289483  1
  P  P24  1  0.500000  0.500000  0.889704  1
  P  P25  1  0.000000  0.000000  0.110296  1
  P  P26  1  0.500000  0.500000  0.340347  1
  P  P27  1  0.000000  0.000000  0.659653  1
  P  P28  1  0.500000  0.304781  0.613936  1
  P  P29  1  0.500000  0.695219  0.613936  1
  P  P30  1  0.000000  0.195219  0.386064  1
  P  P31  1  0.000000  0.804781  0.386064  1
  P  P32  1  0.500000  0.846931  0.896540  1
  P  P33  1  0.500000  0.153069  0.896540  1
  P  P34  1  0.000000  0.653069  0.103460  1
  P  P35  1  0.000000  0.346931  0.103460  1
