# generated using pymatgen
data_PrTh3(InPt2)2
_symmetry_space_group_name_H-M   'P 1'
_cell_length_a   8.02836800
_cell_length_b   8.02836851
_cell_length_c   3.79693800
_cell_angle_alpha   90.00000000
_cell_angle_beta   90.00000000
_cell_angle_gamma   89.01833213
_symmetry_Int_Tables_number   1
_chemical_formula_structural   PrTh3(InPt2)2
_chemical_formula_sum   'Pr1 Th3 In2 Pt4'
_cell_volume   244.69456798
_cell_formula_units_Z   1
loop_
 _symmetry_equiv_pos_site_id
 _symmetry_equiv_pos_as_xyz
  1  'x, y, z'
loop_
 _atom_site_type_symbol
 _atom_site_label
 _atom_site_symmetry_multiplicity
 _atom_site_fract_x
 _atom_site_fract_y
 _atom_site_fract_z
 _atom_site_occupancy
  Pr  Pr0  1  0.675277  0.175277  0.500000  1
  Th  Th1  1  0.328335  0.828335  0.500000  1
  Th  Th2  1  0.825638  0.672320  0.500000  1
  Th  Th3  1  0.172320  0.325638  0.500000  1
  In  In4  1  0.996827  0.999519  0.000000  1
  In  In5  1  0.499519  0.496827  0.000000  1
  Pt  Pt6  1  0.362073  0.124914  0.000000  1
  Pt  Pt7  1  0.880338  0.380338  0.000000  1
  Pt  Pt8  1  0.134758  0.634758  0.000000  1
  Pt  Pt9  1  0.624914  0.862073  0.000000  1
