# generated using pymatgen
data_LuPaInCo2
_symmetry_space_group_name_H-M   'P 1'
_cell_length_a   7.49078300
_cell_length_b   7.24035700
_cell_length_c   3.50498400
_cell_angle_alpha   90.00000000
_cell_angle_beta   90.00000000
_cell_angle_gamma   90.00000000
_symmetry_Int_Tables_number   1
_chemical_formula_structural   LuPaInCo2
_chemical_formula_sum   'Lu2 Pa2 In2 Co4'
_cell_volume   190.09611289
_cell_formula_units_Z   2
loop_
 _symmetry_equiv_pos_site_id
 _symmetry_equiv_pos_as_xyz
  1  'x, y, z'
loop_
 _atom_site_type_symbol
 _atom_site_label
 _atom_site_symmetry_multiplicity
 _atom_site_fract_x
 _atom_site_fract_y
 _atom_site_fract_z
 _atom_site_occupancy
  Lu  Lu0  1  0.833270  0.664103  0.500000  1
  Lu  Lu1  1  0.333270  0.835897  0.500000  1
  Pa  Pa2  1  0.678775  0.162331  0.500000  1
  Pa  Pa3  1  0.178775  0.337669  0.500000  1
  In  In4  1  0.009393  0.984095  0.000000  1
  In  In5  1  0.509393  0.515905  0.000000  1
  Co  Co6  1  0.353278  0.153914  0.000000  1
  Co  Co7  1  0.125284  0.584227  0.000000  1
  Co  Co8  1  0.625284  0.915773  0.000000  1
  Co  Co9  1  0.853278  0.346086  0.000000  1
