# generated using pymatgen
data_Ta4TiSb4
_symmetry_space_group_name_H-M   'P 1'
_cell_length_a   3.56280506
_cell_length_b   7.56444703
_cell_length_c   7.51795169
_cell_angle_alpha   93.95812409
_cell_angle_beta   76.28412622
_cell_angle_gamma   103.62108915
_symmetry_Int_Tables_number   1
_chemical_formula_structural   Ta4TiSb4
_chemical_formula_sum   'Ta4 Ti1 Sb4'
_cell_volume   191.28105242
_cell_formula_units_Z   1
loop_
 _symmetry_equiv_pos_site_id
 _symmetry_equiv_pos_as_xyz
  1  'x, y, z'
loop_
 _atom_site_type_symbol
 _atom_site_label
 _atom_site_symmetry_multiplicity
 _atom_site_fract_x
 _atom_site_fract_y
 _atom_site_fract_z
 _atom_site_occupancy
  Ta  Ta0  1  0.000377  0.000500  0.000484  1
  Ta  Ta1  1  0.311628  0.942007  0.316023  1
  Ta  Ta2  1  0.688395  0.057424  0.683319  1
  Ta  Ta3  1  0.379303  0.696426  0.937435  1
  Ti  Ti4  1  0.624936  0.312173  0.063090  1
  Sb  Sb5  1  0.704493  0.649387  0.239411  1
  Sb  Sb6  1  0.947708  0.243398  0.346413  1
  Sb  Sb7  1  0.053761  0.753474  0.646098  1
  Sb  Sb8  1  0.289404  0.345211  0.767726  1
