# generated using pymatgen
data_K16ScPaSb8
_symmetry_space_group_name_H-M   'P 1'
_cell_length_a   11.70064008
_cell_length_b   11.70064010
_cell_length_c   11.70064000
_cell_angle_alpha   59.99999462
_cell_angle_beta   59.99999458
_cell_angle_gamma   59.99999479
_symmetry_Int_Tables_number   1
_chemical_formula_structural   K16ScPaSb8
_chemical_formula_sum   'K16 Sc1 Pa1 Sb8'
_cell_volume   1132.69715185
_cell_formula_units_Z   1
loop_
 _symmetry_equiv_pos_site_id
 _symmetry_equiv_pos_as_xyz
  1  'x, y, z'
loop_
 _atom_site_type_symbol
 _atom_site_label
 _atom_site_symmetry_multiplicity
 _atom_site_fract_x
 _atom_site_fract_y
 _atom_site_fract_z
 _atom_site_occupancy
  K  K0  1  0.620725  0.137823  0.620725  1
  K  K1  1  0.620725  0.620725  0.137823  1
  K  K2  1  0.137823  0.620725  0.620725  1
  K  K3  1  0.620725  0.620725  0.620725  1
  K  K4  1  0.033607  0.033607  0.466393  1
  K  K5  1  0.774781  0.225219  0.225219  1
  K  K6  1  0.225219  0.774781  0.774781  1
  K  K7  1  0.774781  0.774781  0.225219  1
  K  K8  1  0.774781  0.225219  0.774781  1
  K  K9  1  0.225219  0.774781  0.225219  1
  K  K10  1  0.466393  0.033607  0.466393  1
  K  K11  1  0.466393  0.033607  0.033607  1
  K  K12  1  0.033607  0.466393  0.466393  1
  K  K13  1  0.033607  0.466393  0.033607  1
  K  K14  1  0.225219  0.225219  0.774781  1
  K  K15  1  0.466393  0.466393  0.033607  1
  Sc  Sc16  1  0.500000  0.500000  0.500000  1
  Pa  Pa17  1  0.750000  0.750000  0.750000  1
  Sb  Sb18  1  0.396761  0.809719  0.396761  1
  Sb  Sb19  1  0.853406  0.853406  0.439784  1
  Sb  Sb20  1  0.439784  0.853406  0.853406  1
  Sb  Sb21  1  0.853406  0.853406  0.853406  1
  Sb  Sb22  1  0.809719  0.396761  0.396761  1
  Sb  Sb23  1  0.396761  0.396761  0.396761  1
  Sb  Sb24  1  0.396761  0.396761  0.809719  1
  Sb  Sb25  1  0.853406  0.439784  0.853406  1
