# generated using pymatgen
data_NdSm2Th2Sn3C
_symmetry_space_group_name_H-M   'P 1'
_cell_length_a   9.32015037
_cell_length_b   9.27627456
_cell_length_c   6.62783800
_cell_angle_alpha   90.00000000
_cell_angle_beta   90.00000000
_cell_angle_gamma   119.84440517
_symmetry_Int_Tables_number   1
_chemical_formula_structural   NdSm2Th2Sn3C
_chemical_formula_sum   'Nd2 Sm4 Th4 Sn6 C2'
_cell_volume   497.02452283
_cell_formula_units_Z   2
loop_
 _symmetry_equiv_pos_site_id
 _symmetry_equiv_pos_as_xyz
  1  'x, y, z'
loop_
 _atom_site_type_symbol
 _atom_site_label
 _atom_site_symmetry_multiplicity
 _atom_site_fract_x
 _atom_site_fract_y
 _atom_site_fract_z
 _atom_site_occupancy
  Nd  Nd0  1  0.776684  0.774983  0.250000  1
  Nd  Nd1  1  0.223316  0.998299  0.250000  1
  Sm  Sm2  1  0.667244  0.333507  0.499445  1
  Sm  Sm3  1  0.332756  0.666264  0.499445  1
  Sm  Sm4  1  0.332756  0.666264  0.000555  1
  Sm  Sm5  1  0.667244  0.333507  0.000555  1
  Th  Th6  1  0.000000  0.213509  0.250000  1
  Th  Th7  1  0.218374  0.218722  0.750000  1
  Th  Th8  1  0.781626  0.000348  0.750000  1
  Th  Th9  1  0.000000  0.782984  0.750000  1
  Sn  Sn10  1  0.402785  0.402504  0.250000  1
  Sn  Sn11  1  0.597215  0.999718  0.250000  1
  Sn  Sn12  1  0.000000  0.596423  0.250000  1
  Sn  Sn13  1  0.595682  0.595470  0.750000  1
  Sn  Sn14  1  0.404318  0.999788  0.750000  1
  Sn  Sn15  1  0.000000  0.405212  0.750000  1
  C  C16  1  0.000000  0.006249  0.509544  1
  C  C17  1  0.000000  0.006249  0.990456  1
