# generated using pymatgen
data_PrSmAsPt8
_symmetry_space_group_name_H-M   'P 1'
_cell_length_a   9.26379176
_cell_length_b   9.25144680
_cell_length_c   4.32278300
_cell_angle_alpha   90.00000000
_cell_angle_beta   90.00000000
_cell_angle_gamma   145.35903786
_symmetry_Int_Tables_number   1
_chemical_formula_structural   PrSmAsPt8
_chemical_formula_sum   'Pr1 Sm1 As1 Pt8'
_cell_volume   210.59131416
_cell_formula_units_Z   1
loop_
 _symmetry_equiv_pos_site_id
 _symmetry_equiv_pos_as_xyz
  1  'x, y, z'
loop_
 _atom_site_type_symbol
 _atom_site_label
 _atom_site_symmetry_multiplicity
 _atom_site_fract_x
 _atom_site_fract_y
 _atom_site_fract_z
 _atom_site_occupancy
  Pr  Pr0  1  0.376028  0.624582  0.500000  1
  Sm  Sm1  1  0.628501  0.377182  0.500000  1
  As  As2  1  0.231683  0.231807  0.000000  1
  Pt  Pt3  1  0.105100  0.878520  0.000000  1
  Pt  Pt4  1  0.877923  0.105051  0.000000  1
  Pt  Pt5  1  0.487365  0.985192  0.000000  1
  Pt  Pt6  1  0.982384  0.487762  0.000000  1
  Pt  Pt7  1  0.194906  0.790879  0.500000  1
  Pt  Pt8  1  0.788570  0.196150  0.500000  1
  Pt  Pt9  1  0.987954  0.986875  0.500000  1
  Pt  Pt10  1  0.653183  0.649599  0.000000  1
