# generated using pymatgen
data_Ca3Yb7In3GaSb12
_symmetry_space_group_name_H-M   'P 1'
_cell_length_a   4.56698000
_cell_length_b   12.10281399
_cell_length_c   14.22753794
_cell_angle_alpha   89.82223019
_cell_angle_beta   90.00000000
_cell_angle_gamma   90.00000000
_symmetry_Int_Tables_number   1
_chemical_formula_structural   Ca3Yb7In3GaSb12
_chemical_formula_sum   'Ca3 Yb7 In3 Ga1 Sb12'
_cell_volume   786.39932191
_cell_formula_units_Z   1
loop_
 _symmetry_equiv_pos_site_id
 _symmetry_equiv_pos_as_xyz
  1  'x, y, z'
loop_
 _atom_site_type_symbol
 _atom_site_label
 _atom_site_symmetry_multiplicity
 _atom_site_fract_x
 _atom_site_fract_y
 _atom_site_fract_z
 _atom_site_occupancy
  Ca  Ca0  1  0.500000  0.001921  0.497264  1
  Ca  Ca1  1  0.500000  0.497292  0.000834  1
  Ca  Ca2  1  0.500000  0.589169  0.753937  1
  Yb  Yb3  1  0.500000  0.673380  0.482201  1
  Yb  Yb4  1  0.500000  0.325104  0.515520  1
  Yb  Yb5  1  0.500000  0.829401  0.983721  1
  Yb  Yb6  1  0.500000  0.170705  0.023763  1
  Yb  Yb7  1  0.500000  0.908722  0.252999  1
  Yb  Yb8  1  0.500000  0.088638  0.746863  1
  Yb  Yb9  1  0.500000  0.411043  0.246962  1
  In  In10  1  0.000000  0.334359  0.714029  1
  In  In11  1  0.000000  0.664809  0.285633  1
  In  In12  1  0.000000  0.835811  0.786347  1
  Ga  Ga13  1  0.000000  0.167779  0.211788  1
  Sb  Sb14  1  0.000000  0.972183  0.100848  1
  Sb  Sb15  1  0.000000  0.038102  0.904011  1
  Sb  Sb16  1  0.000000  0.461683  0.402579  1
  Sb  Sb17  1  0.000000  0.536843  0.596252  1
  Sb  Sb18  1  0.500000  0.163143  0.321137  1
  Sb  Sb19  1  0.500000  0.835991  0.667291  1
  Sb  Sb20  1  0.500000  0.665097  0.166860  1
  Sb  Sb21  1  0.500000  0.333028  0.832771  1
  Sb  Sb22  1  0.000000  0.345457  0.095280  1
  Sb  Sb23  1  0.000000  0.650983  0.912060  1
  Sb  Sb24  1  0.000000  0.849665  0.409905  1
  Sb  Sb25  1  0.000000  0.149689  0.589144  1
