# generated using pymatgen
data_Tb3Ho7In8Pd3Ru
_symmetry_space_group_name_H-M   'P 1'
_cell_length_a   3.59845100
_cell_length_b   8.15033062
_cell_length_c   18.32706138
_cell_angle_alpha   90.00004267
_cell_angle_beta   90.00000000
_cell_angle_gamma   90.00000000
_symmetry_Int_Tables_number   1
_chemical_formula_structural   Tb3Ho7In8Pd3Ru
_chemical_formula_sum   'Tb3 Ho7 In8 Pd3 Ru1'
_cell_volume   537.50641762
_cell_formula_units_Z   1
loop_
 _symmetry_equiv_pos_site_id
 _symmetry_equiv_pos_as_xyz
  1  'x, y, z'
loop_
 _atom_site_type_symbol
 _atom_site_label
 _atom_site_symmetry_multiplicity
 _atom_site_fract_x
 _atom_site_fract_y
 _atom_site_fract_z
 _atom_site_occupancy
  Tb  Tb0  1  0.000000  0.499939  0.499418  1
  Tb  Tb1  1  0.000000  0.000316  0.000868  1
  Tb  Tb2  1  0.000000  0.729409  0.277649  1
  Ho  Ho3  1  0.000000  0.259835  0.720000  1
  Ho  Ho4  1  0.000000  0.759741  0.779772  1
  Ho  Ho5  1  0.000000  0.251368  0.220309  1
  Ho  Ho6  1  0.000000  0.614772  0.086799  1
  Ho  Ho7  1  0.000000  0.383837  0.916078  1
  Ho  Ho8  1  0.000000  0.884244  0.583524  1
  Ho  Ho9  1  0.000000  0.117885  0.415273  1
  In  In10  1  0.500000  0.709101  0.931584  1
  In  In11  1  0.500000  0.293210  0.069421  1
  In  In12  1  0.500000  0.792379  0.432315  1
  In  In13  1  0.500000  0.208110  0.568008  1
  In  In14  1  0.500000  0.579868  0.649938  1
  In  In15  1  0.500000  0.423730  0.349686  1
  In  In16  1  0.500000  0.920975  0.150231  1
  In  In17  1  0.500000  0.079227  0.850215  1
  Pd  Pd18  1  0.500000  0.477039  0.803978  1
  Pd  Pd19  1  0.500000  0.977022  0.695807  1
  Pd  Pd20  1  0.500000  0.020969  0.303994  1
  Ru  Ru21  1  0.500000  0.517027  0.195132  1
