# generated using pymatgen
data_Ce4Cd2RhAu3
_symmetry_space_group_name_H-M   'P 1'
_cell_length_a   8.03331500
_cell_length_b   8.03331355
_cell_length_c   3.80392800
_cell_angle_alpha   90.00000000
_cell_angle_beta   90.00000000
_cell_angle_gamma   90.51819517
_symmetry_Int_Tables_number   1
_chemical_formula_structural   Ce4Cd2RhAu3
_chemical_formula_sum   'Ce4 Cd2 Rh1 Au3'
_cell_volume   245.47317553
_cell_formula_units_Z   1
loop_
 _symmetry_equiv_pos_site_id
 _symmetry_equiv_pos_as_xyz
  1  'x, y, z'
loop_
 _atom_site_type_symbol
 _atom_site_label
 _atom_site_symmetry_multiplicity
 _atom_site_fract_x
 _atom_site_fract_y
 _atom_site_fract_z
 _atom_site_occupancy
  Ce  Ce0  1  0.669024  0.169024  0.500000  1
  Ce  Ce1  1  0.311076  0.811076  0.500000  1
  Ce  Ce2  1  0.177016  0.344426  0.500000  1
  Ce  Ce3  1  0.844426  0.677016  0.500000  1
  Cd  Cd4  1  0.001172  0.002153  0.000000  1
  Cd  Cd5  1  0.502153  0.501172  0.000000  1
  Rh  Rh6  1  0.132394  0.632394  0.000000  1
  Au  Au7  1  0.872190  0.372190  0.000000  1
  Au  Au8  1  0.624145  0.866406  0.000000  1
  Au  Au9  1  0.366406  0.124145  0.000000  1
