# generated using pymatgen
data_La19Tb(Bi2Rh)4
_symmetry_space_group_name_H-M   'P 1'
_cell_length_a   8.52927795
_cell_length_b   9.35559000
_cell_length_c   13.01297045
_cell_angle_alpha   90.00000000
_cell_angle_beta   89.88785522
_cell_angle_gamma   90.00000000
_symmetry_Int_Tables_number   1
_chemical_formula_structural   La19Tb(Bi2Rh)4
_chemical_formula_sum   'La19 Tb1 Bi8 Rh4'
_cell_volume   1038.38656322
_cell_formula_units_Z   1
loop_
 _symmetry_equiv_pos_site_id
 _symmetry_equiv_pos_as_xyz
  1  'x, y, z'
loop_
 _atom_site_type_symbol
 _atom_site_label
 _atom_site_symmetry_multiplicity
 _atom_site_fract_x
 _atom_site_fract_y
 _atom_site_fract_z
 _atom_site_occupancy
  La  La0  1  0.845528  0.750000  0.797128  1
  La  La1  1  0.154674  0.250000  0.203108  1
  La  La2  1  0.347459  0.250000  0.705179  1
  La  La3  1  0.653810  0.750000  0.294825  1
  La  La4  1  0.374248  0.750000  0.695230  1
  La  La5  1  0.626870  0.250000  0.304005  1
  La  La6  1  0.872724  0.250000  0.805331  1
  La  La7  1  0.126872  0.750000  0.193770  1
  La  La8  1  0.950211  0.750000  0.502720  1
  La  La9  1  0.049293  0.250000  0.497457  1
  La  La10  1  0.451779  0.250000  0.997196  1
  La  La11  1  0.682182  0.039656  0.565369  1
  La  La12  1  0.316616  0.960867  0.435038  1
  La  La13  1  0.183583  0.959324  0.935814  1
  La  La14  1  0.316616  0.539133  0.435038  1
  La  La15  1  0.816897  0.038151  0.064622  1
  La  La16  1  0.682182  0.460344  0.565369  1
  La  La17  1  0.816897  0.461849  0.064622  1
  La  La18  1  0.183583  0.540676  0.935814  1
  Tb  Tb19  1  0.546346  0.750000  0.001648  1
  Bi  Bi20  1  0.571646  0.496878  0.830046  1
  Bi  Bi21  1  0.430521  0.510169  0.170853  1
  Bi  Bi22  1  0.072779  0.506474  0.673448  1
  Bi  Bi23  1  0.430521  0.989831  0.170853  1
  Bi  Bi24  1  0.928333  0.493570  0.326125  1
  Bi  Bi25  1  0.571646  0.003122  0.830046  1
  Bi  Bi26  1  0.928333  0.006430  0.326125  1
  Bi  Bi27  1  0.072779  0.993526  0.673448  1
  Rh  Rh28  1  0.573176  0.750000  0.510271  1
  Rh  Rh29  1  0.426870  0.250000  0.489999  1
  Rh  Rh30  1  0.074684  0.250000  0.989426  1
  Rh  Rh31  1  0.920343  0.750000  0.010078  1
