# generated using pymatgen
data_Na3YScP12Ir16Rh3
_symmetry_space_group_name_H-M   'P 1'
_cell_length_a   12.61248400
_cell_length_b   12.61248352
_cell_length_c   3.95228700
_cell_angle_alpha   90.00000000
_cell_angle_beta   90.00000000
_cell_angle_gamma   120.00000125
_symmetry_Int_Tables_number   1
_chemical_formula_structural   Na3YScP12Ir16Rh3
_chemical_formula_sum   'Na3 Y1 Sc1 P12 Ir16 Rh3'
_cell_volume   544.47800485
_cell_formula_units_Z   1
loop_
 _symmetry_equiv_pos_site_id
 _symmetry_equiv_pos_as_xyz
  1  'x, y, z'
loop_
 _atom_site_type_symbol
 _atom_site_label
 _atom_site_symmetry_multiplicity
 _atom_site_fract_x
 _atom_site_fract_y
 _atom_site_fract_z
 _atom_site_occupancy
  Na  Na0  1  0.333610  0.667142  0.000000  1
  Na  Na1  1  0.000782  0.819398  0.500000  1
  Na  Na2  1  0.181140  0.180708  0.500000  1
  Y  Y3  1  0.819450  0.999568  0.500000  1
  Sc  Sc4  1  0.667577  0.332308  0.000000  1
  P  P5  1  0.180025  0.000149  0.000000  1
  P  P6  1  0.003008  0.182132  0.000000  1
  P  P7  1  0.822245  0.817298  0.000000  1
  P  P8  1  0.172495  0.486833  0.500000  1
  P  P9  1  0.512916  0.685208  0.500000  1
  P  P10  1  0.312847  0.826815  0.500000  1
  P  P11  1  0.690001  0.516203  0.500000  1
  P  P12  1  0.827121  0.310933  0.500000  1
  P  P13  1  0.483039  0.174145  0.500000  1
  P  P14  1  0.636942  0.996351  0.000000  1
  P  P15  1  0.002841  0.641095  0.000000  1
  P  P16  1  0.358835  0.361963  0.000000  1
  Ir  Ir17  1  0.358719  0.486914  0.500000  1
  Ir  Ir18  1  0.512133  0.870993  0.500000  1
  Ir  Ir19  1  0.127064  0.640514  0.500000  1
  Ir  Ir20  1  0.865428  0.503700  0.500000  1
  Ir  Ir21  1  0.638186  0.135870  0.500000  1
  Ir  Ir22  1  0.496226  0.362887  0.500000  1
  Ir  Ir23  1  0.180514  0.379732  0.000000  1
  Ir  Ir24  1  0.624850  0.803355  0.000000  1
  Ir  Ir25  1  0.198294  0.819542  0.000000  1
  Ir  Ir26  1  0.804047  0.619620  0.000000  1
  Ir  Ir27  1  0.816007  0.192409  0.000000  1
  Ir  Ir28  1  0.379442  0.184444  0.000000  1
  Ir  Ir29  1  0.286898  0.000822  0.500000  1
  Ir  Ir30  1  0.998651  0.284769  0.500000  1
  Ir  Ir31  1  0.714612  0.714541  0.500000  1
  Ir  Ir32  1  0.997182  0.000185  0.000000  1
  Rh  Rh33  1  0.458736  0.001018  0.000000  1
  Rh  Rh34  1  0.997805  0.457977  0.000000  1
  Rh  Rh35  1  0.540330  0.542461  0.000000  1
