# generated using pymatgen
data_PrEr2Ga4Pd7
_symmetry_space_group_name_H-M   'P 1'
_cell_length_a   8.06402221
_cell_length_b   8.06402258
_cell_length_c   9.61796200
_cell_angle_alpha   56.29121152
_cell_angle_beta   56.29120977
_cell_angle_gamma   29.46408591
_symmetry_Int_Tables_number   1
_chemical_formula_structural   PrEr2Ga4Pd7
_chemical_formula_sum   'Pr1 Er2 Ga4 Pd7'
_cell_volume   251.94848180
_cell_formula_units_Z   1
loop_
 _symmetry_equiv_pos_site_id
 _symmetry_equiv_pos_as_xyz
  1  'x, y, z'
loop_
 _atom_site_type_symbol
 _atom_site_label
 _atom_site_symmetry_multiplicity
 _atom_site_fract_x
 _atom_site_fract_y
 _atom_site_fract_z
 _atom_site_occupancy
  Pr  Pr0  1  0.500000  0.500000  0.500000  1
  Er  Er1  1  0.827902  0.827902  0.166388  1
  Er  Er2  1  0.172098  0.172098  0.833612  1
  Ga  Ga3  1  0.386614  0.386614  0.332713  1
  Ga  Ga4  1  0.613386  0.613386  0.667287  1
  Ga  Ga5  1  0.835860  0.835860  0.770860  1
  Ga  Ga6  1  0.164140  0.164140  0.229140  1
  Pd  Pd7  1  0.663906  0.663906  0.070777  1
  Pd  Pd8  1  0.007754  0.007754  0.206907  1
  Pd  Pd9  1  0.992246  0.992246  0.793093  1
  Pd  Pd10  1  0.500000  0.500000  0.000000  1
  Pd  Pd11  1  0.191923  0.191923  0.464019  1
  Pd  Pd12  1  0.808077  0.808077  0.535981  1
  Pd  Pd13  1  0.336094  0.336094  0.929223  1
