# generated using pymatgen
data_Tb3TmRe5Os3
_symmetry_space_group_name_H-M   'P 1'
_cell_length_a   5.35906372
_cell_length_b   5.27081701
_cell_length_c   9.03447327
_cell_angle_alpha   90.02508477
_cell_angle_beta   89.99868283
_cell_angle_gamma   119.49531654
_symmetry_Int_Tables_number   1
_chemical_formula_structural   Tb3TmRe5Os3
_chemical_formula_sum   'Tb3 Tm1 Re5 Os3'
_cell_volume   222.11940592
_cell_formula_units_Z   1
loop_
 _symmetry_equiv_pos_site_id
 _symmetry_equiv_pos_as_xyz
  1  'x, y, z'
loop_
 _atom_site_type_symbol
 _atom_site_label
 _atom_site_symmetry_multiplicity
 _atom_site_fract_x
 _atom_site_fract_y
 _atom_site_fract_z
 _atom_site_occupancy
  Tb  Tb0  1  0.667302  0.333893  0.563159  1
  Tb  Tb1  1  0.330573  0.665266  0.435966  1
  Tb  Tb2  1  0.330614  0.665059  0.063762  1
  Tm  Tm3  1  0.667618  0.333918  0.936592  1
  Re  Re4  1  0.170600  0.340010  0.751146  1
  Re  Re5  1  0.171093  0.830934  0.751266  1
  Re  Re6  1  0.656769  0.829213  0.751347  1
  Re  Re7  1  0.836439  0.666440  0.249061  1
  Re  Re8  1  0.834311  0.169872  0.249000  1
  Os  Os9  1  0.990666  0.995203  0.499910  1
  Os  Os10  1  0.989984  0.994708  0.000055  1
  Os  Os11  1  0.354033  0.175486  0.248735  1
