# generated using pymatgen
data_USe6Br7
_symmetry_space_group_name_H-M   'P 1'
_cell_length_a   7.14930348
_cell_length_b   8.93607624
_cell_length_c   8.59236543
_cell_angle_alpha   92.42316740
_cell_angle_beta   100.09808158
_cell_angle_gamma   96.41351469
_symmetry_Int_Tables_number   1
_chemical_formula_structural   USe6Br7
_chemical_formula_sum   'U1 Se6 Br7'
_cell_volume   535.97743208
_cell_formula_units_Z   1
loop_
 _symmetry_equiv_pos_site_id
 _symmetry_equiv_pos_as_xyz
  1  'x, y, z'
loop_
 _atom_site_type_symbol
 _atom_site_label
 _atom_site_symmetry_multiplicity
 _atom_site_fract_x
 _atom_site_fract_y
 _atom_site_fract_z
 _atom_site_occupancy
  U  U0  1  0.500000  0.500000  0.500000  1
  Se  Se1  1  0.952252  0.960757  0.745145  1
  Se  Se2  1  0.022088  0.799854  0.135065  1
  Se  Se3  1  0.821323  0.177656  0.093261  1
  Se  Se4  1  0.977912  0.200146  0.864935  1
  Se  Se5  1  0.178677  0.822344  0.906739  1
  Se  Se6  1  0.047748  0.039243  0.254855  1
  Br  Br7  1  0.500000  0.000000  0.000000  1
  Br  Br8  1  0.372557  0.768513  0.550507  1
  Br  Br9  1  0.354497  0.501094  0.188091  1
  Br  Br10  1  0.627443  0.231487  0.449493  1
  Br  Br11  1  0.831472  0.652867  0.453299  1
  Br  Br12  1  0.168528  0.347133  0.546701  1
  Br  Br13  1  0.645503  0.498906  0.811909  1
