# generated using pymatgen
data_LaPr3Mg2As5
_symmetry_space_group_name_H-M   'P 1'
_cell_length_a   4.35930300
_cell_length_b   4.35930176
_cell_length_c   17.75753100
_cell_angle_alpha   90.00000000
_cell_angle_beta   90.00000000
_cell_angle_gamma   120.00000181
_symmetry_Int_Tables_number   1
_chemical_formula_structural   LaPr3Mg2As5
_chemical_formula_sum   'La1 Pr3 Mg2 As5'
_cell_volume   292.24507074
_cell_formula_units_Z   1
loop_
 _symmetry_equiv_pos_site_id
 _symmetry_equiv_pos_as_xyz
  1  'x, y, z'
loop_
 _atom_site_type_symbol
 _atom_site_label
 _atom_site_symmetry_multiplicity
 _atom_site_fract_x
 _atom_site_fract_y
 _atom_site_fract_z
 _atom_site_occupancy
  La  La0  1  0.000000  0.000000  0.289744  1
  Pr  Pr1  1  0.666667  0.333333  0.902543  1
  Pr  Pr2  1  0.333333  0.666667  0.095668  1
  Pr  Pr3  1  0.000000  0.000000  0.710549  1
  Mg  Mg4  1  0.666667  0.333333  0.446761  1
  Mg  Mg5  1  0.333333  0.666667  0.555164  1
  As  As6  1  0.666667  0.333333  0.600791  1
  As  As7  1  0.333333  0.666667  0.400494  1
  As  As8  1  0.666667  0.333333  0.197160  1
  As  As9  1  0.333333  0.666667  0.801665  1
  As  As10  1  0.000000  0.000000  0.999461  1
