# generated using pymatgen
data_Pr3Gd3YRhO12
_symmetry_space_group_name_H-M   'P 1'
_cell_length_a   6.82339117
_cell_length_b   6.82110133
_cell_length_c   6.82067559
_cell_angle_alpha   96.07535376
_cell_angle_beta   95.99984874
_cell_angle_gamma   96.01347084
_symmetry_Int_Tables_number   1
_chemical_formula_structural   Pr3Gd3YRhO12
_chemical_formula_sum   'Pr3 Gd3 Y1 Rh1 O12'
_cell_volume   311.78217938
_cell_formula_units_Z   1
loop_
 _symmetry_equiv_pos_site_id
 _symmetry_equiv_pos_as_xyz
  1  'x, y, z'
loop_
 _atom_site_type_symbol
 _atom_site_label
 _atom_site_symmetry_multiplicity
 _atom_site_fract_x
 _atom_site_fract_y
 _atom_site_fract_z
 _atom_site_occupancy
  Pr  Pr0  1  0.727050  0.908663  0.421632  1
  Pr  Pr1  1  0.420254  0.724915  0.901604  1
  Pr  Pr2  1  0.096862  0.580574  0.278057  1
  Gd  Gd3  1  0.909988  0.423122  0.737897  1
  Gd  Gd4  1  0.577428  0.265077  0.087365  1
  Gd  Gd5  1  0.266787  0.094741  0.578537  1
  Y  Y6  1  0.002549  0.005135  0.000130  1
  Rh  Rh7  1  0.500747  0.495496  0.500912  1
  O  O8  1  0.067244  0.925417  0.316509  1
  O  O9  1  0.684638  0.942015  0.078117  1
  O  O10  1  0.437142  0.795036  0.570909  1
  O  O11  1  0.077400  0.686254  0.935358  1
  O  O12  1  0.799515  0.575331  0.459943  1
  O  O13  1  0.427913  0.543223  0.202122  1
  O  O14  1  0.585922  0.440517  0.795782  1
  O  O15  1  0.205932  0.417052  0.562177  1
  O  O16  1  0.913577  0.319134  0.061847  1
  O  O17  1  0.540460  0.201104  0.413210  1
  O  O18  1  0.317495  0.068167  0.914003  1
  O  O19  1  0.941095  0.089025  0.683888  1
