# generated using pymatgen
data_CaUP2O9
_symmetry_space_group_name_H-M   'P 1'
_cell_length_a   5.68456312
_cell_length_b   5.68456267
_cell_length_c   12.63774700
_cell_angle_alpha   90.00000000
_cell_angle_beta   90.00000000
_cell_angle_gamma   104.04229509
_symmetry_Int_Tables_number   1
_chemical_formula_structural   CaUP2O9
_chemical_formula_sum   'Ca2 U2 P4 O18'
_cell_volume   396.17573236
_cell_formula_units_Z   2
loop_
 _symmetry_equiv_pos_site_id
 _symmetry_equiv_pos_as_xyz
  1  'x, y, z'
loop_
 _atom_site_type_symbol
 _atom_site_label
 _atom_site_symmetry_multiplicity
 _atom_site_fract_x
 _atom_site_fract_y
 _atom_site_fract_z
 _atom_site_occupancy
  Ca  Ca0  1  0.221212  0.778788  0.422701  1
  Ca  Ca1  1  0.278788  0.721212  0.922701  1
  U  U2  1  0.788431  0.211569  0.567644  1
  U  U3  1  0.711569  0.288431  0.067644  1
  P  P4  1  0.104155  0.895845  0.145890  1
  P  P5  1  0.395845  0.604155  0.645890  1
  P  P6  1  0.877141  0.122859  0.854670  1
  P  P7  1  0.622859  0.377141  0.354670  1
  O  O8  1  0.932537  0.067463  0.106815  1
  O  O9  1  0.567463  0.432537  0.606815  1
  O  O10  1  0.044083  0.955917  0.859477  1
  O  O11  1  0.455917  0.544083  0.359477  1
  O  O12  1  0.514929  0.485071  0.024922  1
  O  O13  1  0.985071  0.014929  0.524922  1
  O  O14  1  0.676365  0.323635  0.236651  1
  O  O15  1  0.823635  0.176365  0.736651  1
  O  O16  1  0.867378  0.469600  0.416725  1
  O  O17  1  0.632622  0.030400  0.916725  1
  O  O18  1  0.498063  0.854373  0.591999  1
  O  O19  1  0.001937  0.645627  0.091999  1
  O  O20  1  0.145627  0.501937  0.591999  1
  O  O21  1  0.354373  0.998063  0.091999  1
  O  O22  1  0.530400  0.132622  0.416725  1
  O  O23  1  0.969600  0.367378  0.916725  1
  O  O24  1  0.105250  0.894750  0.263782  1
  O  O25  1  0.394750  0.605250  0.763782  1
