# generated using pymatgen
data_TmTh3(GaRu)4
_symmetry_space_group_name_H-M   'P 1'
_cell_length_a   4.01376500
_cell_length_b   7.19304671
_cell_length_c   8.29363838
_cell_angle_alpha   90.29155410
_cell_angle_beta   90.00000000
_cell_angle_gamma   90.00000000
_symmetry_Int_Tables_number   1
_chemical_formula_structural   TmTh3(GaRu)4
_chemical_formula_sum   'Tm1 Th3 Ga4 Ru4'
_cell_volume   239.44418538
_cell_formula_units_Z   1
loop_
 _symmetry_equiv_pos_site_id
 _symmetry_equiv_pos_as_xyz
  1  'x, y, z'
loop_
 _atom_site_type_symbol
 _atom_site_label
 _atom_site_symmetry_multiplicity
 _atom_site_fract_x
 _atom_site_fract_y
 _atom_site_fract_z
 _atom_site_occupancy
  Tm  Tm0  1  0.750000  0.545621  0.811483  1
  Th  Th1  1  0.250000  0.960678  0.313549  1
  Th  Th2  1  0.250000  0.460921  0.180863  1
  Th  Th3  1  0.750000  0.041981  0.691189  1
  Ga  Ga4  1  0.250000  0.374268  0.566860  1
  Ga  Ga5  1  0.250000  0.851491  0.936658  1
  Ga  Ga6  1  0.750000  0.632197  0.444345  1
  Ga  Ga7  1  0.750000  0.134553  0.058798  1
  Ru  Ru8  1  0.250000  0.240865  0.872364  1
  Ru  Ru9  1  0.250000  0.752069  0.623386  1
  Ru  Ru10  1  0.750000  0.750880  0.129598  1
  Ru  Ru11  1  0.750000  0.254474  0.370907  1
