# generated using pymatgen
data_LiNdZnPt3
_symmetry_space_group_name_H-M   'P 1'
_cell_length_a   5.19422954
_cell_length_b   5.19422799
_cell_length_c   5.19422876
_cell_angle_alpha   64.56089714
_cell_angle_beta   64.56090279
_cell_angle_gamma   64.56089961
_symmetry_Int_Tables_number   1
_chemical_formula_structural   LiNdZnPt3
_chemical_formula_sum   'Li1 Nd1 Zn1 Pt3'
_cell_volume   109.00122796
_cell_formula_units_Z   1
loop_
 _symmetry_equiv_pos_site_id
 _symmetry_equiv_pos_as_xyz
  1  'x, y, z'
loop_
 _atom_site_type_symbol
 _atom_site_label
 _atom_site_symmetry_multiplicity
 _atom_site_fract_x
 _atom_site_fract_y
 _atom_site_fract_z
 _atom_site_occupancy
  Li  Li0  1  0.259724  0.259724  0.259724  1
  Nd  Nd1  1  0.005348  0.005348  0.005348  1
  Zn  Zn2  1  0.621257  0.621257  0.621257  1
  Pt  Pt3  1  0.619752  0.619752  0.124166  1
  Pt  Pt4  1  0.619752  0.124166  0.619752  1
  Pt  Pt5  1  0.124166  0.619752  0.619752  1
