# generated using pymatgen
data_Y2Tm7LuTl2(In3Pt2)2
_symmetry_space_group_name_H-M   'P 1'
_cell_length_a   3.57491900
_cell_length_b   8.11245880
_cell_length_c   18.14196200
_cell_angle_alpha   90.03816678
_cell_angle_beta   90.00000000
_cell_angle_gamma   90.00000000
_symmetry_Int_Tables_number   1
_chemical_formula_structural   Y2Tm7LuTl2(In3Pt2)2
_chemical_formula_sum   'Y2 Tm7 Lu1 Tl2 In6 Pt4'
_cell_volume   526.14187342
_cell_formula_units_Z   1
loop_
 _symmetry_equiv_pos_site_id
 _symmetry_equiv_pos_as_xyz
  1  'x, y, z'
loop_
 _atom_site_type_symbol
 _atom_site_label
 _atom_site_symmetry_multiplicity
 _atom_site_fract_x
 _atom_site_fract_y
 _atom_site_fract_z
 _atom_site_occupancy
  Y  Y0  1  0.000000  0.000009  0.000122  1
  Y  Y1  1  0.000000  0.499903  0.499984  1
  Tm  Tm2  1  0.000000  0.115697  0.414025  1
  Tm  Tm3  1  0.000000  0.883712  0.585510  1
  Tm  Tm4  1  0.000000  0.382449  0.915057  1
  Tm  Tm5  1  0.000000  0.617816  0.085324  1
  Tm  Tm6  1  0.000000  0.243826  0.221147  1
  Tm  Tm7  1  0.000000  0.756411  0.779035  1
  Tm  Tm8  1  0.000000  0.256132  0.721395  1
  Lu  Lu9  1  0.000000  0.744350  0.278322  1
  Tl  Tl10  1  0.500000  0.424636  0.352586  1
  Tl  Tl11  1  0.500000  0.575829  0.647388  1
  In  In12  1  0.500000  0.076526  0.851417  1
  In  In13  1  0.500000  0.923571  0.148699  1
  In  In14  1  0.500000  0.293940  0.067345  1
  In  In15  1  0.500000  0.706414  0.933003  1
  In  In16  1  0.500000  0.204275  0.566204  1
  In  In17  1  0.500000  0.794817  0.433034  1
  Pt  Pt18  1  0.500000  0.020750  0.303321  1
  Pt  Pt19  1  0.500000  0.977403  0.696336  1
  Pt  Pt20  1  0.500000  0.473970  0.805473  1
  Pt  Pt21  1  0.500000  0.527562  0.195273  1
