# generated using pymatgen
data_Cs(US2)3
_symmetry_space_group_name_H-M   'P 1'
_cell_length_a   6.91011395
_cell_length_b   6.91011337
_cell_length_c   8.88066467
_cell_angle_alpha   97.46085783
_cell_angle_beta   97.46086008
_cell_angle_gamma   120.08849569
_symmetry_Int_Tables_number   1
_chemical_formula_structural   Cs(US2)3
_chemical_formula_sum   'Cs1 U3 S6'
_cell_volume   354.28610449
_cell_formula_units_Z   1
loop_
 _symmetry_equiv_pos_site_id
 _symmetry_equiv_pos_as_xyz
  1  'x, y, z'
loop_
 _atom_site_type_symbol
 _atom_site_label
 _atom_site_symmetry_multiplicity
 _atom_site_fract_x
 _atom_site_fract_y
 _atom_site_fract_z
 _atom_site_occupancy
  Cs  Cs0  1  0.000000  0.000000  0.500000  1
  U  U1  1  0.832998  0.167002  0.000000  1
  U  U2  1  0.500000  0.500000  0.000000  1
  U  U3  1  0.167002  0.832998  0.000000  1
  S  S4  1  0.222998  0.222998  0.169093  1
  S  S5  1  0.889770  0.556841  0.169419  1
  S  S6  1  0.556841  0.889770  0.169419  1
  S  S7  1  0.443159  0.110230  0.830582  1
  S  S8  1  0.110230  0.443159  0.830582  1
  S  S9  1  0.777004  0.777004  0.830908  1
