# generated using pymatgen
data_LuZrSn2IrRh
_symmetry_space_group_name_H-M   'P 1'
_cell_length_a   7.48045200
_cell_length_b   7.48045296
_cell_length_c   7.44131800
_cell_angle_alpha   90.00000000
_cell_angle_beta   90.00000000
_cell_angle_gamma   119.99999692
_symmetry_Int_Tables_number   1
_chemical_formula_structural   LuZrSn2IrRh
_chemical_formula_sum   'Lu3 Zr3 Sn6 Ir3 Rh3'
_cell_volume   360.60873838
_cell_formula_units_Z   3
loop_
 _symmetry_equiv_pos_site_id
 _symmetry_equiv_pos_as_xyz
  1  'x, y, z'
loop_
 _atom_site_type_symbol
 _atom_site_label
 _atom_site_symmetry_multiplicity
 _atom_site_fract_x
 _atom_site_fract_y
 _atom_site_fract_z
 _atom_site_occupancy
  Lu  Lu0  1  0.594857  0.002028  0.750774  1
  Lu  Lu1  1  0.407171  0.405143  0.750774  1
  Lu  Lu2  1  0.997972  0.592829  0.750774  1
  Zr  Zr3  1  0.604505  0.002217  0.249518  1
  Zr  Zr4  1  0.397712  0.395495  0.249518  1
  Zr  Zr5  1  0.997783  0.602288  0.249518  1
  Sn  Sn6  1  0.264735  0.998691  0.003299  1
  Sn  Sn7  1  0.732127  0.735283  0.496764  1
  Sn  Sn8  1  0.003156  0.267873  0.496764  1
  Sn  Sn9  1  0.001309  0.266044  0.003299  1
  Sn  Sn10  1  0.733956  0.735265  0.003299  1
  Sn  Sn11  1  0.264717  0.996844  0.496764  1
  Ir  Ir12  1  0.666667  0.333333  0.023381  1
  Ir  Ir13  1  0.666667  0.333333  0.477176  1
  Ir  Ir14  1  0.333333  0.666667  0.025156  1
  Rh  Rh15  1  0.333333  0.666667  0.473316  1
  Rh  Rh16  1  0.000000  0.000000  0.749960  1
  Rh  Rh17  1  0.000000  0.000000  0.249943  1
