# generated using pymatgen
data_Tb4B8OsRu3
_symmetry_space_group_name_H-M   'P 1'
_cell_length_a   5.34392900
_cell_length_b   5.93923025
_cell_length_c   6.38184341
_cell_angle_alpha   89.72429041
_cell_angle_beta   90.00000000
_cell_angle_gamma   90.00000000
_symmetry_Int_Tables_number   1
_chemical_formula_structural   Tb4B8OsRu3
_chemical_formula_sum   'Tb4 B8 Os1 Ru3'
_cell_volume   202.54986454
_cell_formula_units_Z   1
loop_
 _symmetry_equiv_pos_site_id
 _symmetry_equiv_pos_as_xyz
  1  'x, y, z'
loop_
 _atom_site_type_symbol
 _atom_site_label
 _atom_site_symmetry_multiplicity
 _atom_site_fract_x
 _atom_site_fract_y
 _atom_site_fract_z
 _atom_site_occupancy
  Tb  Tb0  1  0.250000  0.010338  0.337227  1
  Tb  Tb1  1  0.250000  0.510547  0.163867  1
  Tb  Tb2  1  0.750000  0.990296  0.660848  1
  Tb  Tb3  1  0.750000  0.489849  0.837599  1
  B  B4  1  0.083781  0.368910  0.540908  1
  B  B5  1  0.415420  0.870337  0.961407  1
  B  B6  1  0.585412  0.629222  0.461488  1
  B  B7  1  0.916084  0.130872  0.038248  1
  B  B8  1  0.914588  0.629222  0.461488  1
  B  B9  1  0.583916  0.130872  0.038248  1
  B  B10  1  0.416219  0.368910  0.540908  1
  B  B11  1  0.084580  0.870337  0.961407  1
  Os  Os12  1  0.250000  0.181157  0.817389  1
  Ru  Ru13  1  0.250000  0.681784  0.681400  1
  Ru  Ru14  1  0.750000  0.818936  0.180139  1
  Ru  Ru15  1  0.750000  0.318412  0.317429  1
