# generated using pymatgen
data_Li5Ca6Ag11N
_symmetry_space_group_name_H-M   'P 1'
_cell_length_a   8.53193478
_cell_length_b   8.51251679
_cell_length_c   8.51251640
_cell_angle_alpha   108.34325479
_cell_angle_beta   109.99057405
_cell_angle_gamma   109.99057677
_symmetry_Int_Tables_number   1
_chemical_formula_structural   Li5Ca6Ag11N
_chemical_formula_sum   'Li5 Ca6 Ag11 N1'
_cell_volume   476.35383329
_cell_formula_units_Z   1
loop_
 _symmetry_equiv_pos_site_id
 _symmetry_equiv_pos_as_xyz
  1  'x, y, z'
loop_
 _atom_site_type_symbol
 _atom_site_label
 _atom_site_symmetry_multiplicity
 _atom_site_fract_x
 _atom_site_fract_y
 _atom_site_fract_z
 _atom_site_occupancy
  Li  Li0  1  0.687077  0.343539  0.343539  1
  Li  Li1  1  0.347046  0.001296  0.662834  1
  Li  Li2  1  0.347046  0.684211  0.345749  1
  Li  Li3  1  0.347046  0.345749  0.684211  1
  Li  Li4  1  0.347046  0.662834  0.001296  1
  Ca  Ca5  1  0.996327  0.252482  0.252482  1
  Ca  Ca6  1  0.250515  0.999872  0.250644  1
  Ca  Ca7  1  0.749970  0.002897  0.747072  1
  Ca  Ca8  1  0.749970  0.747072  0.002897  1
  Ca  Ca9  1  0.250515  0.250644  0.999872  1
  Ca  Ca10  1  0.996327  0.743845  0.743845  1
  Ag  Ag11  1  0.493917  0.495349  0.495349  1
  Ag  Ag12  1  0.493917  0.998567  0.998567  1
  Ag  Ag13  1  0.011463  0.505732  0.005732  1
  Ag  Ag14  1  0.011463  0.005732  0.505732  1
  Ag  Ag15  1  0.011447  0.352533  0.658914  1
  Ag  Ag16  1  0.011447  0.658914  0.352533  1
  Ag  Ag17  1  0.648546  0.649056  0.300656  1
  Ag  Ag18  1  0.648546  0.999490  0.347891  1
  Ag  Ag19  1  0.648546  0.347891  0.999490  1
  Ag  Ag20  1  0.648546  0.300656  0.649056  1
  Ag  Ag21  1  0.305236  0.652618  0.652618  1
  N  N22  1  0.998043  0.999022  0.999022  1
