# generated using pymatgen
data_CeEr2Al3NiRu2
_symmetry_space_group_name_H-M   'P 1'
_cell_length_a   6.84022291
_cell_length_b   6.84022204
_cell_length_c   4.00662800
_cell_angle_alpha   90.00000000
_cell_angle_beta   90.00000000
_cell_angle_gamma   116.93142457
_symmetry_Int_Tables_number   1
_chemical_formula_structural   CeEr2Al3NiRu2
_chemical_formula_sum   'Ce1 Er2 Al3 Ni1 Ru2'
_cell_volume   167.13400332
_cell_formula_units_Z   1
loop_
 _symmetry_equiv_pos_site_id
 _symmetry_equiv_pos_as_xyz
  1  'x, y, z'
loop_
 _atom_site_type_symbol
 _atom_site_label
 _atom_site_symmetry_multiplicity
 _atom_site_fract_x
 _atom_site_fract_y
 _atom_site_fract_z
 _atom_site_occupancy
  Ce  Ce0  1  0.419302  0.419302  0.500000  1
  Er  Er1  1  0.001865  0.587283  0.500000  1
  Er  Er2  1  0.587283  0.001865  0.500000  1
  Al  Al3  1  0.238055  0.988966  0.000000  1
  Al  Al4  1  0.779182  0.779182  0.000000  1
  Al  Al5  1  0.988966  0.238055  0.000000  1
  Ni  Ni6  1  0.004660  0.004660  0.500000  1
  Ru  Ru7  1  0.343014  0.637672  0.000000  1
  Ru  Ru8  1  0.637672  0.343014  0.000000  1
