# generated using pymatgen
data_LuSc5H18
_symmetry_space_group_name_H-M   'P 1'
_cell_length_a   5.86462800
_cell_length_b   5.86318719
_cell_length_c   6.17024991
_cell_angle_alpha   90.13719172
_cell_angle_beta   89.99987652
_cell_angle_gamma   120.00791880
_symmetry_Int_Tables_number   1
_chemical_formula_structural   LuSc5H18
_chemical_formula_sum   'Lu1 Sc5 H18'
_cell_volume   183.72628630
_cell_formula_units_Z   1
loop_
 _symmetry_equiv_pos_site_id
 _symmetry_equiv_pos_as_xyz
  1  'x, y, z'
loop_
 _atom_site_type_symbol
 _atom_site_label
 _atom_site_symmetry_multiplicity
 _atom_site_fract_x
 _atom_site_fract_y
 _atom_site_fract_z
 _atom_site_occupancy
  Lu  Lu0  1  0.335543  0.000002  0.250001  1
  Sc  Sc1  1  0.663228  0.999992  0.750000  1
  Sc  Sc2  1  0.338089  0.339565  0.750189  1
  Sc  Sc3  1  0.998523  0.660433  0.749812  1
  Sc  Sc4  1  0.663035  0.663069  0.250076  1
  Sc  Sc5  1  0.999959  0.336936  0.249928  1
  H  H6  1  0.321920  0.967538  0.902934  1
  H  H7  1  0.647671  0.678358  0.908552  1
  H  H8  1  0.030593  0.353423  0.908417  1
  H  H9  1  0.319702  0.350869  0.409659  1
  H  H10  1  0.022915  0.671387  0.413452  1
  H  H11  1  0.653495  0.968011  0.411982  1
  H  H12  1  0.685485  0.031990  0.088019  1
  H  H13  1  0.351531  0.328614  0.086548  1
  H  H14  1  0.968833  0.649131  0.090340  1
  H  H15  1  0.677169  0.646577  0.591583  1
  H  H16  1  0.969314  0.321644  0.591447  1
  H  H17  1  0.354383  0.032462  0.597065  1
  H  H18  1  0.000887  0.999999  0.750000  1
  H  H19  1  0.989864  0.000002  0.249999  1
  H  H20  1  0.665786  0.332554  0.812312  1
  H  H21  1  0.675982  0.343121  0.312724  1
  H  H22  1  0.332862  0.656880  0.187277  1
  H  H23  1  0.333232  0.667446  0.687687  1
