# generated using pymatgen
data_Dy15HoIn3AgIr4
_symmetry_space_group_name_H-M   'P 1'
_cell_length_a   9.64048172
_cell_length_b   9.64048113
_cell_length_c   9.64048249
_cell_angle_alpha   60.01031327
_cell_angle_beta   60.01031630
_cell_angle_gamma   60.01031270
_symmetry_Int_Tables_number   1
_chemical_formula_structural   Dy15HoIn3AgIr4
_chemical_formula_sum   'Dy15 Ho1 In3 Ag1 Ir4'
_cell_volume   633.69861293
_cell_formula_units_Z   1
loop_
 _symmetry_equiv_pos_site_id
 _symmetry_equiv_pos_as_xyz
  1  'x, y, z'
loop_
 _atom_site_type_symbol
 _atom_site_label
 _atom_site_symmetry_multiplicity
 _atom_site_fract_x
 _atom_site_fract_y
 _atom_site_fract_z
 _atom_site_occupancy
  Dy  Dy0  1  0.599929  0.599929  0.200983  1
  Dy  Dy1  1  0.599929  0.200983  0.599929  1
  Dy  Dy2  1  0.200983  0.599929  0.599929  1
  Dy  Dy3  1  0.058825  0.441348  0.441348  1
  Dy  Dy4  1  0.439349  0.059746  0.059746  1
  Dy  Dy5  1  0.441348  0.058825  0.441348  1
  Dy  Dy6  1  0.059746  0.439349  0.059746  1
  Dy  Dy7  1  0.441348  0.441348  0.058825  1
  Dy  Dy8  1  0.059746  0.059746  0.439349  1
  Dy  Dy9  1  0.185302  0.811250  0.811250  1
  Dy  Dy10  1  0.810335  0.189046  0.189046  1
  Dy  Dy11  1  0.811250  0.185302  0.811250  1
  Dy  Dy12  1  0.189046  0.810335  0.189046  1
  Dy  Dy13  1  0.811250  0.811250  0.185302  1
  Dy  Dy14  1  0.189046  0.189046  0.810335  1
  Ho  Ho15  1  0.599257  0.599257  0.599257  1
  In  In16  1  0.832404  0.832404  0.504354  1
  In  In17  1  0.832404  0.504354  0.832404  1
  In  In18  1  0.504354  0.832404  0.832404  1
  Ag  Ag19  1  0.833234  0.833234  0.833234  1
  Ir  Ir20  1  0.392107  0.392107  0.392107  1
  Ir  Ir21  1  0.391775  0.391775  0.825255  1
  Ir  Ir22  1  0.391775  0.825255  0.391775  1
  Ir  Ir23  1  0.825255  0.391775  0.391775  1
