# generated using pymatgen
data_NaTb6NiBr12
_symmetry_space_group_name_H-M   'P 1'
_cell_length_a   9.20044787
_cell_length_b   9.20044597
_cell_length_c   9.20044756
_cell_angle_alpha   107.11331277
_cell_angle_beta   107.11330104
_cell_angle_gamma   107.11329772
_symmetry_Int_Tables_number   1
_chemical_formula_structural   NaTb6NiBr12
_chemical_formula_sum   'Na1 Tb6 Ni1 Br12'
_cell_volume   646.57823176
_cell_formula_units_Z   1
loop_
 _symmetry_equiv_pos_site_id
 _symmetry_equiv_pos_as_xyz
  1  'x, y, z'
loop_
 _atom_site_type_symbol
 _atom_site_label
 _atom_site_symmetry_multiplicity
 _atom_site_fract_x
 _atom_site_fract_y
 _atom_site_fract_z
 _atom_site_occupancy
  Na  Na0  1  0.500000  0.500000  0.500000  1
  Tb  Tb1  1  0.896406  0.972436  0.685038  1
  Tb  Tb2  1  0.972436  0.685038  0.896406  1
  Tb  Tb3  1  0.685038  0.896406  0.972436  1
  Tb  Tb4  1  0.103594  0.027564  0.314962  1
  Tb  Tb5  1  0.027564  0.314962  0.103594  1
  Tb  Tb6  1  0.314962  0.103594  0.027564  1
  Ni  Ni7  1  0.000000  0.000000  0.000000  1
  Br  Br8  1  0.551465  0.856071  0.630149  1
  Br  Br9  1  0.856071  0.630149  0.551465  1
  Br  Br10  1  0.630149  0.551465  0.856071  1
  Br  Br11  1  0.448535  0.143929  0.369851  1
  Br  Br12  1  0.143929  0.369851  0.448535  1
  Br  Br13  1  0.369851  0.448535  0.143929  1
  Br  Br14  1  0.680167  0.222817  0.072913  1
  Br  Br15  1  0.222817  0.072913  0.680167  1
  Br  Br16  1  0.072913  0.680167  0.222817  1
  Br  Br17  1  0.319833  0.777183  0.927087  1
  Br  Br18  1  0.777183  0.927087  0.319833  1
  Br  Br19  1  0.927087  0.319833  0.777183  1
