# generated using pymatgen
data_Y2Cr3Co9P7
_symmetry_space_group_name_H-M   'P 1'
_cell_length_a   3.64385400
_cell_length_b   8.96573333
_cell_length_c   8.96446200
_cell_angle_alpha   119.99960762
_cell_angle_beta   90.00000000
_cell_angle_gamma   90.00000000
_symmetry_Int_Tables_number   1
_chemical_formula_structural   Y2Cr3Co9P7
_chemical_formula_sum   'Y2 Cr3 Co9 P7'
_cell_volume   253.63160176
_cell_formula_units_Z   1
loop_
 _symmetry_equiv_pos_site_id
 _symmetry_equiv_pos_as_xyz
  1  'x, y, z'
loop_
 _atom_site_type_symbol
 _atom_site_label
 _atom_site_symmetry_multiplicity
 _atom_site_fract_x
 _atom_site_fract_y
 _atom_site_fract_z
 _atom_site_occupancy
  Y  Y0  1  0.000000  0.666665  0.333329  1
  Y  Y1  1  0.500000  0.333372  0.666641  1
  Cr  Cr2  1  0.500000  0.121504  0.904972  1
  Cr  Cr3  1  0.500000  0.095042  0.216533  1
  Cr  Cr4  1  0.500000  0.783401  0.878538  1
  Co  Co5  1  0.000000  0.371571  0.940033  1
  Co  Co6  1  0.000000  0.059986  0.431530  1
  Co  Co7  1  0.000000  0.568466  0.628450  1
  Co  Co8  1  0.000000  0.880139  0.723813  1
  Co  Co9  1  0.000000  0.276164  0.156314  1
  Co  Co10  1  0.000000  0.843652  0.119877  1
  Co  Co11  1  0.500000  0.950680  0.566624  1
  Co  Co12  1  0.500000  0.433318  0.383988  1
  Co  Co13  1  0.500000  0.616008  0.049359  1
  P  P14  1  0.000000  0.112378  0.704606  1
  P  P15  1  0.000000  0.295378  0.407703  1
  P  P16  1  0.000000  0.592290  0.887645  1
  P  P17  1  0.500000  0.709684  0.597780  1
  P  P18  1  0.500000  0.402206  0.111915  1
  P  P19  1  0.500000  0.888100  0.290331  1
  P  P20  1  0.000000  0.999996  0.000016  1
