# generated using pymatgen
data_Sc6Co2Sn6IrPt3
_symmetry_space_group_name_H-M   'P 1'
_cell_length_a   7.52566800
_cell_length_b   7.52566829
_cell_length_c   6.88652000
_cell_angle_alpha   90.00000000
_cell_angle_beta   90.00000000
_cell_angle_gamma   119.99999874
_symmetry_Int_Tables_number   1
_chemical_formula_structural   Sc6Co2Sn6IrPt3
_chemical_formula_sum   'Sc6 Co2 Sn6 Ir1 Pt3'
_cell_volume   337.76961382
_cell_formula_units_Z   1
loop_
 _symmetry_equiv_pos_site_id
 _symmetry_equiv_pos_as_xyz
  1  'x, y, z'
loop_
 _atom_site_type_symbol
 _atom_site_label
 _atom_site_symmetry_multiplicity
 _atom_site_fract_x
 _atom_site_fract_y
 _atom_site_fract_z
 _atom_site_occupancy
  Sc  Sc0  1  0.399887  0.009704  0.246869  1
  Sc  Sc1  1  0.609817  0.600113  0.246869  1
  Sc  Sc2  1  0.990296  0.390183  0.246869  1
  Sc  Sc3  1  0.396400  0.003158  0.752993  1
  Sc  Sc4  1  0.606759  0.603600  0.752993  1
  Sc  Sc5  1  0.996842  0.393241  0.752993  1
  Co  Co6  1  0.000000  0.000000  0.758929  1
  Co  Co7  1  0.000000  0.000000  0.240885  1
  Sn  Sn8  1  0.266205  0.266330  0.999898  1
  Sn  Sn9  1  0.000125  0.733795  0.999898  1
  Sn  Sn10  1  0.003126  0.742250  0.499980  1
  Sn  Sn11  1  0.739125  0.996874  0.499980  1
  Sn  Sn12  1  0.257750  0.260875  0.499980  1
  Sn  Sn13  1  0.733670  0.999875  0.999898  1
  Ir  Ir14  1  0.666667  0.333333  0.995664  1
  Pt  Pt15  1  0.333333  0.666667  0.494577  1
  Pt  Pt16  1  0.333333  0.666667  0.005062  1
  Pt  Pt17  1  0.666667  0.333333  0.505665  1
