# generated using pymatgen
data_Pr8MgInCo2
_symmetry_space_group_name_H-M   'P 1'
_cell_length_a   9.96331015
_cell_length_b   9.95077161
_cell_length_c   9.96330932
_cell_angle_alpha   60.04161977
_cell_angle_beta   60.19328174
_cell_angle_gamma   60.04162314
_symmetry_Int_Tables_number   1
_chemical_formula_structural   Pr8MgInCo2
_chemical_formula_sum   'Pr16 Mg2 In2 Co4'
_cell_volume   699.92761470
_cell_formula_units_Z   2
loop_
 _symmetry_equiv_pos_site_id
 _symmetry_equiv_pos_as_xyz
  1  'x, y, z'
loop_
 _atom_site_type_symbol
 _atom_site_label
 _atom_site_symmetry_multiplicity
 _atom_site_fract_x
 _atom_site_fract_y
 _atom_site_fract_z
 _atom_site_occupancy
  Pr  Pr0  1  0.287344  0.904087  0.904481  1
  Pr  Pr1  1  0.690913  0.689727  0.307488  1
  Pr  Pr2  1  0.904481  0.904087  0.287344  1
  Pr  Pr3  1  0.308720  0.691280  0.308720  1
  Pr  Pr4  1  0.690913  0.311872  0.307488  1
  Pr  Pr5  1  0.060979  0.439321  0.439906  1
  Pr  Pr6  1  0.439906  0.059794  0.060979  1
  Pr  Pr7  1  0.060979  0.059794  0.439906  1
  Pr  Pr8  1  0.307488  0.311872  0.690913  1
  Pr  Pr9  1  0.436712  0.063288  0.436712  1
  Pr  Pr10  1  0.904364  0.903433  0.904364  1
  Pr  Pr11  1  0.439906  0.439321  0.060979  1
  Pr  Pr12  1  0.307488  0.689727  0.690913  1
  Pr  Pr13  1  0.689215  0.310785  0.689215  1
  Pr  Pr14  1  0.058599  0.441401  0.058599  1
  Pr  Pr15  1  0.904364  0.287838  0.904364  1
  Mg  Mg16  1  0.674691  0.979694  0.674691  1
  Mg  Mg17  1  0.674691  0.670925  0.674691  1
  In  In18  1  0.668508  0.669551  0.992392  1
  In  In19  1  0.992392  0.669551  0.668508  1
  Co  Co20  1  0.108553  0.109630  0.108553  1
  Co  Co21  1  0.109256  0.109878  0.670987  1
  Co  Co22  1  0.670987  0.109878  0.109256  1
  Co  Co23  1  0.108553  0.673263  0.108553  1
