# generated using pymatgen
data_Tm2PaFe2
_symmetry_space_group_name_H-M   'P 1'
_cell_length_a   3.71093650
_cell_length_b   5.69910496
_cell_length_c   5.85431584
_cell_angle_alpha   119.12679822
_cell_angle_beta   108.47799497
_cell_angle_gamma   90.00000057
_symmetry_Int_Tables_number   1
_chemical_formula_structural   Tm2PaFe2
_chemical_formula_sum   'Tm2 Pa1 Fe2'
_cell_volume   100.78631349
_cell_formula_units_Z   1
loop_
 _symmetry_equiv_pos_site_id
 _symmetry_equiv_pos_as_xyz
  1  'x, y, z'
loop_
 _atom_site_type_symbol
 _atom_site_label
 _atom_site_symmetry_multiplicity
 _atom_site_fract_x
 _atom_site_fract_y
 _atom_site_fract_z
 _atom_site_occupancy
  Tm  Tm0  1  0.801901  0.301901  0.603802  1
  Tm  Tm1  1  0.198099  0.698099  0.396198  1
  Pa  Pa2  1  0.000000  0.000000  0.000000  1
  Fe  Fe3  1  0.500000  0.294301  0.000000  1
  Fe  Fe4  1  0.500000  0.705699  0.000000  1
