# generated using pymatgen
data_NbTcI4
_symmetry_space_group_name_H-M   'P 1'
_cell_length_a   10.73616195
_cell_length_b   10.73616203
_cell_length_c   13.02518100
_cell_angle_alpha   90.00000000
_cell_angle_beta   90.00000000
_cell_angle_gamma   105.95562819
_symmetry_Int_Tables_number   1
_chemical_formula_structural   NbTcI4
_chemical_formula_sum   'Nb6 Tc6 I24'
_cell_volume   1443.51006487
_cell_formula_units_Z   6
loop_
 _symmetry_equiv_pos_site_id
 _symmetry_equiv_pos_as_xyz
  1  'x, y, z'
loop_
 _atom_site_type_symbol
 _atom_site_label
 _atom_site_symmetry_multiplicity
 _atom_site_fract_x
 _atom_site_fract_y
 _atom_site_fract_z
 _atom_site_occupancy
  Nb  Nb0  1  0.365180  0.365180  0.569571  1
  Nb  Nb1  1  0.134820  0.134820  0.069571  1
  Nb  Nb2  1  0.387032  0.612222  0.500422  1
  Nb  Nb3  1  0.112968  0.887778  0.000422  1
  Nb  Nb4  1  0.612222  0.387032  0.500422  1
  Nb  Nb5  1  0.887778  0.112968  0.000422  1
  Tc  Tc6  1  0.068683  0.068683  0.866218  1
  Tc  Tc7  1  0.431317  0.431317  0.366218  1
  Tc  Tc8  1  0.569413  0.569413  0.633724  1
  Tc  Tc9  1  0.930587  0.930587  0.133724  1
  Tc  Tc10  1  0.866415  0.866415  0.932319  1
  Tc  Tc11  1  0.633585  0.633585  0.432319  1
  I  I12  1  0.657782  0.657782  0.842675  1
  I  I13  1  0.842218  0.842218  0.342675  1
  I  I14  1  0.154677  0.154677  0.660825  1
  I  I15  1  0.345323  0.345323  0.160825  1
  I  I16  1  0.218732  0.778436  0.501970  1
  I  I17  1  0.281268  0.721564  0.001970  1
  I  I18  1  0.778436  0.218732  0.501970  1
  I  I19  1  0.721564  0.281268  0.001970  1
  I  I20  1  0.320959  0.094552  0.925010  1
  I  I21  1  0.179041  0.405448  0.425010  1
  I  I22  1  0.601926  0.819443  0.566511  1
  I  I23  1  0.898074  0.680557  0.066511  1
  I  I24  1  0.946191  0.173063  0.211397  1
  I  I25  1  0.553809  0.326937  0.711397  1
  I  I26  1  0.678185  0.460547  0.292025  1
  I  I27  1  0.821815  0.039453  0.792025  1
  I  I28  1  0.039453  0.821815  0.792025  1
  I  I29  1  0.460547  0.678185  0.292025  1
  I  I30  1  0.326937  0.553809  0.711397  1
  I  I31  1  0.173063  0.946191  0.211397  1
  I  I32  1  0.094552  0.320959  0.925010  1
  I  I33  1  0.405448  0.179041  0.425010  1
  I  I34  1  0.819443  0.601926  0.566511  1
  I  I35  1  0.680557  0.898074  0.066511  1
