# generated using pymatgen
data_La7Yb(DyRu2)2
_symmetry_space_group_name_H-M   'P 1'
_cell_length_a   8.93516813
_cell_length_b   8.98289566
_cell_length_c   7.29257319
_cell_angle_alpha   85.87282211
_cell_angle_beta   85.22438992
_cell_angle_gamma   43.97031418
_symmetry_Int_Tables_number   1
_chemical_formula_structural   La7Yb(DyRu2)2
_chemical_formula_sum   'La7 Yb1 Dy2 Ru4'
_cell_volume   404.91306400
_cell_formula_units_Z   1
loop_
 _symmetry_equiv_pos_site_id
 _symmetry_equiv_pos_as_xyz
  1  'x, y, z'
loop_
 _atom_site_type_symbol
 _atom_site_label
 _atom_site_symmetry_multiplicity
 _atom_site_fract_x
 _atom_site_fract_y
 _atom_site_fract_z
 _atom_site_occupancy
  La  La0  1  0.020059  0.800878  0.905414  1
  La  La1  1  0.209754  0.364185  0.314764  1
  La  La2  1  0.629913  0.792516  0.180573  1
  La  La3  1  0.785608  0.636421  0.680483  1
  La  La4  1  0.363984  0.209918  0.812195  1
  La  La5  1  0.982172  0.202196  0.092419  1
  La  La6  1  0.796540  0.021693  0.407496  1
  Yb  Yb7  1  0.198411  0.983446  0.585561  1
  Dy  Dy8  1  0.566254  0.435379  0.748062  1
  Dy  Dy9  1  0.432489  0.566683  0.252899  1
  Ru  Ru10  1  0.176440  0.601154  0.580077  1
  Ru  Ru11  1  0.407936  0.813823  0.940421  1
  Ru  Ru12  1  0.822688  0.394470  0.423507  1
  Ru  Ru13  1  0.607751  0.177238  0.076129  1
