# generated using pymatgen
data_Y6Ho4Si6H
_symmetry_space_group_name_H-M   'P 1'
_cell_length_a   8.44208300
_cell_length_b   8.44208469
_cell_length_c   6.29415800
_cell_angle_alpha   90.00000000
_cell_angle_beta   90.00000000
_cell_angle_gamma   119.99999730
_symmetry_Int_Tables_number   1
_chemical_formula_structural   Y6Ho4Si6H
_chemical_formula_sum   'Y6 Ho4 Si6 H1'
_cell_volume   388.47905303
_cell_formula_units_Z   1
loop_
 _symmetry_equiv_pos_site_id
 _symmetry_equiv_pos_as_xyz
  1  'x, y, z'
loop_
 _atom_site_type_symbol
 _atom_site_label
 _atom_site_symmetry_multiplicity
 _atom_site_fract_x
 _atom_site_fract_y
 _atom_site_fract_z
 _atom_site_occupancy
  Y  Y0  1  0.000000  0.752682  0.248029  1
  Y  Y1  1  0.247318  0.247318  0.248029  1
  Y  Y2  1  0.752682  0.000000  0.248029  1
  Y  Y3  1  0.000000  0.247318  0.751971  1
  Y  Y4  1  0.752682  0.752682  0.751971  1
  Y  Y5  1  0.247318  0.000000  0.751971  1
  Ho  Ho6  1  0.333333  0.666667  0.500000  1
  Ho  Ho7  1  0.666667  0.333333  0.500000  1
  Ho  Ho8  1  0.666667  0.333333  0.000000  1
  Ho  Ho9  1  0.333333  0.666667  0.000000  1
  Si  Si10  1  0.000000  0.391371  0.250474  1
  Si  Si11  1  0.608629  0.608629  0.250474  1
  Si  Si12  1  0.391371  0.000000  0.250474  1
  Si  Si13  1  0.000000  0.608629  0.749526  1
  Si  Si14  1  0.391371  0.391371  0.749526  1
  Si  Si15  1  0.608629  0.000000  0.749526  1
  H  H16  1  0.000000  0.000000  0.500000  1
