# generated using pymatgen
data_Cs2TiZnSe4
_symmetry_space_group_name_H-M   'P 1'
_cell_length_a   14.93552224
_cell_length_b   13.31694034
_cell_length_c   7.97465600
_cell_angle_alpha   85.17472355
_cell_angle_beta   62.68144211
_cell_angle_gamma   32.14383224
_symmetry_Int_Tables_number   1
_chemical_formula_structural   Cs2TiZnSe4
_chemical_formula_sum   'Cs4 Ti2 Zn2 Se8'
_cell_volume   573.52871451
_cell_formula_units_Z   2
loop_
 _symmetry_equiv_pos_site_id
 _symmetry_equiv_pos_as_xyz
  1  'x, y, z'
loop_
 _atom_site_type_symbol
 _atom_site_label
 _atom_site_symmetry_multiplicity
 _atom_site_fract_x
 _atom_site_fract_y
 _atom_site_fract_z
 _atom_site_occupancy
  Cs  Cs0  1  0.571151  0.571151  0.928849  1
  Cs  Cs1  1  0.928849  0.928849  0.571151  1
  Cs  Cs2  1  0.678849  0.678849  0.321151  1
  Cs  Cs3  1  0.321151  0.321151  0.678849  1
  Ti  Ti4  1  0.500000  0.500000  0.500000  1
  Ti  Ti5  1  0.750000  0.750000  0.750000  1
  Zn  Zn6  1  0.250000  0.250000  0.250000  1
  Zn  Zn7  1  0.000000  0.000000  0.000000  1
  Se  Se8  1  0.221751  0.883882  0.592772  1
  Se  Se9  1  0.301596  0.592772  0.883882  1
  Se  Se10  1  0.592772  0.301596  0.221751  1
  Se  Se11  1  0.883882  0.221751  0.301596  1
  Se  Se12  1  0.657228  0.948404  0.028249  1
  Se  Se13  1  0.366118  0.028249  0.948404  1
  Se  Se14  1  0.948404  0.657228  0.366118  1
  Se  Se15  1  0.028249  0.366118  0.657228  1
