# generated using pymatgen
data_Ac4Mg5Sn6
_symmetry_space_group_name_H-M   'P 1'
_cell_length_a   11.00233601
_cell_length_b   11.00233566
_cell_length_c   17.29472500
_cell_angle_alpha   90.00000000
_cell_angle_beta   90.00000000
_cell_angle_gamma   153.71948753
_symmetry_Int_Tables_number   1
_chemical_formula_structural   Ac4Mg5Sn6
_chemical_formula_sum   'Ac8 Mg10 Sn12'
_cell_volume   926.95353555
_cell_formula_units_Z   2
loop_
 _symmetry_equiv_pos_site_id
 _symmetry_equiv_pos_as_xyz
  1  'x, y, z'
loop_
 _atom_site_type_symbol
 _atom_site_label
 _atom_site_symmetry_multiplicity
 _atom_site_fract_x
 _atom_site_fract_y
 _atom_site_fract_z
 _atom_site_occupancy
  Ac  Ac0  1  0.018997  0.981003  0.767251  1
  Ac  Ac1  1  0.981003  0.018997  0.267251  1
  Ac  Ac2  1  0.033803  0.966197  0.503168  1
  Ac  Ac3  1  0.966197  0.033803  0.003168  1
  Ac  Ac4  1  0.165557  0.834443  0.963294  1
  Ac  Ac5  1  0.834443  0.165557  0.463294  1
  Ac  Ac6  1  0.176145  0.823855  0.322718  1
  Ac  Ac7  1  0.823855  0.176145  0.822718  1
  Mg  Mg8  1  0.153623  0.846377  0.640717  1
  Mg  Mg9  1  0.846377  0.153623  0.140717  1
  Mg  Mg10  1  0.303055  0.696945  0.645066  1
  Mg  Mg11  1  0.696945  0.303055  0.145066  1
  Mg  Mg12  1  0.341835  0.658165  0.997891  1
  Mg  Mg13  1  0.658165  0.341835  0.497891  1
  Mg  Mg14  1  0.440639  0.559361  0.592386  1
  Mg  Mg15  1  0.559361  0.440639  0.092386  1
  Mg  Mg16  1  0.649119  0.350881  0.784800  1
  Mg  Mg17  1  0.350881  0.649119  0.284800  1
  Sn  Sn18  1  0.110970  0.889030  0.146273  1
  Sn  Sn19  1  0.889030  0.110970  0.646273  1
  Sn  Sn20  1  0.223182  0.776818  0.783423  1
  Sn  Sn21  1  0.776818  0.223182  0.283423  1
  Sn  Sn22  1  0.230598  0.769402  0.502485  1
  Sn  Sn23  1  0.769402  0.230598  0.002485  1
  Sn  Sn24  1  0.429386  0.570614  0.860869  1
  Sn  Sn25  1  0.570614  0.429386  0.360869  1
  Sn  Sn26  1  0.558730  0.441270  0.915801  1
  Sn  Sn27  1  0.441270  0.558730  0.415801  1
  Sn  Sn28  1  0.573718  0.426282  0.638315  1
  Sn  Sn29  1  0.426282  0.573718  0.138315  1
