# generated using pymatgen
data_K5Tl5(Tc3Se7)2
_symmetry_space_group_name_H-M   'P 1'
_cell_length_a   11.13656073
_cell_length_b   11.02812525
_cell_length_c   11.35431100
_cell_angle_alpha   59.13523405
_cell_angle_beta   59.45855085
_cell_angle_gamma   60.32309910
_symmetry_Int_Tables_number   1
_chemical_formula_structural   K5Tl5(Tc3Se7)2
_chemical_formula_sum   'K5 Tl5 Tc6 Se14'
_cell_volume   977.73122884
_cell_formula_units_Z   1
loop_
 _symmetry_equiv_pos_site_id
 _symmetry_equiv_pos_as_xyz
  1  'x, y, z'
loop_
 _atom_site_type_symbol
 _atom_site_label
 _atom_site_symmetry_multiplicity
 _atom_site_fract_x
 _atom_site_fract_y
 _atom_site_fract_z
 _atom_site_occupancy
  K  K0  1  0.991299  0.416002  0.596525  1
  K  K1  1  0.014592  0.004654  0.470691  1
  K  K2  1  0.984135  0.419600  0.992252  1
  K  K3  1  0.180729  0.616699  0.098575  1
  K  K4  1  0.592195  0.149369  0.127633  1
  Tl  Tl5  1  0.000618  0.032224  0.981718  1
  Tl  Tl6  1  0.394159  0.980433  0.006500  1
  Tl  Tl7  1  0.393425  0.984339  0.614638  1
  Tl  Tl8  1  0.844218  0.870760  0.879961  1
  Tl  Tl9  1  0.835510  0.862339  0.400723  1
  Tc  Tc10  1  0.383231  0.619400  0.614096  1
  Tc  Tc11  1  0.382614  0.375102  0.620357  1
  Tc  Tc12  1  0.382670  0.618215  0.381674  1
  Tc  Tc13  1  0.621173  0.376152  0.617674  1
  Tc  Tc14  1  0.624354  0.618289  0.376961  1
  Tc  Tc15  1  0.620834  0.374860  0.384072  1
  Se  Se16  1  0.220487  0.194963  0.792127  1
  Se  Se17  1  0.198518  0.805595  0.762761  1
  Se  Se18  1  0.386303  0.383534  0.839001  1
  Se  Se19  1  0.159847  0.608874  0.614919  1
  Se  Se20  1  0.617416  0.613798  0.607281  1
  Se  Se21  1  0.197548  0.802228  0.231990  1
  Se  Se22  1  0.385672  0.381315  0.390831  1
  Se  Se23  1  0.396510  0.842779  0.378847  1
  Se  Se24  1  0.611638  0.151672  0.617851  1
  Se  Se25  1  0.794674  0.197019  0.780790  1
  Se  Se26  1  0.844728  0.385215  0.383862  1
  Se  Se27  1  0.615933  0.611678  0.160402  1
  Se  Se28  1  0.804165  0.785785  0.199955  1
  Se  Se29  1  0.795605  0.191915  0.230137  1
