# generated using pymatgen
data_K3Li3Sc2F12
_symmetry_space_group_name_H-M   'P 1'
_cell_length_a   11.38420051
_cell_length_b   11.38420104
_cell_length_c   11.38420100
_cell_angle_alpha   109.47122234
_cell_angle_beta   109.47122328
_cell_angle_gamma   109.47121957
_symmetry_Int_Tables_number   1
_chemical_formula_structural   K3Li3Sc2F12
_chemical_formula_sum   'K12 Li12 Sc8 F48'
_cell_volume   1135.75783058
_cell_formula_units_Z   4
loop_
 _symmetry_equiv_pos_site_id
 _symmetry_equiv_pos_as_xyz
  1  'x, y, z'
loop_
 _atom_site_type_symbol
 _atom_site_label
 _atom_site_symmetry_multiplicity
 _atom_site_fract_x
 _atom_site_fract_y
 _atom_site_fract_z
 _atom_site_occupancy
  K  K0  1  0.875000  0.750000  0.625000  1
  K  K1  1  0.625000  0.250000  0.875000  1
  K  K2  1  0.250000  0.875000  0.625000  1
  K  K3  1  0.875000  0.625000  0.250000  1
  K  K4  1  0.625000  0.875000  0.750000  1
  K  K5  1  0.750000  0.625000  0.875000  1
  K  K6  1  0.125000  0.250000  0.375000  1
  K  K7  1  0.375000  0.750000  0.125000  1
  K  K8  1  0.750000  0.125000  0.375000  1
  K  K9  1  0.125000  0.375000  0.750000  1
  K  K10  1  0.250000  0.375000  0.125000  1
  K  K11  1  0.375000  0.125000  0.250000  1
  Li  Li12  1  0.625000  0.375000  0.250000  1
  Li  Li13  1  0.250000  0.125000  0.875000  1
  Li  Li14  1  0.750000  0.875000  0.125000  1
  Li  Li15  1  0.125000  0.750000  0.875000  1
  Li  Li16  1  0.375000  0.250000  0.625000  1
  Li  Li17  1  0.875000  0.125000  0.750000  1
  Li  Li18  1  0.875000  0.250000  0.125000  1
  Li  Li19  1  0.625000  0.750000  0.375000  1
  Li  Li20  1  0.750000  0.375000  0.625000  1
  Li  Li21  1  0.375000  0.625000  0.750000  1
  Li  Li22  1  0.125000  0.875000  0.250000  1
  Li  Li23  1  0.250000  0.625000  0.375000  1
  Sc  Sc24  1  0.500000  0.500000  0.500000  1
  Sc  Sc25  1  0.500000  0.000000  0.500000  1
  Sc  Sc26  1  0.000000  0.500000  0.500000  1
  Sc  Sc27  1  0.500000  0.500000  0.000000  1
  Sc  Sc28  1  0.000000  0.000000  0.500000  1
  Sc  Sc29  1  0.000000  0.500000  0.000000  1
  Sc  Sc30  1  0.500000  0.000000  0.000000  1
  Sc  Sc31  1  0.000000  0.000000  0.000000  1
  F  F32  1  0.418915  0.819603  0.811323  1
  F  F33  1  0.400688  0.819603  0.508281  1
  F  F34  1  0.081085  0.688677  0.680397  1
  F  F35  1  0.099312  0.607593  0.418915  1
  F  F36  1  0.508281  0.400688  0.819603  1
  F  F37  1  0.081085  0.892407  0.400688  1
  F  F38  1  0.991719  0.680397  0.099312  1
  F  F39  1  0.819603  0.811323  0.418915  1
  F  F40  1  0.688677  0.680397  0.081085  1
  F  F41  1  0.811323  0.892407  0.991719  1
  F  F42  1  0.991719  0.811323  0.892407  1
  F  F43  1  0.819603  0.508281  0.400688  1
  F  F44  1  0.688677  0.508281  0.607593  1
  F  F45  1  0.607593  0.418915  0.099312  1
  F  F46  1  0.607593  0.688677  0.508281  1
  F  F47  1  0.680397  0.081085  0.688677  1
  F  F48  1  0.508281  0.607593  0.688677  1
  F  F49  1  0.418915  0.099312  0.607593  1
  F  F50  1  0.099312  0.991719  0.680397  1
  F  F51  1  0.892407  0.400688  0.081085  1
  F  F52  1  0.107593  0.008281  0.188677  1
  F  F53  1  0.599312  0.918915  0.107593  1
  F  F54  1  0.188677  0.581085  0.180397  1
  F  F55  1  0.180397  0.188677  0.581085  1
  F  F56  1  0.319603  0.900688  0.008281  1
  F  F57  1  0.008281  0.319603  0.900688  1
  F  F58  1  0.918915  0.107593  0.599312  1
  F  F59  1  0.491719  0.599312  0.180397  1
  F  F60  1  0.900688  0.392407  0.581085  1
  F  F61  1  0.918915  0.311323  0.319603  1
  F  F62  1  0.599312  0.180397  0.491719  1
  F  F63  1  0.581085  0.900688  0.392407  1
  F  F64  1  0.311323  0.319603  0.918915  1
  F  F65  1  0.188677  0.107593  0.008281  1
  F  F66  1  0.008281  0.188677  0.107593  1
  F  F67  1  0.180397  0.491719  0.599312  1
  F  F68  1  0.311323  0.491719  0.392407  1
  F  F69  1  0.392407  0.581085  0.900688  1
  F  F70  1  0.392407  0.311323  0.491719  1
  F  F71  1  0.319603  0.918915  0.311323  1
  F  F72  1  0.491719  0.392407  0.311323  1
  F  F73  1  0.900688  0.008281  0.319603  1
  F  F74  1  0.107593  0.599312  0.918915  1
  F  F75  1  0.581085  0.180397  0.188677  1
  F  F76  1  0.892407  0.991719  0.811323  1
  F  F77  1  0.400688  0.081085  0.892407  1
  F  F78  1  0.811323  0.418915  0.819603  1
  F  F79  1  0.680397  0.099312  0.991719  1
