# generated using pymatgen
data_LaTb2Ni8Ir
_symmetry_space_group_name_H-M   'P 1'
_cell_length_a   5.02243379
_cell_length_b   5.02243574
_cell_length_c   8.78351033
_cell_angle_alpha   73.38726338
_cell_angle_beta   73.38726853
_cell_angle_gamma   60.00000386
_symmetry_Int_Tables_number   1
_chemical_formula_structural   LaTb2Ni8Ir
_chemical_formula_sum   'La1 Tb2 Ni8 Ir1'
_cell_volume   181.12133504
_cell_formula_units_Z   1
loop_
 _symmetry_equiv_pos_site_id
 _symmetry_equiv_pos_as_xyz
  1  'x, y, z'
loop_
 _atom_site_type_symbol
 _atom_site_label
 _atom_site_symmetry_multiplicity
 _atom_site_fract_x
 _atom_site_fract_y
 _atom_site_fract_z
 _atom_site_occupancy
  La  La0  1  0.000000  0.000000  0.000000  1
  Tb  Tb1  1  0.139346  0.139346  0.581965  1
  Tb  Tb2  1  0.860654  0.860654  0.418035  1
  Ni  Ni3  1  0.079682  0.582195  0.755925  1
  Ni  Ni4  1  0.582195  0.582195  0.755925  1
  Ni  Ni5  1  0.582195  0.079682  0.755925  1
  Ni  Ni6  1  0.920318  0.417805  0.244075  1
  Ni  Ni7  1  0.417805  0.417805  0.244075  1
  Ni  Ni8  1  0.417805  0.920318  0.244075  1
  Ni  Ni9  1  0.332595  0.332595  0.002214  1
  Ni  Ni10  1  0.667405  0.667405  0.997786  1
  Ir  Ir11  1  0.500000  0.500000  0.500000  1
