# generated using pymatgen
data_Tb8InAgIr2
_symmetry_space_group_name_H-M   'P 1'
_cell_length_a   9.65465785
_cell_length_b   9.65465825
_cell_length_c   9.66534300
_cell_angle_alpha   59.96338067
_cell_angle_beta   59.96337931
_cell_angle_gamma   60.01126264
_symmetry_Int_Tables_number   1
_chemical_formula_structural   Tb8InAgIr2
_chemical_formula_sum   'Tb16 In2 Ag2 Ir4'
_cell_volume   636.75500659
_cell_formula_units_Z   2
loop_
 _symmetry_equiv_pos_site_id
 _symmetry_equiv_pos_as_xyz
  1  'x, y, z'
loop_
 _atom_site_type_symbol
 _atom_site_label
 _atom_site_symmetry_multiplicity
 _atom_site_fract_x
 _atom_site_fract_y
 _atom_site_fract_z
 _atom_site_occupancy
  Tb  Tb0  1  0.599699  0.599699  0.599805  1
  Tb  Tb1  1  0.599699  0.599699  0.200797  1
  Tb  Tb2  1  0.600317  0.199724  0.599980  1
  Tb  Tb3  1  0.199724  0.600317  0.599980  1
  Tb  Tb4  1  0.059662  0.439804  0.440975  1
  Tb  Tb5  1  0.439804  0.059662  0.059560  1
  Tb  Tb6  1  0.439804  0.059662  0.440975  1
  Tb  Tb7  1  0.059662  0.439804  0.059560  1
  Tb  Tb8  1  0.441790  0.441790  0.058210  1
  Tb  Tb9  1  0.060949  0.060949  0.439051  1
  Tb  Tb10  1  0.185035  0.810921  0.812731  1
  Tb  Tb11  1  0.810921  0.185035  0.191312  1
  Tb  Tb12  1  0.810921  0.185035  0.812731  1
  Tb  Tb13  1  0.185035  0.810921  0.191312  1
  Tb  Tb14  1  0.810624  0.810624  0.189376  1
  Tb  Tb15  1  0.187576  0.187576  0.812424  1
  In  In16  1  0.833098  0.507807  0.829547  1
  In  In17  1  0.507807  0.833098  0.829547  1
  Ag  Ag18  1  0.833170  0.833170  0.832334  1
  Ag  Ag19  1  0.833170  0.833170  0.501327  1
  Ir  Ir20  1  0.392278  0.392278  0.390553  1
  Ir  Ir21  1  0.392278  0.392278  0.824892  1
  Ir  Ir22  1  0.392072  0.824910  0.391509  1
  Ir  Ir23  1  0.824910  0.392072  0.391509  1
