# generated using pymatgen
data_Tb3PrDy(In2Pt)2
_symmetry_space_group_name_H-M   'P 1'
_cell_length_a   3.67492700
_cell_length_b   8.21344060
_cell_length_c   18.51472276
_cell_angle_alpha   90.13419228
_cell_angle_beta   90.00000000
_cell_angle_gamma   90.00000000
_symmetry_Int_Tables_number   1
_chemical_formula_structural   Tb3PrDy(In2Pt)2
_chemical_formula_sum   'Tb6 Pr2 Dy2 In8 Pt4'
_cell_volume   558.84305677
_cell_formula_units_Z   2
loop_
 _symmetry_equiv_pos_site_id
 _symmetry_equiv_pos_as_xyz
  1  'x, y, z'
loop_
 _atom_site_type_symbol
 _atom_site_label
 _atom_site_symmetry_multiplicity
 _atom_site_fract_x
 _atom_site_fract_y
 _atom_site_fract_z
 _atom_site_occupancy
  Tb  Tb0  1  0.000000  0.118406  0.413645  1
  Tb  Tb1  1  0.000000  0.881594  0.586355  1
  Tb  Tb2  1  0.000000  0.381372  0.913583  1
  Tb  Tb3  1  0.000000  0.618628  0.086417  1
  Tb  Tb4  1  0.000000  0.243385  0.219790  1
  Tb  Tb5  1  0.000000  0.756615  0.780210  1
  Pr  Pr6  1  0.000000  0.000000  0.000000  1
  Pr  Pr7  1  0.000000  0.500000  0.500000  1
  Dy  Dy8  1  0.000000  0.256522  0.719787  1
  Dy  Dy9  1  0.000000  0.743478  0.280213  1
  In  In10  1  0.500000  0.424721  0.348654  1
  In  In11  1  0.500000  0.575279  0.651346  1
  In  In12  1  0.500000  0.075762  0.848541  1
  In  In13  1  0.500000  0.924238  0.151459  1
  In  In14  1  0.500000  0.298912  0.069426  1
  In  In15  1  0.500000  0.701088  0.930574  1
  In  In16  1  0.500000  0.201576  0.569501  1
  In  In17  1  0.500000  0.798424  0.430499  1
  Pt  Pt18  1  0.500000  0.024857  0.303233  1
  Pt  Pt19  1  0.500000  0.975143  0.696767  1
  Pt  Pt20  1  0.500000  0.473133  0.802911  1
  Pt  Pt21  1  0.500000  0.526867  0.197089  1
