# generated using pymatgen
data_Dy4ErGaCo5
_symmetry_space_group_name_H-M   'P 1'
_cell_length_a   5.47585866
_cell_length_b   5.47585887
_cell_length_c   20.50880600
_cell_angle_alpha   90.00000000
_cell_angle_beta   90.00000000
_cell_angle_gamma   136.90541587
_symmetry_Int_Tables_number   1
_chemical_formula_structural   Dy4ErGaCo5
_chemical_formula_sum   'Dy8 Er2 Ga2 Co10'
_cell_volume   420.14164498
_cell_formula_units_Z   2
loop_
 _symmetry_equiv_pos_site_id
 _symmetry_equiv_pos_as_xyz
  1  'x, y, z'
loop_
 _atom_site_type_symbol
 _atom_site_label
 _atom_site_symmetry_multiplicity
 _atom_site_fract_x
 _atom_site_fract_y
 _atom_site_fract_z
 _atom_site_occupancy
  Dy  Dy0  1  0.291844  0.708156  0.065963  1
  Dy  Dy1  1  0.997333  0.002667  0.842503  1
  Dy  Dy2  1  0.708156  0.291844  0.565963  1
  Dy  Dy3  1  0.002667  0.997333  0.342503  1
  Dy  Dy4  1  0.997333  0.002667  0.657497  1
  Dy  Dy5  1  0.708156  0.291844  0.934037  1
  Dy  Dy6  1  0.002667  0.997333  0.157497  1
  Dy  Dy7  1  0.291844  0.708156  0.434037  1
  Er  Er8  1  0.289449  0.710551  0.250000  1
  Er  Er9  1  0.710551  0.289449  0.750000  1
  Ga  Ga10  1  0.000000  0.000000  0.500000  1
  Ga  Ga11  1  0.000000  0.000000  0.000000  1
  Co  Co12  1  0.293332  0.706668  0.654656  1
  Co  Co13  1  0.582717  0.417283  0.441322  1
  Co  Co14  1  0.412359  0.587641  0.750000  1
  Co  Co15  1  0.417283  0.582717  0.941322  1
  Co  Co16  1  0.587641  0.412359  0.250000  1
  Co  Co17  1  0.417283  0.582717  0.558678  1
  Co  Co18  1  0.706668  0.293332  0.345344  1
  Co  Co19  1  0.706668  0.293332  0.154656  1
  Co  Co20  1  0.582717  0.417283  0.058678  1
  Co  Co21  1  0.293332  0.706668  0.845344  1
