# generated using pymatgen
data_Tb3Zn3Ge2Pd
_symmetry_space_group_name_H-M   'P 1'
_cell_length_a   6.95094100
_cell_length_b   6.95094119
_cell_length_c   4.30954800
_cell_angle_alpha   90.00000000
_cell_angle_beta   90.00000000
_cell_angle_gamma   119.99999431
_symmetry_Int_Tables_number   1
_chemical_formula_structural   Tb3Zn3Ge2Pd
_chemical_formula_sum   'Tb3 Zn3 Ge2 Pd1'
_cell_volume   180.32236532
_cell_formula_units_Z   1
loop_
 _symmetry_equiv_pos_site_id
 _symmetry_equiv_pos_as_xyz
  1  'x, y, z'
loop_
 _atom_site_type_symbol
 _atom_site_label
 _atom_site_symmetry_multiplicity
 _atom_site_fract_x
 _atom_site_fract_y
 _atom_site_fract_z
 _atom_site_occupancy
  Tb  Tb0  1  0.000000  0.412214  0.000000  1
  Tb  Tb1  1  0.587786  0.587786  0.000000  1
  Tb  Tb2  1  0.412214  0.000000  0.000000  1
  Zn  Zn3  1  0.000000  0.762500  0.500000  1
  Zn  Zn4  1  0.237500  0.237500  0.500000  1
  Zn  Zn5  1  0.762500  0.000000  0.500000  1
  Ge  Ge6  1  0.333333  0.666667  0.500000  1
  Ge  Ge7  1  0.666667  0.333333  0.500000  1
  Pd  Pd8  1  0.000000  0.000000  0.000000  1
