# generated using pymatgen
data_Ce2Ho6AlPd24
_symmetry_space_group_name_H-M   'P 1'
_cell_length_a   8.36642896
_cell_length_b   8.36642931
_cell_length_c   8.36642965
_cell_angle_alpha   90.16540719
_cell_angle_beta   89.83459069
_cell_angle_gamma   89.83458837
_symmetry_Int_Tables_number   1
_chemical_formula_structural   Ce2Ho6AlPd24
_chemical_formula_sum   'Ce2 Ho6 Al1 Pd24'
_cell_volume   585.61878245
_cell_formula_units_Z   1
loop_
 _symmetry_equiv_pos_site_id
 _symmetry_equiv_pos_as_xyz
  1  'x, y, z'
loop_
 _atom_site_type_symbol
 _atom_site_label
 _atom_site_symmetry_multiplicity
 _atom_site_fract_x
 _atom_site_fract_y
 _atom_site_fract_z
 _atom_site_occupancy
  Ce  Ce0  1  0.254165  0.745835  0.745835  1
  Ce  Ce1  1  0.745835  0.254165  0.254165  1
  Ho  Ho2  1  0.251736  0.252183  0.252183  1
  Ho  Ho3  1  0.748264  0.747817  0.747817  1
  Ho  Ho4  1  0.747817  0.748264  0.252183  1
  Ho  Ho5  1  0.747817  0.252183  0.748264  1
  Ho  Ho6  1  0.252183  0.251736  0.747817  1
  Ho  Ho7  1  0.252183  0.747817  0.251736  1
  Al  Al8  1  0.000000  0.000000  0.000000  1
  Pd  Pd9  1  0.259234  0.499881  0.999922  1
  Pd  Pd10  1  0.740766  0.500119  0.000078  1
  Pd  Pd11  1  0.999922  0.259234  0.500119  1
  Pd  Pd12  1  0.499881  0.259234  0.000078  1
  Pd  Pd13  1  0.000078  0.740766  0.499881  1
  Pd  Pd14  1  0.500119  0.740766  0.999922  1
  Pd  Pd15  1  0.499881  0.000078  0.259234  1
  Pd  Pd16  1  0.259234  0.999922  0.499881  1
  Pd  Pd17  1  0.500119  0.999922  0.740766  1
  Pd  Pd18  1  0.740766  0.000078  0.500119  1
  Pd  Pd19  1  0.999922  0.500119  0.259234  1
  Pd  Pd20  1  0.000078  0.499881  0.740766  1
  Pd  Pd21  1  0.252805  0.499673  0.499673  1
  Pd  Pd22  1  0.747195  0.500327  0.500327  1
  Pd  Pd23  1  0.499673  0.252805  0.500327  1
  Pd  Pd24  1  0.500327  0.747195  0.499673  1
  Pd  Pd25  1  0.499673  0.500327  0.252805  1
  Pd  Pd26  1  0.500327  0.499673  0.747195  1
  Pd  Pd27  1  0.288375  0.000781  0.000781  1
  Pd  Pd28  1  0.711625  0.999219  0.999219  1
  Pd  Pd29  1  0.000781  0.288375  0.999219  1
  Pd  Pd30  1  0.999219  0.711625  0.000781  1
  Pd  Pd31  1  0.000781  0.999219  0.288375  1
  Pd  Pd32  1  0.999219  0.000781  0.711625  1
