# generated using pymatgen
data_Y9Ho(Zn2Bi)2
_symmetry_space_group_name_H-M   'P 1'
_cell_length_a   8.65236098
_cell_length_b   8.65236178
_cell_length_c   8.65236217
_cell_angle_alpha   123.54134311
_cell_angle_beta   123.54134471
_cell_angle_gamma   83.96838454
_symmetry_Int_Tables_number   1
_chemical_formula_structural   Y9Ho(Zn2Bi)2
_chemical_formula_sum   'Y9 Ho1 Zn4 Bi2'
_cell_volume   430.89446328
_cell_formula_units_Z   1
loop_
 _symmetry_equiv_pos_site_id
 _symmetry_equiv_pos_as_xyz
  1  'x, y, z'
loop_
 _atom_site_type_symbol
 _atom_site_label
 _atom_site_symmetry_multiplicity
 _atom_site_fract_x
 _atom_site_fract_y
 _atom_site_fract_z
 _atom_site_occupancy
  Y  Y0  1  0.500000  0.500000  0.000000  1
  Y  Y1  1  0.794750  0.294593  0.806342  1
  Y  Y2  1  0.205250  0.705407  0.193658  1
  Y  Y3  1  0.488249  0.988406  0.193658  1
  Y  Y4  1  0.294593  0.488249  0.499843  1
  Y  Y5  1  0.011594  0.205250  0.499843  1
  Y  Y6  1  0.511751  0.011594  0.806342  1
  Y  Y7  1  0.705407  0.511751  0.500157  1
  Y  Y8  1  0.988406  0.794750  0.500157  1
  Ho  Ho9  1  0.000000  0.000000  0.000000  1
  Zn  Zn10  1  0.139381  0.639477  0.778857  1
  Zn  Zn11  1  0.860619  0.360523  0.221143  1
  Zn  Zn12  1  0.639477  0.860619  0.500096  1
  Zn  Zn13  1  0.360523  0.139381  0.499904  1
  Bi  Bi14  1  0.249876  0.249876  0.000000  1
  Bi  Bi15  1  0.750124  0.750124  0.000000  1
