# generated using pymatgen
data_TcPbF7
_symmetry_space_group_name_H-M   'P 1'
_cell_length_a   4.84013839
_cell_length_b   7.61276826
_cell_length_c   7.88740455
_cell_angle_alpha   104.74803247
_cell_angle_beta   101.46901922
_cell_angle_gamma   91.65495621
_symmetry_Int_Tables_number   1
_chemical_formula_structural   TcPbF7
_chemical_formula_sum   'Tc2 Pb2 F14'
_cell_volume   274.46860748
_cell_formula_units_Z   2
loop_
 _symmetry_equiv_pos_site_id
 _symmetry_equiv_pos_as_xyz
  1  'x, y, z'
loop_
 _atom_site_type_symbol
 _atom_site_label
 _atom_site_symmetry_multiplicity
 _atom_site_fract_x
 _atom_site_fract_y
 _atom_site_fract_z
 _atom_site_occupancy
  Tc  Tc0  1  0.358358  0.189648  0.286371  1
  Tc  Tc1  1  0.641642  0.810352  0.713629  1
  Pb  Pb2  1  0.828817  0.650850  0.182387  1
  Pb  Pb3  1  0.171183  0.349150  0.817613  1
  F  F4  1  0.720272  0.427519  0.913625  1
  F  F5  1  0.279728  0.572481  0.086375  1
  F  F6  1  0.064414  0.053206  0.332717  1
  F  F7  1  0.935586  0.946794  0.667283  1
  F  F8  1  0.498577  0.968134  0.183511  1
  F  F9  1  0.501423  0.031866  0.816489  1
  F  F10  1  0.578106  0.205689  0.521071  1
  F  F11  1  0.421894  0.794311  0.478929  1
  F  F12  1  0.651399  0.327350  0.237231  1
  F  F13  1  0.348601  0.672650  0.762769  1
  F  F14  1  0.205657  0.407642  0.387454  1
  F  F15  1  0.794343  0.592358  0.612546  1
  F  F16  1  0.135639  0.188718  0.047867  1
  F  F17  1  0.864361  0.811282  0.952133  1
