# generated using pymatgen
data_Hg2BiIr4PbO14
_symmetry_space_group_name_H-M   'P 1'
_cell_length_a   7.34534332
_cell_length_b   7.33639826
_cell_length_c   7.23580700
_cell_angle_alpha   60.45254220
_cell_angle_beta   60.49208707
_cell_angle_gamma   61.02867051
_symmetry_Int_Tables_number   1
_chemical_formula_structural   Hg2BiIr4PbO14
_chemical_formula_sum   'Hg2 Bi1 Ir4 Pb1 O14'
_cell_volume   279.79625002
_cell_formula_units_Z   1
loop_
 _symmetry_equiv_pos_site_id
 _symmetry_equiv_pos_as_xyz
  1  'x, y, z'
loop_
 _atom_site_type_symbol
 _atom_site_label
 _atom_site_symmetry_multiplicity
 _atom_site_fract_x
 _atom_site_fract_y
 _atom_site_fract_z
 _atom_site_occupancy
  Hg  Hg0  1  0.125000  0.125000  0.625000  1
  Hg  Hg1  1  0.125000  0.125000  0.125000  1
  Bi  Bi2  1  0.625000  0.125000  0.125000  1
  Ir  Ir3  1  0.125000  0.625000  0.625000  1
  Ir  Ir4  1  0.625000  0.125000  0.625000  1
  Ir  Ir5  1  0.625000  0.625000  0.125000  1
  Ir  Ir6  1  0.625000  0.625000  0.625000  1
  Pb  Pb7  1  0.125000  0.625000  0.125000  1
  O  O8  1  0.703838  0.706335  0.294913  1
  O  O9  1  0.307817  0.308556  0.691814  1
  O  O10  1  0.690048  0.301674  0.710898  1
  O  O11  1  0.302939  0.689523  0.298767  1
  O  O12  1  0.302939  0.689523  0.708771  1
  O  O13  1  0.690048  0.301674  0.297380  1
  O  O14  1  0.546162  0.543665  0.955087  1
  O  O15  1  0.942183  0.941444  0.558186  1
  O  O16  1  0.559952  0.948326  0.539102  1
  O  O17  1  0.947061  0.560477  0.951233  1
  O  O18  1  0.947061  0.560477  0.541229  1
  O  O19  1  0.559952  0.948326  0.952620  1
  O  O20  1  0.242424  0.233627  0.261975  1
  O  O21  1  0.007576  0.016373  0.988025  1
