# generated using pymatgen
data_Tb2ThTlIn2Pd3
_symmetry_space_group_name_H-M   'P 1'
_cell_length_a   7.75967371
_cell_length_b   7.76146889
_cell_length_c   3.93802700
_cell_angle_alpha   90.00000000
_cell_angle_beta   90.00000000
_cell_angle_gamma   119.60428621
_symmetry_Int_Tables_number   1
_chemical_formula_structural   Tb2ThTlIn2Pd3
_chemical_formula_sum   'Tb2 Th1 Tl1 In2 Pd3'
_cell_volume   206.21234729
_cell_formula_units_Z   1
loop_
 _symmetry_equiv_pos_site_id
 _symmetry_equiv_pos_as_xyz
  1  'x, y, z'
loop_
 _atom_site_type_symbol
 _atom_site_label
 _atom_site_symmetry_multiplicity
 _atom_site_fract_x
 _atom_site_fract_y
 _atom_site_fract_z
 _atom_site_occupancy
  Tb  Tb0  1  0.407320  0.405553  0.500000  1
  Tb  Tb1  1  0.003467  0.594744  0.500000  1
  Th  Th2  1  0.590863  0.000975  0.500000  1
  Tl  Tl3  1  0.739262  0.727824  0.000000  1
  In  In4  1  0.248732  0.001245  0.000000  1
  In  In5  1  0.012295  0.268962  0.000000  1
  Pd  Pd6  1  0.999225  0.008492  0.500000  1
  Pd  Pd7  1  0.664452  0.317707  0.000000  1
  Pd  Pd8  1  0.334381  0.674498  0.000000  1
