# generated using pymatgen
data_Cr2Re4O17F
_symmetry_space_group_name_H-M   'P 1'
_cell_length_a   8.14530166
_cell_length_b   8.14530032
_cell_length_c   9.09106696
_cell_angle_alpha   90.35011456
_cell_angle_beta   89.64988501
_cell_angle_gamma   138.45818475
_symmetry_Int_Tables_number   1
_chemical_formula_structural   Cr2Re4O17F
_chemical_formula_sum   'Cr2 Re4 O17 F1'
_cell_volume   399.98381284
_cell_formula_units_Z   1
loop_
 _symmetry_equiv_pos_site_id
 _symmetry_equiv_pos_as_xyz
  1  'x, y, z'
loop_
 _atom_site_type_symbol
 _atom_site_label
 _atom_site_symmetry_multiplicity
 _atom_site_fract_x
 _atom_site_fract_y
 _atom_site_fract_z
 _atom_site_occupancy
  Cr  Cr0  1  0.873162  0.126838  0.758676  1
  Cr  Cr1  1  0.117356  0.882644  0.267497  1
  Re  Re2  1  0.517758  0.482242  0.691595  1
  Re  Re3  1  0.482602  0.517398  0.186993  1
  Re  Re4  1  0.228528  0.771472  0.874759  1
  Re  Re5  1  0.771454  0.228546  0.375483  1
  O  O6  1  0.075318  0.924682  0.432550  1
  O  O7  1  0.574253  0.425747  0.855738  1
  O  O8  1  0.425772  0.574228  0.351959  1
  O  O9  1  0.594498  0.405502  0.550283  1
  O  O10  1  0.406606  0.593394  0.047013  1
  O  O11  1  0.963683  0.539294  0.330577  1
  O  O12  1  0.035552  0.459177  0.830427  1
  O  O13  1  0.460706  0.036317  0.330577  1
  O  O14  1  0.540823  0.964448  0.830427  1
  O  O15  1  0.804516  0.195484  0.561637  1
  O  O16  1  0.194745  0.805255  0.059938  1
  O  O17  1  0.864324  0.135676  0.266222  1
  O  O18  1  0.136291  0.863709  0.766510  1
  O  O19  1  0.801712  0.701954  0.173873  1
  O  O20  1  0.199748  0.298250  0.677900  1
  O  O21  1  0.298046  0.198288  0.173873  1
  O  O22  1  0.701750  0.800252  0.677900  1
  F  F23  1  0.930800  0.069200  0.933532  1
