# generated using pymatgen
data_Tb4TmGaCo5
_symmetry_space_group_name_H-M   'P 1'
_cell_length_a   5.48360503
_cell_length_b   5.48360507
_cell_length_c   20.52016100
_cell_angle_alpha   90.00000000
_cell_angle_beta   90.00000000
_cell_angle_gamma   136.95501661
_symmetry_Int_Tables_number   1
_chemical_formula_structural   Tb4TmGaCo5
_chemical_formula_sum   'Tb8 Tm2 Ga2 Co10'
_cell_volume   421.17422589
_cell_formula_units_Z   2
loop_
 _symmetry_equiv_pos_site_id
 _symmetry_equiv_pos_as_xyz
  1  'x, y, z'
loop_
 _atom_site_type_symbol
 _atom_site_label
 _atom_site_symmetry_multiplicity
 _atom_site_fract_x
 _atom_site_fract_y
 _atom_site_fract_z
 _atom_site_occupancy
  Tb  Tb0  1  0.291263  0.708737  0.066048  1
  Tb  Tb1  1  0.998355  0.001645  0.842374  1
  Tb  Tb2  1  0.708737  0.291263  0.566048  1
  Tb  Tb3  1  0.001645  0.998355  0.342374  1
  Tb  Tb4  1  0.998355  0.001645  0.657626  1
  Tb  Tb5  1  0.708737  0.291263  0.933952  1
  Tb  Tb6  1  0.001645  0.998355  0.157626  1
  Tb  Tb7  1  0.291263  0.708737  0.433952  1
  Tm  Tm8  1  0.286714  0.713286  0.250000  1
  Tm  Tm9  1  0.713286  0.286714  0.750000  1
  Ga  Ga10  1  0.000000  0.000000  0.500000  1
  Ga  Ga11  1  0.000000  0.000000  0.000000  1
  Co  Co12  1  0.294532  0.705468  0.654611  1
  Co  Co13  1  0.581817  0.418183  0.441498  1
  Co  Co14  1  0.411930  0.588070  0.750000  1
  Co  Co15  1  0.418183  0.581817  0.941498  1
  Co  Co16  1  0.588070  0.411930  0.250000  1
  Co  Co17  1  0.418183  0.581817  0.558502  1
  Co  Co18  1  0.705468  0.294532  0.345389  1
  Co  Co19  1  0.705468  0.294532  0.154611  1
  Co  Co20  1  0.581817  0.418183  0.058502  1
  Co  Co21  1  0.294532  0.705468  0.845389  1
