# generated using pymatgen
data_Tb3Dy(ScSb5)4
_symmetry_space_group_name_H-M   'P 1'
_cell_length_a   4.20149700
_cell_length_b   13.07487305
_cell_length_c   14.24259530
_cell_angle_alpha   78.64461914
_cell_angle_beta   90.00000000
_cell_angle_gamma   90.00000000
_symmetry_Int_Tables_number   1
_chemical_formula_structural   Tb3Dy(ScSb5)4
_chemical_formula_sum   'Tb3 Dy1 Sc4 Sb20'
_cell_volume   767.08759984
_cell_formula_units_Z   1
loop_
 _symmetry_equiv_pos_site_id
 _symmetry_equiv_pos_as_xyz
  1  'x, y, z'
loop_
 _atom_site_type_symbol
 _atom_site_label
 _atom_site_symmetry_multiplicity
 _atom_site_fract_x
 _atom_site_fract_y
 _atom_site_fract_z
 _atom_site_occupancy
  Tb  Tb0  1  0.250000  0.669577  0.576130  1
  Tb  Tb1  1  0.750000  0.330453  0.423960  1
  Tb  Tb2  1  0.250000  0.953281  0.354390  1
  Dy  Dy3  1  0.750000  0.046764  0.645371  1
  Sc  Sc4  1  0.250000  0.397044  0.773007  1
  Sc  Sc5  1  0.750000  0.602919  0.226912  1
  Sc  Sc6  1  0.250000  0.657061  0.858758  1
  Sc  Sc7  1  0.750000  0.342927  0.141225  1
  Sb  Sb8  1  0.250000  0.148121  0.780712  1
  Sb  Sb9  1  0.750000  0.851571  0.219058  1
  Sb  Sb10  1  0.250000  0.142539  0.483150  1
  Sb  Sb11  1  0.750000  0.857376  0.517422  1
  Sb  Sb12  1  0.250000  0.162984  0.160525  1
  Sb  Sb13  1  0.750000  0.837135  0.839454  1
  Sb  Sb14  1  0.250000  0.421932  0.974901  1
  Sb  Sb15  1  0.750000  0.578085  0.025110  1
  Sb  Sb16  1  0.750000  0.028459  0.913291  1
  Sb  Sb17  1  0.250000  0.971552  0.086702  1
  Sb  Sb18  1  0.750000  0.143069  0.315045  1
  Sb  Sb19  1  0.250000  0.857461  0.684899  1
  Sb  Sb20  1  0.750000  0.280380  0.936565  1
  Sb  Sb21  1  0.250000  0.719613  0.063452  1
  Sb  Sb22  1  0.750000  0.289355  0.659305  1
  Sb  Sb23  1  0.250000  0.710356  0.340661  1
  Sb  Sb24  1  0.750000  0.572957  0.742124  1
  Sb  Sb25  1  0.250000  0.427062  0.257870  1
  Sb  Sb26  1  0.750000  0.570548  0.443387  1
  Sb  Sb27  1  0.250000  0.429419  0.556615  1
