# generated using pymatgen
data_DyZr(TcO4)6
_symmetry_space_group_name_H-M   'P 1'
_cell_length_a   10.03952200
_cell_length_b   10.03952278
_cell_length_c   6.09720100
_cell_angle_alpha   90.00000000
_cell_angle_beta   90.00000000
_cell_angle_gamma   119.99999741
_symmetry_Int_Tables_number   1
_chemical_formula_structural   DyZr(TcO4)6
_chemical_formula_sum   'Dy1 Zr1 Tc6 O24'
_cell_volume   532.21518388
_cell_formula_units_Z   1
loop_
 _symmetry_equiv_pos_site_id
 _symmetry_equiv_pos_as_xyz
  1  'x, y, z'
loop_
 _atom_site_type_symbol
 _atom_site_label
 _atom_site_symmetry_multiplicity
 _atom_site_fract_x
 _atom_site_fract_y
 _atom_site_fract_z
 _atom_site_occupancy
  Dy  Dy0  1  0.666667  0.333333  0.750000  1
  Zr  Zr1  1  0.333333  0.666667  0.250000  1
  Tc  Tc2  1  0.101260  0.401737  0.750000  1
  Tc  Tc3  1  0.388070  0.304726  0.250000  1
  Tc  Tc4  1  0.598263  0.699521  0.750000  1
  Tc  Tc5  1  0.916655  0.611930  0.250000  1
  Tc  Tc6  1  0.300479  0.898740  0.750000  1
  Tc  Tc7  1  0.695274  0.083345  0.250000  1
  O  O8  1  0.481086  0.650535  0.511901  1
  O  O9  1  0.349465  0.830552  0.511901  1
  O  O10  1  0.860511  0.747061  0.250000  1
  O  O11  1  0.106870  0.832126  0.750000  1
  O  O12  1  0.252939  0.113450  0.250000  1
  O  O13  1  0.167874  0.274744  0.750000  1
  O  O14  1  0.505920  0.348395  0.018104  1
  O  O15  1  0.886550  0.139489  0.250000  1
  O  O16  1  0.118229  0.701112  0.250000  1
  O  O17  1  0.169448  0.518914  0.988099  1
  O  O18  1  0.169448  0.518914  0.511901  1
  O  O19  1  0.901159  0.306466  0.750000  1
  O  O20  1  0.298888  0.417117  0.250000  1
  O  O21  1  0.693534  0.594693  0.750000  1
  O  O22  1  0.842475  0.494080  0.481896  1
  O  O23  1  0.405307  0.098841  0.750000  1
  O  O24  1  0.651605  0.157525  0.018104  1
  O  O25  1  0.481086  0.650535  0.988099  1
  O  O26  1  0.349465  0.830552  0.988099  1
  O  O27  1  0.651605  0.157525  0.481896  1
  O  O28  1  0.505920  0.348395  0.481896  1
  O  O29  1  0.842475  0.494080  0.018104  1
  O  O30  1  0.725256  0.893130  0.750000  1
  O  O31  1  0.582883  0.881771  0.250000  1
