# generated using pymatgen
data_La10TcIr2Ru
_symmetry_space_group_name_H-M   'P 1'
_cell_length_a   9.16082661
_cell_length_b   9.18433819
_cell_length_c   7.44211338
_cell_angle_alpha   84.99899659
_cell_angle_beta   85.03253793
_cell_angle_gamma   43.00059393
_symmetry_Int_Tables_number   1
_chemical_formula_structural   La10TcIr2Ru
_chemical_formula_sum   'La10 Tc1 Ir2 Ru1'
_cell_volume   425.17240520
_cell_formula_units_Z   1
loop_
 _symmetry_equiv_pos_site_id
 _symmetry_equiv_pos_as_xyz
  1  'x, y, z'
loop_
 _atom_site_type_symbol
 _atom_site_label
 _atom_site_symmetry_multiplicity
 _atom_site_fract_x
 _atom_site_fract_y
 _atom_site_fract_z
 _atom_site_occupancy
  La  La0  1  0.016672  0.801267  0.905943  1
  La  La1  1  0.201288  0.983382  0.594002  1
  La  La2  1  0.996372  0.190372  0.087657  1
  La  La3  1  0.810513  0.004497  0.410956  1
  La  La4  1  0.355020  0.211475  0.819149  1
  La  La5  1  0.783099  0.648479  0.681741  1
  La  La6  1  0.638947  0.786047  0.178320  1
  La  La7  1  0.212241  0.362628  0.322188  1
  La  La8  1  0.574996  0.425585  0.749598  1
  La  La9  1  0.432616  0.568135  0.248737  1
  Tc  Tc10  1  0.386264  0.830606  0.925398  1
  Ir  Ir11  1  0.824119  0.403729  0.420926  1
  Ir  Ir12  1  0.596024  0.176394  0.080038  1
  Ru  Ru13  1  0.171828  0.607404  0.575348  1
