# generated using pymatgen
data_NdHoZn5Si
_symmetry_space_group_name_H-M   'P 1'
_cell_length_a   8.22976475
_cell_length_b   8.22976355
_cell_length_c   8.76036000
_cell_angle_alpha   90.00000000
_cell_angle_beta   90.00000000
_cell_angle_gamma   149.42544302
_symmetry_Int_Tables_number   1
_chemical_formula_structural   NdHoZn5Si
_chemical_formula_sum   'Nd2 Ho2 Zn10 Si2'
_cell_volume   301.80302280
_cell_formula_units_Z   2
loop_
 _symmetry_equiv_pos_site_id
 _symmetry_equiv_pos_as_xyz
  1  'x, y, z'
loop_
 _atom_site_type_symbol
 _atom_site_label
 _atom_site_symmetry_multiplicity
 _atom_site_fract_x
 _atom_site_fract_y
 _atom_site_fract_z
 _atom_site_occupancy
  Nd  Nd0  1  0.000000  0.000000  0.500000  1
  Nd  Nd1  1  0.000000  0.000000  0.000000  1
  Ho  Ho2  1  0.200546  0.799454  0.250000  1
  Ho  Ho3  1  0.799454  0.200546  0.750000  1
  Zn  Zn4  1  0.812292  0.187708  0.392896  1
  Zn  Zn5  1  0.187708  0.812292  0.607104  1
  Zn  Zn6  1  0.812292  0.187708  0.107104  1
  Zn  Zn7  1  0.187708  0.812292  0.892896  1
  Zn  Zn8  1  0.651131  0.348869  0.473465  1
  Zn  Zn9  1  0.348869  0.651131  0.526535  1
  Zn  Zn10  1  0.651131  0.348869  0.026535  1
  Zn  Zn11  1  0.348869  0.651131  0.973465  1
  Zn  Zn12  1  0.402872  0.597128  0.250000  1
  Zn  Zn13  1  0.597128  0.402872  0.750000  1
  Si  Si14  1  0.557326  0.442674  0.250000  1
  Si  Si15  1  0.442674  0.557326  0.750000  1
