# generated using pymatgen
data_CuB3Rh4Au
_symmetry_space_group_name_H-M   'P 1'
_cell_length_a   13.44273025
_cell_length_b   13.44273055
_cell_length_c   2.78226700
_cell_angle_alpha   90.00000000
_cell_angle_beta   90.00000000
_cell_angle_gamma   167.58757656
_symmetry_Int_Tables_number   1
_chemical_formula_structural   CuB3Rh4Au
_chemical_formula_sum   'Cu1 B3 Rh4 Au1'
_cell_volume   108.07005180
_cell_formula_units_Z   1
loop_
 _symmetry_equiv_pos_site_id
 _symmetry_equiv_pos_as_xyz
  1  'x, y, z'
loop_
 _atom_site_type_symbol
 _atom_site_label
 _atom_site_symmetry_multiplicity
 _atom_site_fract_x
 _atom_site_fract_y
 _atom_site_fract_z
 _atom_site_occupancy
  Cu  Cu0  1  0.288020  0.711980  0.500000  1
  B  B1  1  0.386846  0.613154  0.500000  1
  B  B2  1  0.606427  0.393573  0.000000  1
  B  B3  1  0.989187  0.010813  0.500000  1
  Rh  Rh4  1  0.139421  0.860579  0.500000  1
  Rh  Rh5  1  0.856263  0.143737  0.000000  1
  Rh  Rh6  1  0.545296  0.454704  0.500000  1
  Rh  Rh7  1  0.451932  0.548068  0.000000  1
  Au  Au8  1  0.720608  0.279392  0.000000  1
