# generated using pymatgen
data_Ni3Bi4Rh3S4
_symmetry_space_group_name_H-M   'P 1'
_cell_length_a   7.03400434
_cell_length_b   6.95378332
_cell_length_c   7.94186824
_cell_angle_alpha   57.33188411
_cell_angle_beta   56.85922154
_cell_angle_gamma   73.53753939
_symmetry_Int_Tables_number   1
_chemical_formula_structural   Ni3Bi4Rh3S4
_chemical_formula_sum   'Ni3 Bi4 Rh3 S4'
_cell_volume   273.77758175
_cell_formula_units_Z   1
loop_
 _symmetry_equiv_pos_site_id
 _symmetry_equiv_pos_as_xyz
  1  'x, y, z'
loop_
 _atom_site_type_symbol
 _atom_site_label
 _atom_site_symmetry_multiplicity
 _atom_site_fract_x
 _atom_site_fract_y
 _atom_site_fract_z
 _atom_site_occupancy
  Ni  Ni0  1  0.734067  0.266799  0.011675  1
  Ni  Ni1  1  0.265933  0.733201  0.988325  1
  Ni  Ni2  1  0.000000  0.500000  0.000000  1
  Bi  Bi3  1  0.010301  0.011002  0.243540  1
  Bi  Bi4  1  0.989699  0.988998  0.756460  1
  Bi  Bi5  1  0.490442  0.501241  0.256133  1
  Bi  Bi6  1  0.509558  0.498759  0.743867  1
  Rh  Rh7  1  0.762122  0.752710  0.233529  1
  Rh  Rh8  1  0.500000  0.000000  0.000000  1
  Rh  Rh9  1  0.237878  0.247290  0.766471  1
  S  S10  1  0.471193  0.009469  0.299636  1
  S  S11  1  0.019888  0.459668  0.281249  1
  S  S12  1  0.528807  0.990531  0.700364  1
  S  S13  1  0.980112  0.540332  0.718751  1
