# generated using pymatgen
data_Dy12CdCo5
_symmetry_space_group_name_H-M   'P 1'
_cell_length_a   8.28207087
_cell_length_b   8.28207088
_cell_length_c   8.28207025
_cell_angle_alpha   110.75275533
_cell_angle_beta   110.11849811
_cell_angle_gamma   107.55980908
_symmetry_Int_Tables_number   1
_chemical_formula_structural   Dy12CdCo5
_chemical_formula_sum   'Dy12 Cd1 Co5'
_cell_volume   436.93812416
_cell_formula_units_Z   1
loop_
 _symmetry_equiv_pos_site_id
 _symmetry_equiv_pos_as_xyz
  1  'x, y, z'
loop_
 _atom_site_type_symbol
 _atom_site_label
 _atom_site_symmetry_multiplicity
 _atom_site_fract_x
 _atom_site_fract_y
 _atom_site_fract_z
 _atom_site_occupancy
  Dy  Dy0  1  0.817145  0.710999  0.528144  1
  Dy  Dy1  1  0.182855  0.289001  0.471856  1
  Dy  Dy2  1  0.182855  0.710999  0.893853  1
  Dy  Dy3  1  0.817145  0.289001  0.106147  1
  Dy  Dy4  1  0.683933  0.379053  0.695120  1
  Dy  Dy5  1  0.316067  0.620947  0.304880  1
  Dy  Dy6  1  0.683933  0.988812  0.304880  1
  Dy  Dy7  1  0.316067  0.011188  0.695120  1
  Dy  Dy8  1  0.596778  0.789870  0.806908  1
  Dy  Dy9  1  0.403222  0.210130  0.193092  1
  Dy  Dy10  1  0.982962  0.789870  0.193092  1
  Dy  Dy11  1  0.017038  0.210130  0.806908  1
  Cd  Cd12  1  0.500000  0.500000  0.000000  1
  Co  Co13  1  0.623664  0.000000  0.623664  1
  Co  Co14  1  0.376336  0.000000  0.376336  1
  Co  Co15  1  0.112928  0.612928  0.500000  1
  Co  Co16  1  0.887072  0.387072  0.500000  1
  Co  Co17  1  0.000000  0.000000  0.000000  1
