# generated using pymatgen
data_YEr15Tl3CdNi4
_symmetry_space_group_name_H-M   'P 1'
_cell_length_a   9.51913795
_cell_length_b   9.50894446
_cell_length_c   9.49775223
_cell_angle_alpha   59.92700449
_cell_angle_beta   59.96896939
_cell_angle_gamma   60.01223228
_symmetry_Int_Tables_number   1
_chemical_formula_structural   YEr15Tl3CdNi4
_chemical_formula_sum   'Y1 Er15 Tl3 Cd1 Ni4'
_cell_volume   607.48259837
_cell_formula_units_Z   1
loop_
 _symmetry_equiv_pos_site_id
 _symmetry_equiv_pos_as_xyz
  1  'x, y, z'
loop_
 _atom_site_type_symbol
 _atom_site_label
 _atom_site_symmetry_multiplicity
 _atom_site_fract_x
 _atom_site_fract_y
 _atom_site_fract_z
 _atom_site_occupancy
  Y  Y0  1  0.190006  0.185135  0.812756  1
  Er  Er1  1  0.593959  0.596015  0.595553  1
  Er  Er2  1  0.598049  0.598069  0.205575  1
  Er  Er3  1  0.598724  0.205281  0.597794  1
  Er  Er4  1  0.201964  0.599732  0.599211  1
  Er  Er5  1  0.060266  0.438691  0.437437  1
  Er  Er6  1  0.438576  0.062742  0.063671  1
  Er  Er7  1  0.438031  0.064101  0.436590  1
  Er  Er8  1  0.063146  0.439730  0.061865  1
  Er  Er9  1  0.437642  0.437095  0.064071  1
  Er  Er10  1  0.063806  0.061988  0.439067  1
  Er  Er11  1  0.191104  0.812783  0.813501  1
  Er  Er12  1  0.813784  0.188832  0.189526  1
  Er  Er13  1  0.813120  0.187181  0.812917  1
  Er  Er14  1  0.191435  0.809867  0.187388  1
  Er  Er15  1  0.814676  0.813455  0.186299  1
  Tl  Tl16  1  0.834537  0.836552  0.835918  1
  Tl  Tl17  1  0.830980  0.835561  0.495665  1
  Tl  Tl18  1  0.830291  0.495967  0.835439  1
  Cd  Cd19  1  0.502911  0.831001  0.831397  1
  Ni  Ni20  1  0.389709  0.396133  0.393021  1
  Ni  Ni21  1  0.390428  0.390498  0.823503  1
  Ni  Ni22  1  0.389545  0.823747  0.391571  1
  Ni  Ni23  1  0.823311  0.389843  0.390266  1
