# generated using pymatgen
data_Hf6Al16Ir2Pt5
_symmetry_space_group_name_H-M   'P 1'
_cell_length_a   8.74330814
_cell_length_b   8.74776095
_cell_length_c   8.74776113
_cell_angle_alpha   59.96632471
_cell_angle_beta   60.01684282
_cell_angle_gamma   60.01683927
_symmetry_Int_Tables_number   1
_chemical_formula_structural   Hf6Al16Ir2Pt5
_chemical_formula_sum   'Hf6 Al16 Ir2 Pt5'
_cell_volume   473.10158853
_cell_formula_units_Z   1
loop_
 _symmetry_equiv_pos_site_id
 _symmetry_equiv_pos_as_xyz
  1  'x, y, z'
loop_
 _atom_site_type_symbol
 _atom_site_label
 _atom_site_symmetry_multiplicity
 _atom_site_fract_x
 _atom_site_fract_y
 _atom_site_fract_z
 _atom_site_occupancy
  Hf  Hf0  1  0.682491  0.317509  0.317509  1
  Hf  Hf1  1  0.317509  0.682491  0.682491  1
  Hf  Hf2  1  0.319193  0.680807  0.319193  1
  Hf  Hf3  1  0.680807  0.319193  0.680807  1
  Hf  Hf4  1  0.319193  0.319193  0.680807  1
  Hf  Hf5  1  0.680807  0.680807  0.319193  1
  Al  Al6  1  0.335451  0.338154  0.338154  1
  Al  Al7  1  0.664549  0.661846  0.661846  1
  Al  Al8  1  0.338154  0.335451  0.988241  1
  Al  Al9  1  0.338154  0.988241  0.335451  1
  Al  Al10  1  0.661846  0.664549  0.011759  1
  Al  Al11  1  0.661846  0.011759  0.664549  1
  Al  Al12  1  0.988241  0.338154  0.338154  1
  Al  Al13  1  0.011759  0.661846  0.661846  1
  Al  Al14  1  0.125033  0.118407  0.118407  1
  Al  Al15  1  0.874967  0.881593  0.881593  1
  Al  Al16  1  0.118407  0.125033  0.638153  1
  Al  Al17  1  0.118407  0.638153  0.125033  1
  Al  Al18  1  0.881593  0.874967  0.361847  1
  Al  Al19  1  0.881593  0.361847  0.874967  1
  Al  Al20  1  0.638153  0.118407  0.118407  1
  Al  Al21  1  0.361847  0.881593  0.881593  1
  Ir  Ir22  1  0.500000  0.000000  0.000000  1
  Ir  Ir23  1  0.000000  0.500000  0.500000  1
  Pt  Pt24  1  0.000000  0.500000  0.000000  1
  Pt  Pt25  1  0.500000  0.000000  0.500000  1
  Pt  Pt26  1  0.000000  0.000000  0.500000  1
  Pt  Pt27  1  0.500000  0.500000  0.000000  1
  Pt  Pt28  1  0.000000  0.000000  0.000000  1
