# generated using pymatgen
data_HoEr7Re3B24Ir
_symmetry_space_group_name_H-M   'P 1'
_cell_length_a   3.65312200
_cell_length_b   9.12836568
_cell_length_c   11.50484401
_cell_angle_alpha   90.12870062
_cell_angle_beta   90.00000000
_cell_angle_gamma   90.00000000
_symmetry_Int_Tables_number   1
_chemical_formula_structural   HoEr7Re3B24Ir
_chemical_formula_sum   'Ho1 Er7 Re3 B24 Ir1'
_cell_volume   383.65145034
_cell_formula_units_Z   1
loop_
 _symmetry_equiv_pos_site_id
 _symmetry_equiv_pos_as_xyz
  1  'x, y, z'
loop_
 _atom_site_type_symbol
 _atom_site_label
 _atom_site_symmetry_multiplicity
 _atom_site_fract_x
 _atom_site_fract_y
 _atom_site_fract_z
 _atom_site_occupancy
  Ho  Ho0  1  0.000000  0.318003  0.415548  1
  Er  Er1  1  0.000000  0.678790  0.591563  1
  Er  Er2  1  0.000000  0.827122  0.081148  1
  Er  Er3  1  0.000000  0.177393  0.912558  1
  Er  Er4  1  0.000000  0.944120  0.370583  1
  Er  Er5  1  0.000000  0.055814  0.628890  1
  Er  Er6  1  0.000000  0.441037  0.128082  1
  Er  Er7  1  0.000000  0.556685  0.871741  1
  Re  Re8  1  0.000000  0.362735  0.677693  1
  Re  Re9  1  0.000000  0.138164  0.179800  1
  Re  Re10  1  0.000000  0.861759  0.820980  1
  B  B11  1  0.500000  0.553857  0.433952  1
  B  B12  1  0.500000  0.446997  0.566546  1
  B  B13  1  0.500000  0.053154  0.066387  1
  B  B14  1  0.500000  0.947166  0.932970  1
  B  B15  1  0.500000  0.749422  0.420421  1
  B  B16  1  0.500000  0.250259  0.580918  1
  B  B17  1  0.500000  0.249252  0.080829  1
  B  B18  1  0.500000  0.751362  0.919232  1
  B  B19  1  0.500000  0.791558  0.265051  1
  B  B20  1  0.500000  0.208087  0.734329  1
  B  B21  1  0.500000  0.291979  0.234975  1
  B  B22  1  0.500000  0.707807  0.765783  1
  B  B23  1  0.500000  0.631720  0.184028  1
  B  B24  1  0.500000  0.369388  0.814477  1
  B  B25  1  0.500000  0.130725  0.315012  1
  B  B26  1  0.500000  0.868472  0.685198  1
  B  B27  1  0.500000  0.982371  0.212059  1
  B  B28  1  0.500000  0.017785  0.787052  1
  B  B29  1  0.500000  0.482637  0.287733  1
  B  B30  1  0.500000  0.518624  0.712467  1
  B  B31  1  0.500000  0.603650  0.029327  1
  B  B32  1  0.500000  0.397305  0.971861  1
  B  B33  1  0.500000  0.101749  0.471221  1
  B  B34  1  0.500000  0.895238  0.528325  1
  Ir  Ir35  1  0.000000  0.637815  0.321258  1
