# generated using pymatgen
data_Tb7Tm13Ir12
_symmetry_space_group_name_H-M   'P 1'
_cell_length_a   10.83147202
_cell_length_b   10.82999011
_cell_length_c   6.33780007
_cell_angle_alpha   90.01598411
_cell_angle_beta   90.00439546
_cell_angle_gamma   89.99515924
_symmetry_Int_Tables_number   1
_chemical_formula_structural   Tb7Tm13Ir12
_chemical_formula_sum   'Tb7 Tm13 Ir12'
_cell_volume   743.45392274
_cell_formula_units_Z   1
loop_
 _symmetry_equiv_pos_site_id
 _symmetry_equiv_pos_as_xyz
  1  'x, y, z'
loop_
 _atom_site_type_symbol
 _atom_site_label
 _atom_site_symmetry_multiplicity
 _atom_site_fract_x
 _atom_site_fract_y
 _atom_site_fract_z
 _atom_site_occupancy
  Tb  Tb0  1  0.289483  0.089725  0.376041  1
  Tb  Tb1  1  0.289347  0.911714  0.876150  1
  Tb  Tb2  1  0.710269  0.089434  0.875977  1
  Tb  Tb3  1  0.710526  0.911129  0.376068  1
  Tb  Tb4  1  0.588956  0.789323  0.875937  1
  Tb  Tb5  1  0.588513  0.211017  0.376153  1
  Tb  Tb6  1  0.410961  0.789323  0.376005  1
  Tm  Tm7  1  0.411398  0.209308  0.877418  1
  Tm  Tm8  1  0.208260  0.412895  0.622055  1
  Tm  Tm9  1  0.207663  0.586284  0.121666  1
  Tm  Tm10  1  0.792242  0.413561  0.121257  1
  Tm  Tm11  1  0.792399  0.586324  0.621395  1
  Tm  Tm12  1  0.913681  0.707652  0.121599  1
  Tm  Tm13  1  0.913696  0.292333  0.621496  1
  Tm  Tm14  1  0.086469  0.707602  0.621422  1
  Tm  Tm15  1  0.086519  0.292366  0.121177  1
  Tm  Tm16  1  0.000135  0.000119  0.502576  1
  Tm  Tm17  1  0.999991  0.000255  0.002304  1
  Tm  Tm18  1  0.499568  0.499137  0.001991  1
  Tm  Tm19  1  0.499854  0.499867  0.502297  1
  Ir  Ir20  1  0.849688  0.154793  0.251134  1
  Ir  Ir21  1  0.849693  0.845108  0.750970  1
  Ir  Ir22  1  0.151826  0.155091  0.751810  1
  Ir  Ir23  1  0.150359  0.845228  0.250992  1
  Ir  Ir24  1  0.653662  0.349083  0.751763  1
  Ir  Ir25  1  0.654735  0.650278  0.250997  1
  Ir  Ir26  1  0.345630  0.348843  0.248419  1
  Ir  Ir27  1  0.345271  0.650333  0.750905  1
  Ir  Ir28  1  0.499571  0.001097  0.122091  1
  Ir  Ir29  1  0.499458  0.001067  0.624027  1
  Ir  Ir30  1  0.000127  0.499887  0.877872  1
  Ir  Ir31  1  0.000051  0.499822  0.378035  1
