# generated using pymatgen
data_Yb2Y7Ho(In2Pt)4
_symmetry_space_group_name_H-M   'P 1'
_cell_length_a   3.61924700
_cell_length_b   8.20874815
_cell_length_c   18.42187658
_cell_angle_alpha   90.06073574
_cell_angle_beta   90.00000000
_cell_angle_gamma   90.00000000
_symmetry_Int_Tables_number   1
_chemical_formula_structural   Yb2Y7Ho(In2Pt)4
_chemical_formula_sum   'Yb2 Y7 Ho1 In8 Pt4'
_cell_volume   547.30419783
_cell_formula_units_Z   1
loop_
 _symmetry_equiv_pos_site_id
 _symmetry_equiv_pos_as_xyz
  1  'x, y, z'
loop_
 _atom_site_type_symbol
 _atom_site_label
 _atom_site_symmetry_multiplicity
 _atom_site_fract_x
 _atom_site_fract_y
 _atom_site_fract_z
 _atom_site_occupancy
  Yb  Yb0  1  0.000000  0.000001  0.000005  1
  Yb  Yb1  1  0.000000  0.500010  0.499989  1
  Y  Y2  1  0.000000  0.118838  0.414410  1
  Y  Y3  1  0.000000  0.881101  0.585596  1
  Y  Y4  1  0.000000  0.381064  0.914418  1
  Y  Y5  1  0.000000  0.618998  0.085639  1
  Y  Y6  1  0.000000  0.243257  0.220138  1
  Y  Y7  1  0.000000  0.756732  0.779882  1
  Y  Y8  1  0.000000  0.256741  0.720126  1
  Ho  Ho9  1  0.000000  0.743557  0.279644  1
  In  In10  1  0.500000  0.424867  0.350767  1
  In  In11  1  0.500000  0.575340  0.649198  1
  In  In12  1  0.500000  0.075336  0.850781  1
  In  In13  1  0.500000  0.924565  0.149279  1
  In  In14  1  0.500000  0.292487  0.066902  1
  In  In15  1  0.500000  0.707549  0.933072  1
  In  In16  1  0.500000  0.207516  0.566903  1
  In  In17  1  0.500000  0.792369  0.432967  1
  Pt  Pt18  1  0.500000  0.022149  0.302870  1
  Pt  Pt19  1  0.500000  0.976578  0.697033  1
  Pt  Pt20  1  0.500000  0.476602  0.802988  1
  Pt  Pt21  1  0.500000  0.524340  0.197392  1
