# generated using pymatgen
data_RbErBi2Se5
_symmetry_space_group_name_H-M   'P 1'
_cell_length_a   4.15732500
_cell_length_b   12.37576300
_cell_length_c   22.35210200
_cell_angle_alpha   90.00000000
_cell_angle_beta   90.00000000
_cell_angle_gamma   90.00000000
_symmetry_Int_Tables_number   1
_chemical_formula_structural   RbErBi2Se5
_chemical_formula_sum   'Rb4 Er4 Bi8 Se20'
_cell_volume   1150.01718827
_cell_formula_units_Z   4
loop_
 _symmetry_equiv_pos_site_id
 _symmetry_equiv_pos_as_xyz
  1  'x, y, z'
loop_
 _atom_site_type_symbol
 _atom_site_label
 _atom_site_symmetry_multiplicity
 _atom_site_fract_x
 _atom_site_fract_y
 _atom_site_fract_z
 _atom_site_occupancy
  Rb  Rb0  1  0.250000  0.489387  0.210302  1
  Rb  Rb1  1  0.750000  0.510613  0.789698  1
  Rb  Rb2  1  0.750000  0.989387  0.289698  1
  Rb  Rb3  1  0.250000  0.010613  0.710302  1
  Er  Er4  1  0.250000  0.364574  0.023899  1
  Er  Er5  1  0.750000  0.635426  0.976101  1
  Er  Er6  1  0.750000  0.864574  0.476101  1
  Er  Er7  1  0.250000  0.135426  0.523899  1
  Bi  Bi8  1  0.250000  0.801748  0.126477  1
  Bi  Bi9  1  0.750000  0.198252  0.873523  1
  Bi  Bi10  1  0.750000  0.301748  0.373523  1
  Bi  Bi11  1  0.250000  0.698252  0.626477  1
  Bi  Bi12  1  0.250000  0.596512  0.423641  1
  Bi  Bi13  1  0.750000  0.403488  0.576359  1
  Bi  Bi14  1  0.750000  0.096512  0.076359  1
  Bi  Bi15  1  0.250000  0.903488  0.923641  1
  Se  Se16  1  0.250000  0.813550  0.391251  1
  Se  Se17  1  0.750000  0.186450  0.608749  1
  Se  Se18  1  0.750000  0.313550  0.108749  1
  Se  Se19  1  0.250000  0.686450  0.891251  1
  Se  Se20  1  0.250000  0.246758  0.294865  1
  Se  Se21  1  0.750000  0.753242  0.705135  1
  Se  Se22  1  0.750000  0.746758  0.205135  1
  Se  Se23  1  0.250000  0.253242  0.794865  1
  Se  Se24  1  0.250000  0.353429  0.481197  1
  Se  Se25  1  0.750000  0.646571  0.518803  1
  Se  Se26  1  0.750000  0.853429  0.018803  1
  Se  Se27  1  0.250000  0.146571  0.981197  1
  Se  Se28  1  0.250000  0.026833  0.159428  1
  Se  Se29  1  0.750000  0.973167  0.840572  1
  Se  Se30  1  0.750000  0.526833  0.340572  1
  Se  Se31  1  0.250000  0.473167  0.659428  1
  Se  Se32  1  0.250000  0.583039  0.058856  1
  Se  Se33  1  0.750000  0.416961  0.941144  1
  Se  Se34  1  0.750000  0.083039  0.441144  1
  Se  Se35  1  0.250000  0.916961  0.558856  1
