# generated using pymatgen
data_Rb8Ba4HfZrP8
_symmetry_space_group_name_H-M   'P 1'
_cell_length_a   10.67721893
_cell_length_b   10.67717958
_cell_length_c   8.04114040
_cell_angle_alpha   88.36849352
_cell_angle_beta   88.35468208
_cell_angle_gamma   119.65933701
_symmetry_Int_Tables_number   1
_chemical_formula_structural   Rb8Ba4HfZrP8
_chemical_formula_sum   'Rb8 Ba4 Hf1 Zr1 P8'
_cell_volume   795.31582704
_cell_formula_units_Z   1
loop_
 _symmetry_equiv_pos_site_id
 _symmetry_equiv_pos_as_xyz
  1  'x, y, z'
loop_
 _atom_site_type_symbol
 _atom_site_label
 _atom_site_symmetry_multiplicity
 _atom_site_fract_x
 _atom_site_fract_y
 _atom_site_fract_z
 _atom_site_occupancy
  Rb  Rb0  1  0.059120  0.526850  0.612638  1
  Rb  Rb1  1  0.526967  0.059349  0.112704  1
  Rb  Rb2  1  0.276935  0.132692  0.825391  1
  Rb  Rb3  1  0.872647  0.733393  0.764220  1
  Rb  Rb4  1  0.860131  0.142558  0.798543  1
  Rb  Rb5  1  0.733583  0.872733  0.264481  1
  Rb  Rb6  1  0.132567  0.276719  0.325639  1
  Rb  Rb7  1  0.142424  0.860228  0.298796  1
  Ba  Ba8  1  0.465181  0.930531  0.602524  1
  Ba  Ba9  1  0.465213  0.525061  0.619323  1
  Ba  Ba10  1  0.929858  0.464814  0.102867  1
  Ba  Ba11  1  0.525293  0.464977  0.119443  1
  Hf  Hf12  1  0.666168  0.335931  0.511295  1
  Zr  Zr13  1  0.335853  0.666326  0.011679  1
  P  P14  1  0.672284  0.357840  0.827855  1
  P  P15  1  0.358122  0.672362  0.331130  1
  P  P16  1  0.589913  0.787169  0.873176  1
  P  P17  1  0.207326  0.403622  0.924958  1
  P  P18  1  0.200042  0.789252  0.905003  1
  P  P19  1  0.405811  0.208409  0.425674  1
  P  P20  1  0.786270  0.587945  0.374269  1
  P  P21  1  0.788292  0.201238  0.405883  1
