# generated using pymatgen
data_NdZr5(Sb4Pd3)2
_symmetry_space_group_name_H-M   'P 1'
_cell_length_a   8.27347453
_cell_length_b   8.27340987
_cell_length_c   8.27346550
_cell_angle_alpha   109.75584970
_cell_angle_beta   109.32921566
_cell_angle_gamma   109.32892843
_symmetry_Int_Tables_number   1
_chemical_formula_structural   NdZr5(Sb4Pd3)2
_chemical_formula_sum   'Nd1 Zr5 Sb8 Pd6'
_cell_volume   435.94352719
_cell_formula_units_Z   1
loop_
 _symmetry_equiv_pos_site_id
 _symmetry_equiv_pos_as_xyz
  1  'x, y, z'
loop_
 _atom_site_type_symbol
 _atom_site_label
 _atom_site_symmetry_multiplicity
 _atom_site_fract_x
 _atom_site_fract_y
 _atom_site_fract_z
 _atom_site_occupancy
  Nd  Nd0  1  0.750001  0.875000  0.124999  1
  Zr  Zr1  1  0.623718  0.374927  0.249908  1
  Zr  Zr2  1  0.250002  0.625003  0.375000  1
  Zr  Zr3  1  0.374980  0.248786  0.625072  1
  Zr  Zr4  1  0.876285  0.126196  0.751211  1
  Zr  Zr5  1  0.125017  0.750090  0.873808  1
  Sb  Sb6  1  0.824147  0.496976  0.996101  1
  Sb  Sb7  1  0.314413  0.496104  0.994642  1
  Sb  Sb8  1  0.185586  0.180229  0.181693  1
  Sb  Sb9  1  0.500875  0.003898  0.328046  1
  Sb  Sb10  1  0.998541  0.818311  0.503896  1
  Sb  Sb11  1  0.999124  0.327169  0.503023  1
  Sb  Sb12  1  0.675853  0.671955  0.672830  1
  Sb  Sb13  1  0.501461  0.005357  0.819772  1
  Pd  Pd14  1  0.884190  0.262759  0.129343  1
  Pd  Pd15  1  0.133417  0.870658  0.254850  1
  Pd  Pd16  1  0.615810  0.745152  0.378566  1
  Pd  Pd17  1  0.750000  0.374999  0.624999  1
  Pd  Pd18  1  0.366583  0.621430  0.737241  1
  Pd  Pd19  1  0.250000  0.125001  0.875000  1
