# generated using pymatgen
data_Dy2SbRh5
_symmetry_space_group_name_H-M   'P 1'
_cell_length_a   4.28786600
_cell_length_b   5.74828200
_cell_length_c   11.31310400
_cell_angle_alpha   90.00000000
_cell_angle_beta   90.00000000
_cell_angle_gamma   90.00000000
_symmetry_Int_Tables_number   1
_chemical_formula_structural   Dy2SbRh5
_chemical_formula_sum   'Dy4 Sb2 Rh10'
_cell_volume   278.84383689
_cell_formula_units_Z   2
loop_
 _symmetry_equiv_pos_site_id
 _symmetry_equiv_pos_as_xyz
  1  'x, y, z'
loop_
 _atom_site_type_symbol
 _atom_site_label
 _atom_site_symmetry_multiplicity
 _atom_site_fract_x
 _atom_site_fract_y
 _atom_site_fract_z
 _atom_site_occupancy
  Dy  Dy0  1  0.500000  0.176169  0.641723  1
  Dy  Dy1  1  0.500000  0.823831  0.358277  1
  Dy  Dy2  1  0.500000  0.676169  0.858277  1
  Dy  Dy3  1  0.500000  0.323831  0.141723  1
  Sb  Sb4  1  0.000000  0.500000  0.500000  1
  Sb  Sb5  1  0.000000  0.000000  0.000000  1
  Rh  Rh6  1  0.500000  0.189216  0.890683  1
  Rh  Rh7  1  0.500000  0.810784  0.109317  1
  Rh  Rh8  1  0.500000  0.689216  0.609317  1
  Rh  Rh9  1  0.500000  0.310784  0.390683  1
  Rh  Rh10  1  0.000000  0.433153  0.746309  1
  Rh  Rh11  1  0.000000  0.566847  0.253691  1
  Rh  Rh12  1  0.000000  0.000000  0.500000  1
  Rh  Rh13  1  0.000000  0.500000  0.000000  1
  Rh  Rh14  1  0.000000  0.066847  0.246309  1
  Rh  Rh15  1  0.000000  0.933153  0.753691  1
