# generated using pymatgen
data_KRb3LuUTe6
_symmetry_space_group_name_H-M   'P 1'
_cell_length_a   8.04369349
_cell_length_b   8.04369411
_cell_length_c   8.97842660
_cell_angle_alpha   81.27761871
_cell_angle_beta   81.27761667
_cell_angle_gamma   120.05596374
_symmetry_Int_Tables_number   1
_chemical_formula_structural   KRb3LuUTe6
_chemical_formula_sum   'K1 Rb3 Lu1 U1 Te6'
_cell_volume   479.07714673
_cell_formula_units_Z   1
loop_
 _symmetry_equiv_pos_site_id
 _symmetry_equiv_pos_as_xyz
  1  'x, y, z'
loop_
 _atom_site_type_symbol
 _atom_site_label
 _atom_site_symmetry_multiplicity
 _atom_site_fract_x
 _atom_site_fract_y
 _atom_site_fract_z
 _atom_site_occupancy
  K  K0  1  0.500110  0.499890  0.000000  1
  Rb  Rb1  1  0.653848  0.346152  0.500000  1
  Rb  Rb2  1  0.346151  0.653849  0.500000  1
  Rb  Rb3  1  0.999829  0.000171  0.500000  1
  Lu  Lu4  1  0.832314  0.167686  0.000000  1
  U  U5  1  0.167801  0.832199  0.000000  1
  Te  Te6  1  0.808465  0.804496  0.197238  1
  Te  Te7  1  0.195504  0.191535  0.802762  1
  Te  Te8  1  0.427289  0.054631  0.200871  1
  Te  Te9  1  0.564099  0.940781  0.798670  1
  Te  Te10  1  0.945369  0.572711  0.799129  1
  Te  Te11  1  0.059219  0.435901  0.201330  1
