# generated using pymatgen
data_Pr8Ho12In7Pb9
_symmetry_space_group_name_H-M   'P 1'
_cell_length_a   8.14501602
_cell_length_b   8.39247501
_cell_length_c   15.94379300
_cell_angle_alpha   90.00000000
_cell_angle_beta   90.00000000
_cell_angle_gamma   90.00644937
_symmetry_Int_Tables_number   1
_chemical_formula_structural   Pr8Ho12In7Pb9
_chemical_formula_sum   'Pr8 Ho12 In7 Pb9'
_cell_volume   1089.86735407
_cell_formula_units_Z   1
loop_
 _symmetry_equiv_pos_site_id
 _symmetry_equiv_pos_as_xyz
  1  'x, y, z'
loop_
 _atom_site_type_symbol
 _atom_site_label
 _atom_site_symmetry_multiplicity
 _atom_site_fract_x
 _atom_site_fract_y
 _atom_site_fract_z
 _atom_site_occupancy
  Pr  Pr0  1  0.485445  0.685588  0.596303  1
  Pr  Pr1  1  0.985379  0.814541  0.902631  1
  Pr  Pr2  1  0.511874  0.315766  0.097225  1
  Pr  Pr3  1  0.016419  0.182047  0.404975  1
  Pr  Pr4  1  0.511874  0.315766  0.402775  1
  Pr  Pr5  1  0.016419  0.182047  0.095025  1
  Pr  Pr6  1  0.485445  0.685588  0.903697  1
  Pr  Pr7  1  0.985379  0.814541  0.597369  1
  Ho  Ho8  1  0.640023  0.160977  0.623773  1
  Ho  Ho9  1  0.139333  0.338998  0.875978  1
  Ho  Ho10  1  0.359838  0.840400  0.122610  1
  Ho  Ho11  1  0.858937  0.663302  0.376994  1
  Ho  Ho12  1  0.359838  0.840400  0.377390  1
  Ho  Ho13  1  0.858937  0.663302  0.123006  1
  Ho  Ho14  1  0.640023  0.160977  0.876227  1
  Ho  Ho15  1  0.139333  0.338998  0.624022  1
  Ho  Ho16  1  0.803375  0.494596  0.750000  1
  Ho  Ho17  1  0.303697  0.004725  0.750000  1
  Ho  Ho18  1  0.198004  0.506981  0.250000  1
  Ho  Ho19  1  0.694875  0.991108  0.250000  1
  In  In20  1  0.439120  0.379706  0.750000  1
  In  In21  1  0.939649  0.119181  0.750000  1
  In  In22  1  0.559089  0.622035  0.250000  1
  In  In23  1  0.060476  0.879803  0.250000  1
  In  In24  1  0.685103  0.862378  0.750000  1
  In  In25  1  0.186381  0.638037  0.750000  1
  In  In26  1  0.315026  0.137015  0.250000  1
  Pb  Pb27  1  0.702449  0.959975  0.457989  1
  Pb  Pb28  1  0.200136  0.541379  0.042288  1
  Pb  Pb29  1  0.298655  0.041861  0.957440  1
  Pb  Pb30  1  0.798700  0.458179  0.541527  1
  Pb  Pb31  1  0.298655  0.041861  0.542560  1
  Pb  Pb32  1  0.798700  0.458179  0.958473  1
  Pb  Pb33  1  0.702449  0.959975  0.042011  1
  Pb  Pb34  1  0.200136  0.541379  0.457712  1
  Pb  Pb35  1  0.820833  0.358407  0.250000  1
