# generated using pymatgen
data_RbPd2Cl9
_symmetry_space_group_name_H-M   'P 1'
_cell_length_a   6.57837800
_cell_length_b   10.07947684
_cell_length_c   11.59412738
_cell_angle_alpha   65.89571677
_cell_angle_beta   90.00000000
_cell_angle_gamma   90.00000000
_symmetry_Int_Tables_number   1
_chemical_formula_structural   RbPd2Cl9
_chemical_formula_sum   'Rb2 Pd4 Cl18'
_cell_volume   701.73356737
_cell_formula_units_Z   2
loop_
 _symmetry_equiv_pos_site_id
 _symmetry_equiv_pos_as_xyz
  1  'x, y, z'
loop_
 _atom_site_type_symbol
 _atom_site_label
 _atom_site_symmetry_multiplicity
 _atom_site_fract_x
 _atom_site_fract_y
 _atom_site_fract_z
 _atom_site_occupancy
  Rb  Rb0  1  0.572754  0.500000  0.750000  1
  Rb  Rb1  1  0.427246  0.500000  0.250000  1
  Pd  Pd2  1  0.258037  0.839079  0.852079  1
  Pd  Pd3  1  0.741963  0.160921  0.147921  1
  Pd  Pd4  1  0.258037  0.160921  0.647921  1
  Pd  Pd5  1  0.741963  0.839079  0.352079  1
  Cl  Cl6  1  0.112459  0.760380  0.050702  1
  Cl  Cl7  1  0.887541  0.239620  0.949298  1
  Cl  Cl8  1  0.112459  0.239620  0.449298  1
  Cl  Cl9  1  0.887541  0.760380  0.550702  1
  Cl  Cl10  1  0.124736  0.641321  0.825891  1
  Cl  Cl11  1  0.875264  0.358679  0.174109  1
  Cl  Cl12  1  0.124736  0.358679  0.674109  1
  Cl  Cl13  1  0.875264  0.641321  0.325891  1
  Cl  Cl14  1  0.980056  0.000000  0.750000  1
  Cl  Cl15  1  0.019944  0.000000  0.250000  1
  Cl  Cl16  1  0.394045  0.055834  0.860186  1
  Cl  Cl17  1  0.605955  0.944166  0.139814  1
  Cl  Cl18  1  0.394045  0.944166  0.639814  1
  Cl  Cl19  1  0.605955  0.055834  0.360186  1
  Cl  Cl20  1  0.551523  0.709553  0.935603  1
  Cl  Cl21  1  0.448477  0.290447  0.064397  1
  Cl  Cl22  1  0.551523  0.290447  0.564397  1
  Cl  Cl23  1  0.448477  0.709553  0.435603  1
