# generated using pymatgen
data_TbDy11(ThSn2)8
_symmetry_space_group_name_H-M   'P 1'
_cell_length_a   8.13254500
_cell_length_b   8.23314401
_cell_length_c   15.55468700
_cell_angle_alpha   90.00000000
_cell_angle_beta   90.00000000
_cell_angle_gamma   89.99781482
_symmetry_Int_Tables_number   1
_chemical_formula_structural   TbDy11(ThSn2)8
_chemical_formula_sum   'Tb1 Dy11 Th8 Sn16'
_cell_volume   1041.48606352
_cell_formula_units_Z   1
loop_
 _symmetry_equiv_pos_site_id
 _symmetry_equiv_pos_as_xyz
  1  'x, y, z'
loop_
 _atom_site_type_symbol
 _atom_site_label
 _atom_site_symmetry_multiplicity
 _atom_site_fract_x
 _atom_site_fract_y
 _atom_site_fract_z
 _atom_site_occupancy
  Tb  Tb0  1  0.309036  0.997513  0.250000  1
  Dy  Dy1  1  0.362457  0.836296  0.876349  1
  Dy  Dy2  1  0.862476  0.663656  0.623609  1
  Dy  Dy3  1  0.637526  0.163724  0.376481  1
  Dy  Dy4  1  0.137412  0.336332  0.123516  1
  Dy  Dy5  1  0.637526  0.163724  0.123519  1
  Dy  Dy6  1  0.137412  0.336332  0.376484  1
  Dy  Dy7  1  0.362457  0.836296  0.623651  1
  Dy  Dy8  1  0.862476  0.663656  0.876391  1
  Dy  Dy9  1  0.191165  0.497565  0.750000  1
  Dy  Dy10  1  0.691132  0.002400  0.750000  1
  Dy  Dy11  1  0.808891  0.502410  0.250000  1
  Th  Th12  1  0.518997  0.320866  0.903418  1
  Th  Th13  1  0.018853  0.179111  0.596616  1
  Th  Th14  1  0.481022  0.679200  0.403332  1
  Th  Th15  1  0.981128  0.820847  0.096651  1
  Th  Th16  1  0.481022  0.679200  0.096668  1
  Th  Th17  1  0.981128  0.820847  0.403349  1
  Th  Th18  1  0.518997  0.320866  0.596582  1
  Th  Th19  1  0.018853  0.179111  0.903384  1
  Sn  Sn20  1  0.297662  0.038831  0.041856  1
  Sn  Sn21  1  0.797673  0.461285  0.457903  1
  Sn  Sn22  1  0.702291  0.961285  0.542232  1
  Sn  Sn23  1  0.202318  0.538671  0.957748  1
  Sn  Sn24  1  0.702291  0.961285  0.957768  1
  Sn  Sn25  1  0.202318  0.538671  0.542252  1
  Sn  Sn26  1  0.297662  0.038831  0.458144  1
  Sn  Sn27  1  0.797673  0.461285  0.042097  1
  Sn  Sn28  1  0.558223  0.621257  0.750000  1
  Sn  Sn29  1  0.058212  0.878702  0.750000  1
  Sn  Sn30  1  0.441867  0.378937  0.250000  1
  Sn  Sn31  1  0.941426  0.121451  0.250000  1
  Sn  Sn32  1  0.324800  0.142279  0.750000  1
  Sn  Sn33  1  0.824728  0.357770  0.750000  1
  Sn  Sn34  1  0.675724  0.857713  0.250000  1
  Sn  Sn35  1  0.175171  0.641799  0.250000  1
