# generated using pymatgen
data_Sc5B(WC3)2
_symmetry_space_group_name_H-M   'P 1'
_cell_length_a   7.96680846
_cell_length_b   7.96680857
_cell_length_c   3.22892500
_cell_angle_alpha   90.00000000
_cell_angle_beta   90.00000000
_cell_angle_gamma   120.20515130
_symmetry_Int_Tables_number   1
_chemical_formula_structural   Sc5B(WC3)2
_chemical_formula_sum   'Sc5 B1 W2 C6'
_cell_volume   177.11520209
_cell_formula_units_Z   1
loop_
 _symmetry_equiv_pos_site_id
 _symmetry_equiv_pos_as_xyz
  1  'x, y, z'
loop_
 _atom_site_type_symbol
 _atom_site_label
 _atom_site_symmetry_multiplicity
 _atom_site_fract_x
 _atom_site_fract_y
 _atom_site_fract_z
 _atom_site_occupancy
  Sc  Sc0  1  0.086954  0.331701  0.500000  1
  Sc  Sc1  1  0.331701  0.086954  0.500000  1
  Sc  Sc2  1  0.500000  0.500000  0.000000  1
  Sc  Sc3  1  0.913046  0.668299  0.500000  1
  Sc  Sc4  1  0.668299  0.913046  0.500000  1
  B  B5  1  0.000000  0.000000  0.000000  1
  W  W6  1  0.713637  0.286363  0.000000  1
  W  W7  1  0.286363  0.713637  0.000000  1
  C  C8  1  0.000000  0.500000  0.000000  1
  C  C9  1  0.500000  0.000000  0.000000  1
  C  C10  1  0.186399  0.186399  0.000000  1
  C  C11  1  0.813601  0.813601  0.000000  1
  C  C12  1  0.619377  0.380623  0.500000  1
  C  C13  1  0.380623  0.619377  0.500000  1
