# generated using pymatgen
data_TbPa5F24
_symmetry_space_group_name_H-M   'P 1'
_cell_length_a   8.39389547
_cell_length_b   8.47358905
_cell_length_c   8.41323979
_cell_angle_alpha   63.24634145
_cell_angle_beta   63.60897761
_cell_angle_gamma   80.20610391
_symmetry_Int_Tables_number   1
_chemical_formula_structural   TbPa5F24
_chemical_formula_sum   'Tb1 Pa5 F24'
_cell_volume   478.31952237
_cell_formula_units_Z   1
loop_
 _symmetry_equiv_pos_site_id
 _symmetry_equiv_pos_as_xyz
  1  'x, y, z'
loop_
 _atom_site_type_symbol
 _atom_site_label
 _atom_site_symmetry_multiplicity
 _atom_site_fract_x
 _atom_site_fract_y
 _atom_site_fract_z
 _atom_site_occupancy
  Tb  Tb0  1  0.774487  0.635954  0.169033  1
  Pa  Pa1  1  0.637824  0.767094  0.668077  1
  Pa  Pa2  1  0.376830  0.225586  0.329455  1
  Pa  Pa3  1  0.215808  0.369347  0.836755  1
  Pa  Pa4  1  0.788227  0.208172  0.741670  1
  Pa  Pa5  1  0.215437  0.787062  0.245143  1
  F  F6  1  0.319822  0.259880  0.609377  1
  F  F7  1  0.678642  0.740545  0.398725  1
  F  F8  1  0.736057  0.679604  0.895179  1
  F  F9  1  0.267672  0.328594  0.102102  1
  F  F10  1  0.819410  0.939325  0.949331  1
  F  F11  1  0.170502  0.070665  0.047149  1
  F  F12  1  0.069181  0.170916  0.544021  1
  F  F13  1  0.938313  0.823027  0.458229  1
  F  F14  1  0.403521  0.596521  0.752584  1
  F  F15  1  0.595512  0.401866  0.248576  1
  F  F16  1  0.499029  0.998104  0.504319  1
  F  F17  1  0.997917  0.496212  0.004155  1
  F  F18  1  0.499211  0.248737  0.797187  1
  F  F19  1  0.495747  0.745856  0.208328  1
  F  F20  1  0.750041  0.494292  0.710827  1
  F  F21  1  0.246395  0.500000  0.299442  1
  F  F22  1  0.399118  0.808958  0.924610  1
  F  F23  1  0.602987  0.191191  0.071587  1
  F  F24  1  0.193862  0.603182  0.571968  1
  F  F25  1  0.805184  0.397981  0.435300  1
  F  F26  1  0.725833  0.025823  0.642282  1
  F  F27  1  0.277673  0.979248  0.340371  1
  F  F28  1  0.974413  0.276651  0.840841  1
  F  F29  1  0.025344  0.729608  0.153377  1
