# generated using pymatgen
data_MnFe11(W6N)2
_symmetry_space_group_name_H-M   'P 1'
_cell_length_a   7.71115210
_cell_length_b   7.71115100
_cell_length_c   7.71115031
_cell_angle_alpha   60.09951213
_cell_angle_beta   60.09951312
_cell_angle_gamma   60.09950937
_symmetry_Int_Tables_number   1
_chemical_formula_structural   MnFe11(W6N)2
_chemical_formula_sum   'Mn1 Fe11 W12 N2'
_cell_volume   324.95316692
_cell_formula_units_Z   1
loop_
 _symmetry_equiv_pos_site_id
 _symmetry_equiv_pos_as_xyz
  1  'x, y, z'
loop_
 _atom_site_type_symbol
 _atom_site_label
 _atom_site_symmetry_multiplicity
 _atom_site_fract_x
 _atom_site_fract_y
 _atom_site_fract_z
 _atom_site_occupancy
  Mn  Mn0  1  0.125000  0.125000  0.125000  1
  Fe  Fe1  1  0.920674  0.237152  0.920674  1
  Fe  Fe2  1  0.329326  0.012848  0.329326  1
  Fe  Fe3  1  0.328993  0.328993  0.328993  1
  Fe  Fe4  1  0.012848  0.329326  0.329326  1
  Fe  Fe5  1  0.920674  0.920674  0.237152  1
  Fe  Fe6  1  0.237152  0.920674  0.920674  1
  Fe  Fe7  1  0.329326  0.329326  0.012848  1
  Fe  Fe8  1  0.125000  0.125000  0.625000  1
  Fe  Fe9  1  0.921007  0.921007  0.921007  1
  Fe  Fe10  1  0.125000  0.625000  0.125000  1
  Fe  Fe11  1  0.625000  0.125000  0.125000  1
  W  W12  1  0.300943  0.698623  0.698623  1
  W  W13  1  0.301849  0.301849  0.697540  1
  W  W14  1  0.551377  0.949057  0.551377  1
  W  W15  1  0.949057  0.551377  0.551377  1
  W  W16  1  0.552460  0.948151  0.948151  1
  W  W17  1  0.697540  0.301849  0.301849  1
  W  W18  1  0.948151  0.552460  0.948151  1
  W  W19  1  0.301849  0.697540  0.301849  1
  W  W20  1  0.551377  0.551377  0.949057  1
  W  W21  1  0.698623  0.300943  0.698623  1
  W  W22  1  0.698623  0.698623  0.300943  1
  W  W23  1  0.948151  0.948151  0.552460  1
  N  N24  1  0.749795  0.749795  0.749795  1
  N  N25  1  0.500205  0.500205  0.500205  1
