# generated using pymatgen
data_Dy6Lu6Tl2FeTc2
_symmetry_space_group_name_H-M   'P 1'
_cell_length_a   8.34898171
_cell_length_b   8.33076815
_cell_length_c   8.34898307
_cell_angle_alpha   108.71149610
_cell_angle_beta   108.76171977
_cell_angle_gamma   111.04167735
_symmetry_Int_Tables_number   1
_chemical_formula_structural   Dy6Lu6Tl2FeTc2
_chemical_formula_sum   'Dy6 Lu6 Tl2 Fe1 Tc2'
_cell_volume   446.28224928
_cell_formula_units_Z   1
loop_
 _symmetry_equiv_pos_site_id
 _symmetry_equiv_pos_as_xyz
  1  'x, y, z'
loop_
 _atom_site_type_symbol
 _atom_site_label
 _atom_site_symmetry_multiplicity
 _atom_site_fract_x
 _atom_site_fract_y
 _atom_site_fract_z
 _atom_site_occupancy
  Dy  Dy0  1  0.300314  0.301811  0.608296  1
  Dy  Dy1  1  0.696950  0.694783  0.390864  1
  Dy  Dy2  1  0.693517  0.301811  0.001498  1
  Dy  Dy3  1  0.303917  0.694783  0.997832  1
  Dy  Dy4  1  0.190657  0.432205  0.241549  1
  Dy  Dy5  1  0.806261  0.568690  0.762429  1
  Lu  Lu6  1  0.190386  0.950127  0.759743  1
  Lu  Lu7  1  0.949170  0.186096  0.760308  1
  Lu  Lu8  1  0.806656  0.043533  0.236876  1
  Lu  Lu9  1  0.045326  0.811424  0.236872  1
  Lu  Lu10  1  0.425787  0.186096  0.236925  1
  Lu  Lu11  1  0.574552  0.811424  0.766098  1
  Tl  Tl12  1  0.997608  0.497843  0.500234  1
  Tl  Tl13  1  0.498218  0.998461  0.500243  1
  Fe  Fe14  1  0.632210  0.633450  0.001240  1
  Tc  Tc15  1  0.387495  0.386384  0.998888  1
  Tc  Tc16  1  0.000975  0.001080  0.000105  1
