# generated using pymatgen
data_NaNd7(Si3Au)4
_symmetry_space_group_name_H-M   'P 1'
_cell_length_a   8.28391800
_cell_length_b   8.28391840
_cell_length_c   8.64379000
_cell_angle_alpha   90.00000000
_cell_angle_beta   90.00000000
_cell_angle_gamma   119.95807017
_symmetry_Int_Tables_number   1
_chemical_formula_structural   NaNd7(Si3Au)4
_chemical_formula_sum   'Na1 Nd7 Si12 Au4'
_cell_volume   513.91321151
_cell_formula_units_Z   1
loop_
 _symmetry_equiv_pos_site_id
 _symmetry_equiv_pos_as_xyz
  1  'x, y, z'
loop_
 _atom_site_type_symbol
 _atom_site_label
 _atom_site_symmetry_multiplicity
 _atom_site_fract_x
 _atom_site_fract_y
 _atom_site_fract_z
 _atom_site_occupancy
  Na  Na0  1  0.499850  0.500150  0.750000  1
  Nd  Nd1  1  0.500100  0.499900  0.250000  1
  Nd  Nd2  1  0.000276  0.500137  0.750000  1
  Nd  Nd3  1  0.999793  0.499972  0.250000  1
  Nd  Nd4  1  0.499863  0.999724  0.750000  1
  Nd  Nd5  1  0.500028  0.000207  0.250000  1
  Nd  Nd6  1  0.000048  0.999952  0.750000  1
  Nd  Nd7  1  0.000059  0.999941  0.250000  1
  Si  Si8  1  0.836139  0.163861  0.000817  1
  Si  Si9  1  0.163856  0.836144  0.001830  1
  Si  Si10  1  0.326796  0.162972  0.999277  1
  Si  Si11  1  0.163856  0.836144  0.498170  1
  Si  Si12  1  0.673217  0.837022  0.000296  1
  Si  Si13  1  0.836139  0.163861  0.499183  1
  Si  Si14  1  0.837028  0.673204  0.999277  1
  Si  Si15  1  0.673217  0.837022  0.499704  1
  Si  Si16  1  0.162978  0.326783  0.000296  1
  Si  Si17  1  0.326796  0.162972  0.500723  1
  Si  Si18  1  0.162978  0.326783  0.499704  1
  Si  Si19  1  0.837028  0.673204  0.500723  1
  Au  Au20  1  0.665756  0.334244  0.998592  1
  Au  Au21  1  0.334222  0.665778  0.998756  1
  Au  Au22  1  0.334222  0.665778  0.501244  1
  Au  Au23  1  0.665756  0.334244  0.501408  1
