# generated using pymatgen
data_SmDy2Cu4Ni9B2
_symmetry_space_group_name_H-M   'P 1'
_cell_length_a   5.01833500
_cell_length_b   5.01833510
_cell_length_c   10.87042500
_cell_angle_alpha   90.00000000
_cell_angle_beta   90.00000000
_cell_angle_gamma   119.99999274
_symmetry_Int_Tables_number   1
_chemical_formula_structural   SmDy2Cu4Ni9B2
_chemical_formula_sum   'Sm1 Dy2 Cu4 Ni9 B2'
_cell_volume   237.08086053
_cell_formula_units_Z   1
loop_
 _symmetry_equiv_pos_site_id
 _symmetry_equiv_pos_as_xyz
  1  'x, y, z'
loop_
 _atom_site_type_symbol
 _atom_site_label
 _atom_site_symmetry_multiplicity
 _atom_site_fract_x
 _atom_site_fract_y
 _atom_site_fract_z
 _atom_site_occupancy
  Sm  Sm0  1  0.000000  0.000000  0.332501  1
  Dy  Dy1  1  0.000000  0.000000  0.999113  1
  Dy  Dy2  1  0.000000  0.000000  0.667905  1
  Cu  Cu3  1  0.333333  0.666667  0.317069  1
  Cu  Cu4  1  0.666667  0.333333  0.317069  1
  Cu  Cu5  1  0.666667  0.333333  0.683076  1
  Cu  Cu6  1  0.333333  0.666667  0.683076  1
  Ni  Ni7  1  0.500000  0.000000  0.500709  1
  Ni  Ni8  1  0.500000  0.500000  0.500709  1
  Ni  Ni9  1  0.000000  0.500000  0.500709  1
  Ni  Ni10  1  0.500000  0.000000  0.129559  1
  Ni  Ni11  1  0.500000  0.500000  0.129559  1
  Ni  Ni12  1  0.000000  0.500000  0.129559  1
  Ni  Ni13  1  0.500000  0.000000  0.869874  1
  Ni  Ni14  1  0.500000  0.500000  0.869874  1
  Ni  Ni15  1  0.000000  0.500000  0.869874  1
  B  B16  1  0.333333  0.666667  0.999883  1
  B  B17  1  0.666667  0.333333  0.999883  1
