# generated using pymatgen
data_LiTb19(IrPt)6
_symmetry_space_group_name_H-M   'P 1'
_cell_length_a   11.02099031
_cell_length_b   11.01327607
_cell_length_c   6.32868815
_cell_angle_alpha   90.00607613
_cell_angle_beta   90.02450584
_cell_angle_gamma   90.01110261
_symmetry_Int_Tables_number   1
_chemical_formula_structural   LiTb19(IrPt)6
_chemical_formula_sum   'Li1 Tb19 Ir6 Pt6'
_cell_volume   768.15841414
_cell_formula_units_Z   1
loop_
 _symmetry_equiv_pos_site_id
 _symmetry_equiv_pos_as_xyz
  1  'x, y, z'
loop_
 _atom_site_type_symbol
 _atom_site_label
 _atom_site_symmetry_multiplicity
 _atom_site_fract_x
 _atom_site_fract_y
 _atom_site_fract_z
 _atom_site_occupancy
  Li  Li0  1  0.000105  0.999697  0.500086  1
  Tb  Tb1  1  0.285084  0.085425  0.377517  1
  Tb  Tb2  1  0.295452  0.908294  0.877856  1
  Tb  Tb3  1  0.704827  0.088171  0.876567  1
  Tb  Tb4  1  0.715899  0.918035  0.376745  1
  Tb  Tb5  1  0.586957  0.792722  0.876166  1
  Tb  Tb6  1  0.580966  0.207291  0.374084  1
  Tb  Tb7  1  0.413535  0.793271  0.378666  1
  Tb  Tb8  1  0.408207  0.206652  0.881231  1
  Tb  Tb9  1  0.208753  0.417094  0.622606  1
  Tb  Tb10  1  0.208870  0.588839  0.120098  1
  Tb  Tb11  1  0.795083  0.409890  0.122238  1
  Tb  Tb12  1  0.795018  0.584896  0.624382  1
  Tb  Tb13  1  0.912357  0.704724  0.122782  1
  Tb  Tb14  1  0.918529  0.284556  0.622589  1
  Tb  Tb15  1  0.086062  0.715156  0.623321  1
  Tb  Tb16  1  0.092482  0.295537  0.122969  1
  Tb  Tb17  1  0.000101  0.000172  0.000050  1
  Tb  Tb18  1  0.496785  0.499256  0.000006  1
  Tb  Tb19  1  0.497082  0.500596  0.500170  1
  Ir  Ir20  1  0.345806  0.344360  0.252210  1
  Ir  Ir21  1  0.345069  0.655004  0.747614  1
  Ir  Ir22  1  0.500559  0.999617  0.125416  1
  Ir  Ir23  1  0.500566  0.000200  0.621314  1
  Ir  Ir24  1  0.999375  0.500015  0.874500  1
  Ir  Ir25  1  0.999158  0.499524  0.378642  1
  Pt  Pt26  1  0.846406  0.154954  0.245576  1
  Pt  Pt27  1  0.844721  0.847142  0.755016  1
  Pt  Pt28  1  0.153878  0.152417  0.753693  1
  Pt  Pt29  1  0.151821  0.845553  0.245494  1
  Pt  Pt30  1  0.655807  0.345545  0.747798  1
  Pt  Pt31  1  0.654681  0.655395  0.252599  1
