# generated using pymatgen
data_Pr3TlInSnPd3
_symmetry_space_group_name_H-M   'P 1'
_cell_length_a   7.81797956
_cell_length_b   7.82840067
_cell_length_c   4.06435200
_cell_angle_alpha   90.00000000
_cell_angle_beta   90.00000000
_cell_angle_gamma   119.43217485
_symmetry_Int_Tables_number   1
_chemical_formula_structural   Pr3TlInSnPd3
_chemical_formula_sum   'Pr3 Tl1 In1 Sn1 Pd3'
_cell_volume   216.64373351
_cell_formula_units_Z   1
loop_
 _symmetry_equiv_pos_site_id
 _symmetry_equiv_pos_as_xyz
  1  'x, y, z'
loop_
 _atom_site_type_symbol
 _atom_site_label
 _atom_site_symmetry_multiplicity
 _atom_site_fract_x
 _atom_site_fract_y
 _atom_site_fract_z
 _atom_site_occupancy
  Pr  Pr0  1  0.001103  0.590186  0.000000  1
  Pr  Pr1  1  0.410980  0.410611  0.000000  1
  Pr  Pr2  1  0.591028  0.000861  0.000000  1
  Tl  Tl3  1  0.741497  0.741120  0.500000  1
  In  In4  1  0.001665  0.255049  0.500000  1
  Sn  Sn5  1  0.252319  0.001600  0.500000  1
  Pd  Pd6  1  0.663976  0.325375  0.500000  1
  Pd  Pd7  1  0.010368  0.007853  0.000000  1
  Pd  Pd8  1  0.327064  0.667346  0.500000  1
