# generated using pymatgen
data_Tb10TcAg3
_symmetry_space_group_name_H-M   'P 1'
_cell_length_a   9.49046500
_cell_length_b   9.49046630
_cell_length_c   9.82601300
_cell_angle_alpha   90.00000000
_cell_angle_beta   90.00000000
_cell_angle_gamma   119.99999894
_symmetry_Int_Tables_number   1
_chemical_formula_structural   Tb10TcAg3
_chemical_formula_sum   'Tb20 Tc2 Ag6'
_cell_volume   766.44856264
_cell_formula_units_Z   2
loop_
 _symmetry_equiv_pos_site_id
 _symmetry_equiv_pos_as_xyz
  1  'x, y, z'
loop_
 _atom_site_type_symbol
 _atom_site_label
 _atom_site_symmetry_multiplicity
 _atom_site_fract_x
 _atom_site_fract_y
 _atom_site_fract_z
 _atom_site_occupancy
  Tb  Tb0  1  0.000000  0.000000  0.500000  1
  Tb  Tb1  1  0.000000  0.000000  0.000000  1
  Tb  Tb2  1  0.540075  0.459925  0.250000  1
  Tb  Tb3  1  0.540075  0.080152  0.250000  1
  Tb  Tb4  1  0.919848  0.459925  0.250000  1
  Tb  Tb5  1  0.459925  0.540075  0.750000  1
  Tb  Tb6  1  0.459925  0.919848  0.750000  1
  Tb  Tb7  1  0.080152  0.540075  0.750000  1
  Tb  Tb8  1  0.208818  0.791182  0.440540  1
  Tb  Tb9  1  0.208818  0.417636  0.440540  1
  Tb  Tb10  1  0.582364  0.791182  0.440540  1
  Tb  Tb11  1  0.791182  0.208818  0.559460  1
  Tb  Tb12  1  0.791182  0.582364  0.559460  1
  Tb  Tb13  1  0.417636  0.208818  0.559460  1
  Tb  Tb14  1  0.791182  0.208818  0.940540  1
  Tb  Tb15  1  0.791182  0.582364  0.940540  1
  Tb  Tb16  1  0.417636  0.208818  0.940540  1
  Tb  Tb17  1  0.208818  0.791182  0.059460  1
  Tb  Tb18  1  0.208818  0.417636  0.059460  1
  Tb  Tb19  1  0.582364  0.791182  0.059460  1
  Tc  Tc20  1  0.333333  0.666667  0.250000  1
  Tc  Tc21  1  0.666667  0.333333  0.750000  1
  Ag  Ag22  1  0.885483  0.114517  0.250000  1
  Ag  Ag23  1  0.885483  0.770964  0.250000  1
  Ag  Ag24  1  0.229036  0.114517  0.250000  1
  Ag  Ag25  1  0.114517  0.885483  0.750000  1
  Ag  Ag26  1  0.114517  0.229036  0.750000  1
  Ag  Ag27  1  0.770964  0.885483  0.750000  1
