# generated using pymatgen
data_Pa7Te12
_symmetry_space_group_name_H-M   'P 1'
_cell_length_a   12.39539702
_cell_length_b   12.39476165
_cell_length_c   4.20000900
_cell_angle_alpha   90.00000000
_cell_angle_beta   90.00000000
_cell_angle_gamma   119.99589959
_symmetry_Int_Tables_number   1
_chemical_formula_structural   Pa7Te12
_chemical_formula_sum   'Pa7 Te12'
_cell_volume   558.85278172
_cell_formula_units_Z   1
loop_
 _symmetry_equiv_pos_site_id
 _symmetry_equiv_pos_as_xyz
  1  'x, y, z'
loop_
 _atom_site_type_symbol
 _atom_site_label
 _atom_site_symmetry_multiplicity
 _atom_site_fract_x
 _atom_site_fract_y
 _atom_site_fract_z
 _atom_site_occupancy
  Pa  Pa0  1  0.389459  0.492271  0.000000  1
  Pa  Pa1  1  0.507831  0.897225  0.000000  1
  Pa  Pa2  1  0.102808  0.610565  0.000000  1
  Pa  Pa3  1  0.211364  0.041413  0.500000  1
  Pa  Pa4  1  0.958483  0.169834  0.500000  1
  Pa  Pa5  1  0.830165  0.788657  0.500000  1
  Pa  Pa6  1  0.666625  0.333312  0.000000  1
  Te  Te7  1  0.409840  0.084881  0.000000  1
  Te  Te8  1  0.915044  0.324975  0.000000  1
  Te  Te9  1  0.675069  0.590214  0.000000  1
  Te  Te10  1  0.159376  0.198200  0.000000  1
  Te  Te11  1  0.801737  0.960986  0.000000  1
  Te  Te12  1  0.038863  0.840741  0.000000  1
  Te  Te13  1  0.527551  0.718253  0.500000  1
  Te  Te14  1  0.881130  0.544199  0.500000  1
  Te  Te15  1  0.662940  0.118763  0.500000  1
  Te  Te16  1  0.455843  0.337033  0.500000  1
  Te  Te17  1  0.190715  0.472435  0.500000  1
  Te  Te18  1  0.281822  0.809376  0.500000  1
