# generated using pymatgen
data_CdCu4BiO8
_symmetry_space_group_name_H-M   'P 1'
_cell_length_a   6.31611732
_cell_length_b   6.31611842
_cell_length_c   6.31611792
_cell_angle_alpha   125.47568684
_cell_angle_beta   125.47568466
_cell_angle_gamma   80.75160637
_symmetry_Int_Tables_number   1
_chemical_formula_structural   CdCu4BiO8
_chemical_formula_sum   'Cd1 Cu4 Bi1 O8'
_cell_volume   161.10462366
_cell_formula_units_Z   1
loop_
 _symmetry_equiv_pos_site_id
 _symmetry_equiv_pos_as_xyz
  1  'x, y, z'
loop_
 _atom_site_type_symbol
 _atom_site_label
 _atom_site_symmetry_multiplicity
 _atom_site_fract_x
 _atom_site_fract_y
 _atom_site_fract_z
 _atom_site_occupancy
  Cd  Cd0  1  0.000000  0.000000  0.000000  1
  Cu  Cu1  1  0.372624  0.627733  0.249776  1
  Cu  Cu2  1  0.372267  0.622043  0.744891  1
  Cu  Cu3  1  0.877152  0.627376  0.255109  1
  Cu  Cu4  1  0.377957  0.122848  0.750224  1
  Bi  Bi5  1  0.750000  0.250000  0.500000  1
  O  O6  1  0.170820  0.594305  0.863656  1
  O  O7  1  0.730650  0.307165  0.136344  1
  O  O8  1  0.342946  0.976927  0.921094  1
  O  O9  1  0.692835  0.829180  0.423485  1
  O  O10  1  0.055833  0.421852  0.078906  1
  O  O11  1  0.405695  0.269350  0.576515  1
  O  O12  1  0.023073  0.944167  0.366020  1
  O  O13  1  0.578148  0.657054  0.633980  1
