# generated using pymatgen
data_Ho2FeOs5O18
_symmetry_space_group_name_H-M   'P 1'
_cell_length_a   7.37189303
_cell_length_b   5.21636743
_cell_length_c   8.14926719
_cell_angle_alpha   85.82043181
_cell_angle_beta   89.77171576
_cell_angle_gamma   90.09454225
_symmetry_Int_Tables_number   1
_chemical_formula_structural   Ho2FeOs5O18
_chemical_formula_sum   'Ho2 Fe1 Os5 O18'
_cell_volume   312.53953050
_cell_formula_units_Z   1
loop_
 _symmetry_equiv_pos_site_id
 _symmetry_equiv_pos_as_xyz
  1  'x, y, z'
loop_
 _atom_site_type_symbol
 _atom_site_label
 _atom_site_symmetry_multiplicity
 _atom_site_fract_x
 _atom_site_fract_y
 _atom_site_fract_z
 _atom_site_occupancy
  Ho  Ho0  1  0.258625  0.963392  0.435828  1
  Ho  Ho1  1  0.739598  0.031327  0.571084  1
  Fe  Fe2  1  0.494048  0.530621  0.694955  1
  Os  Os3  1  0.002868  0.999625  0.001360  1
  Os  Os4  1  0.502767  0.001834  0.993759  1
  Os  Os5  1  0.002524  0.537214  0.693534  1
  Os  Os6  1  0.997168  0.461693  0.308273  1
  Os  Os7  1  0.504163  0.466372  0.309057  1
  O  O8  1  0.254106  0.907435  0.985723  1
  O  O9  1  0.935506  0.847846  0.788704  1
  O  O10  1  0.560492  0.864504  0.784538  1
  O  O11  1  0.955964  0.739084  0.472272  1
  O  O12  1  0.542234  0.749080  0.461854  1
  O  O13  1  0.243515  0.661571  0.657776  1
  O  O14  1  0.955356  0.685489  0.124121  1
  O  O15  1  0.544952  0.686473  0.123103  1
  O  O16  1  0.250751  0.583550  0.308302  1
  O  O17  1  0.754500  0.415792  0.687749  1
  O  O18  1  0.044691  0.313836  0.876527  1
  O  O19  1  0.448922  0.318616  0.892066  1
  O  O20  1  0.750108  0.338329  0.335369  1
  O  O21  1  0.043523  0.259917  0.528250  1
  O  O22  1  0.460058  0.255011  0.523600  1
  O  O23  1  0.067616  0.147806  0.213553  1
  O  O24  1  0.437124  0.150372  0.212021  1
  O  O25  1  0.748820  0.083211  0.016622  1
