# generated using pymatgen
data_Tb8Hf5Sc7Ga16
_symmetry_space_group_name_H-M   'P 1'
_cell_length_a   7.21370287
_cell_length_b   7.55704322
_cell_length_c   14.39137135
_cell_angle_alpha   89.99220579
_cell_angle_beta   89.90147877
_cell_angle_gamma   89.97301524
_symmetry_Int_Tables_number   1
_chemical_formula_structural   Tb8Hf5Sc7Ga16
_chemical_formula_sum   'Tb8 Hf5 Sc7 Ga16'
_cell_volume   784.53376873
_cell_formula_units_Z   1
loop_
 _symmetry_equiv_pos_site_id
 _symmetry_equiv_pos_as_xyz
  1  'x, y, z'
loop_
 _atom_site_type_symbol
 _atom_site_label
 _atom_site_symmetry_multiplicity
 _atom_site_fract_x
 _atom_site_fract_y
 _atom_site_fract_z
 _atom_site_occupancy
  Tb  Tb0  1  0.010181  0.176862  0.093626  1
  Tb  Tb1  1  0.989655  0.822620  0.906646  1
  Tb  Tb2  1  0.489689  0.676905  0.906241  1
  Tb  Tb3  1  0.989825  0.824925  0.593159  1
  Tb  Tb4  1  0.509556  0.323628  0.094073  1
  Tb  Tb5  1  0.010076  0.174727  0.406976  1
  Tb  Tb6  1  0.509992  0.325405  0.406624  1
  Tb  Tb7  1  0.490105  0.675092  0.593458  1
  Hf  Hf8  1  0.328817  0.175768  0.623439  1
  Hf  Hf9  1  0.671145  0.824160  0.376664  1
  Hf  Hf10  1  0.171377  0.675549  0.376939  1
  Hf  Hf11  1  0.670995  0.827401  0.123953  1
  Hf  Hf12  1  0.829215  0.323859  0.623637  1
  Sc  Sc13  1  0.162009  0.504597  0.750557  1
  Sc  Sc14  1  0.838222  0.495761  0.249591  1
  Sc  Sc15  1  0.337721  0.004025  0.249611  1
  Sc  Sc16  1  0.662334  0.995738  0.750701  1
  Sc  Sc17  1  0.328368  0.172525  0.876280  1
  Sc  Sc18  1  0.828265  0.327828  0.876302  1
  Sc  Sc19  1  0.172124  0.673531  0.122684  1
  Ga  Ga20  1  0.030730  0.119800  0.747449  1
  Ga  Ga21  1  0.968082  0.878562  0.251156  1
  Ga  Ga22  1  0.469365  0.621831  0.251602  1
  Ga  Ga23  1  0.530765  0.380313  0.747464  1
  Ga  Ga24  1  0.284794  0.875999  0.747590  1
  Ga  Ga25  1  0.714755  0.122855  0.251099  1
  Ga  Ga26  1  0.215467  0.375627  0.252299  1
  Ga  Ga27  1  0.784789  0.624532  0.747774  1
  Ga  Ga28  1  0.160628  0.461870  0.540044  1
  Ga  Ga29  1  0.839197  0.538548  0.459946  1
  Ga  Ga30  1  0.339724  0.961573  0.459890  1
  Ga  Ga31  1  0.837417  0.538331  0.041732  1
  Ga  Ga32  1  0.660748  0.038545  0.539778  1
  Ga  Ga33  1  0.160246  0.463512  0.958857  1
  Ga  Ga34  1  0.661620  0.034786  0.960151  1
  Ga  Ga35  1  0.342004  0.962413  0.042007  1
