# generated using pymatgen
data_Ba2Sr6CoTc3O16
_symmetry_space_group_name_H-M   'P 1'
_cell_length_a   5.62620669
_cell_length_b   9.08244086
_cell_length_c   9.07043021
_cell_angle_alpha   88.22791133
_cell_angle_beta   71.45666806
_cell_angle_gamma   108.51532024
_symmetry_Int_Tables_number   1
_chemical_formula_structural   Ba2Sr6CoTc3O16
_chemical_formula_sum   'Ba2 Sr6 Co1 Tc3 O16'
_cell_volume   412.17727390
_cell_formula_units_Z   1
loop_
 _symmetry_equiv_pos_site_id
 _symmetry_equiv_pos_as_xyz
  1  'x, y, z'
loop_
 _atom_site_type_symbol
 _atom_site_label
 _atom_site_symmetry_multiplicity
 _atom_site_fract_x
 _atom_site_fract_y
 _atom_site_fract_z
 _atom_site_occupancy
  Ba  Ba0  1  0.254827  0.404466  0.890358  1
  Ba  Ba1  1  0.999029  0.648513  0.644826  1
  Sr  Sr2  1  0.737314  0.883581  0.407663  1
  Sr  Sr3  1  0.502891  0.147145  0.150476  1
  Sr  Sr4  1  0.004199  0.358432  0.355571  1
  Sr  Sr5  1  0.734403  0.590596  0.122404  1
  Sr  Sr6  1  0.504405  0.853715  0.852641  1
  Sr  Sr7  1  0.261075  0.118277  0.588387  1
  Co  Co8  1  0.500355  0.500351  0.497844  1
  Tc  Tc9  1  0.255139  0.755961  0.247058  1
  Tc  Tc10  1  0.001935  0.998850  0.003887  1
  Tc  Tc11  1  0.743302  0.243615  0.749877  1
  O  O12  1  0.258787  0.599606  0.090023  1
  O  O13  1  0.995724  0.844441  0.850469  1
  O  O14  1  0.742623  0.083609  0.595571  1
  O  O15  1  0.497805  0.335179  0.330364  1
  O  O16  1  0.997527  0.158311  0.160543  1
  O  O17  1  0.740721  0.397421  0.913564  1
  O  O18  1  0.505932  0.674333  0.660525  1
  O  O19  1  0.259571  0.918705  0.405116  1
  O  O20  1  0.871620  0.118716  0.875410  1
  O  O21  1  0.623814  0.361130  0.623113  1
  O  O22  1  0.378486  0.631178  0.365563  1
  O  O23  1  0.129252  0.879934  0.125148  1
  O  O24  1  0.371892  0.118879  0.877899  1
  O  O25  1  0.105150  0.362882  0.625674  1
  O  O26  1  0.888297  0.631150  0.365583  1
  O  O27  1  0.633922  0.881024  0.124441  1
