# generated using pymatgen
data_HfZrTi3Rh
_symmetry_space_group_name_H-M   'P 1'
_cell_length_a   5.56741647
_cell_length_b   5.56741698
_cell_length_c   5.19532697
_cell_angle_alpha   57.60113443
_cell_angle_beta   57.60113264
_cell_angle_gamma   60.00000377
_symmetry_Int_Tables_number   1
_chemical_formula_structural   HfZrTi3Rh
_chemical_formula_sum   'Hf1 Zr1 Ti3 Rh1'
_cell_volume   109.56390098
_cell_formula_units_Z   1
loop_
 _symmetry_equiv_pos_site_id
 _symmetry_equiv_pos_as_xyz
  1  'x, y, z'
loop_
 _atom_site_type_symbol
 _atom_site_label
 _atom_site_symmetry_multiplicity
 _atom_site_fract_x
 _atom_site_fract_y
 _atom_site_fract_z
 _atom_site_occupancy
  Hf  Hf0  1  0.249184  0.249184  0.252446  1
  Zr  Zr1  1  0.000003  0.000003  0.999989  1
  Ti  Ti2  1  0.625059  0.125791  0.624092  1
  Ti  Ti3  1  0.125791  0.625059  0.624092  1
  Ti  Ti4  1  0.625059  0.625059  0.624092  1
  Rh  Rh5  1  0.624904  0.624904  0.125290  1
