# generated using pymatgen
data_CaBi2F12
_symmetry_space_group_name_H-M   'P 1'
_cell_length_a   5.47866596
_cell_length_b   5.98848643
_cell_length_c   9.34413694
_cell_angle_alpha   104.91326885
_cell_angle_beta   91.17799550
_cell_angle_gamma   116.50723755
_symmetry_Int_Tables_number   1
_chemical_formula_structural   CaBi2F12
_chemical_formula_sum   'Ca1 Bi2 F12'
_cell_volume   261.83189444
_cell_formula_units_Z   1
loop_
 _symmetry_equiv_pos_site_id
 _symmetry_equiv_pos_as_xyz
  1  'x, y, z'
loop_
 _atom_site_type_symbol
 _atom_site_label
 _atom_site_symmetry_multiplicity
 _atom_site_fract_x
 _atom_site_fract_y
 _atom_site_fract_z
 _atom_site_occupancy
  Ca  Ca0  1  0.500000  0.500000  0.500000  1
  Bi  Bi1  1  0.272667  0.016809  0.769603  1
  Bi  Bi2  1  0.727333  0.983191  0.230397  1
  F  F3  1  0.769490  0.773245  0.368522  1
  F  F4  1  0.230510  0.226755  0.631478  1
  F  F5  1  0.317783  0.749582  0.212118  1
  F  F6  1  0.303658  0.768788  0.870834  1
  F  F7  1  0.696342  0.231212  0.129166  1
  F  F8  1  0.848857  0.776696  0.699758  1
  F  F9  1  0.151143  0.223304  0.300242  1
  F  F10  1  0.300700  0.770225  0.571653  1
  F  F11  1  0.699300  0.229775  0.428347  1
  F  F12  1  0.198990  0.236302  0.947731  1
  F  F13  1  0.801010  0.763698  0.052269  1
  F  F14  1  0.682217  0.250418  0.787882  1
