# generated using pymatgen
data_CeHoReC2
_symmetry_space_group_name_H-M   'P 1'
_cell_length_a   5.20782800
_cell_length_b   6.52943800
_cell_length_c   9.86181300
_cell_angle_alpha   90.00000000
_cell_angle_beta   90.00000000
_cell_angle_gamma   90.00000000
_symmetry_Int_Tables_number   1
_chemical_formula_structural   CeHoReC2
_chemical_formula_sum   'Ce4 Ho4 Re4 C8'
_cell_volume   335.34296340
_cell_formula_units_Z   4
loop_
 _symmetry_equiv_pos_site_id
 _symmetry_equiv_pos_as_xyz
  1  'x, y, z'
loop_
 _atom_site_type_symbol
 _atom_site_label
 _atom_site_symmetry_multiplicity
 _atom_site_fract_x
 _atom_site_fract_y
 _atom_site_fract_z
 _atom_site_occupancy
  Ce  Ce0  1  0.250000  0.468768  0.782681  1
  Ce  Ce1  1  0.750000  0.031232  0.282681  1
  Ce  Ce2  1  0.250000  0.968768  0.717319  1
  Ce  Ce3  1  0.750000  0.531232  0.217319  1
  Ho  Ho4  1  0.250000  0.821303  0.052533  1
  Ho  Ho5  1  0.750000  0.678697  0.552533  1
  Ho  Ho6  1  0.250000  0.321303  0.447467  1
  Ho  Ho7  1  0.750000  0.178697  0.947467  1
  Re  Re8  1  0.250000  0.279344  0.134195  1
  Re  Re9  1  0.750000  0.220656  0.634195  1
  Re  Re10  1  0.250000  0.779344  0.365805  1
  Re  Re11  1  0.750000  0.720656  0.865805  1
  C  C12  1  0.250000  0.174145  0.947386  1
  C  C13  1  0.750000  0.825855  0.052614  1
  C  C14  1  0.250000  0.674145  0.552614  1
  C  C15  1  0.750000  0.325855  0.447386  1
  C  C16  1  0.250000  0.046421  0.259433  1
  C  C17  1  0.750000  0.453579  0.759433  1
  C  C18  1  0.250000  0.546421  0.240567  1
  C  C19  1  0.750000  0.953579  0.740567  1
