# generated using pymatgen
data_CeY3(Ti3Si4)2
_symmetry_space_group_name_H-M   'P 1'
_cell_length_a   7.07722035
_cell_length_b   7.07734915
_cell_length_c   13.02463559
_cell_angle_alpha   89.98628970
_cell_angle_beta   89.83547709
_cell_angle_gamma   89.98099760
_symmetry_Int_Tables_number   1
_chemical_formula_structural   CeY3(Ti3Si4)2
_chemical_formula_sum   'Ce2 Y6 Ti12 Si16'
_cell_volume   652.37467502
_cell_formula_units_Z   2
loop_
 _symmetry_equiv_pos_site_id
 _symmetry_equiv_pos_as_xyz
  1  'x, y, z'
loop_
 _atom_site_type_symbol
 _atom_site_label
 _atom_site_symmetry_multiplicity
 _atom_site_fract_x
 _atom_site_fract_y
 _atom_site_fract_z
 _atom_site_occupancy
  Ce  Ce0  1  0.494956  0.838451  0.715600  1
  Ce  Ce1  1  0.338665  0.004940  0.466775  1
  Y  Y2  1  0.997902  0.659900  0.033593  1
  Y  Y3  1  0.002904  0.338941  0.532256  1
  Y  Y4  1  0.660385  0.997330  0.967452  1
  Y  Y5  1  0.161176  0.503235  0.784128  1
  Y  Y6  1  0.840350  0.498052  0.282350  1
  Y  Y7  1  0.502923  0.160015  0.216858  1
  Ti  Ti8  1  0.346258  0.508747  0.372001  1
  Ti  Ti9  1  0.846379  0.993018  0.374630  1
  Ti  Ti10  1  0.007421  0.153194  0.123520  1
  Ti  Ti11  1  0.992890  0.845408  0.622974  1
  Ti  Ti12  1  0.509528  0.343637  0.626114  1
  Ti  Ti13  1  0.154180  0.010679  0.877715  1
  Ti  Ti14  1  0.670474  0.675064  0.500395  1
  Ti  Ti15  1  0.825588  0.172285  0.750376  1
  Ti  Ti16  1  0.173699  0.826904  0.250833  1
  Ti  Ti17  1  0.326030  0.326750  0.000750  1
  Ti  Ti18  1  0.492175  0.651135  0.126384  1
  Ti  Ti19  1  0.654760  0.494458  0.874395  1
  Si  Si20  1  0.043995  0.708166  0.434433  1
  Si  Si21  1  0.952820  0.291861  0.935676  1
  Si  Si22  1  0.711353  0.046642  0.564380  1
  Si  Si23  1  0.208639  0.453716  0.184568  1
  Si  Si24  1  0.792888  0.544622  0.685389  1
  Si  Si25  1  0.454575  0.210537  0.816562  1
  Si  Si26  1  0.546768  0.791118  0.313886  1
  Si  Si27  1  0.291112  0.953014  0.066054  1
  Si  Si28  1  0.797999  0.870189  0.184271  1
  Si  Si29  1  0.297185  0.625730  0.563113  1
  Si  Si30  1  0.702525  0.370442  0.065664  1
  Si  Si31  1  0.630518  0.299212  0.434042  1
  Si  Si32  1  0.371260  0.701853  0.937037  1
  Si  Si33  1  0.128317  0.202236  0.313474  1
  Si  Si34  1  0.199808  0.130635  0.686954  1
  Si  Si35  1  0.871594  0.797882  0.815396  1
