# generated using pymatgen
data_Sr5CaAc2(Si3Pd)4
_symmetry_space_group_name_H-M   'P 1'
_cell_length_a   8.40245100
_cell_length_b   8.41758090
_cell_length_c   9.10362300
_cell_angle_alpha   90.00000000
_cell_angle_beta   90.00000000
_cell_angle_gamma   119.94056367
_symmetry_Int_Tables_number   1
_chemical_formula_structural   Sr5CaAc2(Si3Pd)4
_chemical_formula_sum   'Sr5 Ca1 Ac2 Si12 Pd4'
_cell_volume   557.95346568
_cell_formula_units_Z   1
loop_
 _symmetry_equiv_pos_site_id
 _symmetry_equiv_pos_as_xyz
  1  'x, y, z'
loop_
 _atom_site_type_symbol
 _atom_site_label
 _atom_site_symmetry_multiplicity
 _atom_site_fract_x
 _atom_site_fract_y
 _atom_site_fract_z
 _atom_site_occupancy
  Sr  Sr0  1  0.499115  0.500799  0.750000  1
  Sr  Sr1  1  0.501017  0.498982  0.250000  1
  Sr  Sr2  1  0.001685  0.500799  0.750000  1
  Sr  Sr3  1  0.997966  0.498982  0.250000  1
  Sr  Sr4  1  0.499189  0.998379  0.750000  1
  Ca  Ca5  1  0.500705  0.001412  0.250000  1
  Ac  Ac6  1  0.000083  0.000166  0.750000  1
  Ac  Ac7  1  0.999995  0.999991  0.250000  1
  Si  Si8  1  0.833127  0.164408  0.002575  1
  Si  Si9  1  0.166856  0.835565  0.003350  1
  Si  Si10  1  0.331281  0.164408  0.002575  1
  Si  Si11  1  0.166856  0.835565  0.496650  1
  Si  Si12  1  0.668710  0.835565  0.003350  1
  Si  Si13  1  0.833127  0.164408  0.497425  1
  Si  Si14  1  0.834588  0.669179  0.000351  1
  Si  Si15  1  0.668710  0.835565  0.496650  1
  Si  Si16  1  0.165501  0.331003  0.001617  1
  Si  Si17  1  0.331281  0.164408  0.497425  1
  Si  Si18  1  0.165501  0.331003  0.498383  1
  Si  Si19  1  0.834588  0.669179  0.499649  1
  Pd  Pd20  1  0.665988  0.331973  0.002450  1
  Pd  Pd21  1  0.334071  0.668141  0.006017  1
  Pd  Pd22  1  0.334071  0.668141  0.493983  1
  Pd  Pd23  1  0.665988  0.331973  0.497550  1
