# generated using pymatgen
data_Pa4Re3(Ge3Ru2)2
_symmetry_space_group_name_H-M   'P 1'
_cell_length_a   7.32929092
_cell_length_b   7.32929070
_cell_length_c   7.32826300
_cell_angle_alpha   109.46837748
_cell_angle_beta   109.46837686
_cell_angle_gamma   109.47406096
_symmetry_Int_Tables_number   1
_chemical_formula_structural   Pa4Re3(Ge3Ru2)2
_chemical_formula_sum   'Pa4 Re3 Ge6 Ru4'
_cell_volume   303.05281281
_cell_formula_units_Z   1
loop_
 _symmetry_equiv_pos_site_id
 _symmetry_equiv_pos_as_xyz
  1  'x, y, z'
loop_
 _atom_site_type_symbol
 _atom_site_label
 _atom_site_symmetry_multiplicity
 _atom_site_fract_x
 _atom_site_fract_y
 _atom_site_fract_z
 _atom_site_occupancy
  Pa  Pa0  1  0.504037  0.495963  0.500000  1
  Pa  Pa1  1  0.991926  0.495963  0.995963  1
  Pa  Pa2  1  0.504037  0.008074  0.004037  1
  Pa  Pa3  1  0.000000  0.000000  0.500000  1
  Re  Re4  1  0.750442  0.500884  0.250442  1
  Re  Re5  1  0.499116  0.249558  0.749558  1
  Re  Re6  1  0.750442  0.249558  0.500000  1
  Ge  Ge7  1  0.686634  0.996133  0.686480  1
  Ge  Ge8  1  0.686634  0.690501  0.000156  1
  Ge  Ge9  1  0.309499  0.313366  0.999844  1
  Ge  Ge10  1  0.003867  0.690501  0.690345  1
  Ge  Ge11  1  0.003867  0.313366  0.313520  1
  Ge  Ge12  1  0.309499  0.996133  0.309655  1
  Ru  Ru13  1  0.250146  0.749854  0.500000  1
  Ru  Ru14  1  0.250146  0.500294  0.750146  1
  Ru  Ru15  1  0.499706  0.749854  0.249854  1
  Ru  Ru16  1  0.000000  0.000000  0.000000  1
