# generated using pymatgen
data_DyYNb2(BiRh)4
_symmetry_space_group_name_H-M   'P 1'
_cell_length_a   6.49501903
_cell_length_b   4.59912800
_cell_length_c   9.15825205
_cell_angle_alpha   90.00000000
_cell_angle_beta   89.98853536
_cell_angle_gamma   90.00000000
_symmetry_Int_Tables_number   1
_chemical_formula_structural   DyYNb2(BiRh)4
_chemical_formula_sum   'Dy1 Y1 Nb2 Bi4 Rh4'
_cell_volume   273.57002350
_cell_formula_units_Z   1
loop_
 _symmetry_equiv_pos_site_id
 _symmetry_equiv_pos_as_xyz
  1  'x, y, z'
loop_
 _atom_site_type_symbol
 _atom_site_label
 _atom_site_symmetry_multiplicity
 _atom_site_fract_x
 _atom_site_fract_y
 _atom_site_fract_z
 _atom_site_occupancy
  Dy  Dy0  1  0.010916  0.000000  0.374625  1
  Y  Y1  1  0.510832  0.500001  0.625350  1
  Nb  Nb2  1  0.490076  0.500001  0.121316  1
  Nb  Nb3  1  0.990091  0.000000  0.878660  1
  Bi  Bi4  1  0.979195  0.500001  0.125642  1
  Bi  Bi5  1  0.515514  0.000000  0.373692  1
  Bi  Bi6  1  0.015511  0.500001  0.626259  1
  Bi  Bi7  1  0.479202  0.000000  0.874417  1
  Rh  Rh8  1  0.731496  0.000000  0.109222  1
  Rh  Rh9  1  0.272458  0.500001  0.351412  1
  Rh  Rh10  1  0.773421  0.000000  0.648402  1
  Rh  Rh11  1  0.231281  0.500001  0.891005  1
