# generated using pymatgen
data_CsYThSe4
_symmetry_space_group_name_H-M   'P 1'
_cell_length_a   4.30178300
_cell_length_b   7.26825920
_cell_length_c   9.05818557
_cell_angle_alpha   74.78686772
_cell_angle_beta   90.00000000
_cell_angle_gamma   90.00000000
_symmetry_Int_Tables_number   1
_chemical_formula_structural   CsYThSe4
_chemical_formula_sum   'Cs1 Y1 Th1 Se4'
_cell_volume   273.29255376
_cell_formula_units_Z   1
loop_
 _symmetry_equiv_pos_site_id
 _symmetry_equiv_pos_as_xyz
  1  'x, y, z'
loop_
 _atom_site_type_symbol
 _atom_site_label
 _atom_site_symmetry_multiplicity
 _atom_site_fract_x
 _atom_site_fract_y
 _atom_site_fract_z
 _atom_site_occupancy
  Cs  Cs0  1  0.000000  0.500000  0.500000  1
  Y  Y1  1  0.500000  0.500000  0.000000  1
  Th  Th2  1  0.000000  0.000000  0.000000  1
  Se  Se3  1  0.500000  0.773557  0.182819  1
  Se  Se4  1  0.000000  0.278084  0.176150  1
  Se  Se5  1  0.500000  0.226443  0.817181  1
  Se  Se6  1  0.000000  0.721916  0.823850  1
