# generated using pymatgen
data_Cs4Si12AsP11
_symmetry_space_group_name_H-M   'P 1'
_cell_length_a   3.59718700
_cell_length_b   9.99043700
_cell_length_c   20.81216107
_cell_angle_alpha   90.04314292
_cell_angle_beta   90.00000000
_cell_angle_gamma   90.00000000
_symmetry_Int_Tables_number   1
_chemical_formula_structural   Cs4Si12AsP11
_chemical_formula_sum   'Cs4 Si12 As1 P11'
_cell_volume   747.93620405
_cell_formula_units_Z   1
loop_
 _symmetry_equiv_pos_site_id
 _symmetry_equiv_pos_as_xyz
  1  'x, y, z'
loop_
 _atom_site_type_symbol
 _atom_site_label
 _atom_site_symmetry_multiplicity
 _atom_site_fract_x
 _atom_site_fract_y
 _atom_site_fract_z
 _atom_site_occupancy
  Cs  Cs0  1  0.000000  0.300406  0.309286  1
  Cs  Cs1  1  0.000000  0.698536  0.690471  1
  Cs  Cs2  1  0.000000  0.198700  0.809479  1
  Cs  Cs3  1  0.000000  0.806853  0.196168  1
  Si  Si4  1  0.500000  0.403750  0.032037  1
  Si  Si5  1  0.500000  0.591537  0.964502  1
  Si  Si6  1  0.500000  0.095322  0.533315  1
  Si  Si7  1  0.500000  0.904384  0.466753  1
  Si  Si8  1  0.000000  0.114766  0.015074  1
  Si  Si9  1  0.000000  0.889679  0.982427  1
  Si  Si10  1  0.000000  0.385902  0.516473  1
  Si  Si11  1  0.000000  0.613292  0.484584  1
  Si  Si12  1  0.000000  0.185267  0.123819  1
  Si  Si13  1  0.000000  0.815743  0.874185  1
  Si  Si14  1  0.000000  0.315446  0.625071  1
  Si  Si15  1  0.000000  0.682570  0.375981  1
  As  As16  1  0.500000  0.781880  0.036624  1
  P  P17  1  0.500000  0.124457  0.181487  1
  P  P18  1  0.500000  0.877613  0.816748  1
  P  P19  1  0.500000  0.377407  0.682351  1
  P  P20  1  0.500000  0.620288  0.318730  1
  P  P21  1  0.500000  0.283137  0.468417  1
  P  P22  1  0.500000  0.717123  0.532041  1
  P  P23  1  0.500000  0.217133  0.967306  1
  P  P24  1  0.000000  0.412419  0.100119  1
  P  P25  1  0.000000  0.587955  0.896551  1
  P  P26  1  0.000000  0.088207  0.601323  1
  P  P27  1  0.000000  0.910229  0.398679  1
