# generated using pymatgen
data_Tb6ZrCo17P12
_symmetry_space_group_name_H-M   'P 1'
_cell_length_a   10.61850200
_cell_length_b   3.72186300
_cell_length_c   12.34205300
_cell_angle_alpha   90.00000000
_cell_angle_beta   90.00000000
_cell_angle_gamma   90.00000000
_symmetry_Int_Tables_number   1
_chemical_formula_structural   Tb6ZrCo17P12
_chemical_formula_sum   'Tb6 Zr1 Co17 P12'
_cell_volume   487.76545962
_cell_formula_units_Z   1
loop_
 _symmetry_equiv_pos_site_id
 _symmetry_equiv_pos_as_xyz
  1  'x, y, z'
loop_
 _atom_site_type_symbol
 _atom_site_label
 _atom_site_symmetry_multiplicity
 _atom_site_fract_x
 _atom_site_fract_y
 _atom_site_fract_z
 _atom_site_occupancy
  Tb  Tb0  1  0.071212  0.750001  0.207359  1
  Tb  Tb1  1  0.428788  0.750001  0.207359  1
  Tb  Tb2  1  0.250000  0.750001  0.478252  1
  Tb  Tb3  1  0.750000  0.250001  0.528619  1
  Tb  Tb4  1  0.566878  0.250001  0.795839  1
  Tb  Tb5  1  0.933122  0.250001  0.795839  1
  Zr  Zr6  1  0.750000  0.750001  0.153850  1
  Co  Co7  1  0.088955  0.250001  0.001567  1
  Co  Co8  1  0.411046  0.250001  0.001567  1
  Co  Co9  1  0.250000  0.750001  0.013400  1
  Co  Co10  1  0.627558  0.250001  0.297676  1
  Co  Co11  1  0.872442  0.250001  0.297676  1
  Co  Co12  1  0.250000  0.250001  0.296355  1
  Co  Co13  1  0.544408  0.750001  0.434305  1
  Co  Co14  1  0.955592  0.750001  0.434305  1
  Co  Co15  1  0.047845  0.250001  0.570348  1
  Co  Co16  1  0.452155  0.250001  0.570348  1
  Co  Co17  1  0.750000  0.750001  0.702979  1
  Co  Co18  1  0.130630  0.750001  0.707934  1
  Co  Co19  1  0.369370  0.750001  0.707934  1
  Co  Co20  1  0.250000  0.250001  0.837641  1
  Co  Co21  1  0.750000  0.250001  0.983093  1
  Co  Co22  1  0.576895  0.750001  0.988267  1
  Co  Co23  1  0.923105  0.750001  0.988267  1
  P  P24  1  0.585058  0.250001  0.099016  1
  P  P25  1  0.914942  0.250001  0.099016  1
  P  P26  1  0.250000  0.250001  0.116088  1
  P  P27  1  0.750000  0.750001  0.360994  1
  P  P28  1  0.060976  0.250001  0.386728  1
  P  P29  1  0.439025  0.250001  0.386728  1
  P  P30  1  0.558358  0.750001  0.617455  1
  P  P31  1  0.941641  0.750001  0.617455  1
  P  P32  1  0.250000  0.250001  0.655934  1
  P  P33  1  0.750000  0.750001  0.881776  1
  P  P34  1  0.102511  0.750001  0.889014  1
  P  P35  1  0.397489  0.750001  0.889014  1
