# generated using pymatgen
data_Tb2NdTi(Co4P3)2
_symmetry_space_group_name_H-M   'P 1'
_cell_length_a   3.71897200
_cell_length_b   10.65564200
_cell_length_c   12.35698000
_cell_angle_alpha   90.00000000
_cell_angle_beta   90.00000000
_cell_angle_gamma   90.00000000
_symmetry_Int_Tables_number   1
_chemical_formula_structural   Tb2NdTi(Co4P3)2
_chemical_formula_sum   'Tb4 Nd2 Ti2 Co16 P12'
_cell_volume   489.68282654
_cell_formula_units_Z   2
loop_
 _symmetry_equiv_pos_site_id
 _symmetry_equiv_pos_as_xyz
  1  'x, y, z'
loop_
 _atom_site_type_symbol
 _atom_site_label
 _atom_site_symmetry_multiplicity
 _atom_site_fract_x
 _atom_site_fract_y
 _atom_site_fract_z
 _atom_site_occupancy
  Tb  Tb0  1  0.500000  0.819872  0.203582  1
  Tb  Tb1  1  0.500000  0.180128  0.203582  1
  Tb  Tb2  1  0.000000  0.680128  0.796418  1
  Tb  Tb3  1  0.000000  0.319872  0.796418  1
  Nd  Nd4  1  0.000000  0.500000  0.525987  1
  Nd  Nd5  1  0.500000  0.000000  0.474013  1
  Ti  Ti6  1  0.500000  0.500000  0.151275  1
  Ti  Ti7  1  0.000000  0.000000  0.848725  1
  Co  Co8  1  0.500000  0.500000  0.706121  1
  Co  Co9  1  0.000000  0.000000  0.293879  1
  Co  Co10  1  0.000000  0.500000  0.987692  1
  Co  Co11  1  0.500000  0.000000  0.012308  1
  Co  Co12  1  0.500000  0.332036  0.994325  1
  Co  Co13  1  0.500000  0.667964  0.994325  1
  Co  Co14  1  0.000000  0.167964  0.005675  1
  Co  Co15  1  0.000000  0.832036  0.005675  1
  Co  Co16  1  0.500000  0.295602  0.430814  1
  Co  Co17  1  0.500000  0.704398  0.430814  1
  Co  Co18  1  0.000000  0.204398  0.569186  1
  Co  Co19  1  0.000000  0.795602  0.569186  1
  Co  Co20  1  0.500000  0.879046  0.708047  1
  Co  Co21  1  0.500000  0.120954  0.708047  1
  Co  Co22  1  0.000000  0.620954  0.291953  1
  Co  Co23  1  0.000000  0.379046  0.291953  1
  P  P24  1  0.500000  0.500000  0.885017  1
  P  P25  1  0.000000  0.000000  0.114983  1
  P  P26  1  0.500000  0.500000  0.349112  1
  P  P27  1  0.000000  0.000000  0.650888  1
  P  P28  1  0.500000  0.307067  0.616823  1
  P  P29  1  0.500000  0.692933  0.616823  1
  P  P30  1  0.000000  0.192933  0.383177  1
  P  P31  1  0.000000  0.807067  0.383177  1
  P  P32  1  0.500000  0.843081  0.893003  1
  P  P33  1  0.500000  0.156919  0.893003  1
  P  P34  1  0.000000  0.656919  0.106997  1
  P  P35  1  0.000000  0.343081  0.106997  1
