# generated using pymatgen
data_Dy5Si2P10Ir18Pd
_symmetry_space_group_name_H-M   'P 1'
_cell_length_a   12.70137900
_cell_length_b   12.81891032
_cell_length_c   3.97372600
_cell_angle_alpha   90.00000000
_cell_angle_beta   90.00000000
_cell_angle_gamma   120.64325886
_symmetry_Int_Tables_number   1
_chemical_formula_structural   Dy5Si2P10Ir18Pd
_chemical_formula_sum   'Dy5 Si2 P10 Ir18 Pd1'
_cell_volume   556.64565872
_cell_formula_units_Z   1
loop_
 _symmetry_equiv_pos_site_id
 _symmetry_equiv_pos_as_xyz
  1  'x, y, z'
loop_
 _atom_site_type_symbol
 _atom_site_label
 _atom_site_symmetry_multiplicity
 _atom_site_fract_x
 _atom_site_fract_y
 _atom_site_fract_z
 _atom_site_occupancy
  Dy  Dy0  1  0.332463  0.666054  0.500000  1
  Dy  Dy1  1  0.669175  0.334458  0.500000  1
  Dy  Dy2  1  0.002461  0.812872  0.000000  1
  Dy  Dy3  1  0.183390  0.182423  0.000000  1
  Dy  Dy4  1  0.815312  0.997097  0.000000  1
  Si  Si5  1  0.517699  0.683004  0.000000  1
  Si  Si6  1  0.320217  0.838056  0.000000  1
  P  P7  1  0.002205  0.640827  0.500000  1
  P  P8  1  0.358275  0.359245  0.500000  1
  P  P9  1  0.638900  0.995423  0.500000  1
  P  P10  1  0.166849  0.483141  0.000000  1
  P  P11  1  0.485609  0.179973  0.000000  1
  P  P12  1  0.690804  0.517516  0.000000  1
  P  P13  1  0.825888  0.308752  0.000000  1
  P  P14  1  0.996342  0.176479  0.500000  1
  P  P15  1  0.824249  0.819332  0.500000  1
  P  P16  1  0.180546  0.002558  0.500000  1
  Ir  Ir17  1  0.518991  0.871511  0.000000  1
  Ir  Ir18  1  0.135845  0.644550  0.000000  1
  Ir  Ir19  1  0.351016  0.486607  0.000000  1
  Ir  Ir20  1  0.491215  0.367919  0.000000  1
  Ir  Ir21  1  0.866101  0.504439  0.000000  1
  Ir  Ir22  1  0.633683  0.130738  0.000000  1
  Ir  Ir23  1  0.529919  0.550254  0.500000  1
  Ir  Ir24  1  0.452283  0.986260  0.500000  1
  Ir  Ir25  1  0.996771  0.280077  0.000000  1
  Ir  Ir26  1  0.720264  0.715822  0.000000  1
  Ir  Ir27  1  0.287062  0.006540  0.000000  1
  Ir  Ir28  1  0.630798  0.806776  0.500000  1
  Ir  Ir29  1  0.192812  0.824192  0.500000  1
  Ir  Ir30  1  0.178200  0.369606  0.500000  1
  Ir  Ir31  1  0.381351  0.185007  0.500000  1
  Ir  Ir32  1  0.805693  0.623389  0.500000  1
  Ir  Ir33  1  0.813698  0.189577  0.500000  1
  Ir  Ir34  1  0.001035  0.001292  0.500000  1
  Pd  Pd35  1  0.002877  0.458236  0.500000  1
