# generated using pymatgen
data_EuNi9As5
_symmetry_space_group_name_H-M   'P 1'
_cell_length_a   6.73751800
_cell_length_b   6.73751822
_cell_length_c   11.13662100
_cell_angle_alpha   90.00000000
_cell_angle_beta   90.00000000
_cell_angle_gamma   119.99999892
_symmetry_Int_Tables_number   1
_chemical_formula_structural   EuNi9As5
_chemical_formula_sum   'Eu2 Ni18 As10'
_cell_volume   437.80827667
_cell_formula_units_Z   2
loop_
 _symmetry_equiv_pos_site_id
 _symmetry_equiv_pos_as_xyz
  1  'x, y, z'
loop_
 _atom_site_type_symbol
 _atom_site_label
 _atom_site_symmetry_multiplicity
 _atom_site_fract_x
 _atom_site_fract_y
 _atom_site_fract_z
 _atom_site_occupancy
  Eu  Eu0  1  0.000000  0.000000  0.000000  1
  Eu  Eu1  1  0.000000  0.000000  0.500000  1
  Ni  Ni2  1  0.535799  0.464201  0.106384  1
  Ni  Ni3  1  0.071598  0.535799  0.606384  1
  Ni  Ni4  1  0.464201  0.928402  0.606384  1
  Ni  Ni5  1  0.535799  0.071598  0.106384  1
  Ni  Ni6  1  0.928402  0.464201  0.106384  1
  Ni  Ni7  1  0.071598  0.535799  0.893616  1
  Ni  Ni8  1  0.464201  0.928402  0.893616  1
  Ni  Ni9  1  0.464201  0.535799  0.606384  1
  Ni  Ni10  1  0.464201  0.535799  0.893616  1
  Ni  Ni11  1  0.535799  0.464201  0.393616  1
  Ni  Ni12  1  0.928402  0.464201  0.393616  1
  Ni  Ni13  1  0.535799  0.071598  0.393616  1
  Ni  Ni14  1  0.208705  0.791295  0.250000  1
  Ni  Ni15  1  0.417409  0.208705  0.750000  1
  Ni  Ni16  1  0.791295  0.582591  0.750000  1
  Ni  Ni17  1  0.208705  0.417409  0.250000  1
  Ni  Ni18  1  0.582591  0.791295  0.250000  1
  Ni  Ni19  1  0.791295  0.208705  0.750000  1
  As  As20  1  0.829688  0.170312  0.250000  1
  As  As21  1  0.659375  0.829688  0.750000  1
  As  As22  1  0.170312  0.340625  0.750000  1
  As  As23  1  0.829688  0.659375  0.250000  1
  As  As24  1  0.340625  0.170312  0.250000  1
  As  As25  1  0.170312  0.829688  0.750000  1
  As  As26  1  0.333333  0.666667  0.061115  1
  As  As27  1  0.666667  0.333333  0.561115  1
  As  As28  1  0.666667  0.333333  0.938885  1
  As  As29  1  0.333333  0.666667  0.438885  1
