# generated using pymatgen
data_TaNb2P
_symmetry_space_group_name_H-M   'P 1'
_cell_length_a   10.21334300
_cell_length_b   10.21334300
_cell_length_c   5.10461500
_cell_angle_alpha   90.00000000
_cell_angle_beta   90.00000000
_cell_angle_gamma   90.00000000
_symmetry_Int_Tables_number   1
_chemical_formula_structural   TaNb2P
_chemical_formula_sum   'Ta8 Nb16 P8'
_cell_volume   532.47451531
_cell_formula_units_Z   8
loop_
 _symmetry_equiv_pos_site_id
 _symmetry_equiv_pos_as_xyz
  1  'x, y, z'
loop_
 _atom_site_type_symbol
 _atom_site_label
 _atom_site_symmetry_multiplicity
 _atom_site_fract_x
 _atom_site_fract_y
 _atom_site_fract_z
 _atom_site_occupancy
  Ta  Ta0  1  0.402424  0.913273  0.476919  1
  Ta  Ta1  1  0.413273  0.097576  0.976919  1
  Ta  Ta2  1  0.586727  0.902424  0.976919  1
  Ta  Ta3  1  0.597576  0.086727  0.476919  1
  Ta  Ta4  1  0.097576  0.586727  0.023081  1
  Ta  Ta5  1  0.086727  0.402424  0.523081  1
  Ta  Ta6  1  0.913273  0.597576  0.523081  1
  Ta  Ta7  1  0.902424  0.413273  0.023081  1
  Nb  Nb8  1  0.012001  0.854501  0.265301  1
  Nb  Nb9  1  0.354501  0.487999  0.765301  1
  Nb  Nb10  1  0.645499  0.512001  0.765301  1
  Nb  Nb11  1  0.987999  0.145499  0.265301  1
  Nb  Nb12  1  0.487999  0.645499  0.234699  1
  Nb  Nb13  1  0.145499  0.012001  0.734699  1
  Nb  Nb14  1  0.854501  0.987999  0.734699  1
  Nb  Nb15  1  0.512001  0.354501  0.234699  1
  Nb  Nb16  1  0.288178  0.809756  0.989747  1
  Nb  Nb17  1  0.309756  0.211822  0.489747  1
  Nb  Nb18  1  0.690244  0.788178  0.489747  1
  Nb  Nb19  1  0.711822  0.190244  0.989747  1
  Nb  Nb20  1  0.211822  0.690244  0.510253  1
  Nb  Nb21  1  0.190244  0.288178  0.010253  1
  Nb  Nb22  1  0.809756  0.711822  0.010253  1
  Nb  Nb23  1  0.788178  0.309756  0.510253  1
  P  P24  1  0.023540  0.792525  0.769176  1
  P  P25  1  0.292525  0.476460  0.269176  1
  P  P26  1  0.707475  0.523540  0.269176  1
  P  P27  1  0.976460  0.207475  0.769176  1
  P  P28  1  0.476460  0.707475  0.730824  1
  P  P29  1  0.207475  0.023540  0.230824  1
  P  P30  1  0.792525  0.976460  0.230824  1
  P  P31  1  0.523540  0.292525  0.730824  1
