# generated using pymatgen
data_LaSmTeI2
_symmetry_space_group_name_H-M   'P 1'
_cell_length_a   11.33542598
_cell_length_b   11.33542515
_cell_length_c   11.33542562
_cell_angle_alpha   23.08280222
_cell_angle_beta   23.08280115
_cell_angle_gamma   23.08279982
_symmetry_Int_Tables_number   1
_chemical_formula_structural   LaSmTeI2
_chemical_formula_sum   'La1 Sm1 Te1 I2'
_cell_volume   196.50931707
_cell_formula_units_Z   1
loop_
 _symmetry_equiv_pos_site_id
 _symmetry_equiv_pos_as_xyz
  1  'x, y, z'
loop_
 _atom_site_type_symbol
 _atom_site_label
 _atom_site_symmetry_multiplicity
 _atom_site_fract_x
 _atom_site_fract_y
 _atom_site_fract_z
 _atom_site_occupancy
  La  La0  1  0.883982  0.883982  0.883982  1
  Sm  Sm1  1  0.115421  0.115421  0.115421  1
  Te  Te2  1  0.496878  0.496878  0.496878  1
  I  I3  1  0.279524  0.279524  0.279524  1
  I  I4  1  0.724196  0.724196  0.724196  1
