# generated using pymatgen
data_Rb2In(S2O7)3
_symmetry_space_group_name_H-M   'P 1'
_cell_length_a   9.92077400
_cell_length_b   9.92077410
_cell_length_c   11.42496800
_cell_angle_alpha   90.00000000
_cell_angle_beta   90.00000000
_cell_angle_gamma   119.99999300
_symmetry_Int_Tables_number   1
_chemical_formula_structural   Rb2In(S2O7)3
_chemical_formula_sum   'Rb4 In2 S12 O42'
_cell_volume   973.81569897
_cell_formula_units_Z   2
loop_
 _symmetry_equiv_pos_site_id
 _symmetry_equiv_pos_as_xyz
  1  'x, y, z'
loop_
 _atom_site_type_symbol
 _atom_site_label
 _atom_site_symmetry_multiplicity
 _atom_site_fract_x
 _atom_site_fract_y
 _atom_site_fract_z
 _atom_site_occupancy
  Rb  Rb0  1  0.666667  0.333333  0.561266  1
  Rb  Rb1  1  0.333333  0.666667  0.438734  1
  Rb  Rb2  1  0.333333  0.666667  0.874219  1
  Rb  Rb3  1  0.666667  0.333333  0.125781  1
  In  In4  1  0.000000  0.000000  0.762275  1
  In  In5  1  0.000000  0.000000  0.237725  1
  S  S6  1  0.077820  0.346584  0.658302  1
  S  S7  1  0.268764  0.922180  0.658302  1
  S  S8  1  0.653416  0.731236  0.658302  1
  S  S9  1  0.922180  0.653416  0.341698  1
  S  S10  1  0.731236  0.077820  0.341698  1
  S  S11  1  0.346584  0.268764  0.341698  1
  S  S12  1  0.789278  0.636761  0.847100  1
  S  S13  1  0.847483  0.210722  0.847100  1
  S  S14  1  0.363239  0.152517  0.847100  1
  S  S15  1  0.210722  0.363239  0.152900  1
  S  S16  1  0.152517  0.789278  0.152900  1
  S  S17  1  0.636761  0.847483  0.152900  1
  O  O18  1  0.651320  0.672228  0.794330  1
  O  O19  1  0.020906  0.348680  0.794330  1
  O  O20  1  0.327772  0.979094  0.794330  1
  O  O21  1  0.348680  0.327772  0.205670  1
  O  O22  1  0.979094  0.651320  0.205670  1
  O  O23  1  0.672228  0.020906  0.205670  1
  O  O24  1  0.924441  0.796557  0.868645  1
  O  O25  1  0.872117  0.075559  0.868645  1
  O  O26  1  0.203443  0.127883  0.868645  1
  O  O27  1  0.075559  0.203443  0.131355  1
  O  O28  1  0.127883  0.924441  0.131355  1
  O  O29  1  0.796557  0.872117  0.131355  1
  O  O30  1  0.054508  0.187590  0.641167  1
  O  O31  1  0.133081  0.945492  0.641167  1
  O  O32  1  0.812410  0.866919  0.641167  1
  O  O33  1  0.945492  0.812410  0.358833  1
  O  O34  1  0.866919  0.054508  0.358833  1
  O  O35  1  0.187590  0.133081  0.358833  1
  O  O36  1  0.821415  0.553979  0.758094  1
  O  O37  1  0.732564  0.178585  0.758094  1
  O  O38  1  0.446021  0.267436  0.758094  1
  O  O39  1  0.178585  0.446021  0.241906  1
  O  O40  1  0.267436  0.821415  0.241906  1
  O  O41  1  0.553979  0.732564  0.241906  1
  O  O42  1  0.720224  0.559995  0.955378  1
  O  O43  1  0.839772  0.279776  0.955378  1
  O  O44  1  0.440005  0.160228  0.955378  1
  O  O45  1  0.279776  0.440005  0.044622  1
  O  O46  1  0.160228  0.720224  0.044622  1
  O  O47  1  0.559995  0.839772  0.044622  1
  O  O48  1  0.240337  0.464323  0.664155  1
  O  O49  1  0.223985  0.759663  0.664155  1
  O  O50  1  0.535677  0.776015  0.664155  1
  O  O51  1  0.759663  0.535677  0.335845  1
  O  O52  1  0.776015  0.240337  0.335845  1
  O  O53  1  0.464323  0.223985  0.335845  1
  O  O54  1  0.981938  0.375274  0.579110  1
  O  O55  1  0.393336  0.018062  0.579110  1
  O  O56  1  0.624726  0.606664  0.579110  1
  O  O57  1  0.018062  0.624726  0.420890  1
  O  O58  1  0.606664  0.981938  0.420890  1
  O  O59  1  0.375274  0.393336  0.420890  1
