# generated using pymatgen
data_HfFe4P3Rh
_symmetry_space_group_name_H-M   'P 1'
_cell_length_a   3.66172100
_cell_length_b   10.16823400
_cell_length_c   11.74542900
_cell_angle_alpha   90.00000000
_cell_angle_beta   90.00000000
_cell_angle_gamma   90.00000000
_symmetry_Int_Tables_number   1
_chemical_formula_structural   HfFe4P3Rh
_chemical_formula_sum   'Hf4 Fe16 P12 Rh4'
_cell_volume   437.32032953
_cell_formula_units_Z   4
loop_
 _symmetry_equiv_pos_site_id
 _symmetry_equiv_pos_as_xyz
  1  'x, y, z'
loop_
 _atom_site_type_symbol
 _atom_site_label
 _atom_site_symmetry_multiplicity
 _atom_site_fract_x
 _atom_site_fract_y
 _atom_site_fract_z
 _atom_site_occupancy
  Hf  Hf0  1  0.250000  0.578888  0.704196  1
  Hf  Hf1  1  0.250000  0.921112  0.204196  1
  Hf  Hf2  1  0.750000  0.421112  0.295804  1
  Hf  Hf3  1  0.750000  0.078888  0.795804  1
  Fe  Fe4  1  0.250000  0.407232  0.483795  1
  Fe  Fe5  1  0.250000  0.092768  0.983795  1
  Fe  Fe6  1  0.750000  0.592768  0.516205  1
  Fe  Fe7  1  0.750000  0.907232  0.016205  1
  Fe  Fe8  1  0.250000  0.226957  0.171744  1
  Fe  Fe9  1  0.250000  0.273043  0.671744  1
  Fe  Fe10  1  0.750000  0.773043  0.828256  1
  Fe  Fe11  1  0.750000  0.726957  0.328256  1
  Fe  Fe12  1  0.250000  0.880296  0.705222  1
  Fe  Fe13  1  0.250000  0.619704  0.205222  1
  Fe  Fe14  1  0.750000  0.119704  0.294778  1
  Fe  Fe15  1  0.750000  0.380296  0.794778  1
  Fe  Fe16  1  0.250000  0.461001  0.931868  1
  Fe  Fe17  1  0.250000  0.038999  0.431868  1
  Fe  Fe18  1  0.750000  0.538999  0.068132  1
  Fe  Fe19  1  0.750000  0.961001  0.568132  1
  P  P20  1  0.250000  0.428660  0.118122  1
  P  P21  1  0.250000  0.071340  0.618122  1
  P  P22  1  0.750000  0.571340  0.881878  1
  P  P23  1  0.750000  0.928660  0.381878  1
  P  P24  1  0.250000  0.263940  0.858313  1
  P  P25  1  0.250000  0.236060  0.358313  1
  P  P26  1  0.750000  0.736060  0.141687  1
  P  P27  1  0.750000  0.763940  0.641687  1
  P  P28  1  0.250000  0.593995  0.389430  1
  P  P29  1  0.250000  0.906005  0.889430  1
  P  P30  1  0.750000  0.406005  0.610570  1
  P  P31  1  0.750000  0.093995  0.110570  1
  Rh  Rh32  1  0.250000  0.713003  0.992160  1
  Rh  Rh33  1  0.250000  0.786997  0.492160  1
  Rh  Rh34  1  0.750000  0.286997  0.007840  1
  Rh  Rh35  1  0.750000  0.213003  0.507840  1
