# generated using pymatgen
data_Dy4Ho4Sc11Si16Au
_symmetry_space_group_name_H-M   'P 1'
_cell_length_a   7.01073408
_cell_length_b   7.38873451
_cell_length_c   14.01689318
_cell_angle_alpha   90.00465237
_cell_angle_beta   90.01780279
_cell_angle_gamma   89.84062503
_symmetry_Int_Tables_number   1
_chemical_formula_structural   Dy4Ho4Sc11Si16Au
_chemical_formula_sum   'Dy4 Ho4 Sc11 Si16 Au1'
_cell_volume   726.07856781
_cell_formula_units_Z   1
loop_
 _symmetry_equiv_pos_site_id
 _symmetry_equiv_pos_as_xyz
  1  'x, y, z'
loop_
 _atom_site_type_symbol
 _atom_site_label
 _atom_site_symmetry_multiplicity
 _atom_site_fract_x
 _atom_site_fract_y
 _atom_site_fract_z
 _atom_site_occupancy
  Dy  Dy0  1  0.010778  0.175257  0.096210  1
  Dy  Dy1  1  0.991235  0.814714  0.901077  1
  Dy  Dy2  1  0.485163  0.673015  0.901430  1
  Dy  Dy3  1  0.991220  0.814636  0.598782  1
  Ho  Ho4  1  0.510261  0.323325  0.096317  1
  Ho  Ho5  1  0.011052  0.175522  0.403694  1
  Ho  Ho6  1  0.510248  0.323291  0.403835  1
  Ho  Ho7  1  0.485091  0.673216  0.598673  1
  Sc  Sc8  1  0.838509  0.497317  0.250072  1
  Sc  Sc9  1  0.340074  0.003427  0.250064  1
  Sc  Sc10  1  0.656952  0.997721  0.749953  1
  Sc  Sc11  1  0.324945  0.183051  0.626918  1
  Sc  Sc12  1  0.671072  0.823584  0.375104  1
  Sc  Sc13  1  0.170770  0.678362  0.374077  1
  Sc  Sc14  1  0.671072  0.823597  0.125013  1
  Sc  Sc15  1  0.836249  0.327756  0.626870  1
  Sc  Sc16  1  0.324942  0.182997  0.873025  1
  Sc  Sc17  1  0.836395  0.327824  0.872978  1
  Sc  Sc18  1  0.170780  0.678295  0.125996  1
  Si  Si19  1  0.027139  0.096719  0.749936  1
  Si  Si20  1  0.968910  0.888089  0.250124  1
  Si  Si21  1  0.467435  0.616471  0.250053  1
  Si  Si22  1  0.535678  0.385293  0.749886  1
  Si  Si23  1  0.288974  0.882553  0.749856  1
  Si  Si24  1  0.713459  0.128502  0.250223  1
  Si  Si25  1  0.213173  0.371797  0.250154  1
  Si  Si26  1  0.778130  0.628919  0.749796  1
  Si  Si27  1  0.162207  0.459425  0.530924  1
  Si  Si28  1  0.842342  0.534956  0.462108  1
  Si  Si29  1  0.344294  0.965435  0.462950  1
  Si  Si30  1  0.842169  0.535281  0.037803  1
  Si  Si31  1  0.657682  0.033737  0.540294  1
  Si  Si32  1  0.161857  0.459499  0.969140  1
  Si  Si33  1  0.657861  0.034062  0.959758  1
  Si  Si34  1  0.344610  0.965529  0.037073  1
  Au  Au35  1  0.157277  0.516826  0.749834  1
