# generated using pymatgen
data_BaPb2O5
_symmetry_space_group_name_H-M   'P 1'
_cell_length_a   4.38144400
_cell_length_b   10.61755500
_cell_length_c   11.91456800
_cell_angle_alpha   90.00000000
_cell_angle_beta   90.00000000
_cell_angle_gamma   90.00000000
_symmetry_Int_Tables_number   1
_chemical_formula_structural   BaPb2O5
_chemical_formula_sum   'Ba4 Pb8 O20'
_cell_volume   554.26835613
_cell_formula_units_Z   4
loop_
 _symmetry_equiv_pos_site_id
 _symmetry_equiv_pos_as_xyz
  1  'x, y, z'
loop_
 _atom_site_type_symbol
 _atom_site_label
 _atom_site_symmetry_multiplicity
 _atom_site_fract_x
 _atom_site_fract_y
 _atom_site_fract_z
 _atom_site_occupancy
  Ba  Ba0  1  0.500001  0.959949  0.146159  1
  Ba  Ba1  1  0.500001  0.459948  0.353841  1
  Ba  Ba2  1  0.000000  0.540051  0.646158  1
  Ba  Ba3  1  0.000000  0.040052  0.853841  1
  Pb  Pb4  1  0.000000  0.606686  0.070062  1
  Pb  Pb5  1  0.000000  0.282394  0.139276  1
  Pb  Pb6  1  0.000000  0.782395  0.360723  1
  Pb  Pb7  1  0.000000  0.106685  0.429937  1
  Pb  Pb8  1  0.500001  0.893314  0.570064  1
  Pb  Pb9  1  0.500001  0.217606  0.639277  1
  Pb  Pb10  1  0.500001  0.717606  0.860724  1
  Pb  Pb11  1  0.500001  0.393315  0.929937  1
  O  O12  1  0.500001  0.592954  0.026928  1
  O  O13  1  0.000000  0.103147  0.069452  1
  O  O14  1  0.500001  0.307567  0.099856  1
  O  O15  1  0.000000  0.770236  0.173550  1
  O  O16  1  0.000000  0.476260  0.205603  1
  O  O17  1  0.000000  0.976260  0.294397  1
  O  O18  1  0.000000  0.270234  0.326451  1
  O  O19  1  0.500001  0.807567  0.400144  1
  O  O20  1  0.000000  0.603147  0.430548  1
  O  O21  1  0.500001  0.092954  0.473071  1
  O  O22  1  0.000000  0.907046  0.526928  1
  O  O23  1  0.500001  0.396854  0.569451  1
  O  O24  1  0.000000  0.192433  0.599856  1
  O  O25  1  0.500001  0.729764  0.673549  1
  O  O26  1  0.500001  0.023739  0.705603  1
  O  O27  1  0.500001  0.523740  0.794397  1
  O  O28  1  0.500001  0.229764  0.826450  1
  O  O29  1  0.000000  0.692432  0.900145  1
  O  O30  1  0.500001  0.896853  0.930548  1
  O  O31  1  0.000000  0.407046  0.973071  1
