# generated using pymatgen
data_Dy4Er6(SnSb)3
_symmetry_space_group_name_H-M   'P 1'
_cell_length_a   6.36550800
_cell_length_b   8.94397868
_cell_length_c   8.93375300
_cell_angle_alpha   119.95970370
_cell_angle_beta   89.99972747
_cell_angle_gamma   89.99891342
_symmetry_Int_Tables_number   1
_chemical_formula_structural   Dy4Er6(SnSb)3
_chemical_formula_sum   'Dy4 Er6 Sn3 Sb3'
_cell_volume   440.66098337
_cell_formula_units_Z   1
loop_
 _symmetry_equiv_pos_site_id
 _symmetry_equiv_pos_as_xyz
  1  'x, y, z'
loop_
 _atom_site_type_symbol
 _atom_site_label
 _atom_site_symmetry_multiplicity
 _atom_site_fract_x
 _atom_site_fract_y
 _atom_site_fract_z
 _atom_site_occupancy
  Dy  Dy0  1  0.749999  0.000013  0.241190  1
  Dy  Dy1  1  0.249997  0.757814  0.999858  1
  Dy  Dy2  1  0.249988  0.242205  0.242059  1
  Dy  Dy3  1  0.249999  0.999987  0.758085  1
  Er  Er4  1  0.500914  0.333308  0.666713  1
  Er  Er5  1  0.500910  0.666686  0.333390  1
  Er  Er6  1  0.999079  0.666690  0.333398  1
  Er  Er7  1  0.999078  0.333305  0.666714  1
  Er  Er8  1  0.750010  0.241455  0.999972  1
  Er  Er9  1  0.750010  0.758546  0.758516  1
  Sn  Sn10  1  0.750009  0.606446  0.999567  1
  Sn  Sn11  1  0.750002  0.393572  0.393141  1
  Sn  Sn12  1  0.750009  0.999993  0.607400  1
  Sb  Sb13  1  0.249989  0.391979  0.999971  1
  Sb  Sb14  1  0.250008  0.608008  0.607986  1
  Sb  Sb15  1  0.250002  0.999996  0.392039  1
