# generated using pymatgen
data_Ho6ErTm3Pt8
_symmetry_space_group_name_H-M   'P 1'
_cell_length_a   7.42851500
_cell_length_b   7.51630031
_cell_length_c   14.59670800
_cell_angle_alpha   90.06137936
_cell_angle_beta   90.00000000
_cell_angle_gamma   90.00000000
_symmetry_Int_Tables_number   1
_chemical_formula_structural   Ho6ErTm3Pt8
_chemical_formula_sum   'Ho12 Er2 Tm6 Pt16'
_cell_volume   815.00598813
_cell_formula_units_Z   2
loop_
 _symmetry_equiv_pos_site_id
 _symmetry_equiv_pos_as_xyz
  1  'x, y, z'
loop_
 _atom_site_type_symbol
 _atom_site_label
 _atom_site_symmetry_multiplicity
 _atom_site_fract_x
 _atom_site_fract_y
 _atom_site_fract_z
 _atom_site_occupancy
  Ho  Ho0  1  0.344333  0.832001  0.377719  1
  Ho  Ho1  1  0.844333  0.667999  0.122281  1
  Ho  Ho2  1  0.655740  0.167995  0.877601  1
  Ho  Ho3  1  0.155740  0.332005  0.622399  1
  Ho  Ho4  1  0.501707  0.679433  0.593671  1
  Ho  Ho5  1  0.001707  0.820567  0.906329  1
  Ho  Ho6  1  0.498654  0.320750  0.093352  1
  Ho  Ho7  1  0.998654  0.179250  0.406648  1
  Ho  Ho8  1  0.499003  0.320914  0.407523  1
  Ho  Ho9  1  0.999003  0.179086  0.092477  1
  Ho  Ho10  1  0.500511  0.677838  0.906236  1
  Ho  Ho11  1  0.000511  0.822162  0.593764  1
  Er  Er12  1  0.343801  0.831405  0.122370  1
  Er  Er13  1  0.843801  0.668595  0.377630  1
  Tm  Tm14  1  0.655757  0.167959  0.623464  1
  Tm  Tm15  1  0.155757  0.332041  0.876536  1
  Tm  Tm16  1  0.818768  0.510495  0.749935  1
  Tm  Tm17  1  0.318768  0.989505  0.750065  1
  Tm  Tm18  1  0.181410  0.488665  0.250152  1
  Tm  Tm19  1  0.681410  0.011335  0.249848  1
  Pt  Pt20  1  0.685307  0.968471  0.458913  1
  Pt  Pt21  1  0.185307  0.531529  0.041087  1
  Pt  Pt22  1  0.313966  0.033210  0.958188  1
  Pt  Pt23  1  0.813966  0.466790  0.541812  1
  Pt  Pt24  1  0.318036  0.031512  0.543071  1
  Pt  Pt25  1  0.818036  0.468488  0.956929  1
  Pt  Pt26  1  0.682399  0.968087  0.042465  1
  Pt  Pt27  1  0.182399  0.531913  0.457535  1
  Pt  Pt28  1  0.453053  0.388181  0.750130  1
  Pt  Pt29  1  0.953053  0.111819  0.749870  1
  Pt  Pt30  1  0.546769  0.610601  0.249995  1
  Pt  Pt31  1  0.046769  0.889399  0.250005  1
  Pt  Pt32  1  0.680878  0.855312  0.749643  1
  Pt  Pt33  1  0.180878  0.644688  0.750357  1
  Pt  Pt34  1  0.319909  0.144733  0.249921  1
  Pt  Pt35  1  0.819909  0.355267  0.250079  1
