# generated using pymatgen
data_Nd2Ga3SiRh6
_symmetry_space_group_name_H-M   'P 1'
_cell_length_a   6.79322144
_cell_length_b   6.80942815
_cell_length_c   6.79322050
_cell_angle_alpha   130.60493187
_cell_angle_beta   113.17228027
_cell_angle_gamma   87.37606338
_symmetry_Int_Tables_number   1
_chemical_formula_structural   Nd2Ga3SiRh6
_chemical_formula_sum   'Nd2 Ga3 Si1 Rh6'
_cell_volume   209.13429419
_cell_formula_units_Z   1
loop_
 _symmetry_equiv_pos_site_id
 _symmetry_equiv_pos_as_xyz
  1  'x, y, z'
loop_
 _atom_site_type_symbol
 _atom_site_label
 _atom_site_symmetry_multiplicity
 _atom_site_fract_x
 _atom_site_fract_y
 _atom_site_fract_z
 _atom_site_occupancy
  Nd  Nd0  1  0.751672  0.031472  0.279800  1
  Nd  Nd1  1  0.248051  0.956807  0.708756  1
  Ga  Ga2  1  0.567521  0.355865  0.788344  1
  Ga  Ga3  1  0.411653  0.627062  0.215408  1
  Ga  Ga4  1  0.100511  0.314336  0.213826  1
  Si  Si5  1  0.921611  0.706163  0.784552  1
  Rh  Rh6  1  0.216659  0.501560  0.720651  1
  Rh  Rh7  1  0.740607  0.997310  0.739341  1
  Rh  Rh8  1  0.780909  0.501560  0.284901  1
  Rh  Rh9  1  0.257969  0.997310  0.256703  1
  Rh  Rh10  1  0.523180  0.505277  0.525620  1
  Rh  Rh11  1  0.979657  0.505277  0.982097  1
