# generated using pymatgen
data_CePuF8
_symmetry_space_group_name_H-M   'P 1'
_cell_length_a   8.35865935
_cell_length_b   8.34239558
_cell_length_c   8.34519090
_cell_angle_alpha   63.39365418
_cell_angle_beta   63.34515905
_cell_angle_gamma   80.36401183
_symmetry_Int_Tables_number   1
_chemical_formula_structural   CePuF8
_chemical_formula_sum   'Ce3 Pu3 F24'
_cell_volume   464.59383872
_cell_formula_units_Z   3
loop_
 _symmetry_equiv_pos_site_id
 _symmetry_equiv_pos_as_xyz
  1  'x, y, z'
loop_
 _atom_site_type_symbol
 _atom_site_label
 _atom_site_symmetry_multiplicity
 _atom_site_fract_x
 _atom_site_fract_y
 _atom_site_fract_z
 _atom_site_occupancy
  Ce  Ce0  1  0.224683  0.365141  0.829687  1
  Ce  Ce1  1  0.211905  0.784008  0.251435  1
  Ce  Ce2  1  0.789042  0.211532  0.748787  1
  Pu  Pu3  1  0.367962  0.221526  0.328459  1
  Pu  Pu4  1  0.776057  0.630137  0.167678  1
  Pu  Pu5  1  0.631381  0.776142  0.667015  1
  F  F6  1  0.597631  0.401330  0.250213  1
  F  F7  1  0.402452  0.603060  0.746515  1
  F  F8  1  0.496977  0.741054  0.218907  1
  F  F9  1  0.260541  0.502394  0.282496  1
  F  F10  1  0.504544  0.258190  0.783623  1
  F  F11  1  0.739628  0.496952  0.718285  1
  F  F12  1  0.273015  0.973749  0.353308  1
  F  F13  1  0.025379  0.726865  0.148251  1
  F  F14  1  0.729923  0.026007  0.647008  1
  F  F15  1  0.970351  0.273183  0.851343  1
  F  F16  1  0.501488  0.004977  0.502424  1
  F  F17  1  0.996783  0.496813  0.004115  1
  F  F18  1  0.176334  0.062578  0.045311  1
  F  F19  1  0.934711  0.819594  0.461373  1
  F  F20  1  0.820580  0.933875  0.960563  1
  F  F21  1  0.067351  0.180288  0.538628  1
  F  F22  1  0.594477  0.186236  0.078358  1
  F  F23  1  0.813071  0.408059  0.422833  1
  F  F24  1  0.408746  0.814002  0.922800  1
  F  F25  1  0.186554  0.595788  0.575567  1
  F  F26  1  0.257745  0.319713  0.106005  1
  F  F27  1  0.683368  0.744360  0.392142  1
  F  F28  1  0.741059  0.683168  0.894026  1
  F  F29  1  0.316263  0.259278  0.602844  1
