# generated using pymatgen
data_CsNb2I11
_symmetry_space_group_name_H-M   'P 1'
_cell_length_a   8.27072578
_cell_length_b   8.34298231
_cell_length_c   20.71875374
_cell_angle_alpha   78.78562959
_cell_angle_beta   78.64230570
_cell_angle_gamma   88.29530485
_symmetry_Int_Tables_number   1
_chemical_formula_structural   CsNb2I11
_chemical_formula_sum   'Cs2 Nb4 I22'
_cell_volume   1374.83234920
_cell_formula_units_Z   2
loop_
 _symmetry_equiv_pos_site_id
 _symmetry_equiv_pos_as_xyz
  1  'x, y, z'
loop_
 _atom_site_type_symbol
 _atom_site_label
 _atom_site_symmetry_multiplicity
 _atom_site_fract_x
 _atom_site_fract_y
 _atom_site_fract_z
 _atom_site_occupancy
  Cs  Cs0  1  0.747398  0.747784  0.503828  1
  Cs  Cs1  1  0.252602  0.252216  0.496172  1
  Nb  Nb2  1  0.325260  0.823190  0.338553  1
  Nb  Nb3  1  0.674740  0.176810  0.661447  1
  Nb  Nb4  1  0.831590  0.330369  0.086836  1
  Nb  Nb5  1  0.168410  0.669631  0.913164  1
  I  I6  1  0.252404  0.770513  0.487810  1
  I  I7  1  0.747596  0.229487  0.512190  1
  I  I8  1  0.576510  0.028392  0.344538  1
  I  I9  1  0.423490  0.971608  0.655462  1
  I  I10  1  0.539560  0.559836  0.352527  1
  I  I11  1  0.460440  0.440164  0.647473  1
  I  I12  1  0.388136  0.863081  0.204884  1
  I  I13  1  0.611864  0.136919  0.795116  1
  I  I14  1  0.065301  0.604339  0.354402  1
  I  I15  1  0.934699  0.395661  0.645598  1
  I  I16  1  0.106028  0.079253  0.340337  1
  I  I17  1  0.893972  0.920747  0.659663  1
  I  I18  1  0.901575  0.031453  0.147306  1
  I  I19  1  0.098425  0.968547  0.852694  1
  I  I20  1  0.527100  0.382064  0.150066  1
  I  I21  1  0.472900  0.617936  0.849934  1
  I  I22  1  0.721486  0.217371  0.987404  1
  I  I23  1  0.278514  0.782629  0.012596  1
  I  I24  1  0.973911  0.478972  0.168781  1
  I  I25  1  0.026089  0.521028  0.831219  1
  I  I26  1  0.165170  0.342106  0.999647  1
  I  I27  1  0.834830  0.657894  0.000353  1
