# generated using pymatgen
data_Tb2Ce(InPt)3
_symmetry_space_group_name_H-M   'P 1'
_cell_length_a   7.68678300
_cell_length_b   7.68646858
_cell_length_c   3.96107200
_cell_angle_alpha   90.00000000
_cell_angle_beta   90.00000000
_cell_angle_gamma   120.00135746
_symmetry_Int_Tables_number   1
_chemical_formula_structural   Tb2Ce(InPt)3
_chemical_formula_sum   'Tb2 Ce1 In3 Pt3'
_cell_volume   202.67907094
_cell_formula_units_Z   1
loop_
 _symmetry_equiv_pos_site_id
 _symmetry_equiv_pos_as_xyz
  1  'x, y, z'
loop_
 _atom_site_type_symbol
 _atom_site_label
 _atom_site_symmetry_multiplicity
 _atom_site_fract_x
 _atom_site_fract_y
 _atom_site_fract_z
 _atom_site_occupancy
  Tb  Tb0  1  0.998562  0.405100  0.000000  1
  Tb  Tb1  1  0.593462  0.594900  0.000000  1
  Ce  Ce2  1  0.408789  0.000000  0.000000  1
  In  In3  1  0.257497  0.262317  0.500000  1
  In  In4  1  0.995180  0.737683  0.500000  1
  In  In5  1  0.746535  0.000000  0.500000  1
  Pt  Pt6  1  0.001981  0.000000  0.000000  1
  Pt  Pt7  1  0.662845  0.327696  0.500000  1
  Pt  Pt8  1  0.335149  0.672304  0.500000  1
