# generated using pymatgen
data_Nd4ZnPt3
_symmetry_space_group_name_H-M   'P 1'
_cell_length_a   4.60548000
_cell_length_b   5.80092650
_cell_length_c   7.45450859
_cell_angle_alpha   90.28009888
_cell_angle_beta   90.00000000
_cell_angle_gamma   90.00000000
_symmetry_Int_Tables_number   1
_chemical_formula_structural   Nd4ZnPt3
_chemical_formula_sum   'Nd4 Zn1 Pt3'
_cell_volume   199.15265159
_cell_formula_units_Z   1
loop_
 _symmetry_equiv_pos_site_id
 _symmetry_equiv_pos_as_xyz
  1  'x, y, z'
loop_
 _atom_site_type_symbol
 _atom_site_label
 _atom_site_symmetry_multiplicity
 _atom_site_fract_x
 _atom_site_fract_y
 _atom_site_fract_z
 _atom_site_occupancy
  Nd  Nd0  1  0.000000  0.638968  0.311392  1
  Nd  Nd1  1  0.000000  0.852492  0.820872  1
  Nd  Nd2  1  0.500000  0.370006  0.694056  1
  Nd  Nd3  1  0.500000  0.137383  0.171888  1
  Zn  Zn4  1  0.000000  0.131068  0.466707  1
  Pt  Pt5  1  0.000000  0.337667  0.956241  1
  Pt  Pt6  1  0.500000  0.880358  0.533152  1
  Pt  Pt7  1  0.500000  0.652060  0.045693  1
