# generated using pymatgen
data_Nd4Cu2PtAu
_symmetry_space_group_name_H-M   'P 1'
_cell_length_a   4.64092900
_cell_length_b   5.76921926
_cell_length_c   7.41277942
_cell_angle_alpha   90.38480618
_cell_angle_beta   90.00000000
_cell_angle_gamma   90.00000000
_symmetry_Int_Tables_number   1
_chemical_formula_structural   Nd4Cu2PtAu
_chemical_formula_sum   'Nd4 Cu2 Pt1 Au1'
_cell_volume   198.46926024
_cell_formula_units_Z   1
loop_
 _symmetry_equiv_pos_site_id
 _symmetry_equiv_pos_as_xyz
  1  'x, y, z'
loop_
 _atom_site_type_symbol
 _atom_site_label
 _atom_site_symmetry_multiplicity
 _atom_site_fract_x
 _atom_site_fract_y
 _atom_site_fract_z
 _atom_site_occupancy
  Nd  Nd0  1  0.250000  0.360305  0.690306  1
  Nd  Nd1  1  0.250000  0.144850  0.175440  1
  Nd  Nd2  1  0.750000  0.635087  0.312767  1
  Nd  Nd3  1  0.750000  0.861122  0.823964  1
  Cu  Cu4  1  0.250000  0.635933  0.038465  1
  Cu  Cu5  1  0.750000  0.132325  0.461947  1
  Pt  Pt6  1  0.750000  0.364013  0.961894  1
  Au  Au7  1  0.250000  0.866364  0.535217  1
