# generated using pymatgen
data_Th8Sc12Si15Hg
_symmetry_space_group_name_H-M   'P 1'
_cell_length_a   7.27900942
_cell_length_b   7.48677017
_cell_length_c   14.28513844
_cell_angle_alpha   89.74999982
_cell_angle_beta   89.79219810
_cell_angle_gamma   90.06365140
_symmetry_Int_Tables_number   1
_chemical_formula_structural   Th8Sc12Si15Hg
_chemical_formula_sum   'Th8 Sc12 Si15 Hg1'
_cell_volume   778.47374483
_cell_formula_units_Z   1
loop_
 _symmetry_equiv_pos_site_id
 _symmetry_equiv_pos_as_xyz
  1  'x, y, z'
loop_
 _atom_site_type_symbol
 _atom_site_label
 _atom_site_symmetry_multiplicity
 _atom_site_fract_x
 _atom_site_fract_y
 _atom_site_fract_z
 _atom_site_occupancy
  Th  Th0  1  0.005910  0.172431  0.095894  1
  Th  Th1  1  0.993324  0.829226  0.904669  1
  Th  Th2  1  0.495572  0.673621  0.904082  1
  Th  Th3  1  0.994367  0.835974  0.598066  1
  Th  Th4  1  0.505068  0.327457  0.095819  1
  Th  Th5  1  0.999650  0.166442  0.399262  1
  Th  Th6  1  0.512391  0.323303  0.397978  1
  Th  Th7  1  0.501420  0.681935  0.599682  1
  Sc  Sc8  1  0.162692  0.502554  0.756547  1
  Sc  Sc9  1  0.836721  0.496801  0.247382  1
  Sc  Sc10  1  0.337759  0.999838  0.248231  1
  Sc  Sc11  1  0.663813  0.996881  0.752369  1
  Sc  Sc12  1  0.346651  0.164923  0.628624  1
  Sc  Sc13  1  0.661178  0.826236  0.373849  1
  Sc  Sc14  1  0.165757  0.677197  0.370282  1
  Sc  Sc15  1  0.667778  0.825189  0.123671  1
  Sc  Sc16  1  0.822091  0.326352  0.626953  1
  Sc  Sc17  1  0.331839  0.173664  0.876375  1
  Sc  Sc18  1  0.833497  0.326316  0.876052  1
  Sc  Sc19  1  0.165976  0.672681  0.124904  1
  Si  Si20  1  0.037215  0.126252  0.751300  1
  Si  Si21  1  0.963326  0.878177  0.247559  1
  Si  Si22  1  0.465038  0.622788  0.248774  1
  Si  Si23  1  0.533695  0.379490  0.751817  1
  Si  Si24  1  0.290487  0.874371  0.752244  1
  Si  Si25  1  0.706908  0.121502  0.246718  1
  Si  Si26  1  0.207211  0.374763  0.249024  1
  Si  Si27  1  0.796019  0.624032  0.751922  1
  Si  Si28  1  0.832933  0.540748  0.459491  1
  Si  Si29  1  0.334939  0.962999  0.459178  1
  Si  Si30  1  0.839235  0.535470  0.040152  1
  Si  Si31  1  0.664228  0.040217  0.538012  1
  Si  Si32  1  0.160981  0.464496  0.960921  1
  Si  Si33  1  0.658442  0.037334  0.960495  1
  Si  Si34  1  0.341143  0.963304  0.040456  1
  Hg  Hg35  1  0.164746  0.455039  0.541242  1
