# generated using pymatgen
data_Ho3Er7In8AgPt3
_symmetry_space_group_name_H-M   'P 1'
_cell_length_a   3.60897300
_cell_length_b   8.14806571
_cell_length_c   18.24280956
_cell_angle_alpha   89.97569440
_cell_angle_beta   90.00000000
_cell_angle_gamma   90.00000000
_symmetry_Int_Tables_number   1
_chemical_formula_structural   Ho3Er7In8AgPt3
_chemical_formula_sum   'Ho3 Er7 In8 Ag1 Pt3'
_cell_volume   536.45073030
_cell_formula_units_Z   1
loop_
 _symmetry_equiv_pos_site_id
 _symmetry_equiv_pos_as_xyz
  1  'x, y, z'
loop_
 _atom_site_type_symbol
 _atom_site_label
 _atom_site_symmetry_multiplicity
 _atom_site_fract_x
 _atom_site_fract_y
 _atom_site_fract_z
 _atom_site_occupancy
  Ho  Ho0  1  0.000000  0.724713  0.280367  1
  Ho  Ho1  1  0.000000  0.999101  0.999160  1
  Ho  Ho2  1  0.000000  0.499978  0.500523  1
  Er  Er3  1  0.000000  0.122015  0.421626  1
  Er  Er4  1  0.000000  0.884407  0.585786  1
  Er  Er5  1  0.000000  0.384785  0.914559  1
  Er  Er6  1  0.000000  0.616968  0.083496  1
  Er  Er7  1  0.000000  0.254841  0.215684  1
  Er  Er8  1  0.000000  0.756550  0.779625  1
  Er  Er9  1  0.000000  0.257213  0.720902  1
  In  In10  1  0.500000  0.417013  0.352732  1
  In  In11  1  0.500000  0.577460  0.648503  1
  In  In12  1  0.500000  0.077387  0.851293  1
  In  In13  1  0.500000  0.922354  0.148513  1
  In  In14  1  0.500000  0.292374  0.065051  1
  In  In15  1  0.500000  0.707874  0.932781  1
  In  In16  1  0.500000  0.209146  0.567936  1
  In  In17  1  0.500000  0.793293  0.433540  1
  Ag  Ag18  1  0.500000  0.026548  0.301965  1
  Pt  Pt19  1  0.500000  0.974846  0.696565  1
  Pt  Pt20  1  0.500000  0.475114  0.803459  1
  Pt  Pt21  1  0.500000  0.526022  0.195933  1
