# generated using pymatgen
data_LaLuTcB6
_symmetry_space_group_name_H-M   'P 1'
_cell_length_a   3.74428100
_cell_length_b   9.20826900
_cell_length_c   11.71691700
_cell_angle_alpha   90.00000000
_cell_angle_beta   90.00000000
_cell_angle_gamma   90.00000000
_symmetry_Int_Tables_number   1
_chemical_formula_structural   LaLuTcB6
_chemical_formula_sum   'La4 Lu4 Tc4 B24'
_cell_volume   403.97992611
_cell_formula_units_Z   4
loop_
 _symmetry_equiv_pos_site_id
 _symmetry_equiv_pos_as_xyz
  1  'x, y, z'
loop_
 _atom_site_type_symbol
 _atom_site_label
 _atom_site_symmetry_multiplicity
 _atom_site_fract_x
 _atom_site_fract_y
 _atom_site_fract_z
 _atom_site_occupancy
  La  La0  1  0.000000  0.323214  0.415590  1
  La  La1  1  0.000000  0.676786  0.584410  1
  La  La2  1  0.000000  0.823214  0.084410  1
  La  La3  1  0.000000  0.176786  0.915590  1
  Lu  Lu4  1  0.000000  0.942252  0.366833  1
  Lu  Lu5  1  0.000000  0.057748  0.633167  1
  Lu  Lu6  1  0.000000  0.442252  0.133167  1
  Lu  Lu7  1  0.000000  0.557748  0.866833  1
  Tc  Tc8  1  0.000000  0.641161  0.316719  1
  Tc  Tc9  1  0.000000  0.358839  0.683281  1
  Tc  Tc10  1  0.000000  0.141161  0.183281  1
  Tc  Tc11  1  0.000000  0.858839  0.816719  1
  B  B12  1  0.500000  0.557610  0.427635  1
  B  B13  1  0.500000  0.442390  0.572365  1
  B  B14  1  0.500000  0.057610  0.072365  1
  B  B15  1  0.500000  0.942390  0.927635  1
  B  B16  1  0.500000  0.751861  0.413337  1
  B  B17  1  0.500000  0.248139  0.586663  1
  B  B18  1  0.500000  0.251861  0.086663  1
  B  B19  1  0.500000  0.748139  0.913337  1
  B  B20  1  0.500000  0.792219  0.264814  1
  B  B21  1  0.500000  0.207781  0.735186  1
  B  B22  1  0.500000  0.292219  0.235186  1
  B  B23  1  0.500000  0.707781  0.764814  1
  B  B24  1  0.500000  0.628794  0.185324  1
  B  B25  1  0.500000  0.371206  0.814676  1
  B  B26  1  0.500000  0.128794  0.314676  1
  B  B27  1  0.500000  0.871206  0.685324  1
  B  B28  1  0.500000  0.985050  0.214094  1
  B  B29  1  0.500000  0.014950  0.785906  1
  B  B30  1  0.500000  0.485050  0.285906  1
  B  B31  1  0.500000  0.514950  0.714094  1
  B  B32  1  0.500000  0.592709  0.024900  1
  B  B33  1  0.500000  0.407291  0.975100  1
  B  B34  1  0.500000  0.092709  0.475100  1
  B  B35  1  0.500000  0.907291  0.524900  1
