# generated using pymatgen
data_Nb6Al8IrOs3
_symmetry_space_group_name_H-M   'P 1'
_cell_length_a   8.92893074
_cell_length_b   8.92129252
_cell_length_c   8.24389700
_cell_angle_alpha   90.00000000
_cell_angle_beta   90.00000000
_cell_angle_gamma   120.71332533
_symmetry_Int_Tables_number   1
_chemical_formula_structural   Nb6Al8IrOs3
_chemical_formula_sum   'Nb12 Al16 Ir2 Os6'
_cell_volume   564.57760403
_cell_formula_units_Z   2
loop_
 _symmetry_equiv_pos_site_id
 _symmetry_equiv_pos_as_xyz
  1  'x, y, z'
loop_
 _atom_site_type_symbol
 _atom_site_label
 _atom_site_symmetry_multiplicity
 _atom_site_fract_x
 _atom_site_fract_y
 _atom_site_fract_z
 _atom_site_occupancy
  Nb  Nb0  1  0.335193  0.007036  0.064772  1
  Nb  Nb1  1  0.664807  0.992964  0.935228  1
  Nb  Nb2  1  0.998371  0.335131  0.060075  1
  Nb  Nb3  1  0.664807  0.992964  0.564772  1
  Nb  Nb4  1  0.998371  0.335131  0.439925  1
  Nb  Nb5  1  0.001629  0.664869  0.939925  1
  Nb  Nb6  1  0.335193  0.007036  0.435228  1
  Nb  Nb7  1  0.001629  0.664869  0.560075  1
  Nb  Nb8  1  0.663335  0.665003  0.065111  1
  Nb  Nb9  1  0.336665  0.334997  0.934889  1
  Nb  Nb10  1  0.336665  0.334997  0.565111  1
  Nb  Nb11  1  0.663335  0.665003  0.434889  1
  Al  Al12  1  0.335607  0.841425  0.750000  1
  Al  Al13  1  0.660350  0.503792  0.750000  1
  Al  Al14  1  0.664393  0.158575  0.250000  1
  Al  Al15  1  0.339650  0.496208  0.250000  1
  Al  Al16  1  0.831222  0.320996  0.750000  1
  Al  Al17  1  0.168778  0.679004  0.250000  1
  Al  Al18  1  0.336426  0.668376  0.500887  1
  Al  Al19  1  0.663574  0.331624  0.499113  1
  Al  Al20  1  0.663574  0.331624  0.000887  1
  Al  Al21  1  0.336426  0.668376  0.999113  1
  Al  Al22  1  0.171754  0.002360  0.750000  1
  Al  Al23  1  0.828246  0.997640  0.250000  1
  Al  Al24  1  0.006297  0.173859  0.750000  1
  Al  Al25  1  0.993703  0.826141  0.250000  1
  Al  Al26  1  0.831415  0.830149  0.750000  1
  Al  Al27  1  0.168585  0.169851  0.250000  1
  Ir  Ir28  1  0.000000  0.000000  0.500000  1
  Ir  Ir29  1  0.000000  0.000000  0.000000  1
  Os  Os30  1  0.160680  0.497612  0.750000  1
  Os  Os31  1  0.839320  0.502388  0.250000  1
  Os  Os32  1  0.504122  0.670697  0.750000  1
  Os  Os33  1  0.496696  0.168129  0.750000  1
  Os  Os34  1  0.495878  0.329303  0.250000  1
  Os  Os35  1  0.503304  0.831871  0.250000  1
