# generated using pymatgen
data_Ta6Be14Co6SiNi2
_symmetry_space_group_name_H-M   'P 1'
_cell_length_a   7.56814430
_cell_length_b   7.57978206
_cell_length_c   7.57978000
_cell_angle_alpha   60.00000027
_cell_angle_beta   59.94911953
_cell_angle_gamma   59.94912624
_symmetry_Int_Tables_number   1
_chemical_formula_structural   Ta6Be14Co6SiNi2
_chemical_formula_sum   'Ta6 Be14 Co6 Si1 Ni2'
_cell_volume   307.22271488
_cell_formula_units_Z   1
loop_
 _symmetry_equiv_pos_site_id
 _symmetry_equiv_pos_as_xyz
  1  'x, y, z'
loop_
 _atom_site_type_symbol
 _atom_site_label
 _atom_site_symmetry_multiplicity
 _atom_site_fract_x
 _atom_site_fract_y
 _atom_site_fract_z
 _atom_site_occupancy
  Ta  Ta0  1  0.710407  0.294239  0.294239  1
  Ta  Ta1  1  0.289593  0.705761  0.705761  1
  Ta  Ta2  1  0.289593  0.705761  0.298886  1
  Ta  Ta3  1  0.710407  0.294239  0.701114  1
  Ta  Ta4  1  0.289593  0.298886  0.705761  1
  Ta  Ta5  1  0.710407  0.701114  0.294239  1
  Be  Be6  1  0.325974  0.327529  0.327529  1
  Be  Be7  1  0.674026  0.672471  0.672471  1
  Be  Be8  1  0.325974  0.327529  0.018965  1
  Be  Be9  1  0.325974  0.018965  0.327529  1
  Be  Be10  1  0.674026  0.672471  0.981035  1
  Be  Be11  1  0.674026  0.981035  0.672471  1
  Be  Be12  1  0.023890  0.325369  0.325369  1
  Be  Be13  1  0.976110  0.674631  0.674631  1
  Be  Be14  1  0.500000  0.000000  0.000000  1
  Be  Be15  1  0.000000  0.500000  0.500000  1
  Be  Be16  1  0.000000  0.500000  0.000000  1
  Be  Be17  1  0.500000  0.000000  0.500000  1
  Be  Be18  1  0.000000  0.000000  0.500000  1
  Be  Be19  1  0.500000  0.500000  0.000000  1
  Co  Co20  1  0.126006  0.123090  0.123090  1
  Co  Co21  1  0.873994  0.876911  0.876910  1
  Co  Co22  1  0.126006  0.123090  0.627814  1
  Co  Co23  1  0.126006  0.627814  0.123089  1
  Co  Co24  1  0.873994  0.876911  0.372186  1
  Co  Co25  1  0.873994  0.372186  0.876910  1
  Si  Si26  1  0.000000  0.000000  0.000000  1
  Ni  Ni27  1  0.625546  0.124818  0.124818  1
  Ni  Ni28  1  0.374454  0.875182  0.875182  1
