# generated using pymatgen
data_Dy7Y(Si4W3)4
_symmetry_space_group_name_H-M   'P 1'
_cell_length_a   6.78224700
_cell_length_b   6.94289791
_cell_length_c   12.91286041
_cell_angle_alpha   90.00541728
_cell_angle_beta   89.99040448
_cell_angle_gamma   89.99830526
_symmetry_Int_Tables_number   1
_chemical_formula_structural   Dy7Y(Si4W3)4
_chemical_formula_sum   'Dy7 Y1 Si16 W12'
_cell_volume   608.04655072
_cell_formula_units_Z   1
loop_
 _symmetry_equiv_pos_site_id
 _symmetry_equiv_pos_as_xyz
  1  'x, y, z'
loop_
 _atom_site_type_symbol
 _atom_site_label
 _atom_site_symmetry_multiplicity
 _atom_site_fract_x
 _atom_site_fract_y
 _atom_site_fract_z
 _atom_site_occupancy
  Dy  Dy0  1  0.495464  0.667509  0.593474  1
  Dy  Dy1  1  0.995688  0.832483  0.906557  1
  Dy  Dy2  1  0.504654  0.332377  0.093543  1
  Dy  Dy3  1  0.004398  0.167787  0.406461  1
  Dy  Dy4  1  0.504546  0.332618  0.406553  1
  Dy  Dy5  1  0.004447  0.167658  0.093513  1
  Dy  Dy6  1  0.495559  0.667510  0.906594  1
  Y  Y7  1  0.995684  0.832163  0.593275  1
  Si  Si8  1  0.661413  0.957548  0.452945  1
  Si  Si9  1  0.161634  0.542558  0.047045  1
  Si  Si10  1  0.338748  0.042607  0.952902  1
  Si  Si11  1  0.838327  0.457173  0.546985  1
  Si  Si12  1  0.338575  0.042654  0.546944  1
  Si  Si13  1  0.838535  0.457506  0.953018  1
  Si  Si14  1  0.661483  0.957316  0.047152  1
  Si  Si15  1  0.161513  0.542533  0.452824  1
  Si  Si16  1  0.463579  0.369966  0.750128  1
  Si  Si17  1  0.963685  0.129783  0.749839  1
  Si  Si18  1  0.536248  0.630026  0.249956  1
  Si  Si19  1  0.036261  0.870312  0.250106  1
  Si  Si20  1  0.696859  0.866969  0.749983  1
  Si  Si21  1  0.196655  0.632632  0.749973  1
  Si  Si22  1  0.303236  0.133095  0.250019  1
  Si  Si23  1  0.803198  0.367337  0.250048  1
  W  W24  1  0.667554  0.163420  0.625750  1
  W  W25  1  0.167691  0.336308  0.874379  1
  W  W26  1  0.332031  0.836612  0.125663  1
  W  W27  1  0.831998  0.663488  0.374389  1
  W  W28  1  0.332137  0.836594  0.374286  1
  W  W29  1  0.832360  0.663573  0.125774  1
  W  W30  1  0.668201  0.163467  0.874447  1
  W  W31  1  0.167845  0.336545  0.625529  1
  W  W32  1  0.833824  0.498998  0.749985  1
  W  W33  1  0.333696  0.000609  0.749894  1
  W  W34  1  0.166116  0.500873  0.249983  1
  W  W35  1  0.666157  0.999392  0.250087  1
