# generated using pymatgen
data_NaTlAg2(NO3)8
_symmetry_space_group_name_H-M   'P 1'
_cell_length_a   8.13484720
_cell_length_b   8.19313636
_cell_length_c   7.78992104
_cell_angle_alpha   92.21648722
_cell_angle_beta   88.65933039
_cell_angle_gamma   92.61478341
_symmetry_Int_Tables_number   1
_chemical_formula_structural   NaTlAg2(NO3)8
_chemical_formula_sum   'Na1 Tl1 Ag2 N8 O24'
_cell_volume   518.14722234
_cell_formula_units_Z   1
loop_
 _symmetry_equiv_pos_site_id
 _symmetry_equiv_pos_as_xyz
  1  'x, y, z'
loop_
 _atom_site_type_symbol
 _atom_site_label
 _atom_site_symmetry_multiplicity
 _atom_site_fract_x
 _atom_site_fract_y
 _atom_site_fract_z
 _atom_site_occupancy
  Na  Na0  1  0.000000  0.000000  0.000000  1
  Tl  Tl1  1  0.000000  0.500000  0.500000  1
  Ag  Ag2  1  0.500000  0.500000  0.000000  1
  Ag  Ag3  1  0.500000  0.000000  0.500000  1
  N  N4  1  0.336145  0.346125  0.315222  1
  N  N5  1  0.342043  0.171876  0.833553  1
  N  N6  1  0.180784  0.837433  0.344035  1
  N  N7  1  0.852736  0.327924  0.174508  1
  N  N8  1  0.663855  0.653875  0.684778  1
  N  N9  1  0.147264  0.672076  0.825492  1
  N  N10  1  0.819216  0.162567  0.655965  1
  N  N11  1  0.657957  0.828124  0.166447  1
  O  O12  1  0.760841  0.309629  0.049986  1
  O  O13  1  0.194410  0.953953  0.247769  1
  O  O14  1  0.285978  0.813098  0.458589  1
  O  O15  1  0.234485  0.186360  0.947775  1
  O  O16  1  0.235977  0.328736  0.442630  1
  O  O17  1  0.452578  0.254864  0.292527  1
  O  O18  1  0.311727  0.461158  0.212529  1
  O  O19  1  0.169063  0.540064  0.724616  1
  O  O20  1  0.943532  0.264824  0.669929  1
  O  O21  1  0.668173  0.950977  0.273560  1
  O  O22  1  0.039184  0.767584  0.790759  1
  O  O23  1  0.536670  0.725724  0.181868  1
  O  O24  1  0.805590  0.046047  0.752231  1
  O  O25  1  0.714022  0.186902  0.541411  1
  O  O26  1  0.765515  0.813640  0.052225  1
  O  O27  1  0.239159  0.690371  0.950014  1
  O  O28  1  0.764023  0.671264  0.557370  1
  O  O29  1  0.547422  0.745136  0.707473  1
  O  O30  1  0.688273  0.538842  0.787471  1
  O  O31  1  0.830937  0.459936  0.275384  1
  O  O32  1  0.056468  0.735176  0.330071  1
  O  O33  1  0.331827  0.049023  0.726440  1
  O  O34  1  0.960816  0.232416  0.209241  1
  O  O35  1  0.463330  0.274276  0.818132  1
