# generated using pymatgen
data_LaNdGa2IrPd
_symmetry_space_group_name_H-M   'P 1'
_cell_length_a   4.53783400
_cell_length_b   7.19277500
_cell_length_c   7.82908500
_cell_angle_alpha   90.00000000
_cell_angle_beta   90.00000000
_cell_angle_gamma   90.00000000
_symmetry_Int_Tables_number   1
_chemical_formula_structural   LaNdGa2IrPd
_chemical_formula_sum   'La2 Nd2 Ga4 Ir2 Pd2'
_cell_volume   255.53835112
_cell_formula_units_Z   2
loop_
 _symmetry_equiv_pos_site_id
 _symmetry_equiv_pos_as_xyz
  1  'x, y, z'
loop_
 _atom_site_type_symbol
 _atom_site_label
 _atom_site_symmetry_multiplicity
 _atom_site_fract_x
 _atom_site_fract_y
 _atom_site_fract_z
 _atom_site_occupancy
  La  La0  1  0.250000  0.030288  0.686282  1
  La  La1  1  0.250000  0.530288  0.813718  1
  Nd  Nd2  1  0.750000  0.979586  0.300705  1
  Nd  Nd3  1  0.750000  0.479586  0.199295  1
  Ga  Ga4  1  0.250000  0.161572  0.080029  1
  Ga  Ga5  1  0.250000  0.661572  0.419971  1
  Ga  Ga6  1  0.750000  0.831682  0.931707  1
  Ga  Ga7  1  0.750000  0.331682  0.568293  1
  Ir  Ir8  1  0.250000  0.282924  0.398480  1
  Ir  Ir9  1  0.250000  0.782924  0.101520  1
  Pd  Pd10  1  0.750000  0.713947  0.601448  1
  Pd  Pd11  1  0.750000  0.213947  0.898552  1
