# generated using pymatgen
data_Hf3Be2Ir4Rh
_symmetry_space_group_name_H-M   'P 1'
_cell_length_a   9.43192817
_cell_length_b   9.43337217
_cell_length_c   3.35630100
_cell_angle_alpha   90.00000000
_cell_angle_beta   90.00000000
_cell_angle_gamma   89.97816326
_symmetry_Int_Tables_number   1
_chemical_formula_structural   Hf3Be2Ir4Rh
_chemical_formula_sum   'Hf6 Be4 Ir8 Rh2'
_cell_volume   298.62648634
_cell_formula_units_Z   2
loop_
 _symmetry_equiv_pos_site_id
 _symmetry_equiv_pos_as_xyz
  1  'x, y, z'
loop_
 _atom_site_type_symbol
 _atom_site_label
 _atom_site_symmetry_multiplicity
 _atom_site_fract_x
 _atom_site_fract_y
 _atom_site_fract_z
 _atom_site_occupancy
  Hf  Hf0  1  0.176570  0.673431  0.000000  1
  Hf  Hf1  1  0.325229  0.176259  0.000000  1
  Hf  Hf2  1  0.824615  0.324543  0.000000  1
  Hf  Hf3  1  0.500293  0.500060  0.000000  1
  Hf  Hf4  1  0.674478  0.824555  0.000000  1
  Hf  Hf5  1  0.001298  0.997387  0.000000  1
  Be  Be6  1  0.379460  0.881224  0.000000  1
  Be  Be7  1  0.119209  0.380611  0.000000  1
  Be  Be8  1  0.881048  0.620758  0.000000  1
  Be  Be9  1  0.619452  0.119407  0.000000  1
  Ir  Ir10  1  0.426517  0.716363  0.500000  1
  Ir  Ir11  1  0.572578  0.283870  0.500000  1
  Ir  Ir12  1  0.716079  0.573483  0.500000  1
  Ir  Ir13  1  0.283602  0.427353  0.500000  1
  Ir  Ir14  1  0.072147  0.215652  0.500000  1
  Ir  Ir15  1  0.999681  0.500552  0.500000  1
  Ir  Ir16  1  0.499925  0.999702  0.500000  1
  Ir  Ir17  1  0.784597  0.072290  0.500000  1
  Rh  Rh18  1  0.215593  0.927859  0.500000  1
  Rh  Rh19  1  0.927629  0.784642  0.500000  1
