# generated using pymatgen
data_Tm12InFe3Ag
_symmetry_space_group_name_H-M   'P 1'
_cell_length_a   8.19078177
_cell_length_b   8.19078121
_cell_length_c   8.19078098
_cell_angle_alpha   110.13393295
_cell_angle_beta   106.80921067
_cell_angle_gamma   111.50598958
_symmetry_Int_Tables_number   1
_chemical_formula_structural   Tm12InFe3Ag
_chemical_formula_sum   'Tm12 In1 Fe3 Ag1'
_cell_volume   422.26889635
_cell_formula_units_Z   1
loop_
 _symmetry_equiv_pos_site_id
 _symmetry_equiv_pos_as_xyz
  1  'x, y, z'
loop_
 _atom_site_type_symbol
 _atom_site_label
 _atom_site_symmetry_multiplicity
 _atom_site_fract_x
 _atom_site_fract_y
 _atom_site_fract_z
 _atom_site_occupancy
  Tm  Tm0  1  0.191980  0.438732  0.246752  1
  Tm  Tm1  1  0.808020  0.561268  0.753248  1
  Tm  Tm2  1  0.191980  0.945229  0.753248  1
  Tm  Tm3  1  0.959309  0.190115  0.769193  1
  Tm  Tm4  1  0.808020  0.054771  0.246752  1
  Tm  Tm5  1  0.040691  0.809885  0.230807  1
  Tm  Tm6  1  0.420922  0.190115  0.230807  1
  Tm  Tm7  1  0.579078  0.809885  0.769193  1
  Tm  Tm8  1  0.309560  0.307848  0.617408  1
  Tm  Tm9  1  0.690440  0.692152  0.382592  1
  Tm  Tm10  1  0.690440  0.307848  0.998289  1
  Tm  Tm11  1  0.309560  0.692152  0.001711  1
  In  In12  1  0.500000  0.000000  0.500000  1
  Fe  Fe13  1  0.382699  0.382699  0.000000  1
  Fe  Fe14  1  0.617301  0.617301  0.000000  1
  Fe  Fe15  1  0.000000  0.000000  0.000000  1
  Ag  Ag16  1  0.000000  0.500000  0.500000  1
