# generated using pymatgen
data_Dy8Ho9Tm3Sn16
_symmetry_space_group_name_H-M   'P 1'
_cell_length_a   8.00462211
_cell_length_b   8.14185412
_cell_length_c   15.40498300
_cell_angle_alpha   90.00000000
_cell_angle_beta   90.00000000
_cell_angle_gamma   90.01934650
_symmetry_Int_Tables_number   1
_chemical_formula_structural   Dy8Ho9Tm3Sn16
_chemical_formula_sum   'Dy8 Ho9 Tm3 Sn16'
_cell_volume   1003.98066597
_cell_formula_units_Z   1
loop_
 _symmetry_equiv_pos_site_id
 _symmetry_equiv_pos_as_xyz
  1  'x, y, z'
loop_
 _atom_site_type_symbol
 _atom_site_label
 _atom_site_symmetry_multiplicity
 _atom_site_fract_x
 _atom_site_fract_y
 _atom_site_fract_z
 _atom_site_occupancy
  Dy  Dy0  1  0.521201  0.320566  0.902769  1
  Dy  Dy1  1  0.021031  0.179256  0.597241  1
  Dy  Dy2  1  0.478875  0.679324  0.402701  1
  Dy  Dy3  1  0.978906  0.820639  0.097267  1
  Dy  Dy4  1  0.478875  0.679324  0.097299  1
  Dy  Dy5  1  0.978906  0.820639  0.402733  1
  Dy  Dy6  1  0.521201  0.320566  0.597231  1
  Dy  Dy7  1  0.021031  0.179256  0.902759  1
  Ho  Ho8  1  0.367520  0.836804  0.877623  1
  Ho  Ho9  1  0.867212  0.663430  0.622388  1
  Ho  Ho10  1  0.632580  0.163323  0.377564  1
  Ho  Ho11  1  0.132582  0.336668  0.122507  1
  Ho  Ho12  1  0.632580  0.163323  0.122436  1
  Ho  Ho13  1  0.132582  0.336668  0.377493  1
  Ho  Ho14  1  0.367520  0.836804  0.622377  1
  Ho  Ho15  1  0.867212  0.663430  0.877612  1
  Ho  Ho16  1  0.198411  0.503304  0.750000  1
  Tm  Tm17  1  0.698575  0.996535  0.750000  1
  Tm  Tm18  1  0.801505  0.496579  0.250000  1
  Tm  Tm19  1  0.301516  0.003389  0.250000  1
  Sn  Sn20  1  0.293503  0.036693  0.041880  1
  Sn  Sn21  1  0.793489  0.463356  0.458114  1
  Sn  Sn22  1  0.706489  0.963281  0.541817  1
  Sn  Sn23  1  0.206490  0.536770  0.958441  1
  Sn  Sn24  1  0.706489  0.963281  0.958183  1
  Sn  Sn25  1  0.206490  0.536770  0.541559  1
  Sn  Sn26  1  0.293503  0.036693  0.458120  1
  Sn  Sn27  1  0.793489  0.463356  0.041886  1
  Sn  Sn28  1  0.565084  0.619666  0.750000  1
  Sn  Sn29  1  0.064433  0.880826  0.750000  1
  Sn  Sn30  1  0.435539  0.380446  0.250000  1
  Sn  Sn31  1  0.935450  0.119530  0.250000  1
  Sn  Sn32  1  0.330233  0.147687  0.750000  1
  Sn  Sn33  1  0.829972  0.351738  0.750000  1
  Sn  Sn34  1  0.669813  0.851786  0.250000  1
  Sn  Sn35  1  0.169708  0.648294  0.250000  1
