# generated using pymatgen
data_Mn12Cr8Ni(WC3)2
_symmetry_space_group_name_H-M   'P 1'
_cell_length_a   7.44118409
_cell_length_b   7.43558254
_cell_length_c   7.44497286
_cell_angle_alpha   60.09909867
_cell_angle_beta   60.05678757
_cell_angle_gamma   60.01349616
_symmetry_Int_Tables_number   1
_chemical_formula_structural   Mn12Cr8Ni(WC3)2
_chemical_formula_sum   'Mn12 Cr8 Ni1 W2 C6'
_cell_volume   291.64872049
_cell_formula_units_Z   1
loop_
 _symmetry_equiv_pos_site_id
 _symmetry_equiv_pos_as_xyz
  1  'x, y, z'
loop_
 _atom_site_type_symbol
 _atom_site_label
 _atom_site_symmetry_multiplicity
 _atom_site_fract_x
 _atom_site_fract_y
 _atom_site_fract_z
 _atom_site_occupancy
  Mn  Mn0  1  0.615693  0.614978  0.152406  1
  Mn  Mn1  1  0.616974  0.152040  0.615035  1
  Mn  Mn2  1  0.151982  0.616340  0.616112  1
  Mn  Mn3  1  0.615433  0.615866  0.616681  1
  Mn  Mn4  1  0.384220  0.383634  0.848525  1
  Mn  Mn5  1  0.384319  0.848505  0.382811  1
  Mn  Mn6  1  0.848447  0.383360  0.383612  1
  Mn  Mn7  1  0.383945  0.384445  0.383307  1
  Mn  Mn8  1  0.998629  0.999399  0.339699  1
  Mn  Mn9  1  0.662804  0.998350  0.338114  1
  Mn  Mn10  1  0.998637  0.663023  0.339980  1
  Mn  Mn11  1  0.659687  0.338206  0.001257  1
  Cr  Cr12  1  0.001146  0.337369  0.998674  1
  Cr  Cr13  1  0.000115  0.338230  0.661948  1
  Cr  Cr14  1  0.336820  0.662508  0.000849  1
  Cr  Cr15  1  0.338182  0.000824  0.660230  1
  Cr  Cr16  1  0.338315  0.998794  0.000345  1
  Cr  Cr17  1  0.000411  0.001874  0.659955  1
  Cr  Cr18  1  0.999129  0.662020  0.000800  1
  Cr  Cr19  1  0.663284  0.000131  0.001544  1
  Ni  Ni20  1  0.000363  0.000536  0.999160  1
  W  W21  1  0.750626  0.750465  0.748680  1
  W  W22  1  0.250541  0.250064  0.249284  1
  C  C23  1  0.722642  0.720898  0.280669  1
  C  C24  1  0.274242  0.723181  0.280524  1
  C  C25  1  0.722857  0.274637  0.276906  1
  C  C26  1  0.281592  0.280314  0.719630  1
  C  C27  1  0.719754  0.280007  0.722837  1
  C  C28  1  0.279211  0.720002  0.720426  1
