# generated using pymatgen
data_Dy3Tm(MgPt)4
_symmetry_space_group_name_H-M   'P 1'
_cell_length_a   4.16351300
_cell_length_b   7.11844523
_cell_length_c   8.63597917
_cell_angle_alpha   89.70590429
_cell_angle_beta   90.00000000
_cell_angle_gamma   90.00000000
_symmetry_Int_Tables_number   1
_chemical_formula_structural   Dy3Tm(MgPt)4
_chemical_formula_sum   'Dy3 Tm1 Mg4 Pt4'
_cell_volume   255.94752721
_cell_formula_units_Z   1
loop_
 _symmetry_equiv_pos_site_id
 _symmetry_equiv_pos_as_xyz
  1  'x, y, z'
loop_
 _atom_site_type_symbol
 _atom_site_label
 _atom_site_symmetry_multiplicity
 _atom_site_fract_x
 _atom_site_fract_y
 _atom_site_fract_z
 _atom_site_occupancy
  Dy  Dy0  1  0.250000  0.535867  0.176016  1
  Dy  Dy1  1  0.750000  0.963440  0.675273  1
  Dy  Dy2  1  0.750000  0.463167  0.824495  1
  Tm  Tm3  1  0.250000  0.037747  0.324814  1
  Mg  Mg4  1  0.250000  0.136001  0.938720  1
  Mg  Mg5  1  0.250000  0.636524  0.560970  1
  Mg  Mg6  1  0.750000  0.864127  0.062448  1
  Mg  Mg7  1  0.750000  0.363427  0.437847  1
  Pt  Pt8  1  0.250000  0.246718  0.623123  1
  Pt  Pt9  1  0.250000  0.747232  0.874738  1
  Pt  Pt10  1  0.750000  0.755768  0.374601  1
  Pt  Pt11  1  0.750000  0.249982  0.126955  1
