# generated using pymatgen
data_Tb3Lu9Ni4SnAu
_symmetry_space_group_name_H-M   'P 1'
_cell_length_a   8.25044245
_cell_length_b   8.24131702
_cell_length_c   8.24131642
_cell_angle_alpha   106.62726212
_cell_angle_beta   109.40518487
_cell_angle_gamma   112.38445609
_symmetry_Int_Tables_number   1
_chemical_formula_structural   Tb3Lu9Ni4SnAu
_chemical_formula_sum   'Tb3 Lu9 Ni4 Sn1 Au1'
_cell_volume   430.53368876
_cell_formula_units_Z   1
loop_
 _symmetry_equiv_pos_site_id
 _symmetry_equiv_pos_as_xyz
  1  'x, y, z'
loop_
 _atom_site_type_symbol
 _atom_site_label
 _atom_site_symmetry_multiplicity
 _atom_site_fract_x
 _atom_site_fract_y
 _atom_site_fract_z
 _atom_site_occupancy
  Tb  Tb0  1  0.973356  0.792310  0.181046  1
  Tb  Tb1  1  0.024470  0.206424  0.818046  1
  Tb  Tb2  1  0.389694  0.207460  0.182234  1
  Lu  Lu3  1  0.697217  0.275148  0.974044  1
  Lu  Lu4  1  0.303574  0.723715  0.025442  1
  Lu  Lu5  1  0.697217  0.723172  0.422069  1
  Lu  Lu6  1  0.303574  0.278133  0.579859  1
  Lu  Lu7  1  0.809185  0.134321  0.324343  1
  Lu  Lu8  1  0.809185  0.484842  0.674865  1
  Lu  Lu9  1  0.191729  0.865097  0.675578  1
  Lu  Lu10  1  0.191729  0.516151  0.326631  1
  Lu  Lu11  1  0.610202  0.792181  0.818021  1
  Ni  Ni12  1  0.859203  0.500049  0.359153  1
  Ni  Ni13  1  0.143440  0.501517  0.641923  1
  Ni  Ni14  1  0.997202  0.126230  0.126237  1
  Ni  Ni15  1  0.997202  0.870965  0.870972  1
  Sn  Sn16  1  0.500495  0.000188  0.500307  1
  Au  Au17  1  0.501327  0.502096  0.999231  1
