# generated using pymatgen
data_Dy4Er8Ir3Os
_symmetry_space_group_name_H-M   'P 1'
_cell_length_a   6.38897303
_cell_length_b   7.26889206
_cell_length_c   9.03587500
_cell_angle_alpha   90.00000000
_cell_angle_beta   90.00000000
_cell_angle_gamma   89.99815398
_symmetry_Int_Tables_number   1
_chemical_formula_structural   Dy4Er8Ir3Os
_chemical_formula_sum   'Dy4 Er8 Ir3 Os1'
_cell_volume   419.63285994
_cell_formula_units_Z   1
loop_
 _symmetry_equiv_pos_site_id
 _symmetry_equiv_pos_as_xyz
  1  'x, y, z'
loop_
 _atom_site_type_symbol
 _atom_site_label
 _atom_site_symmetry_multiplicity
 _atom_site_fract_x
 _atom_site_fract_y
 _atom_site_fract_z
 _atom_site_occupancy
  Dy  Dy0  1  0.872778  0.534156  0.250000  1
  Dy  Dy1  1  0.626272  0.035238  0.250000  1
  Dy  Dy2  1  0.130166  0.465057  0.750000  1
  Dy  Dy3  1  0.372742  0.964058  0.750000  1
  Er  Er4  1  0.325863  0.678390  0.064382  1
  Er  Er5  1  0.171545  0.174851  0.436035  1
  Er  Er6  1  0.672097  0.323181  0.562799  1
  Er  Er7  1  0.831016  0.823898  0.939648  1
  Er  Er8  1  0.672097  0.323181  0.937201  1
  Er  Er9  1  0.831016  0.823898  0.560352  1
  Er  Er10  1  0.325863  0.678390  0.435618  1
  Er  Er11  1  0.171545  0.174851  0.063965  1
  Ir  Ir12  1  0.456683  0.385360  0.250000  1
  Ir  Ir13  1  0.957144  0.115900  0.750000  1
  Ir  Ir14  1  0.545660  0.615130  0.750000  1
  Os  Os15  1  0.037514  0.884459  0.250000  1
