# generated using pymatgen
data_LaTb3(ThS3)4
_symmetry_space_group_name_H-M   'P 1'
_cell_length_a   3.96287800
_cell_length_b   10.59086549
_cell_length_c   10.84652200
_cell_angle_alpha   90.33635315
_cell_angle_beta   90.00000000
_cell_angle_gamma   90.00000000
_symmetry_Int_Tables_number   1
_chemical_formula_structural   LaTb3(ThS3)4
_chemical_formula_sum   'La1 Tb3 Th4 S12'
_cell_volume   455.22402341
_cell_formula_units_Z   1
loop_
 _symmetry_equiv_pos_site_id
 _symmetry_equiv_pos_as_xyz
  1  'x, y, z'
loop_
 _atom_site_type_symbol
 _atom_site_label
 _atom_site_symmetry_multiplicity
 _atom_site_fract_x
 _atom_site_fract_y
 _atom_site_fract_z
 _atom_site_occupancy
  La  La0  1  0.750000  0.500088  0.695373  1
  Tb  Tb1  1  0.750000  0.814718  0.512104  1
  Tb  Tb2  1  0.750000  0.685514  0.012427  1
  Tb  Tb3  1  0.250000  0.314508  0.987274  1
  Th  Th4  1  0.250000  0.996885  0.809390  1
  Th  Th5  1  0.750000  0.002072  0.196721  1
  Th  Th6  1  0.250000  0.506292  0.304301  1
  Th  Th7  1  0.250000  0.185851  0.486567  1
  S  S8  1  0.250000  0.289068  0.730475  1
  S  S9  1  0.750000  0.705209  0.270527  1
  S  S10  1  0.750000  0.799368  0.774350  1
  S  S11  1  0.250000  0.202297  0.223356  1
  S  S12  1  0.250000  0.940969  0.379579  1
  S  S13  1  0.750000  0.052401  0.621992  1
  S  S14  1  0.750000  0.445572  0.118733  1
  S  S15  1  0.250000  0.553934  0.885734  1
  S  S16  1  0.250000  0.871046  0.047875  1
  S  S17  1  0.750000  0.127384  0.955507  1
  S  S18  1  0.750000  0.374501  0.446083  1
  S  S19  1  0.250000  0.632320  0.541637  1
