# generated using pymatgen
data_K3HO3
_symmetry_space_group_name_H-M   'P 1'
_cell_length_a   4.00025983
_cell_length_b   7.20710767
_cell_length_c   6.81847991
_cell_angle_alpha   96.47733304
_cell_angle_beta   103.13128375
_cell_angle_gamma   119.77749430
_symmetry_Int_Tables_number   1
_chemical_formula_structural   K3HO3
_chemical_formula_sum   'K3 H1 O3'
_cell_volume   160.13170139
_cell_formula_units_Z   1
loop_
 _symmetry_equiv_pos_site_id
 _symmetry_equiv_pos_as_xyz
  1  'x, y, z'
loop_
 _atom_site_type_symbol
 _atom_site_label
 _atom_site_symmetry_multiplicity
 _atom_site_fract_x
 _atom_site_fract_y
 _atom_site_fract_z
 _atom_site_occupancy
  K  K0  1  0.576521  0.354805  0.503373  1
  K  K1  1  0.194094  0.135989  0.005359  1
  K  K2  1  0.433490  0.791346  0.400272  1
  H  H3  1  0.202182  0.792460  0.784543  1
  O  O4  1  0.984853  0.362747  0.235251  1
  O  O5  1  0.795766  0.134809  0.276475  1
  O  O6  1  0.032421  0.812055  0.672463  1
