# generated using pymatgen
data_KSr3(Si2Au5)4
_symmetry_space_group_name_H-M   'P 1'
_cell_length_a   7.12648800
_cell_length_b   8.99471378
_cell_length_c   10.05332604
_cell_angle_alpha   89.92749884
_cell_angle_beta   90.00000000
_cell_angle_gamma   90.00000000
_symmetry_Int_Tables_number   1
_chemical_formula_structural   KSr3(Si2Au5)4
_chemical_formula_sum   'K1 Sr3 Si8 Au20'
_cell_volume   644.42491947
_cell_formula_units_Z   1
loop_
 _symmetry_equiv_pos_site_id
 _symmetry_equiv_pos_as_xyz
  1  'x, y, z'
loop_
 _atom_site_type_symbol
 _atom_site_label
 _atom_site_symmetry_multiplicity
 _atom_site_fract_x
 _atom_site_fract_y
 _atom_site_fract_z
 _atom_site_occupancy
  K  K0  1  0.250000  0.247384  0.117701  1
  Sr  Sr1  1  0.250000  0.747366  0.379848  1
  Sr  Sr2  1  0.750000  0.751326  0.878775  1
  Sr  Sr3  1  0.750000  0.252261  0.621151  1
  Si  Si4  1  0.250000  0.040651  0.630113  1
  Si  Si5  1  0.250000  0.540702  0.874364  1
  Si  Si6  1  0.750000  0.961325  0.372341  1
  Si  Si7  1  0.750000  0.460476  0.124797  1
  Si  Si8  1  0.250000  0.332381  0.457346  1
  Si  Si9  1  0.250000  0.833259  0.041468  1
  Si  Si10  1  0.750000  0.666570  0.541693  1
  Si  Si11  1  0.750000  0.166053  0.960447  1
  Au  Au12  1  0.048134  0.101187  0.396193  1
  Au  Au13  1  0.452218  0.601817  0.106038  1
  Au  Au14  1  0.550087  0.899117  0.607301  1
  Au  Au15  1  0.948995  0.401926  0.892061  1
  Au  Au16  1  0.949913  0.899117  0.607301  1
  Au  Au17  1  0.551005  0.401926  0.892061  1
  Au  Au18  1  0.451866  0.101187  0.396193  1
  Au  Au19  1  0.047782  0.601817  0.106038  1
  Au  Au20  1  0.027791  0.064533  0.857557  1
  Au  Au21  1  0.464687  0.567393  0.638327  1
  Au  Au22  1  0.536184  0.931219  0.138669  1
  Au  Au23  1  0.962747  0.431276  0.362858  1
  Au  Au24  1  0.963816  0.931219  0.138669  1
  Au  Au25  1  0.537253  0.431276  0.362858  1
  Au  Au26  1  0.472209  0.064533  0.857557  1
  Au  Au27  1  0.035313  0.567393  0.638327  1
  Au  Au28  1  0.250000  0.301190  0.701692  1
  Au  Au29  1  0.250000  0.799991  0.798402  1
  Au  Au30  1  0.750000  0.700316  0.300087  1
  Au  Au31  1  0.750000  0.201819  0.201768  1
