# generated using pymatgen
data_Tb2Mn6Co6P7
_symmetry_space_group_name_H-M   'P 1'
_cell_length_a   9.09726800
_cell_length_b   9.09726870
_cell_length_c   3.64913500
_cell_angle_alpha   90.00000000
_cell_angle_beta   90.00000000
_cell_angle_gamma   119.99999746
_symmetry_Int_Tables_number   1
_chemical_formula_structural   Tb2Mn6Co6P7
_chemical_formula_sum   'Tb2 Mn6 Co6 P7'
_cell_volume   261.54268898
_cell_formula_units_Z   1
loop_
 _symmetry_equiv_pos_site_id
 _symmetry_equiv_pos_as_xyz
  1  'x, y, z'
loop_
 _atom_site_type_symbol
 _atom_site_label
 _atom_site_symmetry_multiplicity
 _atom_site_fract_x
 _atom_site_fract_y
 _atom_site_fract_z
 _atom_site_occupancy
  Tb  Tb0  1  0.666667  0.333333  0.000000  1
  Tb  Tb1  1  0.333333  0.666667  0.500000  1
  Mn  Mn2  1  0.276450  0.119951  0.000000  1
  Mn  Mn3  1  0.843501  0.723550  0.000000  1
  Mn  Mn4  1  0.880049  0.156499  0.000000  1
  Mn  Mn5  1  0.104051  0.880695  0.500000  1
  Mn  Mn6  1  0.776643  0.895949  0.500000  1
  Mn  Mn7  1  0.119305  0.223357  0.500000  1
  Co  Co8  1  0.059531  0.630478  0.000000  1
  Co  Co9  1  0.570947  0.940469  0.000000  1
  Co  Co10  1  0.369522  0.429053  0.000000  1
  Co  Co11  1  0.438107  0.050298  0.500000  1
  Co  Co12  1  0.612192  0.561893  0.500000  1
  Co  Co13  1  0.949702  0.387808  0.500000  1
  P  P14  1  0.301276  0.889299  0.000000  1
  P  P15  1  0.588023  0.698724  0.000000  1
  P  P16  1  0.110701  0.411977  0.000000  1
  P  P17  1  0.405831  0.288205  0.500000  1
  P  P18  1  0.882374  0.594169  0.500000  1
  P  P19  1  0.711795  0.117626  0.500000  1
  P  P20  1  0.000000  0.000000  0.000000  1
