# generated using pymatgen
data_BaLiMgCoH8
_symmetry_space_group_name_H-M   'P 1'
_cell_length_a   4.53095000
_cell_length_b   4.53094967
_cell_length_c   6.99860500
_cell_angle_alpha   90.00000000
_cell_angle_beta   90.00000000
_cell_angle_gamma   119.99998780
_symmetry_Int_Tables_number   1
_chemical_formula_structural   BaLiMgCoH8
_chemical_formula_sum   'Ba1 Li1 Mg1 Co1 H8'
_cell_volume   124.42873202
_cell_formula_units_Z   1
loop_
 _symmetry_equiv_pos_site_id
 _symmetry_equiv_pos_as_xyz
  1  'x, y, z'
loop_
 _atom_site_type_symbol
 _atom_site_label
 _atom_site_symmetry_multiplicity
 _atom_site_fract_x
 _atom_site_fract_y
 _atom_site_fract_z
 _atom_site_occupancy
  Ba  Ba0  1  0.000000  0.000000  0.493694  1
  Li  Li1  1  0.333334  0.666667  0.120410  1
  Mg  Mg2  1  0.666667  0.333334  0.893582  1
  Co  Co3  1  0.000000  0.000000  0.993798  1
  H  H4  1  0.310415  0.155207  0.126976  1
  H  H5  1  0.844794  0.155207  0.126976  1
  H  H6  1  0.844793  0.689585  0.126976  1
  H  H7  1  0.333334  0.666667  0.392219  1
  H  H8  1  0.666667  0.333334  0.623000  1
  H  H9  1  0.159588  0.319176  0.867456  1
  H  H10  1  0.159588  0.840413  0.867456  1
  H  H11  1  0.680826  0.840413  0.867456  1
