# generated using pymatgen
data_Tb5(DyTe4)3
_symmetry_space_group_name_H-M   'P 1'
_cell_length_a   7.55964270
_cell_length_b   7.55729557
_cell_length_c   13.93079270
_cell_angle_alpha   100.52799575
_cell_angle_beta   100.53433978
_cell_angle_gamma   109.39074165
_symmetry_Int_Tables_number   1
_chemical_formula_structural   Tb5(DyTe4)3
_chemical_formula_sum   'Tb5 Dy3 Te12'
_cell_volume   712.19637680
_cell_formula_units_Z   1
loop_
 _symmetry_equiv_pos_site_id
 _symmetry_equiv_pos_as_xyz
  1  'x, y, z'
loop_
 _atom_site_type_symbol
 _atom_site_label
 _atom_site_symmetry_multiplicity
 _atom_site_fract_x
 _atom_site_fract_y
 _atom_site_fract_z
 _atom_site_occupancy
  Tb  Tb0  1  0.042329  0.792441  0.084220  1
  Tb  Tb1  1  0.624732  0.874739  0.249299  1
  Tb  Tb2  1  0.125145  0.375148  0.250478  1
  Tb  Tb3  1  0.207529  0.957639  0.415709  1
  Tb  Tb4  1  0.792627  0.042513  0.584582  1
  Dy  Dy5  1  0.874879  0.624891  0.749588  1
  Dy  Dy6  1  0.375161  0.125149  0.750493  1
  Dy  Dy7  1  0.957467  0.207343  0.915335  1
  Te  Te8  1  0.793485  0.043935  0.083908  1
  Te  Te9  1  0.291039  0.540105  0.083863  1
  Te  Te10  1  0.377250  0.127387  0.250367  1
  Te  Te11  1  0.872573  0.622793  0.249636  1
  Te  Te12  1  0.956367  0.206853  0.415673  1
  Te  Te13  1  0.459155  0.708236  0.415716  1
  Te  Te14  1  0.541131  0.292246  0.585140  1
  Te  Te15  1  0.044203  0.793532  0.585205  1
  Te  Te16  1  0.127110  0.376957  0.750887  1
  Te  Te17  1  0.623548  0.873358  0.750165  1
  Te  Te18  1  0.708504  0.458081  0.914892  1
  Te  Te19  1  0.205766  0.956654  0.914842  1
