# generated using pymatgen
data_K2EuBi5F20
_symmetry_space_group_name_H-M   'P 1'
_cell_length_a   8.53539620
_cell_length_b   8.52608877
_cell_length_c   8.52608909
_cell_angle_alpha   60.07223368
_cell_angle_beta   59.96388021
_cell_angle_gamma   59.96388240
_symmetry_Int_Tables_number   1
_chemical_formula_structural   K2EuBi5F20
_chemical_formula_sum   'K2 Eu1 Bi5 F20'
_cell_volume   438.74012541
_cell_formula_units_Z   1
loop_
 _symmetry_equiv_pos_site_id
 _symmetry_equiv_pos_as_xyz
  1  'x, y, z'
loop_
 _atom_site_type_symbol
 _atom_site_label
 _atom_site_symmetry_multiplicity
 _atom_site_fract_x
 _atom_site_fract_y
 _atom_site_fract_z
 _atom_site_occupancy
  K  K0  1  0.250294  0.249706  0.249706  1
  K  K1  1  0.750294  0.749706  0.749706  1
  Eu  Eu2  1  0.761449  0.238551  0.238551  1
  Bi  Bi3  1  0.241489  0.758511  0.758511  1
  Bi  Bi4  1  0.241934  0.758066  0.239950  1
  Bi  Bi5  1  0.760050  0.239950  0.758066  1
  Bi  Bi6  1  0.241934  0.239950  0.758066  1
  Bi  Bi7  1  0.760050  0.758066  0.239950  1
  F  F8  1  0.829918  0.500338  0.500338  1
  F  F9  1  0.169406  0.500338  0.500338  1
  F  F10  1  0.499662  0.830594  0.170082  1
  F  F11  1  0.499662  0.170082  0.830594  1
  F  F12  1  0.499982  0.829581  0.500018  1
  F  F13  1  0.170419  0.500018  0.829581  1
  F  F14  1  0.499142  0.171585  0.500858  1
  F  F15  1  0.828415  0.500858  0.171585  1
  F  F16  1  0.499982  0.500018  0.829581  1
  F  F17  1  0.499142  0.500858  0.171585  1
  F  F18  1  0.170419  0.829581  0.500018  1
  F  F19  1  0.828415  0.171585  0.500858  1
  F  F20  1  0.111780  0.115353  0.115353  1
  F  F21  1  0.884700  0.885161  0.885161  1
  F  F22  1  0.114839  0.115300  0.655023  1
  F  F23  1  0.114839  0.655023  0.115300  1
  F  F24  1  0.884647  0.888220  0.342486  1
  F  F25  1  0.884647  0.342486  0.888220  1
  F  F26  1  0.657514  0.115353  0.115353  1
  F  F27  1  0.344977  0.885161  0.885161  1
