# generated using pymatgen
data_YTh3(Ni2Ag)2
_symmetry_space_group_name_H-M   'P 1'
_cell_length_a   7.46644337
_cell_length_b   7.46644343
_cell_length_c   3.72060900
_cell_angle_alpha   90.00000000
_cell_angle_beta   90.00000000
_cell_angle_gamma   90.86809108
_symmetry_Int_Tables_number   1
_chemical_formula_structural   YTh3(Ni2Ag)2
_chemical_formula_sum   'Y1 Th3 Ni4 Ag2'
_cell_volume   207.39187477
_cell_formula_units_Z   1
loop_
 _symmetry_equiv_pos_site_id
 _symmetry_equiv_pos_as_xyz
  1  'x, y, z'
loop_
 _atom_site_type_symbol
 _atom_site_label
 _atom_site_symmetry_multiplicity
 _atom_site_fract_x
 _atom_site_fract_y
 _atom_site_fract_z
 _atom_site_occupancy
  Y  Y0  1  0.825531  0.674469  0.500000  1
  Th  Th1  1  0.675843  0.173625  0.500000  1
  Th  Th2  1  0.326375  0.824157  0.500000  1
  Th  Th3  1  0.172352  0.327648  0.500000  1
  Ni  Ni4  1  0.127821  0.620993  0.000000  1
  Ni  Ni5  1  0.879007  0.372179  0.000000  1
  Ni  Ni6  1  0.615806  0.884194  0.000000  1
  Ni  Ni7  1  0.373180  0.126820  0.000000  1
  Ag  Ag8  1  0.507884  0.503801  0.000000  1
  Ag  Ag9  1  0.996199  0.992116  0.000000  1
