# generated using pymatgen
data_AsPRuCl13
_symmetry_space_group_name_H-M   'P 1'
_cell_length_a   9.71926302
_cell_length_b   9.71926265
_cell_length_c   12.04204800
_cell_angle_alpha   90.00000000
_cell_angle_beta   90.00000000
_cell_angle_gamma   112.81820170
_symmetry_Int_Tables_number   1
_chemical_formula_structural   AsPRuCl13
_chemical_formula_sum   'As2 P2 Ru2 Cl26'
_cell_volume   1048.51691638
_cell_formula_units_Z   2
loop_
 _symmetry_equiv_pos_site_id
 _symmetry_equiv_pos_as_xyz
  1  'x, y, z'
loop_
 _atom_site_type_symbol
 _atom_site_label
 _atom_site_symmetry_multiplicity
 _atom_site_fract_x
 _atom_site_fract_y
 _atom_site_fract_z
 _atom_site_occupancy
  As  As0  1  0.555628  0.444372  0.849690  1
  As  As1  1  0.444372  0.555628  0.349690  1
  P  P2  1  0.143159  0.856841  0.032294  1
  P  P3  1  0.856841  0.143159  0.532294  1
  Ru  Ru4  1  0.789991  0.210009  0.996438  1
  Ru  Ru5  1  0.210009  0.789991  0.496438  1
  Cl  Cl6  1  0.234860  0.061375  0.088438  1
  Cl  Cl7  1  0.329796  0.670204  0.602079  1
  Cl  Cl8  1  0.688620  0.624764  0.372352  1
  Cl  Cl9  1  0.556784  0.443216  0.664220  1
  Cl  Cl10  1  0.999070  0.305767  0.108987  1
  Cl  Cl11  1  0.938625  0.765140  0.088438  1
  Cl  Cl12  1  0.258035  0.741965  0.082749  1
  Cl  Cl13  1  0.000930  0.694233  0.608987  1
  Cl  Cl14  1  0.061375  0.234860  0.588438  1
  Cl  Cl15  1  0.886076  0.420279  0.881475  1
  Cl  Cl16  1  0.694233  0.000930  0.108987  1
  Cl  Cl17  1  0.420279  0.886076  0.381475  1
  Cl  Cl18  1  0.375236  0.311380  0.372352  1
  Cl  Cl19  1  0.858467  0.141533  0.369536  1
  Cl  Cl20  1  0.311380  0.375236  0.872352  1
  Cl  Cl21  1  0.141533  0.858467  0.869536  1
  Cl  Cl22  1  0.624764  0.688620  0.872352  1
  Cl  Cl23  1  0.765140  0.938625  0.588438  1
  Cl  Cl24  1  0.091773  0.908227  0.386790  1
  Cl  Cl25  1  0.908227  0.091773  0.886790  1
  Cl  Cl26  1  0.443216  0.556784  0.164220  1
  Cl  Cl27  1  0.305767  0.999070  0.608987  1
  Cl  Cl28  1  0.579721  0.113924  0.881475  1
  Cl  Cl29  1  0.741965  0.258035  0.582749  1
  Cl  Cl30  1  0.670204  0.329796  0.102079  1
  Cl  Cl31  1  0.113924  0.579721  0.381475  1
