# generated using pymatgen
data_Pr8Be2ZnSi12Pd
_symmetry_space_group_name_H-M   'P 1'
_cell_length_a   8.11819800
_cell_length_b   8.11820172
_cell_length_c   8.69331800
_cell_angle_alpha   89.99998965
_cell_angle_beta   90.00001365
_cell_angle_gamma   119.99999189
_symmetry_Int_Tables_number   1
_chemical_formula_structural   Pr8Be2ZnSi12Pd
_chemical_formula_sum   'Pr8 Be2 Zn1 Si12 Pd1'
_cell_volume   496.17595185
_cell_formula_units_Z   1
loop_
 _symmetry_equiv_pos_site_id
 _symmetry_equiv_pos_as_xyz
  1  'x, y, z'
loop_
 _atom_site_type_symbol
 _atom_site_label
 _atom_site_symmetry_multiplicity
 _atom_site_fract_x
 _atom_site_fract_y
 _atom_site_fract_z
 _atom_site_occupancy
  Pr  Pr0  1  0.499646  0.500353  0.754279  1
  Pr  Pr1  1  0.499744  0.500256  0.245731  1
  Pr  Pr2  1  0.000707  0.500353  0.754279  1
  Pr  Pr3  1  0.000513  0.500256  0.245731  1
  Pr  Pr4  1  0.499646  0.999293  0.754279  1
  Pr  Pr5  1  0.499744  0.999487  0.245731  1
  Pr  Pr6  1  0.000000  0.000000  0.751611  1
  Pr  Pr7  1  0.000000  0.000000  0.248402  1
  Be  Be8  1  0.666667  0.333333  0.999184  1
  Be  Be9  1  0.333333  0.666667  0.000804  1
  Zn  Zn10  1  0.333333  0.666667  0.499717  1
  Si  Si11  1  0.827685  0.172315  0.000119  1
  Si  Si12  1  0.172059  0.827941  0.999972  1
  Si  Si13  1  0.344630  0.172315  0.000119  1
  Si  Si14  1  0.163703  0.836297  0.499919  1
  Si  Si15  1  0.655882  0.827941  0.999972  1
  Si  Si16  1  0.832074  0.167926  0.500101  1
  Si  Si17  1  0.827685  0.655370  0.000119  1
  Si  Si18  1  0.672593  0.836296  0.499919  1
  Si  Si19  1  0.172059  0.344118  0.999972  1
  Si  Si20  1  0.335852  0.167926  0.500101  1
  Si  Si21  1  0.163704  0.327407  0.499919  1
  Si  Si22  1  0.832074  0.664148  0.500101  1
  Pd  Pd23  1  0.666667  0.333333  0.499921  1
