# generated using pymatgen
data_Be3Nb8Si11Ni8
_symmetry_space_group_name_H-M   'P 1'
_cell_length_a   9.19331747
_cell_length_b   9.19200970
_cell_length_c   9.19331694
_cell_angle_alpha   93.65369692
_cell_angle_beta   94.75540586
_cell_angle_gamma   148.59468984
_symmetry_Int_Tables_number   1
_chemical_formula_structural   Be3Nb8Si11Ni8
_chemical_formula_sum   'Be3 Nb8 Si11 Ni8'
_cell_volume   389.66767777
_cell_formula_units_Z   1
loop_
 _symmetry_equiv_pos_site_id
 _symmetry_equiv_pos_as_xyz
  1  'x, y, z'
loop_
 _atom_site_type_symbol
 _atom_site_label
 _atom_site_symmetry_multiplicity
 _atom_site_fract_x
 _atom_site_fract_y
 _atom_site_fract_z
 _atom_site_occupancy
  Be  Be0  1  0.498755  0.097617  0.596327  1
  Be  Be1  1  0.498709  0.902383  0.401137  1
  Be  Be2  1  0.906326  0.500000  0.406326  1
  Nb  Nb3  1  0.135672  0.131531  0.267194  1
  Nb  Nb4  1  0.865480  0.868162  0.733660  1
  Nb  Nb5  1  0.865499  0.131838  0.997318  1
  Nb  Nb6  1  0.135662  0.868469  0.004141  1
  Nb  Nb7  1  0.500175  0.307329  0.807579  1
  Nb  Nb8  1  0.500250  0.692671  0.192846  1
  Nb  Nb9  1  0.694132  0.500000  0.194132  1
  Nb  Nb10  1  0.305001  0.500000  0.805001  1
  Si  Si11  1  0.086070  0.500000  0.586070  1
  Si  Si12  1  0.749389  0.749196  0.000188  1
  Si  Si13  1  0.250993  0.250804  0.000193  1
  Si  Si14  1  0.292994  0.292163  0.585180  1
  Si  Si15  1  0.707963  0.706486  0.414307  1
  Si  Si16  1  0.707821  0.293514  0.001477  1
  Si  Si17  1  0.293017  0.707837  0.000831  1
  Si  Si18  1  0.999010  0.300382  0.299103  1
  Si  Si19  1  0.998720  0.699618  0.698628  1
  Si  Si20  1  0.691031  0.000000  0.691031  1
  Si  Si21  1  0.316876  0.000000  0.316876  1
  Ni  Ni22  1  0.398319  0.900243  0.798103  1
  Ni  Ni23  1  0.101482  0.599416  0.201872  1
  Ni  Ni24  1  0.101432  0.899504  0.502220  1
  Ni  Ni25  1  0.398555  0.600420  0.498053  1
  Ni  Ni26  1  0.602457  0.400584  0.502067  1
  Ni  Ni27  1  0.897860  0.099757  0.498077  1
  Ni  Ni28  1  0.897633  0.399580  0.798134  1
  Ni  Ni29  1  0.602717  0.100496  0.201929  1
