# generated using pymatgen
data_Rb2Bi4Te7
_symmetry_space_group_name_H-M   'P 1'
_cell_length_a   4.53302900
_cell_length_b   14.04870582
_cell_length_c   16.31968347
_cell_angle_alpha   87.14898288
_cell_angle_beta   90.00000000
_cell_angle_gamma   90.00000000
_symmetry_Int_Tables_number   1
_chemical_formula_structural   Rb2Bi4Te7
_chemical_formula_sum   'Rb4 Bi8 Te14'
_cell_volume   1038.00313147
_cell_formula_units_Z   2
loop_
 _symmetry_equiv_pos_site_id
 _symmetry_equiv_pos_as_xyz
  1  'x, y, z'
loop_
 _atom_site_type_symbol
 _atom_site_label
 _atom_site_symmetry_multiplicity
 _atom_site_fract_x
 _atom_site_fract_y
 _atom_site_fract_z
 _atom_site_occupancy
  Rb  Rb0  1  0.250000  0.565472  0.812603  1
  Rb  Rb1  1  0.750000  0.434528  0.187397  1
  Rb  Rb2  1  0.750000  0.818933  0.629263  1
  Rb  Rb3  1  0.250000  0.181067  0.370737  1
  Bi  Bi4  1  0.250000  0.836088  0.278272  1
  Bi  Bi5  1  0.750000  0.163912  0.721728  1
  Bi  Bi6  1  0.750000  0.609946  0.431148  1
  Bi  Bi7  1  0.250000  0.390054  0.568852  1
  Bi  Bi8  1  0.750000  0.729938  0.048619  1
  Bi  Bi9  1  0.250000  0.270062  0.951381  1
  Bi  Bi10  1  0.250000  0.942109  0.876456  1
  Bi  Bi11  1  0.750000  0.057891  0.123544  1
  Te  Te12  1  0.250000  0.588538  0.035827  1
  Te  Te13  1  0.750000  0.411462  0.964173  1
  Te  Te14  1  0.750000  0.994498  0.303060  1
  Te  Te15  1  0.250000  0.005502  0.696940  1
  Te  Te16  1  0.750000  0.691168  0.241406  1
  Te  Te17  1  0.250000  0.308832  0.758594  1
  Te  Te18  1  0.750000  0.787347  0.858278  1
  Te  Te19  1  0.250000  0.212653  0.141722  1
  Te  Te20  1  0.250000  0.904542  0.084666  1
  Te  Te21  1  0.750000  0.095458  0.915334  1
  Te  Te22  1  0.250000  0.762146  0.459981  1
  Te  Te23  1  0.750000  0.237854  0.540019  1
  Te  Te24  1  0.250000  0.459308  0.387527  1
  Te  Te25  1  0.750000  0.540692  0.612473  1
