# generated using pymatgen
data_Ho16Lu4Si15Au
_symmetry_space_group_name_H-M   'P 1'
_cell_length_a   7.37051447
_cell_length_b   7.63139408
_cell_length_c   14.53282894
_cell_angle_alpha   89.88100839
_cell_angle_beta   89.47877961
_cell_angle_gamma   90.16135917
_symmetry_Int_Tables_number   1
_chemical_formula_structural   Ho16Lu4Si15Au
_chemical_formula_sum   'Ho16 Lu4 Si15 Au1'
_cell_volume   817.39352518
_cell_formula_units_Z   1
loop_
 _symmetry_equiv_pos_site_id
 _symmetry_equiv_pos_as_xyz
  1  'x, y, z'
loop_
 _atom_site_type_symbol
 _atom_site_label
 _atom_site_symmetry_multiplicity
 _atom_site_fract_x
 _atom_site_fract_y
 _atom_site_fract_z
 _atom_site_occupancy
  Ho  Ho0  1  0.975627  0.820382  0.100702  1
  Ho  Ho1  1  0.472569  0.683625  0.401323  1
  Ho  Ho2  1  0.522894  0.318546  0.900250  1
  Ho  Ho3  1  0.028588  0.181987  0.598158  1
  Ho  Ho4  1  0.027482  0.179023  0.900411  1
  Ho  Ho5  1  0.528364  0.317104  0.597843  1
  Ho  Ho6  1  0.476486  0.681756  0.100785  1
  Ho  Ho7  1  0.970665  0.817142  0.400476  1
  Ho  Ho8  1  0.676050  0.821814  0.877072  1
  Ho  Ho9  1  0.180463  0.680147  0.621683  1
  Ho  Ho10  1  0.820370  0.326406  0.123771  1
  Ho  Ho11  1  0.318074  0.177732  0.376690  1
  Ho  Ho12  1  0.322775  0.178183  0.124268  1
  Ho  Ho13  1  0.820281  0.321124  0.377019  1
  Ho  Ho14  1  0.179573  0.674662  0.877204  1
  Ho  Ho15  1  0.681397  0.821319  0.622244  1
  Lu  Lu16  1  0.649411  0.991639  0.249982  1
  Lu  Lu17  1  0.151662  0.511011  0.248492  1
  Lu  Lu18  1  0.847334  0.488450  0.751018  1
  Lu  Lu19  1  0.349121  0.011383  0.750189  1
  Si  Si20  1  0.768801  0.631513  0.252553  1
  Si  Si21  1  0.268921  0.870676  0.251291  1
  Si  Si22  1  0.731782  0.126681  0.748540  1
  Si  Si23  1  0.229432  0.371430  0.746802  1
  Si  Si24  1  0.019780  0.104314  0.250281  1
  Si  Si25  1  0.522190  0.396111  0.252343  1
  Si  Si26  1  0.475567  0.604858  0.747274  1
  Si  Si27  1  0.978342  0.893787  0.748194  1
  Si  Si28  1  0.353409  0.971953  0.540326  1
  Si  Si29  1  0.650666  0.028903  0.042147  1
  Si  Si30  1  0.148052  0.470236  0.459683  1
  Si  Si31  1  0.160041  0.471520  0.042965  1
  Si  Si32  1  0.646373  0.028938  0.458976  1
  Si  Si33  1  0.349948  0.968602  0.961307  1
  Si  Si34  1  0.853647  0.529572  0.539665  1
  Au  Au35  1  0.843865  0.527469  0.958070  1
