# generated using pymatgen
data_Ce4AlSiRh11
_symmetry_space_group_name_H-M   'P 1'
_cell_length_a   7.22592474
_cell_length_b   7.22592557
_cell_length_c   7.22592557
_cell_angle_alpha   107.79698688
_cell_angle_beta   107.79698619
_cell_angle_gamma   112.87422718
_symmetry_Int_Tables_number   1
_chemical_formula_structural   Ce4AlSiRh11
_chemical_formula_sum   'Ce4 Al1 Si1 Rh11'
_cell_volume   289.66807433
_cell_formula_units_Z   1
loop_
 _symmetry_equiv_pos_site_id
 _symmetry_equiv_pos_as_xyz
  1  'x, y, z'
loop_
 _atom_site_type_symbol
 _atom_site_label
 _atom_site_symmetry_multiplicity
 _atom_site_fract_x
 _atom_site_fract_y
 _atom_site_fract_z
 _atom_site_occupancy
  Ce  Ce0  1  0.014410  0.985590  0.500000  1
  Ce  Ce1  1  0.014410  0.514410  0.028821  1
  Ce  Ce2  1  0.485590  0.985590  0.971179  1
  Ce  Ce3  1  0.485590  0.514410  0.500000  1
  Al  Al4  1  0.750000  0.250000  0.500000  1
  Si  Si5  1  0.000000  0.000000  0.000000  1
  Rh  Rh6  1  0.743918  0.485814  0.258104  1
  Rh  Rh7  1  0.514186  0.256082  0.741896  1
  Rh  Rh8  1  0.227711  0.485814  0.741896  1
  Rh  Rh9  1  0.250000  0.750000  0.500000  1
  Rh  Rh10  1  0.514186  0.772289  0.258104  1
  Rh  Rh11  1  0.713518  0.713518  0.000000  1
  Rh  Rh12  1  0.297591  0.020896  0.276695  1
  Rh  Rh13  1  0.979104  0.255799  0.276695  1
  Rh  Rh14  1  0.286482  0.286482  0.000000  1
  Rh  Rh15  1  0.744201  0.020896  0.723305  1
  Rh  Rh16  1  0.979104  0.702409  0.723305  1
