# generated using pymatgen
data_Pu2Cl5
_symmetry_space_group_name_H-M   'P 1'
_cell_length_a   3.97377700
_cell_length_b   7.40314967
_cell_length_c   12.64541300
_cell_angle_alpha   89.04160351
_cell_angle_beta   90.00000000
_cell_angle_gamma   90.00000000
_symmetry_Int_Tables_number   1
_chemical_formula_structural   Pu2Cl5
_chemical_formula_sum   'Pu4 Cl10'
_cell_volume   371.95660849
_cell_formula_units_Z   2
loop_
 _symmetry_equiv_pos_site_id
 _symmetry_equiv_pos_as_xyz
  1  'x, y, z'
loop_
 _atom_site_type_symbol
 _atom_site_label
 _atom_site_symmetry_multiplicity
 _atom_site_fract_x
 _atom_site_fract_y
 _atom_site_fract_z
 _atom_site_occupancy
  Pu  Pu0  1  0.250000  0.561327  0.653767  1
  Pu  Pu1  1  0.750000  0.438673  0.346233  1
  Pu  Pu2  1  0.250000  0.061559  0.153148  1
  Pu  Pu3  1  0.750000  0.938441  0.846852  1
  Cl  Cl4  1  0.250000  0.306099  0.483964  1
  Cl  Cl5  1  0.750000  0.693901  0.516036  1
  Cl  Cl6  1  0.250000  0.944278  0.681355  1
  Cl  Cl7  1  0.750000  0.055722  0.318645  1
  Cl  Cl8  1  0.250000  0.657308  0.869724  1
  Cl  Cl9  1  0.750000  0.342692  0.130276  1
  Cl  Cl10  1  0.250000  0.163126  0.933622  1
  Cl  Cl11  1  0.750000  0.836874  0.066378  1
  Cl  Cl12  1  0.250000  0.666827  0.271547  1
  Cl  Cl13  1  0.750000  0.333173  0.728453  1
