# generated using pymatgen
data_TbTm3Co12(Ni2P3)4
_symmetry_space_group_name_H-M   'P 1'
_cell_length_a   3.66481000
_cell_length_b   10.23724345
_cell_length_c   11.81317552
_cell_angle_alpha   89.96589489
_cell_angle_beta   90.00000000
_cell_angle_gamma   90.00000000
_symmetry_Int_Tables_number   1
_chemical_formula_structural   TbTm3Co12(Ni2P3)4
_chemical_formula_sum   'Tb1 Tm3 Co12 Ni8 P12'
_cell_volume   443.20135059
_cell_formula_units_Z   1
loop_
 _symmetry_equiv_pos_site_id
 _symmetry_equiv_pos_as_xyz
  1  'x, y, z'
loop_
 _atom_site_type_symbol
 _atom_site_label
 _atom_site_symmetry_multiplicity
 _atom_site_fract_x
 _atom_site_fract_y
 _atom_site_fract_z
 _atom_site_occupancy
  Tb  Tb0  1  0.750000  0.081197  0.796038  1
  Tm  Tm1  1  0.250000  0.580783  0.703783  1
  Tm  Tm2  1  0.250000  0.918823  0.203730  1
  Tm  Tm3  1  0.750000  0.419314  0.296296  1
  Co  Co4  1  0.250000  0.222829  0.176261  1
  Co  Co5  1  0.250000  0.278487  0.675739  1
  Co  Co6  1  0.750000  0.777104  0.824098  1
  Co  Co7  1  0.750000  0.722306  0.323703  1
  Co  Co8  1  0.250000  0.879098  0.697248  1
  Co  Co9  1  0.250000  0.619109  0.198621  1
  Co  Co10  1  0.750000  0.119560  0.301436  1
  Co  Co11  1  0.750000  0.381869  0.801998  1
  Co  Co12  1  0.250000  0.467448  0.932968  1
  Co  Co13  1  0.250000  0.033286  0.431312  1
  Co  Co14  1  0.750000  0.533853  0.067912  1
  Co  Co15  1  0.750000  0.965578  0.566281  1
  Ni  Ni16  1  0.250000  0.713307  0.991216  1
  Ni  Ni17  1  0.250000  0.786351  0.489024  1
  Ni  Ni18  1  0.750000  0.287322  0.010510  1
  Ni  Ni19  1  0.750000  0.213172  0.510339  1
  Ni  Ni20  1  0.250000  0.408503  0.484197  1
  Ni  Ni21  1  0.250000  0.091170  0.986171  1
  Ni  Ni22  1  0.750000  0.591468  0.515597  1
  Ni  Ni23  1  0.750000  0.907844  0.016257  1
  P  P24  1  0.250000  0.420786  0.113774  1
  P  P25  1  0.250000  0.079483  0.611615  1
  P  P26  1  0.750000  0.579695  0.886810  1
  P  P27  1  0.750000  0.920273  0.385900  1
  P  P28  1  0.250000  0.272215  0.865895  1
  P  P29  1  0.250000  0.229869  0.365071  1
  P  P30  1  0.750000  0.729590  0.135103  1
  P  P31  1  0.750000  0.769928  0.634749  1
  P  P32  1  0.250000  0.604572  0.387437  1
  P  P33  1  0.250000  0.893654  0.887686  1
  P  P34  1  0.750000  0.395361  0.612705  1
  P  P35  1  0.750000  0.104791  0.112520  1
