# generated using pymatgen
data_TbNd3LuPb3
_symmetry_space_group_name_H-M   'P 1'
_cell_length_a   9.25034000
_cell_length_b   9.25033962
_cell_length_c   6.75154200
_cell_angle_alpha   90.00000000
_cell_angle_beta   90.00000000
_cell_angle_gamma   120.00000134
_symmetry_Int_Tables_number   1
_chemical_formula_structural   TbNd3LuPb3
_chemical_formula_sum   'Tb2 Nd6 Lu2 Pb6'
_cell_volume   500.32127801
_cell_formula_units_Z   2
loop_
 _symmetry_equiv_pos_site_id
 _symmetry_equiv_pos_as_xyz
  1  'x, y, z'
loop_
 _atom_site_type_symbol
 _atom_site_label
 _atom_site_symmetry_multiplicity
 _atom_site_fract_x
 _atom_site_fract_y
 _atom_site_fract_z
 _atom_site_occupancy
  Tb  Tb0  1  0.666667  0.333333  0.000000  1
  Tb  Tb1  1  0.333333  0.666667  0.000000  1
  Nd  Nd2  1  0.759656  0.759656  0.749305  1
  Nd  Nd3  1  0.240344  0.000000  0.749305  1
  Nd  Nd4  1  0.000000  0.240344  0.749305  1
  Nd  Nd5  1  0.240344  0.240344  0.250695  1
  Nd  Nd6  1  0.759656  0.000000  0.250695  1
  Nd  Nd7  1  0.000000  0.759656  0.250695  1
  Lu  Lu8  1  0.333333  0.666667  0.500000  1
  Lu  Lu9  1  0.666667  0.333333  0.500000  1
  Pb  Pb10  1  0.398123  0.398123  0.747312  1
  Pb  Pb11  1  0.601877  0.000000  0.747312  1
  Pb  Pb12  1  0.000000  0.601877  0.747312  1
  Pb  Pb13  1  0.601877  0.601877  0.252688  1
  Pb  Pb14  1  0.398123  0.000000  0.252688  1
  Pb  Pb15  1  0.000000  0.398123  0.252688  1
