# generated using pymatgen
data_Y3Er(Al8Pd3)3
_symmetry_space_group_name_H-M   'P 1'
_cell_length_a   7.54511812
_cell_length_b   7.57652544
_cell_length_c   13.19101771
_cell_angle_alpha   84.57844582
_cell_angle_beta   79.11351071
_cell_angle_gamma   59.99808302
_symmetry_Int_Tables_number   1
_chemical_formula_structural   Y3Er(Al8Pd3)3
_chemical_formula_sum   'Y3 Er1 Al24 Pd9'
_cell_volume   641.28282739
_cell_formula_units_Z   1
loop_
 _symmetry_equiv_pos_site_id
 _symmetry_equiv_pos_as_xyz
  1  'x, y, z'
loop_
 _atom_site_type_symbol
 _atom_site_label
 _atom_site_symmetry_multiplicity
 _atom_site_fract_x
 _atom_site_fract_y
 _atom_site_fract_z
 _atom_site_occupancy
  Y  Y0  1  0.393255  0.168745  0.808704  1
  Y  Y1  1  0.606781  0.831299  0.191347  1
  Y  Y2  1  0.733423  0.498211  0.808728  1
  Er  Er3  1  0.266217  0.501735  0.191852  1
  Al  Al4  1  0.684727  0.833730  0.944920  1
  Al  Al5  1  0.315227  0.166864  0.055548  1
  Al  Al6  1  0.146203  0.833044  0.561321  1
  Al  Al7  1  0.853894  0.166913  0.438481  1
  Al  Al8  1  0.479270  0.166684  0.558855  1
  Al  Al9  1  0.520763  0.833342  0.440979  1
  Al  Al10  1  0.216719  0.165575  0.329725  1
  Al  Al11  1  0.783485  0.834642  0.669821  1
  Al  Al12  1  0.437040  0.506744  0.669914  1
  Al  Al13  1  0.562825  0.493243  0.329581  1
  Al  Al14  1  0.109378  0.159443  0.668883  1
  Al  Al15  1  0.891071  0.840277  0.330639  1
  Al  Al16  1  0.352186  0.499920  0.945512  1
  Al  Al17  1  0.646739  0.500220  0.055450  1
  Al  Al18  1  0.015177  0.167238  0.954560  1
  Al  Al19  1  0.985088  0.832235  0.046055  1
  Al  Al20  1  0.186990  0.499417  0.440748  1
  Al  Al21  1  0.813188  0.500577  0.558959  1
  Al  Al22  1  0.733227  0.164692  0.183715  1
  Al  Al23  1  0.266133  0.835981  0.816300  1
  Al  Al24  1  0.061706  0.630963  0.815120  1
  Al  Al25  1  0.939041  0.368910  0.184875  1
  Al  Al26  1  0.855479  0.041502  0.815973  1
  Al  Al27  1  0.144533  0.957774  0.183981  1
  Pd  Pd28  1  0.119803  0.492512  0.638258  1
  Pd  Pd29  1  0.880573  0.507559  0.361462  1
  Pd  Pd30  1  0.657131  0.171278  0.999935  1
  Pd  Pd31  1  0.342825  0.828756  0.000251  1
  Pd  Pd32  1  0.537924  0.167126  0.361408  1
  Pd  Pd33  1  0.461913  0.833090  0.638317  1
  Pd  Pd34  1  0.778310  0.174698  0.637522  1
  Pd  Pd35  1  0.221864  0.824997  0.362183  1
  Pd  Pd36  1  0.999895  0.500063  0.000120  1
