# generated using pymatgen
data_Sr4Si5Rh9
_symmetry_space_group_name_H-M   'P 1'
_cell_length_a   11.66720801
_cell_length_b   11.66720737
_cell_length_c   11.66720801
_cell_angle_alpha   28.61848769
_cell_angle_beta   28.61849415
_cell_angle_gamma   28.61849165
_symmetry_Int_Tables_number   1
_chemical_formula_structural   Sr4Si5Rh9
_chemical_formula_sum   'Sr4 Si5 Rh9'
_cell_volume   322.09463124
_cell_formula_units_Z   1
loop_
 _symmetry_equiv_pos_site_id
 _symmetry_equiv_pos_as_xyz
  1  'x, y, z'
loop_
 _atom_site_type_symbol
 _atom_site_label
 _atom_site_symmetry_multiplicity
 _atom_site_fract_x
 _atom_site_fract_y
 _atom_site_fract_z
 _atom_site_occupancy
  Sr  Sr0  1  0.949315  0.949315  0.949315  1
  Sr  Sr1  1  0.851818  0.851818  0.851818  1
  Sr  Sr2  1  0.148182  0.148182  0.148182  1
  Sr  Sr3  1  0.050685  0.050685  0.050685  1
  Si  Si4  1  0.278284  0.278284  0.278284  1
  Si  Si5  1  0.500000  0.500000  0.500000  1
  Si  Si6  1  0.386891  0.386891  0.386891  1
  Si  Si7  1  0.721716  0.721716  0.721716  1
  Si  Si8  1  0.613109  0.613109  0.613109  1
  Rh  Rh9  1  0.601720  0.601720  0.112464  1
  Rh  Rh10  1  0.887536  0.398280  0.398280  1
  Rh  Rh11  1  0.500000  0.000000  0.500000  1
  Rh  Rh12  1  0.398280  0.887536  0.398280  1
  Rh  Rh13  1  0.500000  0.500000  0.000000  1
  Rh  Rh14  1  0.112464  0.601720  0.601720  1
  Rh  Rh15  1  0.000000  0.500000  0.500000  1
  Rh  Rh16  1  0.398280  0.398280  0.887536  1
  Rh  Rh17  1  0.601720  0.112464  0.601720  1
