# generated using pymatgen
data_Na3Sr(Al2Au3)4
_symmetry_space_group_name_H-M   'P 1'
_cell_length_a   5.48219000
_cell_length_b   7.06100034
_cell_length_c   13.18456283
_cell_angle_alpha   90.44467505
_cell_angle_beta   90.00000000
_cell_angle_gamma   90.00000000
_symmetry_Int_Tables_number   1
_chemical_formula_structural   Na3Sr(Al2Au3)4
_chemical_formula_sum   'Na3 Sr1 Al8 Au12'
_cell_volume   510.35569996
_cell_formula_units_Z   1
loop_
 _symmetry_equiv_pos_site_id
 _symmetry_equiv_pos_as_xyz
  1  'x, y, z'
loop_
 _atom_site_type_symbol
 _atom_site_label
 _atom_site_symmetry_multiplicity
 _atom_site_fract_x
 _atom_site_fract_y
 _atom_site_fract_z
 _atom_site_occupancy
  Na  Na0  1  0.250000  0.650209  0.913594  1
  Na  Na1  1  0.250000  0.840894  0.406100  1
  Na  Na2  1  0.750000  0.348629  0.087027  1
  Sr  Sr3  1  0.750000  0.143484  0.578638  1
  Al  Al4  1  0.998184  0.138899  0.847014  1
  Al  Al5  1  0.501826  0.360956  0.345615  1
  Al  Al6  1  0.499564  0.858654  0.154117  1
  Al  Al7  1  0.000840  0.641678  0.654062  1
  Al  Al8  1  0.000436  0.858654  0.154117  1
  Al  Al9  1  0.499160  0.641678  0.654062  1
  Al  Al10  1  0.501816  0.138899  0.847014  1
  Al  Al11  1  0.998174  0.360956  0.345615  1
  Au  Au12  1  0.250000  0.349501  0.717907  1
  Au  Au13  1  0.250000  0.151065  0.218225  1
  Au  Au14  1  0.750000  0.654623  0.282245  1
  Au  Au15  1  0.750000  0.841287  0.785508  1
  Au  Au16  1  0.250000  0.941366  0.697193  1
  Au  Au17  1  0.250000  0.560845  0.198506  1
  Au  Au18  1  0.750000  0.057697  0.314043  1
  Au  Au19  1  0.750000  0.434605  0.801284  1
  Au  Au20  1  0.250000  0.423762  0.505651  1
  Au  Au21  1  0.250000  0.076082  0.005563  1
  Au  Au22  1  0.750000  0.616012  0.492000  1
  Au  Au23  1  0.750000  0.909564  0.994898  1
