# generated using pymatgen
data_Y5Ho3(Sc3Sn4)4
_symmetry_space_group_name_H-M   'P 1'
_cell_length_a   7.71034975
_cell_length_b   7.91287106
_cell_length_c   14.83985800
_cell_angle_alpha   89.99942797
_cell_angle_beta   89.97469737
_cell_angle_gamma   90.00714645
_symmetry_Int_Tables_number   1
_chemical_formula_structural   Y5Ho3(Sc3Sn4)4
_chemical_formula_sum   'Y5 Ho3 Sc12 Sn16'
_cell_volume   905.39453195
_cell_formula_units_Z   1
loop_
 _symmetry_equiv_pos_site_id
 _symmetry_equiv_pos_as_xyz
  1  'x, y, z'
loop_
 _atom_site_type_symbol
 _atom_site_label
 _atom_site_symmetry_multiplicity
 _atom_site_fract_x
 _atom_site_fract_y
 _atom_site_fract_z
 _atom_site_occupancy
  Y  Y0  1  0.994473  0.176765  0.094096  1
  Y  Y1  1  0.005604  0.823219  0.905873  1
  Y  Y2  1  0.505563  0.676753  0.906022  1
  Y  Y3  1  0.005532  0.823179  0.593870  1
  Y  Y4  1  0.494470  0.323242  0.094095  1
  Ho  Ho5  1  0.994245  0.177080  0.405935  1
  Ho  Ho6  1  0.494064  0.323079  0.405937  1
  Ho  Ho7  1  0.505870  0.676922  0.593958  1
  Sc  Sc8  1  0.166539  0.495648  0.749874  1
  Sc  Sc9  1  0.833508  0.504289  0.250163  1
  Sc  Sc10  1  0.333528  0.995724  0.250146  1
  Sc  Sc11  1  0.666456  0.004320  0.749872  1
  Sc  Sc12  1  0.337420  0.161365  0.627120  1
  Sc  Sc13  1  0.662742  0.838650  0.372845  1
  Sc  Sc14  1  0.162802  0.661164  0.372837  1
  Sc  Sc15  1  0.662891  0.838818  0.127391  1
  Sc  Sc16  1  0.837376  0.338754  0.627040  1
  Sc  Sc17  1  0.337237  0.161215  0.872704  1
  Sc  Sc18  1  0.837138  0.338797  0.872751  1
  Sc  Sc19  1  0.162885  0.661216  0.127368  1
  Sn  Sn20  1  0.029036  0.124494  0.749913  1
  Sn  Sn21  1  0.971069  0.875754  0.250214  1
  Sn  Sn22  1  0.471006  0.624240  0.250173  1
  Sn  Sn23  1  0.529042  0.375739  0.749841  1
  Sn  Sn24  1  0.309044  0.849361  0.749631  1
  Sn  Sn25  1  0.691246  0.150685  0.250533  1
  Sn  Sn26  1  0.191207  0.349339  0.250497  1
  Sn  Sn27  1  0.808371  0.650307  0.749796  1
  Sn  Sn28  1  0.182307  0.457323  0.542268  1
  Sn  Sn29  1  0.817678  0.541908  0.457455  1
  Sn  Sn30  1  0.318349  0.957836  0.457444  1
  Sn  Sn31  1  0.818895  0.542707  0.042529  1
  Sn  Sn32  1  0.681186  0.042788  0.542257  1
  Sn  Sn33  1  0.181141  0.457330  0.957522  1
  Sn  Sn34  1  0.681174  0.042626  0.957523  1
  Sn  Sn35  1  0.318907  0.957362  0.042509  1
