# generated using pymatgen
data_Ca6Zn5GaN2
_symmetry_space_group_name_H-M   'P 1'
_cell_length_a   9.23544568
_cell_length_b   9.21802601
_cell_length_c   9.21802561
_cell_angle_alpha   59.91346173
_cell_angle_beta   59.93746565
_cell_angle_gamma   59.93747103
_symmetry_Int_Tables_number   1
_chemical_formula_structural   Ca6Zn5GaN2
_chemical_formula_sum   'Ca12 Zn10 Ga2 N4'
_cell_volume   554.01722869
_cell_formula_units_Z   2
loop_
 _symmetry_equiv_pos_site_id
 _symmetry_equiv_pos_as_xyz
  1  'x, y, z'
loop_
 _atom_site_type_symbol
 _atom_site_label
 _atom_site_symmetry_multiplicity
 _atom_site_fract_x
 _atom_site_fract_y
 _atom_site_fract_z
 _atom_site_occupancy
  Ca  Ca0  1  0.444767  0.445107  0.054716  1
  Ca  Ca1  1  0.055411  0.445107  0.054716  1
  Ca  Ca2  1  0.444290  0.055710  0.055710  1
  Ca  Ca3  1  0.055411  0.054716  0.445107  1
  Ca  Ca4  1  0.444767  0.054716  0.445107  1
  Ca  Ca5  1  0.054359  0.445641  0.445641  1
  Ca  Ca6  1  0.804645  0.804086  0.195178  1
  Ca  Ca7  1  0.196091  0.804086  0.195178  1
  Ca  Ca8  1  0.804703  0.195297  0.195297  1
  Ca  Ca9  1  0.196091  0.195178  0.804086  1
  Ca  Ca10  1  0.804645  0.195178  0.804086  1
  Ca  Ca11  1  0.195937  0.804063  0.804063  1
  Zn  Zn12  1  0.528483  0.824154  0.824154  1
  Zn  Zn13  1  0.823210  0.824154  0.824154  1
  Zn  Zn14  1  0.426303  0.424753  0.722641  1
  Zn  Zn15  1  0.426303  0.722641  0.424753  1
  Zn  Zn16  1  0.719958  0.426227  0.426227  1
  Zn  Zn17  1  0.427587  0.426227  0.426227  1
  Zn  Zn18  1  0.624168  0.624131  0.127533  1
  Zn  Zn19  1  0.624168  0.127533  0.624131  1
  Zn  Zn20  1  0.128111  0.623902  0.623902  1
  Zn  Zn21  1  0.624085  0.623902  0.623902  1
  Ga  Ga22  1  0.823762  0.823822  0.528656  1
  Ga  Ga23  1  0.823762  0.528656  0.823822  1
  N  N24  1  0.124824  0.125142  0.625210  1
  N  N25  1  0.124824  0.625210  0.125142  1
  N  N26  1  0.625161  0.125333  0.125333  1
  N  N27  1  0.124173  0.125333  0.125333  1
