# generated using pymatgen
data_Pr5NdAl24(Ir3Ru)2
_symmetry_space_group_name_H-M   'P 1'
_cell_length_a   8.92816905
_cell_length_b   8.92816838
_cell_length_c   9.62075600
_cell_angle_alpha   90.00000000
_cell_angle_beta   90.00000000
_cell_angle_gamma   120.01171291
_symmetry_Int_Tables_number   1
_chemical_formula_structural   Pr5NdAl24(Ir3Ru)2
_chemical_formula_sum   'Pr5 Nd1 Al24 Ir6 Ru2'
_cell_volume   664.06920077
_cell_formula_units_Z   1
loop_
 _symmetry_equiv_pos_site_id
 _symmetry_equiv_pos_as_xyz
  1  'x, y, z'
loop_
 _atom_site_type_symbol
 _atom_site_label
 _atom_site_symmetry_multiplicity
 _atom_site_fract_x
 _atom_site_fract_y
 _atom_site_fract_z
 _atom_site_occupancy
  Pr  Pr0  1  0.190698  0.381358  0.250000  1
  Pr  Pr1  1  0.809265  0.618492  0.750000  1
  Pr  Pr2  1  0.618642  0.809302  0.250000  1
  Pr  Pr3  1  0.381508  0.190735  0.750000  1
  Pr  Pr4  1  0.190672  0.809328  0.250000  1
  Nd  Nd5  1  0.809199  0.190801  0.750000  1
  Al  Al6  1  0.333366  0.666634  0.012699  1
  Al  Al7  1  0.666819  0.333181  0.986585  1
  Al  Al8  1  0.666819  0.333181  0.513415  1
  Al  Al9  1  0.333366  0.666634  0.487301  1
  Al  Al10  1  0.162417  0.325540  0.575515  1
  Al  Al11  1  0.837064  0.674199  0.424840  1
  Al  Al12  1  0.674460  0.837583  0.575515  1
  Al  Al13  1  0.837064  0.674199  0.075160  1
  Al  Al14  1  0.325801  0.162936  0.424840  1
  Al  Al15  1  0.162417  0.325540  0.924485  1
  Al  Al16  1  0.162856  0.837144  0.575412  1
  Al  Al17  1  0.325801  0.162936  0.075160  1
  Al  Al18  1  0.837144  0.162856  0.425273  1
  Al  Al19  1  0.674460  0.837583  0.924485  1
  Al  Al20  1  0.837144  0.162856  0.074727  1
  Al  Al21  1  0.162856  0.837144  0.924588  1
  Al  Al22  1  0.563565  0.126921  0.250000  1
  Al  Al23  1  0.437094  0.873472  0.750000  1
  Al  Al24  1  0.873079  0.436435  0.250000  1
  Al  Al25  1  0.126528  0.562906  0.750000  1
  Al  Al26  1  0.563510  0.436490  0.250000  1
  Al  Al27  1  0.436483  0.563517  0.750000  1
  Al  Al28  1  0.999991  0.000009  0.250000  1
  Al  Al29  1  0.999578  0.000422  0.750000  1
  Ir  Ir30  1  0.500229  0.000096  0.999759  1
  Ir  Ir31  1  0.999904  0.499771  0.999759  1
  Ir  Ir32  1  0.500229  0.000096  0.500241  1
  Ir  Ir33  1  0.500078  0.499922  0.999900  1
  Ir  Ir34  1  0.999904  0.499771  0.500241  1
  Ir  Ir35  1  0.500078  0.499922  0.500100  1
  Ru  Ru36  1  0.999958  0.000042  0.000038  1
  Ru  Ru37  1  0.999958  0.000042  0.499962  1
