# generated using pymatgen
data_Dy2Zr2(Al8Pt3)3
_symmetry_space_group_name_H-M   'P 1'
_cell_length_a   7.51691477
_cell_length_b   7.52262485
_cell_length_c   13.06567851
_cell_angle_alpha   84.52533564
_cell_angle_beta   78.96804006
_cell_angle_gamma   59.93424378
_symmetry_Int_Tables_number   1
_chemical_formula_structural   Dy2Zr2(Al8Pt3)3
_chemical_formula_sum   'Dy2 Zr2 Al24 Pt9'
_cell_volume   627.59985787
_cell_formula_units_Z   1
loop_
 _symmetry_equiv_pos_site_id
 _symmetry_equiv_pos_as_xyz
  1  'x, y, z'
loop_
 _atom_site_type_symbol
 _atom_site_label
 _atom_site_symmetry_multiplicity
 _atom_site_fract_x
 _atom_site_fract_y
 _atom_site_fract_z
 _atom_site_occupancy
  Dy  Dy0  1  0.733713  0.498793  0.807794  1
  Dy  Dy1  1  0.266287  0.501207  0.192206  1
  Zr  Zr2  1  0.394010  0.167475  0.809580  1
  Zr  Zr3  1  0.605990  0.832525  0.190420  1
  Al  Al4  1  0.681145  0.836379  0.943883  1
  Al  Al5  1  0.318855  0.163621  0.056117  1
  Al  Al6  1  0.146051  0.833005  0.562916  1
  Al  Al7  1  0.853949  0.166995  0.437084  1
  Al  Al8  1  0.479761  0.166887  0.561089  1
  Al  Al9  1  0.520239  0.833113  0.438911  1
  Al  Al10  1  0.220206  0.163287  0.327854  1
  Al  Al11  1  0.779794  0.836713  0.672146  1
  Al  Al12  1  0.436822  0.504300  0.672088  1
  Al  Al13  1  0.563178  0.495700  0.327912  1
  Al  Al14  1  0.111253  0.160213  0.670946  1
  Al  Al15  1  0.888747  0.839787  0.329054  1
  Al  Al16  1  0.353210  0.496494  0.942416  1
  Al  Al17  1  0.646790  0.503506  0.057584  1
  Al  Al18  1  0.018580  0.167670  0.951340  1
  Al  Al19  1  0.981420  0.832330  0.048660  1
  Al  Al20  1  0.186559  0.499590  0.440383  1
  Al  Al21  1  0.813441  0.500410  0.559617  1
  Al  Al22  1  0.733964  0.158668  0.183754  1
  Al  Al23  1  0.266036  0.841332  0.816246  1
  Al  Al24  1  0.066229  0.626644  0.815012  1
  Al  Al25  1  0.933771  0.373356  0.184988  1
  Al  Al26  1  0.850695  0.040794  0.815648  1
  Al  Al27  1  0.149305  0.959206  0.184352  1
  Pt  Pt28  1  0.120317  0.491115  0.638873  1
  Pt  Pt29  1  0.879683  0.508885  0.361127  1
  Pt  Pt30  1  0.656985  0.172624  0.999722  1
  Pt  Pt31  1  0.343015  0.827376  0.000278  1
  Pt  Pt32  1  0.537147  0.166626  0.361601  1
  Pt  Pt33  1  0.462853  0.833374  0.638399  1
  Pt  Pt34  1  0.778550  0.175920  0.637475  1
  Pt  Pt35  1  0.221450  0.824080  0.362525  1
  Pt  Pt36  1  0.000000  0.500000  0.000000  1
