# generated using pymatgen
data_Nd3Ga6Ni8Ir
_symmetry_space_group_name_H-M   'P 1'
_cell_length_a   8.85335300
_cell_length_b   8.99484442
_cell_length_c   4.13470600
_cell_angle_alpha   90.00000000
_cell_angle_beta   90.00000000
_cell_angle_gamma   119.48099290
_symmetry_Int_Tables_number   1
_chemical_formula_structural   Nd3Ga6Ni8Ir
_chemical_formula_sum   'Nd3 Ga6 Ni8 Ir1'
_cell_volume   286.63177105
_cell_formula_units_Z   1
loop_
 _symmetry_equiv_pos_site_id
 _symmetry_equiv_pos_as_xyz
  1  'x, y, z'
loop_
 _atom_site_type_symbol
 _atom_site_label
 _atom_site_symmetry_multiplicity
 _atom_site_fract_x
 _atom_site_fract_y
 _atom_site_fract_z
 _atom_site_occupancy
  Nd  Nd0  1  0.334009  0.665609  0.500000  1
  Nd  Nd1  1  0.668401  0.334391  0.500000  1
  Nd  Nd2  1  0.008374  0.000000  0.000000  1
  Ga  Ga3  1  0.471282  0.000000  0.000000  1
  Ga  Ga4  1  0.993731  0.468255  0.000000  1
  Ga  Ga5  1  0.525475  0.531745  0.000000  1
  Ga  Ga6  1  0.728557  0.000000  0.500000  1
  Ga  Ga7  1  0.995695  0.719822  0.500000  1
  Ga  Ga8  1  0.275872  0.280178  0.500000  1
  Ni  Ni9  1  0.200668  0.372895  0.000000  1
  Ni  Ni10  1  0.630879  0.833431  0.000000  1
  Ni  Ni11  1  0.162833  0.780518  0.000000  1
  Ni  Ni12  1  0.827774  0.627105  0.000000  1
  Ni  Ni13  1  0.797448  0.166569  0.000000  1
  Ni  Ni14  1  0.382315  0.219482  0.000000  1
  Ni  Ni15  1  0.996666  0.285902  0.500000  1
  Ni  Ni16  1  0.710764  0.714098  0.500000  1
  Ir  Ir17  1  0.289257  0.000000  0.500000  1
