# generated using pymatgen
data_Er2Lu6Cd2IrRu
_symmetry_space_group_name_H-M   'P 1'
_cell_length_a   9.46224659
_cell_length_b   9.46192167
_cell_length_c   9.50362001
_cell_angle_alpha   59.85673209
_cell_angle_beta   59.85160588
_cell_angle_gamma   59.70233994
_symmetry_Int_Tables_number   1
_chemical_formula_structural   Er2Lu6Cd2IrRu
_chemical_formula_sum   'Er4 Lu12 Cd4 Ir2 Ru2'
_cell_volume   598.96943608
_cell_formula_units_Z   2
loop_
 _symmetry_equiv_pos_site_id
 _symmetry_equiv_pos_as_xyz
  1  'x, y, z'
loop_
 _atom_site_type_symbol
 _atom_site_label
 _atom_site_symmetry_multiplicity
 _atom_site_fract_x
 _atom_site_fract_y
 _atom_site_fract_z
 _atom_site_occupancy
  Er  Er0  1  0.809519  0.188552  0.812963  1
  Er  Er1  1  0.188550  0.809516  0.188970  1
  Er  Er2  1  0.810928  0.810936  0.189072  1
  Er  Er3  1  0.188545  0.188550  0.811452  1
  Lu  Lu4  1  0.597889  0.598377  0.598057  1
  Lu  Lu5  1  0.598391  0.597892  0.205669  1
  Lu  Lu6  1  0.596968  0.209555  0.596569  1
  Lu  Lu7  1  0.209563  0.596970  0.596882  1
  Lu  Lu8  1  0.062236  0.437597  0.439566  1
  Lu  Lu9  1  0.437608  0.062227  0.060587  1
  Lu  Lu10  1  0.437703  0.062243  0.439729  1
  Lu  Lu11  1  0.062218  0.437710  0.060344  1
  Lu  Lu12  1  0.437611  0.437619  0.062387  1
  Lu  Lu13  1  0.059700  0.059705  0.440303  1
  Lu  Lu14  1  0.188776  0.809262  0.812581  1
  Lu  Lu15  1  0.809279  0.188774  0.189371  1
  Cd  Cd16  1  0.830665  0.830246  0.830253  1
  Cd  Cd17  1  0.830252  0.830675  0.508822  1
  Cd  Cd18  1  0.830917  0.507577  0.830930  1
  Cd  Cd19  1  0.507579  0.830924  0.830578  1
  Ir  Ir20  1  0.393485  0.826808  0.389905  1
  Ir  Ir21  1  0.826815  0.393488  0.389801  1
  Ru  Ru22  1  0.392523  0.392269  0.387976  1
  Ru  Ru23  1  0.392279  0.392526  0.827229  1
