# generated using pymatgen
data_Dy4ErNi19
_symmetry_space_group_name_H-M   'P 1'
_cell_length_a   4.94211033
_cell_length_b   4.94210960
_cell_length_c   16.32159800
_cell_angle_alpha   81.29204285
_cell_angle_beta   81.29204414
_cell_angle_gamma   59.99998851
_symmetry_Int_Tables_number   1
_chemical_formula_structural   Dy4ErNi19
_chemical_formula_sum   'Dy4 Er1 Ni19'
_cell_volume   339.92109977
_cell_formula_units_Z   1
loop_
 _symmetry_equiv_pos_site_id
 _symmetry_equiv_pos_as_xyz
  1  'x, y, z'
loop_
 _atom_site_type_symbol
 _atom_site_label
 _atom_site_symmetry_multiplicity
 _atom_site_fract_x
 _atom_site_fract_y
 _atom_site_fract_z
 _atom_site_occupancy
  Dy  Dy0  1  0.921633  0.921633  0.235102  1
  Dy  Dy1  1  0.078367  0.078367  0.764898  1
  Dy  Dy2  1  0.848166  0.848166  0.455504  1
  Dy  Dy3  1  0.151834  0.151834  0.544496  1
  Er  Er4  1  0.000000  0.000000  0.000000  1
  Ni  Ni5  1  0.500000  0.500000  0.500000  1
  Ni  Ni6  1  0.749548  0.749549  0.751354  1
  Ni  Ni7  1  0.250451  0.250451  0.248647  1
  Ni  Ni8  1  0.666743  0.666743  0.999770  1
  Ni  Ni9  1  0.333257  0.333257  0.000230  1
  Ni  Ni10  1  0.584003  0.584003  0.247993  1
  Ni  Ni11  1  0.415997  0.415997  0.752007  1
  Ni  Ni12  1  0.375885  0.375885  0.371356  1
  Ni  Ni13  1  0.876871  0.375885  0.371356  1
  Ni  Ni14  1  0.375885  0.876871  0.371356  1
  Ni  Ni15  1  0.624115  0.624115  0.628644  1
  Ni  Ni16  1  0.123129  0.624115  0.628644  1
  Ni  Ni17  1  0.624115  0.123129  0.628644  1
  Ni  Ni18  1  0.458889  0.458889  0.123263  1
  Ni  Ni19  1  0.958958  0.458889  0.123263  1
  Ni  Ni20  1  0.458889  0.958958  0.123263  1
  Ni  Ni21  1  0.541111  0.541111  0.876737  1
  Ni  Ni22  1  0.041042  0.541111  0.876737  1
  Ni  Ni23  1  0.541111  0.041042  0.876737  1
