# generated using pymatgen
data_Tm6Zn21SiAg2
_symmetry_space_group_name_H-M   'P 1'
_cell_length_a   9.06161137
_cell_length_b   9.05394815
_cell_length_c   9.05394900
_cell_angle_alpha   60.00000054
_cell_angle_beta   60.02797146
_cell_angle_gamma   60.02797678
_symmetry_Int_Tables_number   1
_chemical_formula_structural   Tm6Zn21SiAg2
_chemical_formula_sum   'Tm6 Zn21 Si1 Ag2'
_cell_volume   525.47249197
_cell_formula_units_Z   1
loop_
 _symmetry_equiv_pos_site_id
 _symmetry_equiv_pos_as_xyz
  1  'x, y, z'
loop_
 _atom_site_type_symbol
 _atom_site_label
 _atom_site_symmetry_multiplicity
 _atom_site_fract_x
 _atom_site_fract_y
 _atom_site_fract_z
 _atom_site_occupancy
  Tm  Tm0  1  0.714538  0.285918  0.285918  1
  Tm  Tm1  1  0.714538  0.285918  0.713626  1
  Tm  Tm2  1  0.714538  0.713626  0.285918  1
  Tm  Tm3  1  0.283342  0.716214  0.716214  1
  Tm  Tm4  1  0.283342  0.716214  0.284229  1
  Tm  Tm5  1  0.283342  0.284229  0.716214  1
  Zn  Zn6  1  0.124990  0.621954  0.126529  1
  Zn  Zn7  1  0.124990  0.126529  0.621954  1
  Zn  Zn8  1  0.124990  0.126529  0.126529  1
  Zn  Zn9  1  0.380492  0.873169  0.873169  1
  Zn  Zn10  1  0.872710  0.374439  0.876425  1
  Zn  Zn11  1  0.872710  0.876425  0.374439  1
  Zn  Zn12  1  0.872710  0.876425  0.876425  1
  Zn  Zn13  1  0.496858  0.999505  0.999505  1
  Zn  Zn14  1  0.496858  0.999505  0.504133  1
  Zn  Zn15  1  0.496858  0.504133  0.999505  1
  Zn  Zn16  1  0.999259  0.500496  0.500496  1
  Zn  Zn17  1  0.999259  0.500496  0.999749  1
  Zn  Zn18  1  0.999259  0.999749  0.500496  1
  Zn  Zn19  1  0.999129  0.333623  0.333623  1
  Zn  Zn20  1  0.333434  0.998061  0.334252  1
  Zn  Zn21  1  0.333434  0.334252  0.998061  1
  Zn  Zn22  1  0.333434  0.334252  0.334252  1
  Zn  Zn23  1  0.001351  0.666217  0.666217  1
  Zn  Zn24  1  0.666426  0.000898  0.666338  1
  Zn  Zn25  1  0.666426  0.666338  0.000898  1
  Zn  Zn26  1  0.666426  0.666338  0.666338  1
  Si  Si27  1  0.497393  0.500869  0.500869  1
  Ag  Ag28  1  0.631599  0.122801  0.122801  1
  Ag  Ag29  1  0.015369  0.994877  0.994877  1
