# generated using pymatgen
data_Tb11Nd5Cd4NiOs3
_symmetry_space_group_name_H-M   'P 1'
_cell_length_a   9.72855068
_cell_length_b   9.82114404
_cell_length_c   9.82114416
_cell_angle_alpha   59.58300744
_cell_angle_beta   59.36131488
_cell_angle_gamma   59.36132493
_symmetry_Int_Tables_number   1
_chemical_formula_structural   Tb11Nd5Cd4NiOs3
_chemical_formula_sum   'Tb11 Nd5 Cd4 Ni1 Os3'
_cell_volume   654.99224741
_cell_formula_units_Z   1
loop_
 _symmetry_equiv_pos_site_id
 _symmetry_equiv_pos_as_xyz
  1  'x, y, z'
loop_
 _atom_site_type_symbol
 _atom_site_label
 _atom_site_symmetry_multiplicity
 _atom_site_fract_x
 _atom_site_fract_y
 _atom_site_fract_z
 _atom_site_occupancy
  Tb  Tb0  1  0.600397  0.595269  0.595269  1
  Tb  Tb1  1  0.599173  0.596753  0.212327  1
  Tb  Tb2  1  0.599173  0.212327  0.596753  1
  Tb  Tb3  1  0.213138  0.596080  0.596080  1
  Tb  Tb4  1  0.061402  0.437238  0.437238  1
  Tb  Tb5  1  0.433366  0.062758  0.062758  1
  Tb  Tb6  1  0.436143  0.060766  0.440148  1
  Tb  Tb7  1  0.062044  0.439274  0.060537  1
  Tb  Tb8  1  0.436143  0.440148  0.060766  1
  Tb  Tb9  1  0.062044  0.060537  0.439274  1
  Tb  Tb10  1  0.192963  0.805183  0.805183  1
  Nd  Nd11  1  0.803396  0.191823  0.191823  1
  Nd  Nd12  1  0.805854  0.187154  0.816806  1
  Nd  Nd13  1  0.192551  0.805505  0.192646  1
  Nd  Nd14  1  0.805854  0.816806  0.187154  1
  Nd  Nd15  1  0.192551  0.192646  0.805505  1
  Cd  Cd16  1  0.830457  0.828623  0.828623  1
  Cd  Cd17  1  0.827775  0.829337  0.511821  1
  Cd  Cd18  1  0.827775  0.511821  0.829337  1
  Cd  Cd19  1  0.508988  0.828766  0.828766  1
  Ni  Ni20  1  0.829664  0.390723  0.390723  1
  Os  Os21  1  0.393598  0.388829  0.388829  1
  Os  Os22  1  0.392776  0.392236  0.829399  1
  Os  Os23  1  0.392776  0.829399  0.392236  1
