# generated using pymatgen
data_Ca4DyHo3(BO4)4
_symmetry_space_group_name_H-M   'P 1'
_cell_length_a   3.60362200
_cell_length_b   9.65820162
_cell_length_c   10.51489267
_cell_angle_alpha   89.95900456
_cell_angle_beta   90.00000000
_cell_angle_gamma   90.00000000
_symmetry_Int_Tables_number   1
_chemical_formula_structural   Ca4DyHo3(BO4)4
_chemical_formula_sum   'Ca4 Dy1 Ho3 B4 O16'
_cell_volume   365.96557070
_cell_formula_units_Z   1
loop_
 _symmetry_equiv_pos_site_id
 _symmetry_equiv_pos_as_xyz
  1  'x, y, z'
loop_
 _atom_site_type_symbol
 _atom_site_label
 _atom_site_symmetry_multiplicity
 _atom_site_fract_x
 _atom_site_fract_y
 _atom_site_fract_z
 _atom_site_occupancy
  Ca  Ca0  1  0.250000  0.670046  0.083496  1
  Ca  Ca1  1  0.750000  0.330006  0.916140  1
  Ca  Ca2  1  0.750000  0.170383  0.416823  1
  Ca  Ca3  1  0.250000  0.829656  0.583603  1
  Dy  Dy4  1  0.250000  0.087880  0.111624  1
  Ho  Ho5  1  0.750000  0.911952  0.888050  1
  Ho  Ho6  1  0.750000  0.587791  0.388497  1
  Ho  Ho7  1  0.250000  0.412254  0.611551  1
  B  B8  1  0.250000  0.368296  0.200683  1
  B  B9  1  0.750000  0.632033  0.799633  1
  B  B10  1  0.750000  0.867706  0.299900  1
  B  B11  1  0.250000  0.132086  0.700387  1
  O  O12  1  0.250000  0.500490  0.252110  1
  O  O13  1  0.750000  0.499933  0.747841  1
  O  O14  1  0.750000  0.000042  0.248325  1
  O  O15  1  0.250000  0.999872  0.752034  1
  O  O16  1  0.250000  0.249517  0.276641  1
  O  O17  1  0.750000  0.751136  0.724056  1
  O  O18  1  0.750000  0.748872  0.224254  1
  O  O19  1  0.250000  0.251211  0.775747  1
  O  O20  1  0.250000  0.350504  0.068375  1
  O  O21  1  0.750000  0.649364  0.931870  1
  O  O22  1  0.750000  0.850054  0.432113  1
  O  O23  1  0.250000  0.149683  0.568100  1
  O  O24  1  0.250000  0.613518  0.506038  1
  O  O25  1  0.750000  0.386549  0.494053  1
  O  O26  1  0.750000  0.113501  0.992581  1
  O  O27  1  0.250000  0.885664  0.005477  1
