# generated using pymatgen
data_Sr4Li2MoOsN8
_symmetry_space_group_name_H-M   'P 1'
_cell_length_a   5.90406900
_cell_length_b   6.21383191
_cell_length_c   6.96378040
_cell_angle_alpha   73.32729113
_cell_angle_beta   90.00000000
_cell_angle_gamma   90.00000000
_symmetry_Int_Tables_number   1
_chemical_formula_structural   Sr4Li2MoOsN8
_chemical_formula_sum   'Sr4 Li2 Mo1 Os1 N8'
_cell_volume   244.73891644
_cell_formula_units_Z   1
loop_
 _symmetry_equiv_pos_site_id
 _symmetry_equiv_pos_as_xyz
  1  'x, y, z'
loop_
 _atom_site_type_symbol
 _atom_site_label
 _atom_site_symmetry_multiplicity
 _atom_site_fract_x
 _atom_site_fract_y
 _atom_site_fract_z
 _atom_site_occupancy
  Sr  Sr0  1  0.250000  0.260598  0.062496  1
  Sr  Sr1  1  0.750000  0.735906  0.947926  1
  Sr  Sr2  1  0.750000  0.774625  0.426548  1
  Sr  Sr3  1  0.250000  0.213366  0.566920  1
  Li  Li4  1  0.750000  0.316481  0.314092  1
  Li  Li5  1  0.250000  0.702030  0.687918  1
  Mo  Mo6  1  0.250000  0.718172  0.200314  1
  Os  Os7  1  0.750000  0.282347  0.797993  1
  N  N8  1  0.507482  0.466953  0.749108  1
  N  N9  1  0.001153  0.524810  0.252017  1
  N  N10  1  0.498847  0.524810  0.252017  1
  N  N11  1  0.992518  0.466953  0.749108  1
  N  N12  1  0.750000  0.102930  0.632558  1
  N  N13  1  0.250000  0.905380  0.376403  1
  N  N14  1  0.750000  0.117936  0.057059  1
  N  N15  1  0.250000  0.886704  0.927522  1
