# generated using pymatgen
data_Ca20GeBi8Sb3
_symmetry_space_group_name_H-M   'P 1'
_cell_length_a   8.34337790
_cell_length_b   9.71612300
_cell_length_c   12.86670373
_cell_angle_alpha   90.00000000
_cell_angle_beta   90.30259393
_cell_angle_gamma   90.00000000
_symmetry_Int_Tables_number   1
_chemical_formula_structural   Ca20GeBi8Sb3
_chemical_formula_sum   'Ca20 Ge1 Bi8 Sb3'
_cell_volume   1043.02847061
_cell_formula_units_Z   1
loop_
 _symmetry_equiv_pos_site_id
 _symmetry_equiv_pos_as_xyz
  1  'x, y, z'
loop_
 _atom_site_type_symbol
 _atom_site_label
 _atom_site_symmetry_multiplicity
 _atom_site_fract_x
 _atom_site_fract_y
 _atom_site_fract_z
 _atom_site_occupancy
  Ca  Ca0  1  0.312236  0.959906  0.081165  1
  Ca  Ca1  1  0.818694  0.026904  0.423512  1
  Ca  Ca2  1  0.685980  0.460635  0.920631  1
  Ca  Ca3  1  0.180075  0.544336  0.574644  1
  Ca  Ca4  1  0.685980  0.039365  0.920631  1
  Ca  Ca5  1  0.180075  0.955664  0.574644  1
  Ca  Ca6  1  0.312236  0.540094  0.081165  1
  Ca  Ca7  1  0.818694  0.473096  0.423512  1
  Ca  Ca8  1  0.679460  0.750000  0.226700  1
  Ca  Ca9  1  0.176570  0.250000  0.275168  1
  Ca  Ca10  1  0.320790  0.250000  0.773902  1
  Ca  Ca11  1  0.831871  0.750000  0.714493  1
  Ca  Ca12  1  0.140434  0.750000  0.302709  1
  Ca  Ca13  1  0.651314  0.250000  0.206498  1
  Ca  Ca14  1  0.848590  0.250000  0.705562  1
  Ca  Ca15  1  0.351684  0.750000  0.795961  1
  Ca  Ca16  1  0.550348  0.750000  0.502381  1
  Ca  Ca17  1  0.037929  0.250000  0.995035  1
  Ca  Ca18  1  0.461745  0.250000  0.496887  1
  Ca  Ca19  1  0.960325  0.750000  0.002538  1
  Ge  Ge20  1  0.929087  0.750000  0.486937  1
  Bi  Bi21  1  0.937480  0.012001  0.169181  1
  Bi  Bi22  1  0.439825  0.989675  0.330090  1
  Bi  Bi23  1  0.062685  0.511602  0.829350  1
  Bi  Bi24  1  0.557849  0.490097  0.670623  1
  Bi  Bi25  1  0.062685  0.988398  0.829350  1
  Bi  Bi26  1  0.557849  0.009903  0.670623  1
  Bi  Bi27  1  0.937480  0.487999  0.169181  1
  Bi  Bi28  1  0.439825  0.510325  0.330090  1
  Sb  Sb29  1  0.572690  0.750000  0.988441  1
  Sb  Sb30  1  0.073163  0.250000  0.513971  1
  Sb  Sb31  1  0.424349  0.250000  0.014428  1
