# generated using pymatgen
data_Ba6Sr2UBiSe12
_symmetry_space_group_name_H-M   'P 1'
_cell_length_a   9.00915901
_cell_length_b   9.00915895
_cell_length_c   9.00916019
_cell_angle_alpha   90.79692297
_cell_angle_beta   90.79691647
_cell_angle_gamma   90.79693015
_symmetry_Int_Tables_number   1
_chemical_formula_structural   Ba6Sr2UBiSe12
_chemical_formula_sum   'Ba6 Sr2 U1 Bi1 Se12'
_cell_volume   731.01381748
_cell_formula_units_Z   1
loop_
 _symmetry_equiv_pos_site_id
 _symmetry_equiv_pos_as_xyz
  1  'x, y, z'
loop_
 _atom_site_type_symbol
 _atom_site_label
 _atom_site_symmetry_multiplicity
 _atom_site_fract_x
 _atom_site_fract_y
 _atom_site_fract_z
 _atom_site_occupancy
  Ba  Ba0  1  0.867031  0.623178  0.255084  1
  Ba  Ba1  1  0.255084  0.867031  0.623178  1
  Ba  Ba2  1  0.623178  0.255084  0.867031  1
  Ba  Ba3  1  0.744916  0.132969  0.376822  1
  Ba  Ba4  1  0.376822  0.744916  0.132969  1
  Ba  Ba5  1  0.132969  0.376822  0.744916  1
  Sr  Sr6  1  0.256063  0.256063  0.256063  1
  Sr  Sr7  1  0.743937  0.743937  0.743937  1
  U  U8  1  0.000000  0.000000  0.000000  1
  Bi  Bi9  1  0.500000  0.500000  0.500000  1
  Se  Se10  1  0.190458  0.557312  0.413338  1
  Se  Se11  1  0.413338  0.190458  0.557312  1
  Se  Se12  1  0.557312  0.413338  0.190458  1
  Se  Se13  1  0.923937  0.050489  0.705830  1
  Se  Se14  1  0.705830  0.923937  0.050489  1
  Se  Se15  1  0.050489  0.705830  0.923937  1
  Se  Se16  1  0.809542  0.442688  0.586662  1
  Se  Se17  1  0.586662  0.809542  0.442688  1
  Se  Se18  1  0.442688  0.586662  0.809542  1
  Se  Se19  1  0.076063  0.949511  0.294170  1
  Se  Se20  1  0.294170  0.076063  0.949511  1
  Se  Se21  1  0.949511  0.294170  0.076063  1
