# generated using pymatgen
data_Rb6VTe4Br
_symmetry_space_group_name_H-M   'P 1'
_cell_length_a   11.66828400
_cell_length_b   11.66828319
_cell_length_c   8.69488600
_cell_angle_alpha   90.00000000
_cell_angle_beta   90.00000000
_cell_angle_gamma   119.99999664
_symmetry_Int_Tables_number   1
_chemical_formula_structural   Rb6VTe4Br
_chemical_formula_sum   'Rb12 V2 Te8 Br2'
_cell_volume   1025.19974750
_cell_formula_units_Z   2
loop_
 _symmetry_equiv_pos_site_id
 _symmetry_equiv_pos_as_xyz
  1  'x, y, z'
loop_
 _atom_site_type_symbol
 _atom_site_label
 _atom_site_symmetry_multiplicity
 _atom_site_fract_x
 _atom_site_fract_y
 _atom_site_fract_z
 _atom_site_occupancy
  Rb  Rb0  1  0.130803  0.869197  0.515556  1
  Rb  Rb1  1  0.738391  0.869197  0.515556  1
  Rb  Rb2  1  0.951027  0.475513  0.318932  1
  Rb  Rb3  1  0.524487  0.475513  0.318932  1
  Rb  Rb4  1  0.869197  0.738391  0.015556  1
  Rb  Rb5  1  0.261609  0.130803  0.015556  1
  Rb  Rb6  1  0.524487  0.048973  0.318932  1
  Rb  Rb7  1  0.130803  0.261609  0.515556  1
  Rb  Rb8  1  0.869197  0.130803  0.015556  1
  Rb  Rb9  1  0.048973  0.524487  0.818932  1
  Rb  Rb10  1  0.475513  0.951027  0.818932  1
  Rb  Rb11  1  0.475513  0.524487  0.818932  1
  V  V12  1  0.666667  0.333333  0.710761  1
  V  V13  1  0.333333  0.666667  0.210761  1
  Te  Te14  1  0.416843  0.208422  0.611114  1
  Te  Te15  1  0.583157  0.791578  0.111114  1
  Te  Te16  1  0.666667  0.333333  0.020073  1
  Te  Te17  1  0.791578  0.583157  0.611114  1
  Te  Te18  1  0.208422  0.416843  0.111114  1
  Te  Te19  1  0.333333  0.666667  0.520073  1
  Te  Te20  1  0.208422  0.791578  0.111114  1
  Te  Te21  1  0.791578  0.208422  0.611114  1
  Br  Br22  1  0.000000  0.000000  0.272963  1
  Br  Br23  1  0.000000  0.000000  0.772963  1
