# generated using pymatgen
data_Lu12TcIr3
_symmetry_space_group_name_H-M   'P 1'
_cell_length_a   7.18406380
_cell_length_b   8.91639800
_cell_length_c   6.24591129
_cell_angle_alpha   90.00000000
_cell_angle_beta   89.88223084
_cell_angle_gamma   90.00000000
_symmetry_Int_Tables_number   1
_chemical_formula_structural   Lu12TcIr3
_chemical_formula_sum   'Lu12 Tc1 Ir3'
_cell_volume   400.08707437
_cell_formula_units_Z   1
loop_
 _symmetry_equiv_pos_site_id
 _symmetry_equiv_pos_as_xyz
  1  'x, y, z'
loop_
 _atom_site_type_symbol
 _atom_site_label
 _atom_site_symmetry_multiplicity
 _atom_site_fract_x
 _atom_site_fract_y
 _atom_site_fract_z
 _atom_site_occupancy
  Lu  Lu0  1  0.533747  0.750000  0.122288  1
  Lu  Lu1  1  0.824112  0.061527  0.172565  1
  Lu  Lu2  1  0.824112  0.438473  0.172565  1
  Lu  Lu3  1  0.322157  0.061062  0.325876  1
  Lu  Lu4  1  0.322157  0.438938  0.325876  1
  Lu  Lu5  1  0.035093  0.750000  0.376809  1
  Lu  Lu6  1  0.965536  0.250001  0.620587  1
  Lu  Lu7  1  0.678157  0.560630  0.673480  1
  Lu  Lu8  1  0.678157  0.939371  0.673480  1
  Lu  Lu9  1  0.176276  0.559567  0.829789  1
  Lu  Lu10  1  0.176276  0.940434  0.829789  1
  Lu  Lu11  1  0.465207  0.250001  0.877217  1
  Tc  Tc12  1  0.113381  0.250001  0.034800  1
  Ir  Ir13  1  0.614470  0.250001  0.464956  1
  Ir  Ir14  1  0.387390  0.750000  0.537622  1
  Ir  Ir15  1  0.883773  0.750000  0.962300  1
