# generated using pymatgen
data_TbEr15(MgSn4)4
_symmetry_space_group_name_H-M   'P 1'
_cell_length_a   7.62538201
_cell_length_b   8.19129901
_cell_length_c   15.18566003
_cell_angle_alpha   90.00509282
_cell_angle_beta   89.99551976
_cell_angle_gamma   89.99765983
_symmetry_Int_Tables_number   1
_chemical_formula_structural   TbEr15(MgSn4)4
_chemical_formula_sum   'Tb1 Er15 Mg4 Sn16'
_cell_volume   948.52341036
_cell_formula_units_Z   1
loop_
 _symmetry_equiv_pos_site_id
 _symmetry_equiv_pos_as_xyz
  1  'x, y, z'
loop_
 _atom_site_type_symbol
 _atom_site_label
 _atom_site_symmetry_multiplicity
 _atom_site_fract_x
 _atom_site_fract_y
 _atom_site_fract_z
 _atom_site_occupancy
  Tb  Tb0  1  0.998892  0.184755  0.090657  1
  Er  Er1  1  0.001031  0.815155  0.909346  1
  Er  Er2  1  0.501061  0.684820  0.909368  1
  Er  Er3  1  0.001049  0.815151  0.590632  1
  Er  Er4  1  0.498949  0.315211  0.090634  1
  Er  Er5  1  0.998936  0.184816  0.409295  1
  Er  Er6  1  0.498956  0.315183  0.409375  1
  Er  Er7  1  0.501038  0.684815  0.590624  1
  Er  Er8  1  0.335105  0.169015  0.628742  1
  Er  Er9  1  0.664944  0.830993  0.371270  1
  Er  Er10  1  0.164895  0.669017  0.371270  1
  Er  Er11  1  0.664812  0.830886  0.128727  1
  Er  Er12  1  0.835061  0.331000  0.628757  1
  Er  Er13  1  0.335093  0.168982  0.871230  1
  Er  Er14  1  0.835036  0.331038  0.871195  1
  Er  Er15  1  0.164938  0.669017  0.128728  1
  Mg  Mg16  1  0.159256  0.505409  0.750009  1
  Mg  Mg17  1  0.840731  0.494649  0.250010  1
  Mg  Mg18  1  0.340771  0.005378  0.250001  1
  Mg  Mg19  1  0.659197  0.994629  0.750011  1
  Sn  Sn20  1  0.021431  0.091721  0.749994  1
  Sn  Sn21  1  0.978514  0.908080  0.250090  1
  Sn  Sn22  1  0.478583  0.591725  0.250002  1
  Sn  Sn23  1  0.521434  0.408300  0.749994  1
  Sn  Sn24  1  0.182672  0.463026  0.538497  1
  Sn  Sn25  1  0.817344  0.536969  0.461528  1
  Sn  Sn26  1  0.317312  0.963021  0.461528  1
  Sn  Sn27  1  0.817261  0.537197  0.038422  1
  Sn  Sn28  1  0.682636  0.036973  0.538492  1
  Sn  Sn29  1  0.182741  0.463186  0.961472  1
  Sn  Sn30  1  0.682435  0.036904  0.961454  1
  Sn  Sn31  1  0.317751  0.962787  0.038380  1
  Sn  Sn32  1  0.302678  0.846704  0.750010  1
  Sn  Sn33  1  0.697142  0.153260  0.250098  1
  Sn  Sn34  1  0.197628  0.346934  0.250163  1
  Sn  Sn35  1  0.802686  0.653293  0.749994  1
