# generated using pymatgen
data_Pr4ZnRe2C5
_symmetry_space_group_name_H-M   'P 1'
_cell_length_a   5.66710344
_cell_length_b   12.07565200
_cell_length_c   14.13988587
_cell_angle_alpha   99.59479297
_cell_angle_beta   90.82754033
_cell_angle_gamma   92.02195216
_symmetry_Int_Tables_number   1
_chemical_formula_structural   Pr4ZnRe2C5
_chemical_formula_sum   'Pr4 Zn1 Re2 C5'
_cell_volume   953.31538482
_cell_formula_units_Z   1
loop_
 _symmetry_equiv_pos_site_id
 _symmetry_equiv_pos_as_xyz
  1  'x, y, z'
loop_
 _atom_site_type_symbol
 _atom_site_label
 _atom_site_symmetry_multiplicity
 _atom_site_fract_x
 _atom_site_fract_y
 _atom_site_fract_z
 _atom_site_occupancy
  Pr  Pr0  1  0.229028  0.153150  0.542556  1
  Pr  Pr1  1  0.957235  0.972203  0.596284  1
  Pr  Pr2  1  0.030244  0.199705  0.536505  1
  Pr  Pr3  1  0.307067  0.116524  0.460108  1
  Zn  Zn4  1  0.206271  0.194149  0.789743  1
  Re  Re5  1  0.737950  0.100107  0.047315  1
  Re  Re6  1  0.227889  0.035047  0.839386  1
  C  C7  1  0.974336  0.891802  0.346930  1
  C  C8  1  0.336713  0.682776  0.834390  1
  C  C9  1  0.767275  0.345164  0.904128  1
  C  C10  1  0.609583  0.897526  0.756253  1
  C  C11  1  0.893074  0.683890  0.857662  1
