# generated using pymatgen
data_Ho4Pd3RhPb2
_symmetry_space_group_name_H-M   'P 1'
_cell_length_a   7.86977326
_cell_length_b   7.86977326
_cell_length_c   3.61941100
_cell_angle_alpha   90.00000000
_cell_angle_beta   90.00000000
_cell_angle_gamma   89.97081981
_symmetry_Int_Tables_number   1
_chemical_formula_structural   Ho4Pd3RhPb2
_chemical_formula_sum   'Ho4 Pd3 Rh1 Pb2'
_cell_volume   224.16215073
_cell_formula_units_Z   1
loop_
 _symmetry_equiv_pos_site_id
 _symmetry_equiv_pos_as_xyz
  1  'x, y, z'
loop_
 _atom_site_type_symbol
 _atom_site_label
 _atom_site_symmetry_multiplicity
 _atom_site_fract_x
 _atom_site_fract_y
 _atom_site_fract_z
 _atom_site_occupancy
  Ho  Ho0  1  0.657412  0.173371  0.500000  1
  Ho  Ho1  1  0.179235  0.320765  0.500000  1
  Ho  Ho2  1  0.832604  0.667396  0.500000  1
  Ho  Ho3  1  0.326629  0.842588  0.500000  1
  Pd  Pd4  1  0.127963  0.623861  0.000000  1
  Pd  Pd5  1  0.629692  0.870308  0.000000  1
  Pd  Pd6  1  0.876139  0.372037  0.000000  1
  Rh  Rh7  1  0.374284  0.125716  0.000000  1
  Pb  Pb8  1  0.996700  0.000658  0.000000  1
  Pb  Pb9  1  0.499342  0.503300  0.000000  1
