# generated using pymatgen
data_La8Yb3Ho9Sn16
_symmetry_space_group_name_H-M   'P 1'
_cell_length_a   8.06238100
_cell_length_b   8.39653418
_cell_length_c   15.83591900
_cell_angle_alpha   90.00000000
_cell_angle_beta   90.00000000
_cell_angle_gamma   90.03038612
_symmetry_Int_Tables_number   1
_chemical_formula_structural   La8Yb3Ho9Sn16
_chemical_formula_sum   'La8 Yb3 Ho9 Sn16'
_cell_volume   1072.02913473
_cell_formula_units_Z   1
loop_
 _symmetry_equiv_pos_site_id
 _symmetry_equiv_pos_as_xyz
  1  'x, y, z'
loop_
 _atom_site_type_symbol
 _atom_site_label
 _atom_site_symmetry_multiplicity
 _atom_site_fract_x
 _atom_site_fract_y
 _atom_site_fract_z
 _atom_site_occupancy
  La  La0  1  0.497736  0.320812  0.902930  1
  La  La1  1  0.994930  0.177850  0.595991  1
  La  La2  1  0.504753  0.679534  0.403949  1
  La  La3  1  0.005324  0.819435  0.095883  1
  La  La4  1  0.504753  0.679534  0.096051  1
  La  La5  1  0.005324  0.819435  0.404117  1
  La  La6  1  0.497736  0.320812  0.597070  1
  La  La7  1  0.994930  0.177850  0.904009  1
  Yb  Yb8  1  0.667740  0.000978  0.750000  1
  Yb  Yb9  1  0.831752  0.501321  0.250000  1
  Yb  Yb10  1  0.332296  0.999433  0.250000  1
  Ho  Ho11  1  0.336197  0.830190  0.874759  1
  Ho  Ho12  1  0.834414  0.669834  0.624785  1
  Ho  Ho13  1  0.663748  0.171693  0.375837  1
  Ho  Ho14  1  0.163490  0.330195  0.123510  1
  Ho  Ho15  1  0.663748  0.171693  0.124163  1
  Ho  Ho16  1  0.163490  0.330195  0.376490  1
  Ho  Ho17  1  0.336197  0.830190  0.625241  1
  Ho  Ho18  1  0.834414  0.669834  0.875215  1
  Ho  Ho19  1  0.166749  0.499893  0.750000  1
  Sn  Sn20  1  0.326094  0.041330  0.037472  1
  Sn  Sn21  1  0.824213  0.460827  0.461427  1
  Sn  Sn22  1  0.674120  0.959088  0.537921  1
  Sn  Sn23  1  0.175079  0.538111  0.958083  1
  Sn  Sn24  1  0.674120  0.959088  0.962079  1
  Sn  Sn25  1  0.175079  0.538111  0.541917  1
  Sn  Sn26  1  0.326094  0.041330  0.462528  1
  Sn  Sn27  1  0.824213  0.460827  0.038573  1
  Sn  Sn28  1  0.531447  0.617226  0.750000  1
  Sn  Sn29  1  0.034111  0.876011  0.750000  1
  Sn  Sn30  1  0.464024  0.381136  0.250000  1
  Sn  Sn31  1  0.965128  0.119474  0.250000  1
  Sn  Sn32  1  0.293957  0.141254  0.750000  1
  Sn  Sn33  1  0.803361  0.364534  0.750000  1
  Sn  Sn34  1  0.705160  0.866312  0.250000  1
  Sn  Sn35  1  0.204078  0.634628  0.250000  1
