# generated using pymatgen
data_YbInPtRhO7
_symmetry_space_group_name_H-M   'P 1'
_cell_length_a   7.09942799
_cell_length_b   7.18899236
_cell_length_c   7.18899135
_cell_angle_alpha   60.56406705
_cell_angle_beta   60.41127007
_cell_angle_gamma   60.41127563
_symmetry_Int_Tables_number   1
_chemical_formula_structural   YbInPtRhO7
_chemical_formula_sum   'Yb2 In2 Pt2 Rh2 O14'
_cell_volume   262.15396255
_cell_formula_units_Z   2
loop_
 _symmetry_equiv_pos_site_id
 _symmetry_equiv_pos_as_xyz
  1  'x, y, z'
loop_
 _atom_site_type_symbol
 _atom_site_label
 _atom_site_symmetry_multiplicity
 _atom_site_fract_x
 _atom_site_fract_y
 _atom_site_fract_z
 _atom_site_occupancy
  Yb  Yb0  1  0.125000  0.625000  0.125000  1
  Yb  Yb1  1  0.125000  0.125000  0.625000  1
  In  In2  1  0.125000  0.125000  0.125000  1
  In  In3  1  0.625000  0.125000  0.125000  1
  Pt  Pt4  1  0.625000  0.625000  0.125000  1
  Pt  Pt5  1  0.625000  0.125000  0.625000  1
  Rh  Rh6  1  0.125000  0.625000  0.625000  1
  Rh  Rh7  1  0.625000  0.625000  0.625000  1
  O  O8  1  0.261235  0.238765  0.238765  1
  O  O9  1  0.711492  0.288508  0.288508  1
  O  O10  1  0.700911  0.291913  0.716864  1
  O  O11  1  0.290313  0.716864  0.291913  1
  O  O12  1  0.700911  0.716864  0.291913  1
  O  O13  1  0.290313  0.291913  0.716864  1
  O  O14  1  0.956406  0.543594  0.543594  1
  O  O15  1  0.293594  0.706406  0.706406  1
  O  O16  1  0.959687  0.958087  0.533136  1
  O  O17  1  0.549089  0.958087  0.533136  1
  O  O18  1  0.549089  0.533136  0.958087  1
  O  O19  1  0.959687  0.533136  0.958087  1
  O  O20  1  0.538508  0.961492  0.961492  1
  O  O21  1  0.988765  0.011235  0.011235  1
