# generated using pymatgen
data_TbY7Ti8(NbSi4)4
_symmetry_space_group_name_H-M   'P 1'
_cell_length_a   7.05879403
_cell_length_b   7.05897905
_cell_length_c   13.00979474
_cell_angle_alpha   90.02589689
_cell_angle_beta   90.07081990
_cell_angle_gamma   89.94745271
_symmetry_Int_Tables_number   1
_chemical_formula_structural   TbY7Ti8(NbSi4)4
_chemical_formula_sum   'Tb1 Y7 Ti8 Nb4 Si16'
_cell_volume   648.24964679
_cell_formula_units_Z   1
loop_
 _symmetry_equiv_pos_site_id
 _symmetry_equiv_pos_as_xyz
  1  'x, y, z'
loop_
 _atom_site_type_symbol
 _atom_site_label
 _atom_site_symmetry_multiplicity
 _atom_site_fract_x
 _atom_site_fract_y
 _atom_site_fract_z
 _atom_site_occupancy
  Tb  Tb0  1  0.998394  0.659937  0.033212  1
  Y  Y1  1  0.340142  0.001246  0.466761  1
  Y  Y2  1  0.498698  0.840191  0.716819  1
  Y  Y3  1  0.501332  0.159928  0.216845  1
  Y  Y4  1  0.840167  0.498584  0.283188  1
  Y  Y5  1  0.159909  0.501265  0.783128  1
  Y  Y6  1  0.659895  0.998695  0.966811  1
  Y  Y7  1  0.001325  0.340182  0.533242  1
  Ti  Ti8  1  0.153102  0.009496  0.875511  1
  Ti  Ti9  1  0.490586  0.652956  0.125652  1
  Ti  Ti10  1  0.509516  0.346749  0.625508  1
  Ti  Ti11  1  0.653082  0.490695  0.874289  1
  Ti  Ti12  1  0.346899  0.509608  0.374539  1
  Ti  Ti13  1  0.846824  0.990673  0.375740  1
  Ti  Ti14  1  0.009609  0.153221  0.124473  1
  Ti  Ti15  1  0.990420  0.846776  0.624500  1
  Nb  Nb16  1  0.326709  0.326724  0.999982  1
  Nb  Nb17  1  0.173326  0.826493  0.250057  1
  Nb  Nb18  1  0.826579  0.173254  0.749877  1
  Nb  Nb19  1  0.673396  0.673408  0.499972  1
  Si  Si20  1  0.203025  0.128822  0.684387  1
  Si  Si21  1  0.371307  0.702966  0.934418  1
  Si  Si22  1  0.628997  0.297056  0.434437  1
  Si  Si23  1  0.702737  0.371022  0.065505  1
  Si  Si24  1  0.297089  0.628999  0.565551  1
  Si  Si25  1  0.796880  0.871300  0.184595  1
  Si  Si26  1  0.128940  0.203015  0.315597  1
  Si  Si27  1  0.871206  0.796958  0.815504  1
  Si  Si28  1  0.292390  0.953469  0.063626  1
  Si  Si29  1  0.546513  0.792198  0.313659  1
  Si  Si30  1  0.453459  0.207871  0.813582  1
  Si  Si31  1  0.792147  0.546591  0.686347  1
  Si  Si32  1  0.207876  0.453420  0.186452  1
  Si  Si33  1  0.707652  0.046559  0.563711  1
  Si  Si34  1  0.953325  0.291986  0.936235  1
  Si  Si35  1  0.046548  0.707687  0.436291  1
