# generated using pymatgen
data_Nb8Fe(CoSi2)7
_symmetry_space_group_name_H-M   'P 1'
_cell_length_a   9.24587737
_cell_length_b   9.24502486
_cell_length_c   9.25311331
_cell_angle_alpha   94.21961010
_cell_angle_beta   94.22451843
_cell_angle_gamma   148.49926249
_symmetry_Int_Tables_number   1
_chemical_formula_structural   Nb8Fe(CoSi2)7
_chemical_formula_sum   'Nb8 Fe1 Co7 Si14'
_cell_volume   397.78341071
_cell_formula_units_Z   1
loop_
 _symmetry_equiv_pos_site_id
 _symmetry_equiv_pos_as_xyz
  1  'x, y, z'
loop_
 _atom_site_type_symbol
 _atom_site_label
 _atom_site_symmetry_multiplicity
 _atom_site_fract_x
 _atom_site_fract_y
 _atom_site_fract_z
 _atom_site_occupancy
  Nb  Nb0  1  0.133924  0.133924  0.267847  1
  Nb  Nb1  1  0.866396  0.866396  0.732793  1
  Nb  Nb2  1  0.865923  0.134070  0.000599  1
  Nb  Nb3  1  0.134676  0.866529  0.000599  1
  Nb  Nb4  1  0.499839  0.691357  0.191081  1
  Nb  Nb5  1  0.499304  0.308536  0.808686  1
  Nb  Nb6  1  0.309382  0.500150  0.808686  1
  Nb  Nb7  1  0.691242  0.499724  0.191081  1
  Fe  Fe8  1  0.600620  0.100620  0.201240  1
  Co  Co9  1  0.398797  0.898797  0.797594  1
  Co  Co10  1  0.100956  0.600956  0.201911  1
  Co  Co11  1  0.100714  0.897509  0.499569  1
  Co  Co12  1  0.398855  0.602060  0.499569  1
  Co  Co13  1  0.601072  0.399634  0.500811  1
  Co  Co14  1  0.899738  0.101177  0.500811  1
  Co  Co15  1  0.898950  0.398950  0.797900  1
  Si  Si16  1  0.291613  0.291613  0.583228  1
  Si  Si17  1  0.708140  0.708140  0.416278  1
  Si  Si18  1  0.708186  0.291642  0.999763  1
  Si  Si19  1  0.291577  0.708121  0.999763  1
  Si  Si20  1  0.997602  0.294587  0.296519  1
  Si  Si21  1  0.999555  0.702749  0.703704  1
  Si  Si22  1  0.704148  0.000955  0.703704  1
  Si  Si23  1  0.298917  0.001932  0.296519  1
  Si  Si24  1  0.503271  0.910430  0.404953  1
  Si  Si25  1  0.499852  0.094083  0.594873  1
  Si  Si26  1  0.095022  0.500790  0.594873  1
  Si  Si27  1  0.901682  0.494523  0.404953  1
  Si  Si28  1  0.750980  0.751050  0.000045  1
  Si  Si29  1  0.249065  0.248995  0.000045  1
