# generated using pymatgen
data_Hf3(Zn2Au)4
_symmetry_space_group_name_H-M   'P 1'
_cell_length_a   8.91656987
_cell_length_b   8.91706532
_cell_length_c   8.91836216
_cell_angle_alpha   59.97375639
_cell_angle_beta   59.98990230
_cell_angle_gamma   59.96494971
_symmetry_Int_Tables_number   1
_chemical_formula_structural   Hf3(Zn2Au)4
_chemical_formula_sum   'Hf6 Zn16 Au8'
_cell_volume   501.13577952
_cell_formula_units_Z   2
loop_
 _symmetry_equiv_pos_site_id
 _symmetry_equiv_pos_as_xyz
  1  'x, y, z'
loop_
 _atom_site_type_symbol
 _atom_site_label
 _atom_site_symmetry_multiplicity
 _atom_site_fract_x
 _atom_site_fract_y
 _atom_site_fract_z
 _atom_site_occupancy
  Hf  Hf0  1  0.717099  0.282882  0.282867  1
  Hf  Hf1  1  0.282904  0.717113  0.717136  1
  Hf  Hf2  1  0.283268  0.716709  0.283230  1
  Hf  Hf3  1  0.716732  0.283288  0.716772  1
  Hf  Hf4  1  0.283022  0.283020  0.716961  1
  Hf  Hf5  1  0.716980  0.716975  0.283043  1
  Zn  Zn6  1  0.500003  0.000008  0.999989  1
  Zn  Zn7  1  0.999998  0.499993  0.500004  1
  Zn  Zn8  1  0.000004  0.499995  0.000001  1
  Zn  Zn9  1  0.500002  0.000002  0.500003  1
  Zn  Zn10  1  0.999991  0.000006  0.500003  1
  Zn  Zn11  1  0.500003  0.499994  0.999997  1
  Zn  Zn12  1  0.343704  0.343444  0.343678  1
  Zn  Zn13  1  0.656295  0.656552  0.656323  1
  Zn  Zn14  1  0.343454  0.343701  0.969167  1
  Zn  Zn15  1  0.343621  0.969177  0.343726  1
  Zn  Zn16  1  0.656553  0.656302  0.030820  1
  Zn  Zn17  1  0.656374  0.030840  0.656271  1
  Zn  Zn18  1  0.969162  0.343622  0.343487  1
  Zn  Zn19  1  0.030831  0.656377  0.656519  1
  Zn  Zn20  1  0.999997  0.000005  0.999999  1
  Zn  Zn21  1  0.500001  0.499996  0.500005  1
  Au  Au22  1  0.123206  0.123291  0.123261  1
  Au  Au23  1  0.876795  0.876710  0.876739  1
  Au  Au24  1  0.123293  0.123205  0.630237  1
  Au  Au25  1  0.123250  0.630224  0.123210  1
  Au  Au26  1  0.876705  0.876794  0.369765  1
  Au  Au27  1  0.876750  0.369776  0.876788  1
  Au  Au28  1  0.630227  0.123249  0.123309  1
  Au  Au29  1  0.369772  0.876751  0.876690  1
