# generated using pymatgen
data_Y5Th3(Ta3Si4)4
_symmetry_space_group_name_H-M   'P 1'
_cell_length_a   7.08825491
_cell_length_b   7.09237903
_cell_length_c   13.15831020
_cell_angle_alpha   89.87424446
_cell_angle_beta   90.02079262
_cell_angle_gamma   90.08141780
_symmetry_Int_Tables_number   1
_chemical_formula_structural   Y5Th3(Ta3Si4)4
_chemical_formula_sum   'Y5 Th3 Ta12 Si16'
_cell_volume   661.50003532
_cell_formula_units_Z   1
loop_
 _symmetry_equiv_pos_site_id
 _symmetry_equiv_pos_as_xyz
  1  'x, y, z'
loop_
 _atom_site_type_symbol
 _atom_site_label
 _atom_site_symmetry_multiplicity
 _atom_site_fract_x
 _atom_site_fract_y
 _atom_site_fract_z
 _atom_site_occupancy
  Y  Y0  1  0.999465  0.340239  0.216829  1
  Y  Y1  1  0.999581  0.660606  0.718943  1
  Y  Y2  1  0.160324  0.500229  0.467844  1
  Y  Y3  1  0.500230  0.838784  0.031564  1
  Y  Y4  1  0.838997  0.500239  0.968461  1
  Th  Th5  1  0.497702  0.162712  0.531891  1
  Th  Th6  1  0.337571  0.996737  0.782379  1
  Th  Th7  1  0.662745  0.003469  0.281531  1
  Ta  Ta8  1  0.168168  0.169170  0.999184  1
  Ta  Ta9  1  0.829962  0.832507  0.499481  1
  Ta  Ta10  1  0.331781  0.670242  0.249020  1
  Ta  Ta11  1  0.667212  0.330158  0.750791  1
  Ta  Ta12  1  0.157594  0.990791  0.373826  1
  Ta  Ta13  1  0.844601  0.007488  0.875598  1
  Ta  Ta14  1  0.508967  0.656878  0.625819  1
  Ta  Ta15  1  0.343828  0.493383  0.876052  1
  Ta  Ta16  1  0.491904  0.344094  0.125044  1
  Ta  Ta17  1  0.656900  0.504170  0.374448  1
  Ta  Ta18  1  0.996090  0.157493  0.625681  1
  Ta  Ta19  1  0.005189  0.843241  0.125237  1
  Si  Si20  1  0.289132  0.042767  0.183271  1
  Si  Si21  1  0.713925  0.955242  0.687012  1
  Si  Si22  1  0.455237  0.786099  0.436173  1
  Si  Si23  1  0.204797  0.541554  0.063854  1
  Si  Si24  1  0.544467  0.207745  0.938423  1
  Si  Si25  1  0.798132  0.461999  0.564390  1
  Si  Si26  1  0.037396  0.298815  0.814693  1
  Si  Si27  1  0.960367  0.701418  0.313643  1
  Si  Si28  1  0.364798  0.300485  0.315169  1
  Si  Si29  1  0.634196  0.700138  0.817888  1
  Si  Si30  1  0.198958  0.865380  0.565671  1
  Si  Si31  1  0.126549  0.792282  0.935611  1
  Si  Si32  1  0.798180  0.131965  0.065540  1
  Si  Si33  1  0.878923  0.207284  0.433876  1
  Si  Si34  1  0.291895  0.378044  0.684329  1
  Si  Si35  1  0.704236  0.626155  0.180835  1
