# generated using pymatgen
data_Tb3Al12FeCo3
_symmetry_space_group_name_H-M   'P 1'
_cell_length_a   8.65301700
_cell_length_b   8.65301665
_cell_length_c   9.28714100
_cell_angle_alpha   90.00000000
_cell_angle_beta   90.00000000
_cell_angle_gamma   119.99998988
_symmetry_Int_Tables_number   1
_chemical_formula_structural   Tb3Al12FeCo3
_chemical_formula_sum   'Tb6 Al24 Fe2 Co6'
_cell_volume   602.20978983
_cell_formula_units_Z   2
loop_
 _symmetry_equiv_pos_site_id
 _symmetry_equiv_pos_as_xyz
  1  'x, y, z'
loop_
 _atom_site_type_symbol
 _atom_site_label
 _atom_site_symmetry_multiplicity
 _atom_site_fract_x
 _atom_site_fract_y
 _atom_site_fract_z
 _atom_site_occupancy
  Tb  Tb0  1  0.192853  0.385707  0.250000  1
  Tb  Tb1  1  0.807147  0.614293  0.750000  1
  Tb  Tb2  1  0.614293  0.807147  0.250000  1
  Tb  Tb3  1  0.385707  0.192853  0.750000  1
  Tb  Tb4  1  0.192853  0.807147  0.250000  1
  Tb  Tb5  1  0.807147  0.192853  0.750000  1
  Al  Al6  1  0.333333  0.666667  0.017095  1
  Al  Al7  1  0.666667  0.333333  0.982905  1
  Al  Al8  1  0.666667  0.333333  0.517095  1
  Al  Al9  1  0.333333  0.666667  0.482905  1
  Al  Al10  1  0.162159  0.324317  0.575058  1
  Al  Al11  1  0.837841  0.675683  0.424942  1
  Al  Al12  1  0.675683  0.837841  0.575058  1
  Al  Al13  1  0.837841  0.675683  0.075058  1
  Al  Al14  1  0.324317  0.162159  0.424942  1
  Al  Al15  1  0.162159  0.324317  0.924942  1
  Al  Al16  1  0.162159  0.837841  0.575058  1
  Al  Al17  1  0.324317  0.162159  0.075058  1
  Al  Al18  1  0.837841  0.162159  0.424942  1
  Al  Al19  1  0.675683  0.837841  0.924942  1
  Al  Al20  1  0.837841  0.162159  0.075058  1
  Al  Al21  1  0.162159  0.837841  0.924942  1
  Al  Al22  1  0.560045  0.120090  0.250000  1
  Al  Al23  1  0.439955  0.879910  0.750000  1
  Al  Al24  1  0.879910  0.439955  0.250000  1
  Al  Al25  1  0.120090  0.560045  0.750000  1
  Al  Al26  1  0.560045  0.439955  0.250000  1
  Al  Al27  1  0.439955  0.560045  0.750000  1
  Al  Al28  1  0.000000  0.000000  0.250000  1
  Al  Al29  1  0.000000  0.000000  0.750000  1
  Fe  Fe30  1  0.000000  0.000000  0.000000  1
  Fe  Fe31  1  0.000000  0.000000  0.500000  1
  Co  Co32  1  0.500000  0.000000  0.000000  1
  Co  Co33  1  0.000000  0.500000  0.000000  1
  Co  Co34  1  0.500000  0.000000  0.500000  1
  Co  Co35  1  0.500000  0.500000  0.000000  1
  Co  Co36  1  0.000000  0.500000  0.500000  1
  Co  Co37  1  0.500000  0.500000  0.500000  1
