# generated using pymatgen
data_CeThP7Ru12
_symmetry_space_group_name_H-M   'P 1'
_cell_length_a   9.48881400
_cell_length_b   9.48881389
_cell_length_c   3.95619500
_cell_angle_alpha   90.00000000
_cell_angle_beta   90.00000000
_cell_angle_gamma   119.99999853
_symmetry_Int_Tables_number   1
_chemical_formula_structural   CeThP7Ru12
_chemical_formula_sum   'Ce1 Th1 P7 Ru12'
_cell_volume   308.48367783
_cell_formula_units_Z   1
loop_
 _symmetry_equiv_pos_site_id
 _symmetry_equiv_pos_as_xyz
  1  'x, y, z'
loop_
 _atom_site_type_symbol
 _atom_site_label
 _atom_site_symmetry_multiplicity
 _atom_site_fract_x
 _atom_site_fract_y
 _atom_site_fract_z
 _atom_site_occupancy
  Ce  Ce0  1  0.666667  0.333333  0.500000  1
  Th  Th1  1  0.333333  0.666667  0.000000  1
  P  P2  1  0.604650  0.714857  0.500000  1
  P  P3  1  0.000000  0.000000  0.000000  1
  P  P4  1  0.285143  0.889792  0.500000  1
  P  P5  1  0.110208  0.395350  0.500000  1
  P  P6  1  0.889730  0.579236  0.000000  1
  P  P7  1  0.420764  0.310494  0.000000  1
  P  P8  1  0.689506  0.110270  0.000000  1
  Ru  Ru9  1  0.558629  0.949097  0.500000  1
  Ru  Ru10  1  0.390469  0.441371  0.500000  1
  Ru  Ru11  1  0.911132  0.121880  0.500000  1
  Ru  Ru12  1  0.210748  0.088868  0.500000  1
  Ru  Ru13  1  0.878120  0.789252  0.500000  1
  Ru  Ru14  1  0.729007  0.889511  0.000000  1
  Ru  Ru15  1  0.110489  0.839495  0.000000  1
  Ru  Ru16  1  0.160505  0.270993  0.000000  1
  Ru  Ru17  1  0.427239  0.069613  0.000000  1
  Ru  Ru18  1  0.930387  0.357626  0.000000  1
  Ru  Ru19  1  0.642374  0.572761  0.000000  1
  Ru  Ru20  1  0.050903  0.609531  0.500000  1
