# generated using pymatgen
data_Dy6Ho2Ti12Si15Ge
_symmetry_space_group_name_H-M   'P 1'
_cell_length_a   7.07441560
_cell_length_b   7.06477736
_cell_length_c   12.98179500
_cell_angle_alpha   89.99369535
_cell_angle_beta   89.93636734
_cell_angle_gamma   89.99812371
_symmetry_Int_Tables_number   1
_chemical_formula_structural   Dy6Ho2Ti12Si15Ge
_chemical_formula_sum   'Dy6 Ho2 Ti12 Si15 Ge1'
_cell_volume   648.81895064
_cell_formula_units_Z   1
loop_
 _symmetry_equiv_pos_site_id
 _symmetry_equiv_pos_as_xyz
  1  'x, y, z'
loop_
 _atom_site_type_symbol
 _atom_site_label
 _atom_site_symmetry_multiplicity
 _atom_site_fract_x
 _atom_site_fract_y
 _atom_site_fract_z
 _atom_site_occupancy
  Dy  Dy0  1  0.341421  0.001770  0.465673  1
  Dy  Dy1  1  0.498564  0.840037  0.717000  1
  Dy  Dy2  1  0.502597  0.159540  0.216746  1
  Dy  Dy3  1  0.840722  0.497175  0.283235  1
  Dy  Dy4  1  0.159395  0.503241  0.783793  1
  Dy  Dy5  1  0.660132  0.996717  0.967287  1
  Ho  Ho6  1  0.000194  0.342622  0.532188  1
  Ho  Ho7  1  0.998059  0.658986  0.033431  1
  Ti  Ti8  1  0.326123  0.326558  0.000184  1
  Ti  Ti9  1  0.173564  0.826248  0.249952  1
  Ti  Ti10  1  0.823295  0.174227  0.750490  1
  Ti  Ti11  1  0.673555  0.673463  0.499967  1
  Ti  Ti12  1  0.152299  0.008813  0.877577  1
  Ti  Ti13  1  0.491653  0.651333  0.126308  1
  Ti  Ti14  1  0.510205  0.349443  0.626510  1
  Ti  Ti15  1  0.652454  0.492356  0.874240  1
  Ti  Ti16  1  0.347948  0.508717  0.373542  1
  Ti  Ti17  1  0.847980  0.991820  0.376281  1
  Ti  Ti18  1  0.008657  0.151649  0.123686  1
  Ti  Ti19  1  0.988884  0.845154  0.622504  1
  Si  Si20  1  0.369334  0.702790  0.934542  1
  Si  Si21  1  0.630033  0.297485  0.434307  1
  Si  Si22  1  0.703133  0.369845  0.065930  1
  Si  Si23  1  0.297399  0.630103  0.565648  1
  Si  Si24  1  0.797461  0.869373  0.184213  1
  Si  Si25  1  0.130194  0.202678  0.315836  1
  Si  Si26  1  0.870223  0.797722  0.815838  1
  Si  Si27  1  0.290818  0.952227  0.065218  1
  Si  Si28  1  0.548235  0.790339  0.314643  1
  Si  Si29  1  0.455261  0.209880  0.816700  1
  Si  Si30  1  0.791338  0.547270  0.685305  1
  Si  Si31  1  0.209084  0.452496  0.185055  1
  Si  Si32  1  0.709029  0.047842  0.564767  1
  Si  Si33  1  0.952653  0.291205  0.935340  1
  Si  Si34  1  0.047582  0.709418  0.434826  1
  Ge  Ge35  1  0.200518  0.129455  0.681242  1
