# generated using pymatgen
data_SmEr5Co16(MoP6)2
_symmetry_space_group_name_H-M   'P 1'
_cell_length_a   3.72754500
_cell_length_b   10.57600900
_cell_length_c   12.25752300
_cell_angle_alpha   90.00000000
_cell_angle_beta   90.00000000
_cell_angle_gamma   90.00000000
_symmetry_Int_Tables_number   1
_chemical_formula_structural   SmEr5Co16(MoP6)2
_chemical_formula_sum   'Sm1 Er5 Co16 Mo2 P12'
_cell_volume   483.22280682
_cell_formula_units_Z   1
loop_
 _symmetry_equiv_pos_site_id
 _symmetry_equiv_pos_as_xyz
  1  'x, y, z'
loop_
 _atom_site_type_symbol
 _atom_site_label
 _atom_site_symmetry_multiplicity
 _atom_site_fract_x
 _atom_site_fract_y
 _atom_site_fract_z
 _atom_site_occupancy
  Sm  Sm0  1  0.750000  0.250000  0.475335  1
  Er  Er1  1  0.250000  0.750000  0.524545  1
  Er  Er2  1  0.250000  0.930932  0.794833  1
  Er  Er3  1  0.250000  0.569068  0.794833  1
  Er  Er4  1  0.750000  0.068876  0.204586  1
  Er  Er5  1  0.750000  0.431124  0.204586  1
  Co  Co6  1  0.250000  0.250000  0.296327  1
  Co  Co7  1  0.750000  0.750000  0.701869  1
  Co  Co8  1  0.750000  0.250000  0.013548  1
  Co  Co9  1  0.250000  0.750000  0.986323  1
  Co  Co10  1  0.250000  0.417946  0.010163  1
  Co  Co11  1  0.250000  0.082054  0.010163  1
  Co  Co12  1  0.750000  0.582644  0.989943  1
  Co  Co13  1  0.750000  0.917356  0.989943  1
  Co  Co14  1  0.250000  0.456606  0.568910  1
  Co  Co15  1  0.250000  0.043394  0.568910  1
  Co  Co16  1  0.750000  0.547717  0.431046  1
  Co  Co17  1  0.750000  0.952283  0.431046  1
  Co  Co18  1  0.250000  0.871680  0.292695  1
  Co  Co19  1  0.250000  0.628320  0.292695  1
  Co  Co20  1  0.750000  0.127278  0.707879  1
  Co  Co21  1  0.750000  0.372722  0.707879  1
  Mo  Mo22  1  0.250000  0.250000  0.844918  1
  Mo  Mo23  1  0.750000  0.750000  0.156542  1
  P  P24  1  0.250000  0.250000  0.118680  1
  P  P25  1  0.750000  0.750000  0.880658  1
  P  P26  1  0.250000  0.250000  0.653009  1
  P  P27  1  0.750000  0.750000  0.349921  1
  P  P28  1  0.250000  0.440536  0.382653  1
  P  P29  1  0.250000  0.059464  0.382653  1
  P  P30  1  0.750000  0.562356  0.616183  1
  P  P31  1  0.750000  0.937644  0.616183  1
  P  P32  1  0.250000  0.905399  0.107184  1
  P  P33  1  0.250000  0.594601  0.107184  1
  P  P34  1  0.750000  0.093972  0.893087  1
  P  P35  1  0.750000  0.406028  0.893087  1
