# generated using pymatgen
data_La2Tm2LuSi4
_symmetry_space_group_name_H-M   'P 1'
_cell_length_a   7.76749600
_cell_length_b   7.76749600
_cell_length_c   14.27486000
_cell_angle_alpha   90.00000000
_cell_angle_beta   90.00000000
_cell_angle_gamma   90.00000000
_symmetry_Int_Tables_number   1
_chemical_formula_structural   La2Tm2LuSi4
_chemical_formula_sum   'La8 Tm8 Lu4 Si16'
_cell_volume   861.25931916
_cell_formula_units_Z   4
loop_
 _symmetry_equiv_pos_site_id
 _symmetry_equiv_pos_as_xyz
  1  'x, y, z'
loop_
 _atom_site_type_symbol
 _atom_site_label
 _atom_site_symmetry_multiplicity
 _atom_site_fract_x
 _atom_site_fract_y
 _atom_site_fract_z
 _atom_site_occupancy
  La  La0  1  0.991562  0.643820  0.039712  1
  La  La1  1  0.008438  0.356180  0.539712  1
  La  La2  1  0.643820  0.991562  0.960288  1
  La  La3  1  0.143820  0.508438  0.789712  1
  La  La4  1  0.856180  0.491562  0.289712  1
  La  La5  1  0.508438  0.143820  0.210288  1
  La  La6  1  0.491562  0.856180  0.710288  1
  La  La7  1  0.356180  0.008438  0.460288  1
  Tm  Tm8  1  0.359774  0.493916  0.374997  1
  Tm  Tm9  1  0.859774  0.006084  0.375003  1
  Tm  Tm10  1  0.993916  0.140226  0.124997  1
  Tm  Tm11  1  0.006084  0.859774  0.624997  1
  Tm  Tm12  1  0.640226  0.506084  0.874997  1
  Tm  Tm13  1  0.493916  0.359774  0.625003  1
  Tm  Tm14  1  0.506084  0.640226  0.125003  1
  Tm  Tm15  1  0.140226  0.993916  0.875003  1
  Lu  Lu16  1  0.681854  0.681854  0.500000  1
  Lu  Lu17  1  0.818146  0.181854  0.750000  1
  Lu  Lu18  1  0.181854  0.818146  0.250000  1
  Lu  Lu19  1  0.318146  0.318146  0.000000  1
  Si  Si20  1  0.063434  0.712572  0.436868  1
  Si  Si21  1  0.936566  0.287428  0.936868  1
  Si  Si22  1  0.712572  0.063434  0.563132  1
  Si  Si23  1  0.212573  0.436566  0.186868  1
  Si  Si24  1  0.787428  0.563434  0.686868  1
  Si  Si25  1  0.436566  0.212573  0.813132  1
  Si  Si26  1  0.563434  0.787428  0.313132  1
  Si  Si27  1  0.287428  0.936566  0.063132  1
  Si  Si28  1  0.850163  0.796316  0.810543  1
  Si  Si29  1  0.149837  0.203684  0.310543  1
  Si  Si30  1  0.796316  0.850163  0.189457  1
  Si  Si31  1  0.296316  0.649837  0.560543  1
  Si  Si32  1  0.703684  0.350163  0.060543  1
  Si  Si33  1  0.649837  0.296316  0.439457  1
  Si  Si34  1  0.350163  0.703684  0.939457  1
  Si  Si35  1  0.203684  0.149837  0.689457  1
