# generated using pymatgen
data_Tb4AgIr
_symmetry_space_group_name_H-M   'P 1'
_cell_length_a   9.58321643
_cell_length_b   9.58321616
_cell_length_c   9.58321600
_cell_angle_alpha   60.00000055
_cell_angle_beta   60.00000148
_cell_angle_gamma   59.99999607
_symmetry_Int_Tables_number   1
_chemical_formula_structural   Tb4AgIr
_chemical_formula_sum   'Tb16 Ag4 Ir4'
_cell_volume   622.32730101
_cell_formula_units_Z   4
loop_
 _symmetry_equiv_pos_site_id
 _symmetry_equiv_pos_as_xyz
  1  'x, y, z'
loop_
 _atom_site_type_symbol
 _atom_site_label
 _atom_site_symmetry_multiplicity
 _atom_site_fract_x
 _atom_site_fract_y
 _atom_site_fract_z
 _atom_site_occupancy
  Tb  Tb0  1  0.101672  0.694984  0.101672  1
  Tb  Tb1  1  0.938719  0.938719  0.561281  1
  Tb  Tb2  1  0.938719  0.561281  0.938719  1
  Tb  Tb3  1  0.313029  0.686971  0.313029  1
  Tb  Tb4  1  0.938719  0.561281  0.561281  1
  Tb  Tb5  1  0.313029  0.313029  0.686971  1
  Tb  Tb6  1  0.101672  0.101672  0.101672  1
  Tb  Tb7  1  0.561281  0.561281  0.938719  1
  Tb  Tb8  1  0.101672  0.101672  0.694984  1
  Tb  Tb9  1  0.686971  0.313029  0.686971  1
  Tb  Tb10  1  0.686971  0.686971  0.313029  1
  Tb  Tb11  1  0.686971  0.313029  0.313029  1
  Tb  Tb12  1  0.313029  0.686971  0.686971  1
  Tb  Tb13  1  0.561281  0.938719  0.561281  1
  Tb  Tb14  1  0.694984  0.101672  0.101672  1
  Tb  Tb15  1  0.561281  0.938719  0.938719  1
  Ag  Ag16  1  0.332309  0.332309  0.332309  1
  Ag  Ag17  1  0.003072  0.332309  0.332309  1
  Ag  Ag18  1  0.332309  0.003072  0.332309  1
  Ag  Ag19  1  0.332309  0.332309  0.003072  1
  Ir  Ir20  1  0.892468  0.892468  0.892468  1
  Ir  Ir21  1  0.892468  0.892468  0.322596  1
  Ir  Ir22  1  0.322596  0.892468  0.892468  1
  Ir  Ir23  1  0.892468  0.322596  0.892468  1
