# generated using pymatgen
data_TbNd5Zn4Pd12Rh
_symmetry_space_group_name_H-M   'P 1'
_cell_length_a   8.35469765
_cell_length_b   8.35469839
_cell_length_c   8.35469833
_cell_angle_alpha   109.51400359
_cell_angle_beta   109.51400263
_cell_angle_gamma   109.38568849
_symmetry_Int_Tables_number   1
_chemical_formula_structural   TbNd5Zn4Pd12Rh
_chemical_formula_sum   'Tb1 Nd5 Zn4 Pd12 Rh1'
_cell_volume   448.92074616
_cell_formula_units_Z   1
loop_
 _symmetry_equiv_pos_site_id
 _symmetry_equiv_pos_as_xyz
  1  'x, y, z'
loop_
 _atom_site_type_symbol
 _atom_site_label
 _atom_site_symmetry_multiplicity
 _atom_site_fract_x
 _atom_site_fract_y
 _atom_site_fract_z
 _atom_site_occupancy
  Tb  Tb0  1  0.699575  0.699575  0.000000  1
  Nd  Nd1  1  0.296580  0.999495  0.297085  1
  Nd  Nd2  1  0.999495  0.296580  0.297085  1
  Nd  Nd3  1  0.297481  0.297481  0.000000  1
  Nd  Nd4  1  0.702410  0.999495  0.702915  1
  Nd  Nd5  1  0.999495  0.702410  0.702915  1
  Zn  Zn6  1  0.000012  0.000012  0.498732  1
  Zn  Zn7  1  0.000012  0.501280  0.000000  1
  Zn  Zn8  1  0.501280  0.000012  0.000000  1
  Zn  Zn9  1  0.501280  0.501280  0.501268  1
  Pd  Pd10  1  0.335359  0.335359  0.668573  1
  Pd  Pd11  1  0.668442  0.999116  0.330674  1
  Pd  Pd12  1  0.999116  0.668442  0.330674  1
  Pd  Pd13  1  0.666785  0.335359  0.000000  1
  Pd  Pd14  1  0.332374  0.664819  0.332446  1
  Pd  Pd15  1  0.999929  0.332374  0.667554  1
  Pd  Pd16  1  0.335359  0.666785  0.000000  1
  Pd  Pd17  1  0.332374  0.999929  0.667554  1
  Pd  Pd18  1  0.664819  0.332374  0.332446  1
  Pd  Pd19  1  0.666785  0.666785  0.331427  1
  Pd  Pd20  1  0.668442  0.337768  0.669326  1
  Pd  Pd21  1  0.337768  0.668442  0.669326  1
  Rh  Rh22  1  0.994829  0.994829  0.000000  1
