# generated using pymatgen
data_Cs2Rh(WO4)3
_symmetry_space_group_name_H-M   'P 1'
_cell_length_a   7.41941674
_cell_length_b   7.41475642
_cell_length_c   7.35735566
_cell_angle_alpha   90.00000330
_cell_angle_beta   59.74250411
_cell_angle_gamma   119.97922350
_symmetry_Int_Tables_number   1
_chemical_formula_structural   Cs2Rh(WO4)3
_chemical_formula_sum   'Cs2 Rh1 W3 O12'
_cell_volume   285.17371898
_cell_formula_units_Z   1
loop_
 _symmetry_equiv_pos_site_id
 _symmetry_equiv_pos_as_xyz
  1  'x, y, z'
loop_
 _atom_site_type_symbol
 _atom_site_label
 _atom_site_symmetry_multiplicity
 _atom_site_fract_x
 _atom_site_fract_y
 _atom_site_fract_z
 _atom_site_occupancy
  Cs  Cs0  1  0.256641  0.132231  0.114892  1
  Cs  Cs1  1  0.743359  0.875591  0.885108  1
  Rh  Rh2  1  0.000000  0.503703  0.000000  1
  W  W3  1  0.500071  0.003950  0.500078  1
  W  W4  1  0.499929  0.503879  0.499922  1
  W  W5  1  0.000000  0.503990  0.500000  1
  O  O6  1  0.623682  0.815619  0.434716  1
  O  O7  1  0.875112  0.441195  0.806743  1
  O  O8  1  0.255818  0.821938  0.806737  1
  O  O9  1  0.253171  0.445263  0.434858  1
  O  O10  1  0.255902  0.441232  0.806772  1
  O  O11  1  0.253130  0.815490  0.434910  1
  O  O12  1  0.376318  0.191937  0.565284  1
  O  O13  1  0.124888  0.566082  0.193257  1
  O  O14  1  0.744098  0.185328  0.193228  1
  O  O15  1  0.746870  0.562360  0.565090  1
  O  O16  1  0.744182  0.566120  0.193263  1
  O  O17  1  0.746829  0.192090  0.565142  1
