# generated using pymatgen
data_Hf3Al3GaPt2
_symmetry_space_group_name_H-M   'P 1'
_cell_length_a   6.66959300
_cell_length_b   6.66959328
_cell_length_c   8.24542900
_cell_angle_alpha   90.00000000
_cell_angle_beta   90.00000000
_cell_angle_gamma   120.00000359
_symmetry_Int_Tables_number   1
_chemical_formula_structural   Hf3Al3GaPt2
_chemical_formula_sum   'Hf6 Al6 Ga2 Pt4'
_cell_volume   317.64538917
_cell_formula_units_Z   2
loop_
 _symmetry_equiv_pos_site_id
 _symmetry_equiv_pos_as_xyz
  1  'x, y, z'
loop_
 _atom_site_type_symbol
 _atom_site_label
 _atom_site_symmetry_multiplicity
 _atom_site_fract_x
 _atom_site_fract_y
 _atom_site_fract_z
 _atom_site_occupancy
  Hf  Hf0  1  0.576510  0.993281  0.750000  1
  Hf  Hf1  1  0.006719  0.583229  0.750000  1
  Hf  Hf2  1  0.416771  0.423490  0.750000  1
  Hf  Hf3  1  0.008402  0.584762  0.250000  1
  Hf  Hf4  1  0.576360  0.991598  0.250000  1
  Hf  Hf5  1  0.415238  0.423640  0.250000  1
  Al  Al6  1  0.750002  0.759267  0.999894  1
  Al  Al7  1  0.240733  0.990736  0.999894  1
  Al  Al8  1  0.009264  0.249998  0.999894  1
  Al  Al9  1  0.750002  0.759267  0.500106  1
  Al  Al10  1  0.240733  0.990736  0.500106  1
  Al  Al11  1  0.009264  0.249998  0.500106  1
  Ga  Ga12  1  0.666667  0.333333  0.001145  1
  Ga  Ga13  1  0.666667  0.333333  0.498855  1
  Pt  Pt14  1  0.000000  0.000000  0.750000  1
  Pt  Pt15  1  0.000000  0.000000  0.250000  1
  Pt  Pt16  1  0.333333  0.666667  0.500322  1
  Pt  Pt17  1  0.333333  0.666667  0.999679  1
