# generated using pymatgen
data_Lu5Hg3Pt2Pb
_symmetry_space_group_name_H-M   'P 1'
_cell_length_a   3.55599400
_cell_length_b   7.96208056
_cell_length_c   18.13543255
_cell_angle_alpha   90.27300325
_cell_angle_beta   90.00000000
_cell_angle_gamma   90.00000000
_symmetry_Int_Tables_number   1
_chemical_formula_structural   Lu5Hg3Pt2Pb
_chemical_formula_sum   'Lu10 Hg6 Pt4 Pb2'
_cell_volume   513.46468057
_cell_formula_units_Z   2
loop_
 _symmetry_equiv_pos_site_id
 _symmetry_equiv_pos_as_xyz
  1  'x, y, z'
loop_
 _atom_site_type_symbol
 _atom_site_label
 _atom_site_symmetry_multiplicity
 _atom_site_fract_x
 _atom_site_fract_y
 _atom_site_fract_z
 _atom_site_occupancy
  Lu  Lu0  1  0.000000  0.106707  0.413270  1
  Lu  Lu1  1  0.000000  0.893293  0.586730  1
  Lu  Lu2  1  0.000000  0.388426  0.914448  1
  Lu  Lu3  1  0.000000  0.611574  0.085552  1
  Lu  Lu4  1  0.000000  0.234247  0.211810  1
  Lu  Lu5  1  0.000000  0.765753  0.788190  1
  Lu  Lu6  1  0.000000  0.243620  0.724476  1
  Lu  Lu7  1  0.000000  0.756380  0.275524  1
  Lu  Lu8  1  0.000000  0.000000  0.000000  1
  Lu  Lu9  1  0.000000  0.500000  0.500000  1
  Hg  Hg10  1  0.500000  0.080011  0.858997  1
  Hg  Hg11  1  0.500000  0.919989  0.141003  1
  Hg  Hg12  1  0.500000  0.289243  0.060426  1
  Hg  Hg13  1  0.500000  0.710757  0.939574  1
  Hg  Hg14  1  0.500000  0.208483  0.562042  1
  Hg  Hg15  1  0.500000  0.791517  0.437958  1
  Pt  Pt16  1  0.500000  0.032578  0.301367  1
  Pt  Pt17  1  0.500000  0.967422  0.698633  1
  Pt  Pt18  1  0.500000  0.472895  0.804277  1
  Pt  Pt19  1  0.500000  0.527105  0.195723  1
  Pb  Pb20  1  0.500000  0.427666  0.352131  1
  Pb  Pb21  1  0.500000  0.572334  0.647869  1
