# generated using pymatgen
data_Rb2LiScAs2
_symmetry_space_group_name_H-M   'P 1'
_cell_length_a   10.41728494
_cell_length_b   10.41728433
_cell_length_c   6.67366000
_cell_angle_alpha   90.00000000
_cell_angle_beta   90.00000000
_cell_angle_gamma   100.65460051
_symmetry_Int_Tables_number   1
_chemical_formula_structural   Rb2LiScAs2
_chemical_formula_sum   'Rb8 Li4 Sc4 As8'
_cell_volume   711.73846175
_cell_formula_units_Z   4
loop_
 _symmetry_equiv_pos_site_id
 _symmetry_equiv_pos_as_xyz
  1  'x, y, z'
loop_
 _atom_site_type_symbol
 _atom_site_label
 _atom_site_symmetry_multiplicity
 _atom_site_fract_x
 _atom_site_fract_y
 _atom_site_fract_z
 _atom_site_occupancy
  Rb  Rb0  1  0.071838  0.428162  0.750000  1
  Rb  Rb1  1  0.675037  0.324963  0.786574  1
  Rb  Rb2  1  0.324963  0.675037  0.213426  1
  Rb  Rb3  1  0.571838  0.928162  0.750000  1
  Rb  Rb4  1  0.428162  0.071838  0.250000  1
  Rb  Rb5  1  0.928162  0.571838  0.250000  1
  Rb  Rb6  1  0.824963  0.175037  0.286574  1
  Rb  Rb7  1  0.175037  0.824963  0.713426  1
  Li  Li8  1  0.120529  0.120529  0.500000  1
  Li  Li9  1  0.879471  0.879471  0.500000  1
  Li  Li10  1  0.379471  0.379471  0.000000  1
  Li  Li11  1  0.620529  0.620529  0.000000  1
  Sc  Sc12  1  0.870009  0.870009  0.000000  1
  Sc  Sc13  1  0.370009  0.370009  0.500000  1
  Sc  Sc14  1  0.629991  0.629991  0.500000  1
  Sc  Sc15  1  0.129991  0.129991  0.000000  1
  As  As16  1  0.835546  0.664454  0.750000  1
  As  As17  1  0.087286  0.912714  0.224346  1
  As  As18  1  0.412714  0.587286  0.724346  1
  As  As19  1  0.587286  0.412714  0.275654  1
  As  As20  1  0.664454  0.835546  0.250000  1
  As  As21  1  0.164454  0.335546  0.250000  1
  As  As22  1  0.335546  0.164454  0.750000  1
  As  As23  1  0.912714  0.087286  0.775654  1
