# generated using pymatgen
data_Dy2Y2ErRu2
_symmetry_space_group_name_H-M   'P 1'
_cell_length_a   6.33658788
_cell_length_b   7.30067858
_cell_length_c   8.47839055
_cell_angle_alpha   96.77654887
_cell_angle_beta   111.94339538
_cell_angle_gamma   89.99999730
_symmetry_Int_Tables_number   1
_chemical_formula_structural   Dy2Y2ErRu2
_chemical_formula_sum   'Dy4 Y4 Er2 Ru4'
_cell_volume   360.85120711
_cell_formula_units_Z   2
loop_
 _symmetry_equiv_pos_site_id
 _symmetry_equiv_pos_as_xyz
  1  'x, y, z'
loop_
 _atom_site_type_symbol
 _atom_site_label
 _atom_site_symmetry_multiplicity
 _atom_site_fract_x
 _atom_site_fract_y
 _atom_site_fract_z
 _atom_site_occupancy
  Dy  Dy0  1  0.205045  0.684961  0.565659  1
  Dy  Dy1  1  0.639386  0.815039  0.434341  1
  Dy  Dy2  1  0.794955  0.315039  0.434341  1
  Dy  Dy3  1  0.360614  0.184961  0.565659  1
  Y  Y4  1  0.790400  0.583749  0.813027  1
  Y  Y5  1  0.977373  0.916251  0.186973  1
  Y  Y6  1  0.209600  0.416251  0.186973  1
  Y  Y7  1  0.022627  0.083749  0.813027  1
  Er  Er8  1  0.420143  0.750000  0.000000  1
  Er  Er9  1  0.579857  0.250000  0.000000  1
  Ru  Ru10  1  0.598833  0.924653  0.779135  1
  Ru  Ru11  1  0.819696  0.575347  0.220865  1
  Ru  Ru12  1  0.401167  0.075347  0.220865  1
  Ru  Ru13  1  0.180304  0.424653  0.779135  1
