# generated using pymatgen
data_Dy5Er3(BBr6)2
_symmetry_space_group_name_H-M   'P 1'
_cell_length_a   3.94487800
_cell_length_b   13.13634007
_cell_length_c   13.60448218
_cell_angle_alpha   89.92164817
_cell_angle_beta   90.00000000
_cell_angle_gamma   90.00000000
_symmetry_Int_Tables_number   1
_chemical_formula_structural   Dy5Er3(BBr6)2
_chemical_formula_sum   'Dy5 Er3 B2 Br12'
_cell_volume   705.00073468
_cell_formula_units_Z   1
loop_
 _symmetry_equiv_pos_site_id
 _symmetry_equiv_pos_as_xyz
  1  'x, y, z'
loop_
 _atom_site_type_symbol
 _atom_site_label
 _atom_site_symmetry_multiplicity
 _atom_site_fract_x
 _atom_site_fract_y
 _atom_site_fract_z
 _atom_site_occupancy
  Dy  Dy0  1  0.000000  0.101382  0.080527  1
  Dy  Dy1  1  0.500000  0.122531  0.855399  1
  Dy  Dy2  1  0.500000  0.876854  0.144144  1
  Dy  Dy3  1  0.500000  0.622571  0.644129  1
  Dy  Dy4  1  0.500000  0.377359  0.355856  1
  Er  Er5  1  0.000000  0.898938  0.919758  1
  Er  Er6  1  0.000000  0.600569  0.420081  1
  Er  Er7  1  0.000000  0.399402  0.579913  1
  B  B8  1  0.500000  0.999411  0.999549  1
  B  B9  1  0.500000  0.500027  0.500072  1
  Br  Br10  1  0.500000  0.269319  0.681108  1
  Br  Br11  1  0.500000  0.730632  0.318882  1
  Br  Br12  1  0.500000  0.769054  0.818613  1
  Br  Br13  1  0.500000  0.232457  0.182471  1
  Br  Br14  1  0.000000  0.261425  0.931050  1
  Br  Br15  1  0.000000  0.738935  0.067813  1
  Br  Br16  1  0.000000  0.481828  0.239747  1
  Br  Br17  1  0.000000  0.518316  0.760322  1
  Br  Br18  1  0.000000  0.980595  0.261036  1
  Br  Br19  1  0.000000  0.018314  0.739425  1
  Br  Br20  1  0.000000  0.239286  0.432431  1
  Br  Br21  1  0.000000  0.760795  0.567674  1
