# generated using pymatgen
data_Er20Si15Hg
_symmetry_space_group_name_H-M   'P 1'
_cell_length_a   7.37026367
_cell_length_b   7.64077217
_cell_length_c   14.50707125
_cell_angle_alpha   90.07479349
_cell_angle_beta   90.83604763
_cell_angle_gamma   90.07246379
_symmetry_Int_Tables_number   1
_chemical_formula_structural   Er20Si15Hg
_chemical_formula_sum   'Er20 Si15 Hg1'
_cell_volume   816.87020370
_cell_formula_units_Z   1
loop_
 _symmetry_equiv_pos_site_id
 _symmetry_equiv_pos_as_xyz
  1  'x, y, z'
loop_
 _atom_site_type_symbol
 _atom_site_label
 _atom_site_symmetry_multiplicity
 _atom_site_fract_x
 _atom_site_fract_y
 _atom_site_fract_z
 _atom_site_occupancy
  Er  Er0  1  0.022725  0.817128  0.601457  1
  Er  Er1  1  0.520490  0.675512  0.602274  1
  Er  Er2  1  0.318110  0.820649  0.121217  1
  Er  Er3  1  0.818205  0.677147  0.121650  1
  Er  Er4  1  0.849586  0.508641  0.750230  1
  Er  Er5  1  0.470868  0.318300  0.097583  1
  Er  Er6  1  0.027377  0.815930  0.900844  1
  Er  Er7  1  0.474911  0.324787  0.400477  1
  Er  Er8  1  0.652510  0.009863  0.248101  1
  Er  Er9  1  0.529373  0.683475  0.900166  1
  Er  Er10  1  0.680032  0.178307  0.877275  1
  Er  Er11  1  0.174860  0.323374  0.624771  1
  Er  Er12  1  0.180609  0.322197  0.877449  1
  Er  Er13  1  0.828759  0.669617  0.373523  1
  Er  Er14  1  0.320064  0.824962  0.376534  1
  Er  Er15  1  0.346959  0.989581  0.748513  1
  Er  Er16  1  0.676141  0.179680  0.627374  1
  Er  Er17  1  0.153379  0.489168  0.249669  1
  Er  Er18  1  0.970998  0.183635  0.097874  1
  Er  Er19  1  0.983315  0.187604  0.399190  1
  Si  Si20  1  0.229177  0.629104  0.752085  1
  Si  Si21  1  0.336956  0.030603  0.542633  1
  Si  Si22  1  0.024186  0.894710  0.247273  1
  Si  Si23  1  0.729439  0.868771  0.752360  1
  Si  Si24  1  0.272274  0.129207  0.247190  1
  Si  Si25  1  0.844200  0.469378  0.541117  1
  Si  Si26  1  0.476018  0.395446  0.752645  1
  Si  Si27  1  0.155243  0.532742  0.461451  1
  Si  Si28  1  0.145865  0.528275  0.040936  1
  Si  Si29  1  0.975974  0.105378  0.752817  1
  Si  Si30  1  0.768711  0.371388  0.247568  1
  Si  Si31  1  0.352030  0.029775  0.959670  1
  Si  Si32  1  0.852619  0.471643  0.958250  1
  Si  Si33  1  0.646232  0.969758  0.039456  1
  Si  Si34  1  0.523969  0.608711  0.247093  1
  Hg  Hg35  1  0.667837  0.965551  0.461287  1
