# generated using pymatgen
data_Ti6Al6TcRh11
_symmetry_space_group_name_H-M   'P 1'
_cell_length_a   4.26964900
_cell_length_b   6.28536100
_cell_length_c   12.76383900
_cell_angle_alpha   89.99988695
_cell_angle_beta   89.99934127
_cell_angle_gamma   89.99994581
_symmetry_Int_Tables_number   1
_chemical_formula_structural   Ti6Al6TcRh11
_chemical_formula_sum   'Ti6 Al6 Tc1 Rh11'
_cell_volume   342.53402502
_cell_formula_units_Z   1
loop_
 _symmetry_equiv_pos_site_id
 _symmetry_equiv_pos_as_xyz
  1  'x, y, z'
loop_
 _atom_site_type_symbol
 _atom_site_label
 _atom_site_symmetry_multiplicity
 _atom_site_fract_x
 _atom_site_fract_y
 _atom_site_fract_z
 _atom_site_occupancy
  Ti  Ti0  1  0.999998  0.006987  0.000005  1
  Ti  Ti1  1  0.500011  0.496618  0.165182  1
  Ti  Ti2  1  0.999994  0.999818  0.332835  1
  Ti  Ti3  1  0.500001  0.499827  0.499996  1
  Ti  Ti4  1  0.000001  0.999818  0.667163  1
  Ti  Ti5  1  0.499986  0.496611  0.834822  1
  Al  Al6  1  0.000001  0.499510  0.000001  1
  Al  Al7  1  0.500008  0.000224  0.166455  1
  Al  Al8  1  0.999983  0.499900  0.333545  1
  Al  Al9  1  0.500000  0.000276  0.500002  1
  Al  Al10  1  0.000018  0.499901  0.666456  1
  Al  Al11  1  0.499993  0.000220  0.833543  1
  Tc  Tc12  1  0.500000  0.250924  0.000000  1
  Rh  Rh13  1  0.500005  0.749761  0.000006  1
  Rh  Rh14  1  0.999989  0.250378  0.168958  1
  Rh  Rh15  1  0.000015  0.749456  0.168292  1
  Rh  Rh16  1  0.499992  0.249642  0.334462  1
  Rh  Rh17  1  0.499993  0.750323  0.334524  1
  Rh  Rh18  1  0.999995  0.249228  0.499993  1
  Rh  Rh19  1  0.000007  0.750790  0.499994  1
  Rh  Rh20  1  0.500007  0.249654  0.665532  1
  Rh  Rh21  1  0.500006  0.750311  0.665469  1
  Rh  Rh22  1  0.000004  0.250370  0.831048  1
  Rh  Rh23  1  0.999986  0.749457  0.831715  1
