# generated using pymatgen
data_YbP6WO18
_symmetry_space_group_name_H-M   'P 1'
_cell_length_a   6.86498700
_cell_length_b   6.86498713
_cell_length_c   10.28019200
_cell_angle_alpha   90.00000000
_cell_angle_beta   90.00000000
_cell_angle_gamma   120.00000419
_symmetry_Int_Tables_number   1
_chemical_formula_structural   YbP6WO18
_chemical_formula_sum   'Yb1 P6 W1 O18'
_cell_volume   419.57662555
_cell_formula_units_Z   1
loop_
 _symmetry_equiv_pos_site_id
 _symmetry_equiv_pos_as_xyz
  1  'x, y, z'
loop_
 _atom_site_type_symbol
 _atom_site_label
 _atom_site_symmetry_multiplicity
 _atom_site_fract_x
 _atom_site_fract_y
 _atom_site_fract_z
 _atom_site_occupancy
  Yb  Yb0  1  0.000000  0.000000  0.500000  1
  P  P1  1  0.729964  0.122314  0.765153  1
  P  P2  1  0.877686  0.270036  0.234847  1
  P  P3  1  0.729964  0.607650  0.234847  1
  P  P4  1  0.877686  0.607650  0.765153  1
  P  P5  1  0.392350  0.270036  0.765153  1
  P  P6  1  0.392350  0.122314  0.234847  1
  W  W7  1  0.000000  0.000000  0.000000  1
  O  O8  1  0.900550  0.512175  0.213210  1
  O  O9  1  0.900550  0.388376  0.786790  1
  O  O10  1  0.487825  0.099450  0.786790  1
  O  O11  1  0.611624  0.099450  0.213210  1
  O  O12  1  0.756080  0.046779  0.634993  1
  O  O13  1  0.758428  0.002319  0.882002  1
  O  O14  1  0.487825  0.388376  0.213210  1
  O  O15  1  0.756080  0.709300  0.365007  1
  O  O16  1  0.758428  0.756111  0.117998  1
  O  O17  1  0.611624  0.512175  0.786790  1
  O  O18  1  0.953221  0.243920  0.365007  1
  O  O19  1  0.997681  0.241572  0.117998  1
  O  O20  1  0.243889  0.241572  0.882002  1
  O  O21  1  0.290700  0.243920  0.634993  1
  O  O22  1  0.997681  0.756111  0.882002  1
  O  O23  1  0.953221  0.709300  0.634993  1
  O  O24  1  0.243889  0.002319  0.117998  1
  O  O25  1  0.290700  0.046779  0.365007  1
