# generated using pymatgen
data_YbEr2Tm(FeB4)4
_symmetry_space_group_name_H-M   'P 1'
_cell_length_a   3.34503300
_cell_length_b   5.87032398
_cell_length_c   11.35282429
_cell_angle_alpha   89.97970916
_cell_angle_beta   90.00000000
_cell_angle_gamma   90.00000000
_symmetry_Int_Tables_number   1
_chemical_formula_structural   YbEr2Tm(FeB4)4
_chemical_formula_sum   'Yb1 Er2 Tm1 Fe4 B16'
_cell_volume   222.92889642
_cell_formula_units_Z   1
loop_
 _symmetry_equiv_pos_site_id
 _symmetry_equiv_pos_as_xyz
  1  'x, y, z'
loop_
 _atom_site_type_symbol
 _atom_site_label
 _atom_site_symmetry_multiplicity
 _atom_site_fract_x
 _atom_site_fract_y
 _atom_site_fract_z
 _atom_site_occupancy
  Yb  Yb0  1  0.000000  0.627206  0.349661  1
  Er  Er1  1  0.000000  0.127147  0.151281  1
  Er  Er2  1  0.000000  0.873243  0.849418  1
  Tm  Tm3  1  0.000000  0.373129  0.649754  1
  Fe  Fe4  1  0.000000  0.634155  0.087148  1
  Fe  Fe5  1  0.000000  0.366189  0.911374  1
  Fe  Fe6  1  0.000000  0.132734  0.413478  1
  Fe  Fe7  1  0.000000  0.867451  0.588477  1
  B  B8  1  0.500000  0.782150  0.183769  1
  B  B9  1  0.500000  0.217169  0.815775  1
  B  B10  1  0.500000  0.282521  0.316630  1
  B  B11  1  0.500000  0.716349  0.683325  1
  B  B12  1  0.500000  0.861763  0.031481  1
  B  B13  1  0.500000  0.138550  0.968259  1
  B  B14  1  0.500000  0.361602  0.468524  1
  B  B15  1  0.500000  0.638323  0.531854  1
  B  B16  1  0.500000  0.887518  0.453882  1
  B  B17  1  0.500000  0.111705  0.546145  1
  B  B18  1  0.500000  0.388965  0.046274  1
  B  B19  1  0.500000  0.611441  0.953543  1
  B  B20  1  0.500000  0.976742  0.309853  1
  B  B21  1  0.500000  0.024389  0.690623  1
  B  B22  1  0.500000  0.476069  0.190569  1
  B  B23  1  0.500000  0.523491  0.808906  1
