# generated using pymatgen
data_Pr4(Al8Pt3)3
_symmetry_space_group_name_H-M   'P 1'
_cell_length_a   7.56734926
_cell_length_b   7.61303245
_cell_length_c   13.36269889
_cell_angle_alpha   84.62484527
_cell_angle_beta   79.37411031
_cell_angle_gamma   59.99243964
_symmetry_Int_Tables_number   1
_chemical_formula_structural   Pr4(Al8Pt3)3
_chemical_formula_sum   'Pr4 Al24 Pt9'
_cell_volume   655.21031862
_cell_formula_units_Z   1
loop_
 _symmetry_equiv_pos_site_id
 _symmetry_equiv_pos_as_xyz
  1  'x, y, z'
loop_
 _atom_site_type_symbol
 _atom_site_label
 _atom_site_symmetry_multiplicity
 _atom_site_fract_x
 _atom_site_fract_y
 _atom_site_fract_z
 _atom_site_occupancy
  Pr  Pr0  1  0.393666  0.168902  0.808087  1
  Pr  Pr1  1  0.606334  0.831098  0.191913  1
  Pr  Pr2  1  0.733317  0.498326  0.808279  1
  Pr  Pr3  1  0.266683  0.501674  0.191721  1
  Al  Al4  1  0.686718  0.833977  0.946077  1
  Al  Al5  1  0.313282  0.166023  0.053923  1
  Al  Al6  1  0.146522  0.832578  0.559596  1
  Al  Al7  1  0.853478  0.167422  0.440404  1
  Al  Al8  1  0.479300  0.166777  0.557340  1
  Al  Al9  1  0.520700  0.833223  0.442660  1
  Al  Al10  1  0.214414  0.165454  0.333517  1
  Al  Al11  1  0.785586  0.834546  0.666483  1
  Al  Al12  1  0.437735  0.506831  0.666296  1
  Al  Al13  1  0.562265  0.493169  0.333704  1
  Al  Al14  1  0.109860  0.159282  0.665260  1
  Al  Al15  1  0.890140  0.840718  0.334740  1
  Al  Al16  1  0.349639  0.502471  0.946616  1
  Al  Al17  1  0.650361  0.497529  0.053384  1
  Al  Al18  1  0.014853  0.165334  0.956143  1
  Al  Al19  1  0.985147  0.834666  0.043857  1
  Al  Al20  1  0.186744  0.499535  0.442007  1
  Al  Al21  1  0.813256  0.500465  0.557993  1
  Al  Al22  1  0.735901  0.163788  0.184139  1
  Al  Al23  1  0.264099  0.836212  0.815861  1
  Al  Al24  1  0.061891  0.633458  0.814665  1
  Al  Al25  1  0.938109  0.366542  0.185335  1
  Al  Al26  1  0.858608  0.038785  0.815212  1
  Al  Al27  1  0.141392  0.961215  0.184789  1
  Pt  Pt28  1  0.120403  0.494677  0.636262  1
  Pt  Pt29  1  0.879597  0.505323  0.363738  1
  Pt  Pt30  1  0.658125  0.170750  0.999916  1
  Pt  Pt31  1  0.341875  0.829250  0.000084  1
  Pt  Pt32  1  0.539860  0.166436  0.363393  1
  Pt  Pt33  1  0.460140  0.833564  0.636607  1
  Pt  Pt34  1  0.781060  0.172529  0.634809  1
  Pt  Pt35  1  0.218940  0.827471  0.365191  1
  Pt  Pt36  1  0.000000  0.500000  0.000000  1
