# generated using pymatgen
data_La5TaMoO12
_symmetry_space_group_name_H-M   'P 1'
_cell_length_a   7.22144452
_cell_length_b   7.22144489
_cell_length_c   7.79982315
_cell_angle_alpha   74.46404892
_cell_angle_beta   74.46405113
_cell_angle_gamma   50.91944240
_symmetry_Int_Tables_number   1
_chemical_formula_structural   La5TaMoO12
_chemical_formula_sum   'La5 Ta1 Mo1 O12'
_cell_volume   301.53468465
_cell_formula_units_Z   1
loop_
 _symmetry_equiv_pos_site_id
 _symmetry_equiv_pos_as_xyz
  1  'x, y, z'
loop_
 _atom_site_type_symbol
 _atom_site_label
 _atom_site_symmetry_multiplicity
 _atom_site_fract_x
 _atom_site_fract_y
 _atom_site_fract_z
 _atom_site_occupancy
  La  La0  1  0.301923  0.308269  0.359473  1
  La  La1  1  0.691731  0.698077  0.640527  1
  La  La2  1  0.304329  0.306745  0.833554  1
  La  La3  1  0.693255  0.695671  0.166446  1
  La  La4  1  0.996558  0.003442  0.500000  1
  Ta  Ta5  1  0.765541  0.234459  0.000000  1
  Mo  Mo6  1  0.249080  0.750920  0.000000  1
  O  O7  1  0.895126  0.422179  0.920397  1
  O  O8  1  0.425715  0.897252  0.919802  1
  O  O9  1  0.102748  0.574285  0.080198  1
  O  O10  1  0.577821  0.104874  0.079603  1
  O  O11  1  0.090933  0.599325  0.577964  1
  O  O12  1  0.595324  0.095916  0.576652  1
  O  O13  1  0.904084  0.404676  0.423348  1
  O  O14  1  0.400675  0.909067  0.422036  1
  O  O15  1  0.992156  0.009402  0.821893  1
  O  O16  1  0.990598  0.007844  0.178107  1
  O  O17  1  0.509873  0.487470  0.826434  1
  O  O18  1  0.512530  0.490127  0.173566  1
