# generated using pymatgen
data_Gd9Y3Sc8Al12O48
_symmetry_space_group_name_H-M   'P 1'
_cell_length_a   10.83736322
_cell_length_b   10.83742890
_cell_length_c   10.83734817
_cell_angle_alpha   109.51712986
_cell_angle_beta   109.47141346
_cell_angle_gamma   109.42516140
_symmetry_Int_Tables_number   1
_chemical_formula_structural   Gd9Y3Sc8Al12O48
_chemical_formula_sum   'Gd9 Y3 Sc8 Al12 O48'
_cell_volume   979.82967132
_cell_formula_units_Z   1
loop_
 _symmetry_equiv_pos_site_id
 _symmetry_equiv_pos_as_xyz
  1  'x, y, z'
loop_
 _atom_site_type_symbol
 _atom_site_label
 _atom_site_symmetry_multiplicity
 _atom_site_fract_x
 _atom_site_fract_y
 _atom_site_fract_z
 _atom_site_occupancy
  Gd  Gd0  1  0.375019  0.124954  0.250035  1
  Gd  Gd1  1  0.125080  0.375058  0.750049  1
  Gd  Gd2  1  0.374935  0.750010  0.124937  1
  Gd  Gd3  1  0.125081  0.249998  0.375068  1
  Gd  Gd4  1  0.249972  0.374978  0.124923  1
  Gd  Gd5  1  0.749938  0.125011  0.374999  1
  Gd  Gd6  1  0.875161  0.750001  0.625162  1
  Gd  Gd7  1  0.874957  0.624869  0.249667  1
  Gd  Gd8  1  0.624807  0.875136  0.750104  1
  Y  Y9  1  0.749910  0.624735  0.875048  1
  Y  Y10  1  0.250300  0.875262  0.625162  1
  Y  Y11  1  0.624881  0.250011  0.874890  1
  Sc  Sc12  1  0.499700  0.000109  0.999420  1
  Sc  Sc13  1  0.999309  0.499890  0.999595  1
  Sc  Sc14  1  0.000472  0.999958  0.500207  1
  Sc  Sc15  1  0.500270  0.499728  0.999511  1
  Sc  Sc16  1  0.500253  0.500045  0.500519  1
  Sc  Sc17  1  0.000378  0.500491  0.500276  1
  Sc  Sc18  1  0.499790  0.000278  0.500557  1
  Sc  Sc19  1  0.999790  0.999510  0.999898  1
  Al  Al20  1  0.124826  0.750002  0.874829  1
  Al  Al21  1  0.874390  0.250002  0.124392  1
  Al  Al22  1  0.624945  0.374807  0.249531  1
  Al  Al23  1  0.749986  0.874376  0.124426  1
  Al  Al24  1  0.874731  0.125187  0.750143  1
  Al  Al25  1  0.250042  0.625615  0.375602  1
  Al  Al26  1  0.749858  0.375356  0.625812  1
  Al  Al27  1  0.250453  0.124640  0.874502  1
  Al  Al28  1  0.124800  0.874782  0.249956  1
  Al  Al29  1  0.375737  0.249999  0.625734  1
  Al  Al30  1  0.625019  0.749999  0.375017  1
  Al  Al31  1  0.375170  0.625219  0.750009  1
  O  O32  1  0.476958  0.376272  0.288453  1
  O  O33  1  0.311473  0.899424  0.023138  1
  O  O34  1  0.600749  0.912133  0.123510  1
  O  O35  1  0.587688  0.188263  0.211483  1
  O  O36  1  0.123852  0.023243  0.211774  1
  O  O37  1  0.188879  0.211808  0.588049  1
  O  O38  1  0.188533  0.476759  0.600611  1
  O  O39  1  0.211377  0.587861  0.188612  1
  O  O40  1  0.376210  0.587797  0.899300  1
  O  O41  1  0.912168  0.288515  0.311383  1
  O  O42  1  0.288397  0.311356  0.912027  1
  O  O43  1  0.211667  0.123568  0.022785  1
  O  O44  1  0.476924  0.600532  0.188262  1
  O  O45  1  0.899221  0.376433  0.588106  1
  O  O46  1  0.022867  0.211487  0.123650  1
  O  O47  1  0.600676  0.188640  0.477046  1
  O  O48  1  0.587735  0.899468  0.376399  1
  O  O49  1  0.023218  0.311731  0.899416  1
  O  O50  1  0.912179  0.123733  0.600689  1
  O  O51  1  0.623699  0.410789  0.099318  1
  O  O52  1  0.123717  0.600574  0.912044  1
  O  O53  1  0.288432  0.477087  0.376424  1
  O  O54  1  0.899340  0.022916  0.311345  1
  O  O55  1  0.311514  0.912205  0.288422  1
  O  O56  1  0.524304  0.623921  0.713068  1
  O  O57  1  0.687535  0.101501  0.975716  1
  O  O58  1  0.399495  0.087024  0.874074  1
  O  O59  1  0.411074  0.811377  0.787060  1
  O  O60  1  0.876123  0.976806  0.788160  1
  O  O61  1  0.811562  0.788280  0.411947  1
  O  O62  1  0.811360  0.523194  0.399325  1
  O  O63  1  0.787048  0.412970  0.812468  1
  O  O64  1  0.688540  0.089214  0.712919  1
  O  O65  1  0.101855  0.975733  0.687632  1
  O  O66  1  0.711901  0.524264  0.626123  1
  O  O67  1  0.623669  0.711721  0.523286  1
  O  O68  1  0.874214  0.398488  0.086025  1
  O  O69  1  0.089148  0.876085  0.400392  1
  O  O70  1  0.975678  0.688612  0.099690  1
  O  O71  1  0.413071  0.100805  0.626142  1
  O  O72  1  0.398432  0.812592  0.524333  1
  O  O73  1  0.975668  0.787031  0.875978  1
  O  O74  1  0.101491  0.625802  0.413944  1
  O  O75  1  0.525334  0.399199  0.812263  1
  O  O76  1  0.788140  0.874197  0.975686  1
  O  O77  1  0.711733  0.687407  0.085829  1
  O  O78  1  0.088950  0.712970  0.688637  1
  O  O79  1  0.376243  0.288196  0.477074  1
