# generated using pymatgen
data_Ta13Nb7Al10
_symmetry_space_group_name_H-M   'P 1'
_cell_length_a   9.98958478
_cell_length_b   9.98958478
_cell_length_c   5.18862779
_cell_angle_alpha   89.95520136
_cell_angle_beta   89.95520136
_cell_angle_gamma   89.99361331
_symmetry_Int_Tables_number   1
_chemical_formula_structural   Ta13Nb7Al10
_chemical_formula_sum   'Ta13 Nb7 Al10'
_cell_volume   517.78220830
_cell_formula_units_Z   1
loop_
 _symmetry_equiv_pos_site_id
 _symmetry_equiv_pos_as_xyz
  1  'x, y, z'
loop_
 _atom_site_type_symbol
 _atom_site_label
 _atom_site_symmetry_multiplicity
 _atom_site_fract_x
 _atom_site_fract_y
 _atom_site_fract_z
 _atom_site_occupancy
  Ta  Ta0  1  0.397177  0.397177  0.000132  1
  Ta  Ta1  1  0.898177  0.102454  0.499639  1
  Ta  Ta2  1  0.102454  0.898177  0.499639  1
  Ta  Ta3  1  0.602421  0.602421  0.999980  1
  Ta  Ta4  1  0.128006  0.463944  0.000530  1
  Ta  Ta5  1  0.965074  0.371659  0.499334  1
  Ta  Ta6  1  0.035545  0.628047  0.500300  1
  Ta  Ta7  1  0.871962  0.535620  0.999875  1
  Ta  Ta8  1  0.371659  0.965074  0.499334  1
  Ta  Ta9  1  0.628047  0.035545  0.500300  1
  Ta  Ta10  1  0.463944  0.128006  0.000530  1
  Ta  Ta11  1  0.535620  0.871962  0.999875  1
  Ta  Ta12  1  0.181851  0.181851  0.251873  1
  Nb  Nb13  1  0.681443  0.318474  0.752109  1
  Nb  Nb14  1  0.318474  0.681443  0.752109  1
  Nb  Nb15  1  0.818528  0.818528  0.251711  1
  Nb  Nb16  1  0.318392  0.681428  0.247910  1
  Nb  Nb17  1  0.681428  0.318392  0.247910  1
  Nb  Nb18  1  0.181395  0.181395  0.748495  1
  Nb  Nb19  1  0.818463  0.818463  0.748126  1
  Al  Al20  1  0.000049  0.000049  0.999968  1
  Al  Al21  1  0.499993  0.499993  0.499954  1
  Al  Al22  1  0.261959  0.933594  0.999995  1
  Al  Al23  1  0.433380  0.238057  0.500171  1
  Al  Al24  1  0.566413  0.762045  0.499943  1
  Al  Al25  1  0.737946  0.066506  0.000074  1
  Al  Al26  1  0.238057  0.433380  0.500171  1
  Al  Al27  1  0.762045  0.566413  0.499943  1
  Al  Al28  1  0.933594  0.261959  0.999995  1
  Al  Al29  1  0.066506  0.737946  0.000074  1
