# generated using pymatgen
data_K2Rb2Cd3O5
_symmetry_space_group_name_H-M   'P 1'
_cell_length_a   6.65525114
_cell_length_b   9.32297594
_cell_length_c   9.48141453
_cell_angle_alpha   65.73515824
_cell_angle_beta   73.28543352
_cell_angle_gamma   71.38196373
_symmetry_Int_Tables_number   1
_chemical_formula_structural   K2Rb2Cd3O5
_chemical_formula_sum   'K4 Rb4 Cd6 O10'
_cell_volume   499.85416759
_cell_formula_units_Z   2
loop_
 _symmetry_equiv_pos_site_id
 _symmetry_equiv_pos_as_xyz
  1  'x, y, z'
loop_
 _atom_site_type_symbol
 _atom_site_label
 _atom_site_symmetry_multiplicity
 _atom_site_fract_x
 _atom_site_fract_y
 _atom_site_fract_z
 _atom_site_occupancy
  K  K0  1  0.052527  0.952923  0.693016  1
  K  K1  1  0.240041  0.572157  0.973194  1
  K  K2  1  0.759959  0.427843  0.026806  1
  K  K3  1  0.947473  0.047077  0.306984  1
  Rb  Rb4  1  0.039238  0.568845  0.647187  1
  Rb  Rb5  1  0.616139  0.291088  0.758164  1
  Rb  Rb6  1  0.383861  0.708912  0.241836  1
  Rb  Rb7  1  0.960762  0.431155  0.352813  1
  Cd  Cd8  1  0.597987  0.813712  0.503770  1
  Cd  Cd9  1  0.127460  0.141457  0.903410  1
  Cd  Cd10  1  0.430032  0.171571  0.169680  1
  Cd  Cd11  1  0.872540  0.858543  0.096590  1
  Cd  Cd12  1  0.402013  0.186288  0.496230  1
  Cd  Cd13  1  0.569968  0.828429  0.830320  1
  O  O14  1  0.810624  0.713737  0.989069  1
  O  O15  1  0.421242  0.373307  0.258681  1
  O  O16  1  0.189376  0.286263  0.010931  1
  O  O17  1  0.320503  0.993651  0.404045  1
  O  O18  1  0.679497  0.006349  0.595955  1
  O  O19  1  0.097524  0.257644  0.650124  1
  O  O20  1  0.578758  0.626693  0.741319  1
  O  O21  1  0.902476  0.742356  0.349876  1
  O  O22  1  0.768084  0.124128  0.038574  1
  O  O23  1  0.231916  0.875872  0.961426  1
