# generated using pymatgen
data_Li8Tb6Ho2Sn7Sb
_symmetry_space_group_name_H-M   'P 1'
_cell_length_a   9.40598100
_cell_length_b   9.40674296
_cell_length_c   7.28588907
_cell_angle_alpha   90.07192362
_cell_angle_beta   90.00000000
_cell_angle_gamma   119.99732406
_symmetry_Int_Tables_number   1
_chemical_formula_structural   Li8Tb6Ho2Sn7Sb
_chemical_formula_sum   'Li8 Tb6 Ho2 Sn7 Sb1'
_cell_volume   558.30023926
_cell_formula_units_Z   1
loop_
 _symmetry_equiv_pos_site_id
 _symmetry_equiv_pos_as_xyz
  1  'x, y, z'
loop_
 _atom_site_type_symbol
 _atom_site_label
 _atom_site_symmetry_multiplicity
 _atom_site_fract_x
 _atom_site_fract_y
 _atom_site_fract_z
 _atom_site_occupancy
  Li  Li0  1  0.166670  0.333340  0.288275  1
  Li  Li1  1  0.166988  0.833411  0.288533  1
  Li  Li2  1  0.666421  0.833411  0.288533  1
  Li  Li3  1  0.833396  0.666791  0.788089  1
  Li  Li4  1  0.832466  0.166115  0.789186  1
  Li  Li5  1  0.333650  0.166115  0.789186  1
  Li  Li6  1  0.333663  0.667328  0.670594  1
  Li  Li7  1  0.666688  0.333376  0.171710  1
  Tb  Tb8  1  0.512135  0.024268  0.494023  1
  Tb  Tb9  1  0.514612  0.489792  0.491971  1
  Tb  Tb10  1  0.975180  0.489792  0.491971  1
  Tb  Tb11  1  0.487927  0.975856  0.994421  1
  Tb  Tb12  1  0.489989  0.512365  0.995099  1
  Tb  Tb13  1  0.022375  0.512365  0.995099  1
  Ho  Ho14  1  0.998888  0.997776  0.498340  1
  Ho  Ho15  1  0.999035  0.998070  0.001368  1
  Sn  Sn16  1  0.166140  0.833025  0.729941  1
  Sn  Sn17  1  0.666884  0.833025  0.729941  1
  Sn  Sn18  1  0.833807  0.667615  0.230910  1
  Sn  Sn19  1  0.834382  0.167075  0.230451  1
  Sn  Sn20  1  0.332694  0.167075  0.230451  1
  Sn  Sn21  1  0.332768  0.665536  0.260638  1
  Sn  Sn22  1  0.666829  0.333658  0.761216  1
  Sb  Sb23  1  0.166411  0.332823  0.732024  1
