# generated using pymatgen
data_Ba3ZrPd2O9
_symmetry_space_group_name_H-M   'P 1'
_cell_length_a   5.88458900
_cell_length_b   5.88458876
_cell_length_c   14.76303200
_cell_angle_alpha   90.00000000
_cell_angle_beta   90.00000000
_cell_angle_gamma   120.00000697
_symmetry_Int_Tables_number   1
_chemical_formula_structural   Ba3ZrPd2O9
_chemical_formula_sum   'Ba6 Zr2 Pd4 O18'
_cell_volume   442.72945414
_cell_formula_units_Z   2
loop_
 _symmetry_equiv_pos_site_id
 _symmetry_equiv_pos_as_xyz
  1  'x, y, z'
loop_
 _atom_site_type_symbol
 _atom_site_label
 _atom_site_symmetry_multiplicity
 _atom_site_fract_x
 _atom_site_fract_y
 _atom_site_fract_z
 _atom_site_occupancy
  Ba  Ba0  1  0.333333  0.666667  0.088058  1
  Ba  Ba1  1  0.666667  0.333333  0.911942  1
  Ba  Ba2  1  0.666667  0.333333  0.588058  1
  Ba  Ba3  1  0.333333  0.666667  0.411942  1
  Ba  Ba4  1  0.000000  0.000000  0.250000  1
  Ba  Ba5  1  0.000000  0.000000  0.750000  1
  Zr  Zr6  1  0.000000  0.000000  0.000000  1
  Zr  Zr7  1  0.000000  0.000000  0.500000  1
  Pd  Pd8  1  0.333333  0.666667  0.658448  1
  Pd  Pd9  1  0.666667  0.333333  0.341552  1
  Pd  Pd10  1  0.666667  0.333333  0.158448  1
  Pd  Pd11  1  0.333333  0.666667  0.841552  1
  O  O12  1  0.168394  0.336788  0.581370  1
  O  O13  1  0.831606  0.663212  0.418630  1
  O  O14  1  0.663212  0.831606  0.581370  1
  O  O15  1  0.831606  0.663212  0.081370  1
  O  O16  1  0.336788  0.168394  0.418630  1
  O  O17  1  0.168394  0.336788  0.918630  1
  O  O18  1  0.168394  0.831606  0.581370  1
  O  O19  1  0.336788  0.168394  0.081370  1
  O  O20  1  0.831606  0.168394  0.418630  1
  O  O21  1  0.663212  0.831606  0.918630  1
  O  O22  1  0.831606  0.168394  0.081370  1
  O  O23  1  0.168394  0.831606  0.918630  1
  O  O24  1  0.516008  0.032016  0.250000  1
  O  O25  1  0.483992  0.967984  0.750000  1
  O  O26  1  0.967984  0.483992  0.250000  1
  O  O27  1  0.032016  0.516008  0.750000  1
  O  O28  1  0.516008  0.483992  0.250000  1
  O  O29  1  0.483992  0.516008  0.750000  1
