# generated using pymatgen
data_GdDy6Y13(CoSb2)4
_symmetry_space_group_name_H-M   'P 1'
_cell_length_a   7.92463411
_cell_length_b   8.74953007
_cell_length_c   12.21653400
_cell_angle_alpha   90.00663357
_cell_angle_beta   89.99052859
_cell_angle_gamma   90.00249605
_symmetry_Int_Tables_number   1
_chemical_formula_structural   GdDy6Y13(CoSb2)4
_chemical_formula_sum   'Gd1 Dy6 Y13 Co4 Sb8'
_cell_volume   847.05565468
_cell_formula_units_Z   1
loop_
 _symmetry_equiv_pos_site_id
 _symmetry_equiv_pos_as_xyz
  1  'x, y, z'
loop_
 _atom_site_type_symbol
 _atom_site_label
 _atom_site_symmetry_multiplicity
 _atom_site_fract_x
 _atom_site_fract_y
 _atom_site_fract_z
 _atom_site_occupancy
  Gd  Gd0  1  0.677819  0.965211  0.565091  1
  Dy  Dy1  1  0.177911  0.034760  0.934757  1
  Dy  Dy2  1  0.322228  0.465157  0.434948  1
  Dy  Dy3  1  0.177521  0.465085  0.934899  1
  Dy  Dy4  1  0.322191  0.034903  0.434956  1
  Dy  Dy5  1  0.822230  0.965249  0.065134  1
  Dy  Dy6  1  0.677807  0.534811  0.565112  1
  Y  Y7  1  0.155628  0.750290  0.204307  1
  Y  Y8  1  0.344493  0.750051  0.704234  1
  Y  Y9  1  0.844611  0.249926  0.795865  1
  Y  Y10  1  0.655444  0.249938  0.295839  1
  Y  Y11  1  0.455812  0.750519  0.998622  1
  Y  Y12  1  0.043576  0.750027  0.498789  1
  Y  Y13  1  0.542798  0.249445  0.001005  1
  Y  Y14  1  0.956378  0.250007  0.501257  1
  Y  Y15  1  0.623121  0.750266  0.305243  1
  Y  Y16  1  0.876837  0.750032  0.805137  1
  Y  Y17  1  0.376888  0.250005  0.694877  1
  Y  Y18  1  0.123183  0.249856  0.194732  1
  Y  Y19  1  0.821387  0.534960  0.065733  1
  Co  Co20  1  0.435358  0.750032  0.490394  1
  Co  Co21  1  0.065600  0.750435  0.990141  1
  Co  Co22  1  0.564607  0.249987  0.509611  1
  Co  Co23  1  0.935931  0.248740  0.009395  1
  Sb  Sb24  1  0.928257  0.508180  0.326909  1
  Sb  Sb25  1  0.572021  0.991825  0.826749  1
  Sb  Sb26  1  0.071896  0.008166  0.673024  1
  Sb  Sb27  1  0.428399  0.491944  0.172956  1
  Sb  Sb28  1  0.071868  0.491887  0.673073  1
  Sb  Sb29  1  0.428143  0.008209  0.173208  1
  Sb  Sb30  1  0.928121  0.991939  0.326984  1
  Sb  Sb31  1  0.571935  0.508156  0.827019  1
