# generated using pymatgen
data_Rb8MnRh3S4(O4F3)4
_symmetry_space_group_name_H-M   'P 1'
_cell_length_a   7.47577500
_cell_length_b   8.94597080
_cell_length_c   11.38050700
_cell_angle_alpha   90.00000000
_cell_angle_beta   90.00000000
_cell_angle_gamma   92.52835655
_symmetry_Int_Tables_number   1
_chemical_formula_structural   Rb8MnRh3S4(O4F3)4
_chemical_formula_sum   'Rb8 Mn1 Rh3 S4 O16 F12'
_cell_volume   760.36535701
_cell_formula_units_Z   1
loop_
 _symmetry_equiv_pos_site_id
 _symmetry_equiv_pos_as_xyz
  1  'x, y, z'
loop_
 _atom_site_type_symbol
 _atom_site_label
 _atom_site_symmetry_multiplicity
 _atom_site_fract_x
 _atom_site_fract_y
 _atom_site_fract_z
 _atom_site_occupancy
  Rb  Rb0  1  0.305956  0.331283  0.811569  1
  Rb  Rb1  1  0.692472  0.167704  0.308731  1
  Rb  Rb2  1  0.694043  0.668717  0.188431  1
  Rb  Rb3  1  0.307527  0.832296  0.691269  1
  Rb  Rb4  1  0.803051  0.169680  0.695176  1
  Rb  Rb5  1  0.195395  0.335288  0.192039  1
  Rb  Rb6  1  0.196949  0.830320  0.304824  1
  Rb  Rb7  1  0.804605  0.664712  0.807960  1
  Mn  Mn8  1  0.000000  0.000000  0.000000  1
  Rh  Rh9  1  0.000000  0.500000  0.500000  1
  Rh  Rh10  1  0.500000  0.500000  0.500000  1
  Rh  Rh11  1  0.500000  0.000000  0.000000  1
  S  S12  1  0.240147  0.203092  0.501143  1
  S  S13  1  0.757395  0.296551  0.001208  1
  S  S14  1  0.759853  0.796909  0.498857  1
  S  S15  1  0.242605  0.703448  0.998792  1
  O  O16  1  0.160930  0.109664  0.594958  1
  O  O17  1  0.835686  0.392613  0.093775  1
  O  O18  1  0.839070  0.890337  0.405042  1
  O  O19  1  0.164314  0.607387  0.906225  1
  O  O20  1  0.316787  0.117739  0.404959  1
  O  O21  1  0.681744  0.379394  0.903248  1
  O  O22  1  0.683213  0.882261  0.595041  1
  O  O23  1  0.318256  0.620606  0.096752  1
  O  O24  1  0.384204  0.303403  0.561208  1
  O  O25  1  0.612751  0.197772  0.061574  1
  O  O26  1  0.615796  0.696597  0.438791  1
  O  O27  1  0.387249  0.802228  0.938425  1
  O  O28  1  0.898167  0.196659  0.949534  1
  O  O29  1  0.899861  0.699463  0.555978  1
  O  O30  1  0.101833  0.803342  0.050466  1
  O  O31  1  0.100139  0.300536  0.444022  1
  F  F32  1  0.515287  0.559516  0.670219  1
  F  F33  1  0.484071  0.943085  0.171352  1
  F  F34  1  0.484712  0.440484  0.329781  1
  F  F35  1  0.515929  0.056915  0.828648  1
  F  F36  1  0.020944  0.952725  0.841695  1
  F  F37  1  0.982519  0.552880  0.328887  1
  F  F38  1  0.744972  0.401394  0.502483  1
  F  F39  1  0.017481  0.447120  0.671113  1
  F  F40  1  0.737001  0.895512  0.997061  1
  F  F41  1  0.255028  0.598605  0.497517  1
  F  F42  1  0.262999  0.104488  0.002939  1
  F  F43  1  0.979056  0.047276  0.158305  1
