# generated using pymatgen
data_DyEr5Co16(MoP6)2
_symmetry_space_group_name_H-M   'P 1'
_cell_length_a   3.70712800
_cell_length_b   10.52801200
_cell_length_c   12.20413600
_cell_angle_alpha   90.00000000
_cell_angle_beta   90.00000000
_cell_angle_gamma   90.00000000
_symmetry_Int_Tables_number   1
_chemical_formula_structural   DyEr5Co16(MoP6)2
_chemical_formula_sum   'Dy1 Er5 Co16 Mo2 P12'
_cell_volume   476.31141710
_cell_formula_units_Z   1
loop_
 _symmetry_equiv_pos_site_id
 _symmetry_equiv_pos_as_xyz
  1  'x, y, z'
loop_
 _atom_site_type_symbol
 _atom_site_label
 _atom_site_symmetry_multiplicity
 _atom_site_fract_x
 _atom_site_fract_y
 _atom_site_fract_z
 _atom_site_occupancy
  Dy  Dy0  1  0.750000  0.250000  0.474998  1
  Er  Er1  1  0.250000  0.750000  0.524834  1
  Er  Er2  1  0.250000  0.930548  0.795009  1
  Er  Er3  1  0.250000  0.569452  0.795009  1
  Er  Er4  1  0.750000  0.069335  0.204785  1
  Er  Er5  1  0.750000  0.430665  0.204785  1
  Co  Co6  1  0.250000  0.250000  0.298049  1
  Co  Co7  1  0.750000  0.750000  0.701395  1
  Co  Co8  1  0.750000  0.250000  0.013590  1
  Co  Co9  1  0.250000  0.750000  0.986376  1
  Co  Co10  1  0.250000  0.417730  0.009921  1
  Co  Co11  1  0.250000  0.082270  0.009921  1
  Co  Co12  1  0.750000  0.582449  0.990102  1
  Co  Co13  1  0.750000  0.917551  0.990102  1
  Co  Co14  1  0.250000  0.454638  0.568574  1
  Co  Co15  1  0.250000  0.045362  0.568574  1
  Co  Co16  1  0.750000  0.546480  0.431461  1
  Co  Co17  1  0.750000  0.953520  0.431461  1
  Co  Co18  1  0.250000  0.872098  0.293533  1
  Co  Co19  1  0.250000  0.627902  0.293533  1
  Co  Co20  1  0.750000  0.127617  0.706701  1
  Co  Co21  1  0.750000  0.372383  0.706701  1
  Mo  Mo22  1  0.250000  0.250000  0.843492  1
  Mo  Mo23  1  0.750000  0.750000  0.156897  1
  P  P24  1  0.250000  0.250000  0.119452  1
  P  P25  1  0.750000  0.750000  0.880406  1
  P  P26  1  0.250000  0.250000  0.650454  1
  P  P27  1  0.750000  0.750000  0.350439  1
  P  P28  1  0.250000  0.438598  0.383461  1
  P  P29  1  0.250000  0.061402  0.383461  1
  P  P30  1  0.750000  0.562119  0.616207  1
  P  P31  1  0.750000  0.937881  0.616207  1
  P  P32  1  0.250000  0.905614  0.107663  1
  P  P33  1  0.250000  0.594386  0.107663  1
  P  P34  1  0.750000  0.094190  0.892396  1
  P  P35  1  0.750000  0.405810  0.892396  1
