# generated using pymatgen
data_Zn6CrReN8
_symmetry_space_group_name_H-M   'P 1'
_cell_length_a   6.50088500
_cell_length_b   5.63062751
_cell_length_c   5.34020144
_cell_angle_alpha   90.08392918
_cell_angle_beta   90.00000000
_cell_angle_gamma   90.00000000
_symmetry_Int_Tables_number   1
_chemical_formula_structural   Zn6CrReN8
_chemical_formula_sum   'Zn6 Cr1 Re1 N8'
_cell_volume   195.47285419
_cell_formula_units_Z   1
loop_
 _symmetry_equiv_pos_site_id
 _symmetry_equiv_pos_as_xyz
  1  'x, y, z'
loop_
 _atom_site_type_symbol
 _atom_site_label
 _atom_site_symmetry_multiplicity
 _atom_site_fract_x
 _atom_site_fract_y
 _atom_site_fract_z
 _atom_site_occupancy
  Zn  Zn0  1  0.263349  0.836368  0.726187  1
  Zn  Zn1  1  0.260772  0.173971  0.238752  1
  Zn  Zn2  1  0.736651  0.836368  0.726187  1
  Zn  Zn3  1  0.739228  0.173971  0.238752  1
  Zn  Zn4  1  0.000000  0.323794  0.725174  1
  Zn  Zn5  1  0.500000  0.648337  0.235766  1
  Cr  Cr6  1  0.500000  0.329752  0.729866  1
  Re  Re7  1  0.000000  0.672309  0.228170  1
  N  N8  1  0.766171  0.826239  0.114023  1
  N  N9  1  0.730359  0.178303  0.617279  1
  N  N10  1  0.233829  0.826239  0.114023  1
  N  N11  1  0.269641  0.178303  0.617279  1
  N  N12  1  0.000000  0.362895  0.116212  1
  N  N13  1  0.500000  0.630596  0.614467  1
  N  N14  1  0.000000  0.675096  0.571459  1
  N  N15  1  0.500000  0.327458  0.064924  1
