# generated using pymatgen
data_Tb3PaAl15Ga2SiIr6
_symmetry_space_group_name_H-M   'P 1'
_cell_length_a   7.55973700
_cell_length_b   7.54925249
_cell_length_c   9.47805900
_cell_angle_alpha   90.00000000
_cell_angle_beta   90.00000000
_cell_angle_gamma   119.46824818
_symmetry_Int_Tables_number   1
_chemical_formula_structural   Tb3PaAl15Ga2SiIr6
_chemical_formula_sum   'Tb3 Pa1 Al15 Ga2 Si1 Ir6'
_cell_volume   470.93709519
_cell_formula_units_Z   1
loop_
 _symmetry_equiv_pos_site_id
 _symmetry_equiv_pos_as_xyz
  1  'x, y, z'
loop_
 _atom_site_type_symbol
 _atom_site_label
 _atom_site_symmetry_multiplicity
 _atom_site_fract_x
 _atom_site_fract_y
 _atom_site_fract_z
 _atom_site_occupancy
  Tb  Tb0  1  0.001838  0.325808  0.750000  1
  Tb  Tb1  1  0.675328  0.994953  0.250000  1
  Tb  Tb2  1  0.330284  0.007261  0.750000  1
  Pa  Pa3  1  0.995130  0.677778  0.250000  1
  Al  Al4  1  0.001564  0.334945  0.075373  1
  Al  Al5  1  0.998809  0.664692  0.923120  1
  Al  Al6  1  0.998809  0.664692  0.576880  1
  Al  Al7  1  0.341173  0.003990  0.425093  1
  Al  Al8  1  0.001564  0.334945  0.424627  1
  Al  Al9  1  0.665000  0.997868  0.573427  1
  Al  Al10  1  0.665000  0.997868  0.926573  1
  Al  Al11  1  0.341173  0.003990  0.074907  1
  Al  Al12  1  0.332972  0.333451  0.556085  1
  Al  Al13  1  0.660955  0.663238  0.444063  1
  Al  Al14  1  0.660955  0.663238  0.055937  1
  Al  Al15  1  0.332972  0.333451  0.943915  1
  Al  Al16  1  0.334523  0.547283  0.250000  1
  Al  Al17  1  0.546809  0.336800  0.250000  1
  Al  Al18  1  0.448287  0.661215  0.750000  1
  Ga  Ga19  1  0.871302  0.872767  0.750000  1
  Ga  Ga20  1  0.659684  0.452073  0.750000  1
  Si  Si21  1  0.133935  0.133198  0.250000  1
  Ir  Ir22  1  0.672974  0.329345  0.004391  1
  Ir  Ir23  1  0.326884  0.670489  0.002221  1
  Ir  Ir24  1  0.326884  0.670489  0.497779  1
  Ir  Ir25  1  0.672974  0.329345  0.495609  1
  Ir  Ir26  1  0.001110  0.997411  0.012505  1
  Ir  Ir27  1  0.001110  0.997411  0.487495  1
