# generated using pymatgen
data_CaNd(SbPd)4
_symmetry_space_group_name_H-M   'P 1'
_cell_length_a   4.60342500
_cell_length_b   4.60342500
_cell_length_c   10.90020700
_cell_angle_alpha   90.00000000
_cell_angle_beta   90.00000000
_cell_angle_gamma   90.00000000
_symmetry_Int_Tables_number   1
_chemical_formula_structural   CaNd(SbPd)4
_chemical_formula_sum   'Ca1 Nd1 Sb4 Pd4'
_cell_volume   230.99197351
_cell_formula_units_Z   1
loop_
 _symmetry_equiv_pos_site_id
 _symmetry_equiv_pos_as_xyz
  1  'x, y, z'
loop_
 _atom_site_type_symbol
 _atom_site_label
 _atom_site_symmetry_multiplicity
 _atom_site_fract_x
 _atom_site_fract_y
 _atom_site_fract_z
 _atom_site_occupancy
  Ca  Ca0  1  0.500000  0.000000  0.764115  1
  Nd  Nd1  1  0.000000  0.500000  0.242257  1
  Sb  Sb2  1  0.000000  0.000000  0.497969  1
  Sb  Sb3  1  0.500000  0.500000  0.497969  1
  Sb  Sb4  1  0.000000  0.500000  0.869782  1
  Sb  Sb5  1  0.500000  0.000000  0.128813  1
  Pd  Pd6  1  0.000000  0.000000  0.001071  1
  Pd  Pd7  1  0.500000  0.500000  0.001071  1
  Pd  Pd8  1  0.000000  0.500000  0.630843  1
  Pd  Pd9  1  0.500000  0.000000  0.366111  1
