# generated using pymatgen
data_U4ZnGeIr6
_symmetry_space_group_name_H-M   'P 1'
_cell_length_a   5.51063400
_cell_length_b   5.51108654
_cell_length_c   7.98841000
_cell_angle_alpha   89.99677137
_cell_angle_beta   90.00000000
_cell_angle_gamma   119.99729570
_symmetry_Int_Tables_number   1
_chemical_formula_structural   U4ZnGeIr6
_chemical_formula_sum   'U4 Zn1 Ge1 Ir6'
_cell_volume   210.10752655
_cell_formula_units_Z   1
loop_
 _symmetry_equiv_pos_site_id
 _symmetry_equiv_pos_as_xyz
  1  'x, y, z'
loop_
 _atom_site_type_symbol
 _atom_site_label
 _atom_site_symmetry_multiplicity
 _atom_site_fract_x
 _atom_site_fract_y
 _atom_site_fract_z
 _atom_site_occupancy
  U  U0  1  0.666655  0.333311  0.576497  1
  U  U1  1  0.333345  0.666689  0.423503  1
  U  U2  1  0.333339  0.666678  0.067790  1
  U  U3  1  0.666661  0.333322  0.932210  1
  Zn  Zn4  1  0.000000  0.000000  0.000000  1
  Ge  Ge5  1  0.000000  0.000000  0.500000  1
  Ir  Ir6  1  0.170018  0.340035  0.749951  1
  Ir  Ir7  1  0.659948  0.829959  0.749949  1
  Ir  Ir8  1  0.170012  0.829959  0.749949  1
  Ir  Ir9  1  0.829982  0.659965  0.250049  1
  Ir  Ir10  1  0.340052  0.170041  0.250051  1
  Ir  Ir11  1  0.829988  0.170041  0.250051  1
