# generated using pymatgen
data_Ce3TmMo3WN12
_symmetry_space_group_name_H-M   'P 1'
_cell_length_a   11.30123142
_cell_length_b   11.30123040
_cell_length_c   11.30123135
_cell_angle_alpha   109.59264780
_cell_angle_beta   109.41054077
_cell_angle_gamma   109.41053971
_symmetry_Int_Tables_number   1
_chemical_formula_structural   Ce3TmMo3WN12
_chemical_formula_sum   'Ce12 Tm4 Mo12 W4 N48'
_cell_volume   1111.10197266
_cell_formula_units_Z   4
loop_
 _symmetry_equiv_pos_site_id
 _symmetry_equiv_pos_as_xyz
  1  'x, y, z'
loop_
 _atom_site_type_symbol
 _atom_site_label
 _atom_site_symmetry_multiplicity
 _atom_site_fract_x
 _atom_site_fract_y
 _atom_site_fract_z
 _atom_site_occupancy
  Ce  Ce0  1  0.371897  0.754290  0.132401  1
  Ce  Ce1  1  0.250000  0.375320  0.125320  1
  Ce  Ce2  1  0.378111  0.132401  0.260504  1
  Ce  Ce3  1  0.878111  0.617607  0.245710  1
  Ce  Ce4  1  0.750000  0.125320  0.375320  1
  Ce  Ce5  1  0.128103  0.260504  0.382393  1
  Ce  Ce6  1  0.871897  0.739496  0.617608  1
  Ce  Ce7  1  0.250000  0.874680  0.624680  1
  Ce  Ce8  1  0.121889  0.382393  0.754290  1
  Ce  Ce9  1  0.621890  0.867599  0.739496  1
  Ce  Ce10  1  0.628103  0.245710  0.867599  1
  Ce  Ce11  1  0.750000  0.624681  0.874680  1
  Tm  Tm12  1  0.000000  0.000000  0.000000  1
  Tm  Tm13  1  0.500000  0.000000  0.000000  1
  Tm  Tm14  1  0.500000  0.500000  0.000000  1
  Tm  Tm15  1  0.000000  0.000000  0.500000  1
  Mo  Mo16  1  0.878282  0.256809  0.128138  1
  Mo  Mo17  1  0.750000  0.875000  0.125000  1
  Mo  Mo18  1  0.628673  0.378528  0.256810  1
  Mo  Mo19  1  0.128672  0.871862  0.250143  1
  Mo  Mo20  1  0.250000  0.625001  0.375000  1
  Mo  Mo21  1  0.621718  0.749856  0.378528  1
  Mo  Mo22  1  0.378282  0.250144  0.621473  1
  Mo  Mo23  1  0.750000  0.375000  0.625000  1
  Mo  Mo24  1  0.871328  0.128138  0.749856  1
  Mo  Mo25  1  0.371328  0.621472  0.743190  1
  Mo  Mo26  1  0.249999  0.125000  0.875000  1
  Mo  Mo27  1  0.121718  0.743190  0.871862  1
  W  W28  1  0.000000  0.500000  0.000000  1
  W  W29  1  0.500000  0.000000  0.500000  1
  W  W30  1  0.000000  0.500000  0.500000  1
  W  W31  1  0.500000  0.500000  0.500000  1
  N  N32  1  0.225459  0.134849  0.033937  1
  N  N33  1  0.304176  0.893578  0.026544  1
  N  N34  1  0.883261  0.402339  0.079035  1
  N  N35  1  0.725459  0.691522  0.090610  1
  N  N36  1  0.632966  0.410597  0.106421  1
  N  N37  1  0.983008  0.678790  0.096067  1
  N  N38  1  0.029422  0.223102  0.135407  1
  N  N39  1  0.600912  0.909390  0.134848  1
  N  N40  1  0.191202  0.578116  0.180694  1
  N  N41  1  0.470579  0.605986  0.193680  1
  N  N42  1  0.587695  0.193680  0.223101  1
  N  N43  1  0.132966  0.026545  0.222369  1
  N  N44  1  0.483009  0.386941  0.304219  1
  N  N45  1  0.323305  0.920965  0.304226  1
  N  N46  1  0.899087  0.033936  0.308478  1
  N  N47  1  0.917278  0.304219  0.321210  1
  N  N48  1  0.308797  0.489491  0.386912  1
  N  N49  1  0.582722  0.903933  0.386941  1
  N  N50  1  0.823305  0.519079  0.402340  1
  N  N51  1  0.087695  0.864593  0.394014  1
  N  N52  1  0.102578  0.613088  0.421884  1
  N  N53  1  0.804175  0.777631  0.410597  1
  N  N54  1  0.602579  0.180694  0.489491  1
  N  N55  1  0.383261  0.304226  0.480922  1
  N  N56  1  0.616738  0.695773  0.519078  1
  N  N57  1  0.397422  0.819306  0.510510  1
  N  N58  1  0.195824  0.222368  0.589403  1
  N  N59  1  0.897422  0.386912  0.578116  1
  N  N60  1  0.912305  0.135406  0.605985  1
  N  N61  1  0.176695  0.480922  0.597661  1
  N  N62  1  0.417278  0.096067  0.613059  1
  N  N63  1  0.691202  0.510509  0.613087  1
  N  N64  1  0.082722  0.695781  0.678790  1
  N  N65  1  0.100912  0.966063  0.691522  1
  N  N66  1  0.676695  0.079035  0.695774  1
  N  N67  1  0.516991  0.613058  0.695780  1
  N  N68  1  0.412305  0.806319  0.776898  1
  N  N69  1  0.867035  0.973456  0.777632  1
  N  N70  1  0.529422  0.394015  0.806320  1
  N  N71  1  0.808797  0.421884  0.819305  1
  N  N72  1  0.399087  0.090610  0.865151  1
  N  N73  1  0.970579  0.776899  0.864594  1
  N  N74  1  0.016991  0.321210  0.903932  1
  N  N75  1  0.367034  0.589403  0.893579  1
  N  N76  1  0.274541  0.308478  0.909390  1
  N  N77  1  0.116738  0.597660  0.920965  1
  N  N78  1  0.695824  0.106421  0.973455  1
  N  N79  1  0.774542  0.865152  0.966064  1
