# generated using pymatgen
data_Pr3Sm(AuO3)4
_symmetry_space_group_name_H-M   'P 1'
_cell_length_a   4.00795443
_cell_length_b   5.66754900
_cell_length_c   13.31882500
_cell_angle_alpha   90.00000000
_cell_angle_beta   90.93829959
_cell_angle_gamma   90.00000000
_symmetry_Int_Tables_number   1
_chemical_formula_structural   Pr3Sm(AuO3)4
_chemical_formula_sum   'Pr3 Sm1 Au4 O12'
_cell_volume   302.50024618
_cell_formula_units_Z   1
loop_
 _symmetry_equiv_pos_site_id
 _symmetry_equiv_pos_as_xyz
  1  'x, y, z'
loop_
 _atom_site_type_symbol
 _atom_site_label
 _atom_site_symmetry_multiplicity
 _atom_site_fract_x
 _atom_site_fract_y
 _atom_site_fract_z
 _atom_site_occupancy
  Pr  Pr0  1  0.255838  0.750000  0.079448  1
  Pr  Pr1  1  0.263308  0.250000  0.423218  1
  Pr  Pr2  1  0.734259  0.250000  0.919135  1
  Sm  Sm3  1  0.747806  0.750000  0.578894  1
  Au  Au4  1  0.070325  0.750000  0.827859  1
  Au  Au5  1  0.080871  0.250000  0.668327  1
  Au  Au6  1  0.922835  0.250000  0.170527  1
  Au  Au7  1  0.925352  0.750000  0.332318  1
  O  O8  1  0.171795  0.500394  0.251896  1
  O  O9  1  0.825283  0.998869  0.744906  1
  O  O10  1  0.825283  0.501131  0.744906  1
  O  O11  1  0.171795  0.999606  0.251896  1
  O  O12  1  0.739420  0.495275  0.075672  1
  O  O13  1  0.745341  0.506189  0.426967  1
  O  O14  1  0.251155  0.996090  0.922982  1
  O  O15  1  0.266710  0.999112  0.577714  1
  O  O16  1  0.745341  0.993811  0.426967  1
  O  O17  1  0.739420  0.004725  0.075672  1
  O  O18  1  0.266710  0.500888  0.577714  1
  O  O19  1  0.251155  0.503910  0.922982  1
