# generated using pymatgen
data_Sc2PaIn3Pt2Rh
_symmetry_space_group_name_H-M   'P 1'
_cell_length_a   7.51715300
_cell_length_b   7.71763266
_cell_length_c   3.63717300
_cell_angle_alpha   90.00000000
_cell_angle_beta   90.00000000
_cell_angle_gamma   119.14434587
_symmetry_Int_Tables_number   1
_chemical_formula_structural   Sc2PaIn3Pt2Rh
_chemical_formula_sum   'Sc2 Pa1 In3 Pt2 Rh1'
_cell_volume   184.29452145
_cell_formula_units_Z   1
loop_
 _symmetry_equiv_pos_site_id
 _symmetry_equiv_pos_as_xyz
  1  'x, y, z'
loop_
 _atom_site_type_symbol
 _atom_site_label
 _atom_site_symmetry_multiplicity
 _atom_site_fract_x
 _atom_site_fract_y
 _atom_site_fract_z
 _atom_site_occupancy
  Sc  Sc0  1  0.407453  0.395547  0.000000  1
  Sc  Sc1  1  0.011907  0.604453  0.000000  1
  Pa  Pa2  1  0.601420  0.000000  0.000000  1
  In  In3  1  0.736767  0.712318  0.500000  1
  In  In4  1  0.024450  0.287682  0.500000  1
  In  In5  1  0.242700  0.000000  0.500000  1
  Pt  Pt6  1  0.661210  0.317074  0.500000  1
  Pt  Pt7  1  0.344134  0.682926  0.500000  1
  Rh  Rh8  1  0.969959  0.000000  0.000000  1
