# generated using pymatgen
data_HoEr5(Co3P2)6
_symmetry_space_group_name_H-M   'P 1'
_cell_length_a   3.68503400
_cell_length_b   10.49936600
_cell_length_c   12.14835500
_cell_angle_alpha   90.00000000
_cell_angle_beta   90.00000000
_cell_angle_gamma   90.00000000
_symmetry_Int_Tables_number   1
_chemical_formula_structural   HoEr5(Co3P2)6
_chemical_formula_sum   'Ho1 Er5 Co18 P12'
_cell_volume   470.02618046
_cell_formula_units_Z   1
loop_
 _symmetry_equiv_pos_site_id
 _symmetry_equiv_pos_as_xyz
  1  'x, y, z'
loop_
 _atom_site_type_symbol
 _atom_site_label
 _atom_site_symmetry_multiplicity
 _atom_site_fract_x
 _atom_site_fract_y
 _atom_site_fract_z
 _atom_site_occupancy
  Ho  Ho0  1  0.750000  0.250000  0.477505  1
  Er  Er1  1  0.250000  0.750000  0.522483  1
  Er  Er2  1  0.250000  0.932161  0.793701  1
  Er  Er3  1  0.250000  0.567839  0.793701  1
  Er  Er4  1  0.750000  0.067933  0.206275  1
  Er  Er5  1  0.750000  0.432067  0.206275  1
  Co  Co6  1  0.250000  0.250000  0.840889  1
  Co  Co7  1  0.750000  0.750000  0.158998  1
  Co  Co8  1  0.250000  0.250000  0.296607  1
  Co  Co9  1  0.750000  0.750000  0.703076  1
  Co  Co10  1  0.750000  0.250000  0.014034  1
  Co  Co11  1  0.250000  0.750000  0.986067  1
  Co  Co12  1  0.250000  0.416907  0.005526  1
  Co  Co13  1  0.250000  0.083093  0.005526  1
  Co  Co14  1  0.750000  0.583099  0.994375  1
  Co  Co15  1  0.750000  0.916901  0.994375  1
  Co  Co16  1  0.250000  0.452530  0.569351  1
  Co  Co17  1  0.250000  0.047470  0.569351  1
  Co  Co18  1  0.750000  0.548056  0.430685  1
  Co  Co19  1  0.750000  0.951944  0.430685  1
  Co  Co20  1  0.250000  0.871149  0.290497  1
  Co  Co21  1  0.250000  0.628851  0.290497  1
  Co  Co22  1  0.750000  0.128678  0.709658  1
  Co  Co23  1  0.750000  0.371322  0.709658  1
  P  P24  1  0.250000  0.250000  0.117682  1
  P  P25  1  0.750000  0.750000  0.882193  1
  P  P26  1  0.250000  0.250000  0.655788  1
  P  P27  1  0.750000  0.750000  0.344658  1
  P  P28  1  0.250000  0.439149  0.383741  1
  P  P29  1  0.250000  0.060851  0.383741  1
  P  P30  1  0.750000  0.561278  0.616131  1
  P  P31  1  0.750000  0.938722  0.616131  1
  P  P32  1  0.250000  0.902928  0.107352  1
  P  P33  1  0.250000  0.597072  0.107352  1
  P  P34  1  0.750000  0.097095  0.892717  1
  P  P35  1  0.750000  0.402905  0.892717  1
