# generated using pymatgen
data_Nd16Cd4CoRu3
_symmetry_space_group_name_H-M   'P 1'
_cell_length_a   9.91066641
_cell_length_b   9.85936071
_cell_length_c   9.91066700
_cell_angle_alpha   59.82771273
_cell_angle_beta   60.00000137
_cell_angle_gamma   59.82771227
_symmetry_Int_Tables_number   1
_chemical_formula_structural   Nd16Cd4CoRu3
_chemical_formula_sum   'Nd16 Cd4 Co1 Ru3'
_cell_volume   682.97314235
_cell_formula_units_Z   1
loop_
 _symmetry_equiv_pos_site_id
 _symmetry_equiv_pos_as_xyz
  1  'x, y, z'
loop_
 _atom_site_type_symbol
 _atom_site_label
 _atom_site_symmetry_multiplicity
 _atom_site_fract_x
 _atom_site_fract_y
 _atom_site_fract_z
 _atom_site_occupancy
  Nd  Nd0  1  0.438695  0.438995  0.061155  1
  Nd  Nd1  1  0.064858  0.060349  0.437397  1
  Nd  Nd2  1  0.437397  0.060349  0.064858  1
  Nd  Nd3  1  0.844849  0.850141  0.844849  1
  Nd  Nd4  1  0.689688  0.306943  0.313682  1
  Nd  Nd5  1  0.061155  0.438995  0.438695  1
  Nd  Nd6  1  0.310493  0.688939  0.690074  1
  Nd  Nd7  1  0.313682  0.306943  0.689688  1
  Nd  Nd8  1  0.844849  0.850141  0.460160  1
  Nd  Nd9  1  0.690074  0.688939  0.310493  1
  Nd  Nd10  1  0.460160  0.850141  0.844849  1
  Nd  Nd11  1  0.061155  0.438995  0.061155  1
  Nd  Nd12  1  0.847192  0.458425  0.847192  1
  Nd  Nd13  1  0.437397  0.060349  0.437397  1
  Nd  Nd14  1  0.310493  0.688939  0.310493  1
  Nd  Nd15  1  0.689688  0.306943  0.689688  1
  Cd  Cd16  1  0.079815  0.760555  0.079815  1
  Cd  Cd17  1  0.080083  0.078956  0.760877  1
  Cd  Cd18  1  0.760877  0.078956  0.080083  1
  Cd  Cd19  1  0.080083  0.078956  0.080083  1
  Co  Co20  1  0.638945  0.083162  0.638945  1
  Ru  Ru21  1  0.637108  0.641629  0.637108  1
  Ru  Ru22  1  0.637108  0.641629  0.084154  1
  Ru  Ru23  1  0.084154  0.641629  0.637108  1
