# generated using pymatgen
data_NdSmTm3Si4
_symmetry_space_group_name_H-M   'P 1'
_cell_length_a   7.69531905
_cell_length_b   7.69517529
_cell_length_c   14.16441312
_cell_angle_alpha   90.08739043
_cell_angle_beta   90.00046216
_cell_angle_gamma   90.05989227
_symmetry_Int_Tables_number   1
_chemical_formula_structural   NdSmTm3Si4
_chemical_formula_sum   'Nd4 Sm4 Tm12 Si16'
_cell_volume   838.77019564
_cell_formula_units_Z   4
loop_
 _symmetry_equiv_pos_site_id
 _symmetry_equiv_pos_as_xyz
  1  'x, y, z'
loop_
 _atom_site_type_symbol
 _atom_site_label
 _atom_site_symmetry_multiplicity
 _atom_site_fract_x
 _atom_site_fract_y
 _atom_site_fract_z
 _atom_site_occupancy
  Nd  Nd0  1  0.507173  0.142747  0.709094  1
  Nd  Nd1  1  0.857063  0.492740  0.790584  1
  Nd  Nd2  1  0.143125  0.507494  0.290889  1
  Nd  Nd3  1  0.007325  0.356648  0.040778  1
  Sm  Sm4  1  0.642129  0.993292  0.458830  1
  Sm  Sm5  1  0.358043  0.006510  0.959123  1
  Sm  Sm6  1  0.993176  0.642310  0.540874  1
  Sm  Sm7  1  0.493325  0.858225  0.208991  1
  Tm  Tm8  1  0.493008  0.359794  0.124275  1
  Tm  Tm9  1  0.993396  0.139622  0.625425  1
  Tm  Tm10  1  0.859828  0.006665  0.874291  1
  Tm  Tm11  1  0.139871  0.992690  0.374346  1
  Tm  Tm12  1  0.507626  0.640765  0.623782  1
  Tm  Tm13  1  0.359511  0.493103  0.875980  1
  Tm  Tm14  1  0.640199  0.507549  0.375942  1
  Tm  Tm15  1  0.007237  0.859876  0.125904  1
  Tm  Tm16  1  0.318242  0.318175  0.499928  1
  Tm  Tm17  1  0.181818  0.818221  0.749912  1
  Tm  Tm18  1  0.817447  0.181061  0.250165  1
  Tm  Tm19  1  0.681024  0.682520  0.000158  1
  Si  Si20  1  0.290015  0.937538  0.561395  1
  Si  Si21  1  0.708607  0.060933  0.061844  1
  Si  Si22  1  0.937464  0.289875  0.438577  1
  Si  Si23  1  0.439141  0.208674  0.311879  1
  Si  Si24  1  0.561459  0.790137  0.812145  1
  Si  Si25  1  0.209978  0.438455  0.687816  1
  Si  Si26  1  0.788617  0.563108  0.188288  1
  Si  Si27  1  0.063180  0.711316  0.938302  1
  Si  Si28  1  0.796636  0.848261  0.686802  1
  Si  Si29  1  0.205096  0.149887  0.187573  1
  Si  Si30  1  0.847070  0.797096  0.312765  1
  Si  Si31  1  0.348821  0.704630  0.437973  1
  Si  Si32  1  0.649917  0.294919  0.937661  1
  Si  Si33  1  0.704605  0.348851  0.561931  1
  Si  Si34  1  0.297124  0.652991  0.062697  1
  Si  Si35  1  0.151706  0.203327  0.813078  1
