# generated using pymatgen
data_Li4PrHo3Si8
_symmetry_space_group_name_H-M   'P 1'
_cell_length_a   3.82249400
_cell_length_b   7.62489096
_cell_length_c   10.23853998
_cell_angle_alpha   89.76529358
_cell_angle_beta   90.00000000
_cell_angle_gamma   90.00000000
_symmetry_Int_Tables_number   1
_chemical_formula_structural   Li4PrHo3Si8
_chemical_formula_sum   'Li4 Pr1 Ho3 Si8'
_cell_volume   298.41100571
_cell_formula_units_Z   1
loop_
 _symmetry_equiv_pos_site_id
 _symmetry_equiv_pos_as_xyz
  1  'x, y, z'
loop_
 _atom_site_type_symbol
 _atom_site_label
 _atom_site_symmetry_multiplicity
 _atom_site_fract_x
 _atom_site_fract_y
 _atom_site_fract_z
 _atom_site_occupancy
  Li  Li0  1  0.250000  0.992075  0.391982  1
  Li  Li1  1  0.250000  0.488350  0.106544  1
  Li  Li2  1  0.750000  0.011267  0.610571  1
  Li  Li3  1  0.750000  0.510726  0.893106  1
  Pr  Pr4  1  0.750000  0.356886  0.363245  1
  Ho  Ho5  1  0.250000  0.137114  0.863107  1
  Ho  Ho6  1  0.250000  0.640093  0.636386  1
  Ho  Ho7  1  0.750000  0.861003  0.135319  1
  Si  Si8  1  0.250000  0.230711  0.575686  1
  Si  Si9  1  0.250000  0.732750  0.931525  1
  Si  Si10  1  0.750000  0.773970  0.431676  1
  Si  Si11  1  0.750000  0.261386  0.062648  1
  Si  Si12  1  0.250000  0.663810  0.320256  1
  Si  Si13  1  0.250000  0.150858  0.173521  1
  Si  Si14  1  0.750000  0.344997  0.683440  1
  Si  Si15  1  0.750000  0.844002  0.820987  1
