# generated using pymatgen
data_Tm4TcB8Ru9
_symmetry_space_group_name_H-M   'P 1'
_cell_length_a   3.07432000
_cell_length_b   8.70662690
_cell_length_c   10.17381830
_cell_angle_alpha   90.14906483
_cell_angle_beta   90.00000000
_cell_angle_gamma   90.00000000
_symmetry_Int_Tables_number   1
_chemical_formula_structural   Tm4TcB8Ru9
_chemical_formula_sum   'Tm4 Tc1 B8 Ru9'
_cell_volume   272.32123734
_cell_formula_units_Z   1
loop_
 _symmetry_equiv_pos_site_id
 _symmetry_equiv_pos_as_xyz
  1  'x, y, z'
loop_
 _atom_site_type_symbol
 _atom_site_label
 _atom_site_symmetry_multiplicity
 _atom_site_fract_x
 _atom_site_fract_y
 _atom_site_fract_z
 _atom_site_occupancy
  Tm  Tm0  1  0.500000  0.840282  0.180557  1
  Tm  Tm1  1  0.500000  0.158975  0.818864  1
  Tm  Tm2  1  0.500000  0.659067  0.683744  1
  Tm  Tm3  1  0.500000  0.340990  0.316917  1
  Tc  Tc4  1  0.000000  0.657092  0.954443  1
  B  B5  1  0.500000  0.965995  0.588249  1
  B  B6  1  0.500000  0.033622  0.411318  1
  B  B7  1  0.500000  0.849613  0.901213  1
  B  B8  1  0.500000  0.149330  0.098818  1
  B  B9  1  0.500000  0.645923  0.399394  1
  B  B10  1  0.500000  0.352180  0.601170  1
  B  B11  1  0.500000  0.470304  0.911594  1
  B  B12  1  0.500000  0.538537  0.086145  1
  Ru  Ru13  1  0.000000  0.339356  0.047201  1
  Ru  Ru14  1  0.000000  0.842247  0.454195  1
  Ru  Ru15  1  0.000000  0.157507  0.545452  1
  Ru  Ru16  1  0.000000  0.000261  0.000252  1
  Ru  Ru17  1  0.000000  0.405288  0.760619  1
  Ru  Ru18  1  0.000000  0.593813  0.240022  1
  Ru  Ru19  1  0.000000  0.499255  0.500572  1
  Ru  Ru20  1  0.000000  0.907113  0.738312  1
  Ru  Ru21  1  0.000000  0.093252  0.260950  1
