# generated using pymatgen
data_YHo15(In3Ru)2
_symmetry_space_group_name_H-M   'P 1'
_cell_length_a   10.36108700
_cell_length_b   10.36991784
_cell_length_c   7.05906008
_cell_angle_alpha   90.04646998
_cell_angle_beta   90.00000000
_cell_angle_gamma   119.97183707
_symmetry_Int_Tables_number   1
_chemical_formula_structural   YHo15(In3Ru)2
_chemical_formula_sum   'Y1 Ho15 In6 Ru2'
_cell_volume   657.02384739
_cell_formula_units_Z   1
loop_
 _symmetry_equiv_pos_site_id
 _symmetry_equiv_pos_as_xyz
  1  'x, y, z'
loop_
 _atom_site_type_symbol
 _atom_site_label
 _atom_site_symmetry_multiplicity
 _atom_site_fract_x
 _atom_site_fract_y
 _atom_site_fract_z
 _atom_site_occupancy
  Y  Y0  1  0.532704  0.065408  0.507857  1
  Ho  Ho1  1  0.932762  0.466332  0.507774  1
  Ho  Ho2  1  0.533570  0.466332  0.507774  1
  Ho  Ho3  1  0.466161  0.932323  0.007718  1
  Ho  Ho4  1  0.067140  0.533626  0.007847  1
  Ho  Ho5  1  0.466486  0.533626  0.007847  1
  Ho  Ho6  1  0.177076  0.354152  0.711655  1
  Ho  Ho7  1  0.646261  0.822601  0.712108  1
  Ho  Ho8  1  0.176340  0.822601  0.712108  1
  Ho  Ho9  1  0.823330  0.646660  0.211736  1
  Ho  Ho10  1  0.354081  0.177399  0.211070  1
  Ho  Ho11  1  0.823317  0.177399  0.211070  1
  Ho  Ho12  1  0.666847  0.333694  0.886114  1
  Ho  Ho13  1  0.332965  0.665932  0.385575  1
  Ho  Ho14  1  0.000009  0.000018  0.491834  1
  Ho  Ho15  1  0.999977  0.999953  0.991983  1
  In  In16  1  0.836889  0.673778  0.753710  1
  In  In17  1  0.325850  0.163017  0.753878  1
  In  In18  1  0.837167  0.163017  0.753878  1
  In  In19  1  0.162950  0.325900  0.253873  1
  In  In20  1  0.673804  0.837289  0.253975  1
  In  In21  1  0.163485  0.837289  0.253975  1
  Ru  Ru22  1  0.667447  0.334892  0.280800  1
  Ru  Ru23  1  0.333379  0.666760  0.781882  1
