# generated using pymatgen
data_Pr2Er9In9Ru4
_symmetry_space_group_name_H-M   'P 1'
_cell_length_a   13.00466784
_cell_length_b   13.01678257
_cell_length_c   3.77768900
_cell_angle_alpha   90.00000000
_cell_angle_beta   90.00000000
_cell_angle_gamma   113.12693561
_symmetry_Int_Tables_number   1
_chemical_formula_structural   Pr2Er9In9Ru4
_chemical_formula_sum   'Pr2 Er9 In9 Ru4'
_cell_volume   588.09234920
_cell_formula_units_Z   1
loop_
 _symmetry_equiv_pos_site_id
 _symmetry_equiv_pos_as_xyz
  1  'x, y, z'
loop_
 _atom_site_type_symbol
 _atom_site_label
 _atom_site_symmetry_multiplicity
 _atom_site_fract_x
 _atom_site_fract_y
 _atom_site_fract_z
 _atom_site_occupancy
  Pr  Pr0  1  0.338004  0.662022  0.500000  1
  Pr  Pr1  1  0.661996  0.337978  0.500000  1
  Er  Er2  1  0.500000  0.500000  0.500000  1
  Er  Er3  1  0.811946  0.811937  0.500000  1
  Er  Er4  1  0.188054  0.188063  0.500000  1
  Er  Er5  1  0.585682  0.917107  0.500000  1
  Er  Er6  1  0.414318  0.082893  0.500000  1
  Er  Er7  1  0.917192  0.585727  0.500000  1
  Er  Er8  1  0.082808  0.414273  0.500000  1
  Er  Er9  1  0.125780  0.874194  0.500000  1
  Er  Er10  1  0.874220  0.125806  0.500000  1
  In  In11  1  0.343536  0.874083  0.000000  1
  In  In12  1  0.656464  0.125917  0.000000  1
  In  In13  1  0.873764  0.343077  0.000000  1
  In  In14  1  0.126236  0.656923  0.000000  1
  In  In15  1  0.578856  0.720585  0.000000  1
  In  In16  1  0.421144  0.279415  0.000000  1
  In  In17  1  0.720534  0.578902  0.000000  1
  In  In18  1  0.279466  0.421098  0.000000  1
  In  In19  1  0.000000  0.000000  0.000000  1
  Ru  Ru20  1  0.757973  0.951975  0.000000  1
  Ru  Ru21  1  0.242027  0.048025  0.000000  1
  Ru  Ru22  1  0.952086  0.757829  0.000000  1
  Ru  Ru23  1  0.047914  0.242171  0.000000  1
