# generated using pymatgen
data_KRb3BaTa6(Si2O13)2
_symmetry_space_group_name_H-M   'P 1'
_cell_length_a   9.16697700
_cell_length_b   9.16697712
_cell_length_c   7.87241700
_cell_angle_alpha   90.00000000
_cell_angle_beta   90.00000000
_cell_angle_gamma   119.62628556
_symmetry_Int_Tables_number   1
_chemical_formula_structural   KRb3BaTa6(Si2O13)2
_chemical_formula_sum   'K1 Rb3 Ba1 Ta6 Si4 O26'
_cell_volume   575.06136153
_cell_formula_units_Z   1
loop_
 _symmetry_equiv_pos_site_id
 _symmetry_equiv_pos_as_xyz
  1  'x, y, z'
loop_
 _atom_site_type_symbol
 _atom_site_label
 _atom_site_symmetry_multiplicity
 _atom_site_fract_x
 _atom_site_fract_y
 _atom_site_fract_z
 _atom_site_occupancy
  K  K0  1  0.001606  0.608644  0.000000  1
  Rb  Rb1  1  0.604181  0.001207  0.000000  1
  Rb  Rb2  1  0.596938  0.000399  0.500000  1
  Rb  Rb3  1  0.000464  0.596705  0.500000  1
  Ba  Ba4  1  0.396651  0.396537  0.500000  1
  Ta  Ta5  1  0.999983  0.238295  0.751790  1
  Ta  Ta6  1  0.999983  0.238295  0.248210  1
  Ta  Ta7  1  0.237685  0.999254  0.248013  1
  Ta  Ta8  1  0.237685  0.999254  0.751987  1
  Ta  Ta9  1  0.764152  0.763448  0.249672  1
  Ta  Ta10  1  0.764152  0.763448  0.750328  1
  Si  Si11  1  0.334385  0.662361  0.792566  1
  Si  Si12  1  0.334385  0.662361  0.207434  1
  Si  Si13  1  0.663466  0.336116  0.792630  1
  Si  Si14  1  0.663466  0.336116  0.207370  1
  O  O15  1  0.174390  0.173997  0.239688  1
  O  O16  1  0.770061  0.769938  0.500000  1
  O  O17  1  0.185355  0.484110  0.722157  1
  O  O18  1  0.185355  0.484110  0.277843  1
  O  O19  1  0.514743  0.694070  0.723524  1
  O  O20  1  0.514743  0.694070  0.276476  1
  O  O21  1  0.330733  0.658490  0.000000  1
  O  O22  1  0.827692  0.000879  0.762764  1
  O  O23  1  0.827692  0.000879  0.237236  1
  O  O24  1  0.303895  0.815912  0.266484  1
  O  O25  1  0.303895  0.815912  0.733516  1
  O  O26  1  0.002858  0.236009  0.500000  1
  O  O27  1  0.997860  0.270591  0.000000  1
  O  O28  1  0.001126  0.824511  0.233990  1
  O  O29  1  0.269486  0.997312  0.000000  1
  O  O30  1  0.235684  0.002861  0.500000  1
  O  O31  1  0.816165  0.304078  0.266058  1
  O  O32  1  0.816165  0.304078  0.733942  1
  O  O33  1  0.484456  0.185003  0.725755  1
  O  O34  1  0.484456  0.185003  0.274245  1
  O  O35  1  0.666328  0.343445  0.000000  1
  O  O36  1  0.174390  0.173997  0.760312  1
  O  O37  1  0.693548  0.514522  0.719496  1
  O  O38  1  0.693548  0.514522  0.280504  1
  O  O39  1  0.001126  0.824511  0.766010  1
  O  O40  1  0.735064  0.734745  0.000000  1
