# generated using pymatgen
data_Ca11Sm(AgPb)6
_symmetry_space_group_name_H-M   'P 1'
_cell_length_a   5.41959504
_cell_length_b   7.61960105
_cell_length_c   16.24488602
_cell_angle_alpha   89.99747080
_cell_angle_beta   90.00476636
_cell_angle_gamma   89.98680994
_symmetry_Int_Tables_number   1
_chemical_formula_structural   Ca11Sm(AgPb)6
_chemical_formula_sum   'Ca11 Sm1 Ag6 Pb6'
_cell_volume   670.83501780
_cell_formula_units_Z   1
loop_
 _symmetry_equiv_pos_site_id
 _symmetry_equiv_pos_as_xyz
  1  'x, y, z'
loop_
 _atom_site_type_symbol
 _atom_site_label
 _atom_site_symmetry_multiplicity
 _atom_site_fract_x
 _atom_site_fract_y
 _atom_site_fract_z
 _atom_site_occupancy
  Ca  Ca0  1  0.499995  0.751389  0.000002  1
  Ca  Ca1  1  0.999963  0.248516  0.169364  1
  Ca  Ca2  1  0.999972  0.751001  0.167173  1
  Ca  Ca3  1  0.500056  0.251639  0.332936  1
  Ca  Ca4  1  0.499954  0.747266  0.332654  1
  Ca  Ca5  1  0.000014  0.249929  0.499998  1
  Ca  Ca6  1  0.000005  0.750230  0.500000  1
  Ca  Ca7  1  0.500072  0.251640  0.667069  1
  Ca  Ca8  1  0.499959  0.747266  0.667350  1
  Ca  Ca9  1  0.000025  0.248509  0.830639  1
  Ca  Ca10  1  0.000029  0.751002  0.832830  1
  Sm  Sm11  1  0.500030  0.252927  0.000002  1
  Ag  Ag12  1  0.999946  0.497665  0.000005  1
  Ag  Ag13  1  0.499930  0.002539  0.165024  1
  Ag  Ag14  1  0.999949  0.499924  0.333206  1
  Ag  Ag15  1  0.499997  0.999148  0.499991  1
  Ag  Ag16  1  0.000010  0.499915  0.666784  1
  Ag  Ag17  1  0.500005  0.002538  0.834977  1
  Pb  Pb18  1  0.000066  0.002368  0.000004  1
  Pb  Pb19  1  0.500033  0.497382  0.165970  1
  Pb  Pb20  1  0.999966  0.998530  0.333417  1
  Pb  Pb21  1  0.499926  0.502785  0.500003  1
  Pb  Pb22  1  0.000073  0.998536  0.666576  1
  Pb  Pb23  1  0.500028  0.497357  0.834032  1
