# generated using pymatgen
data_Dy4Ga2As4Ir7
_symmetry_space_group_name_H-M   'P 1'
_cell_length_a   7.28361901
_cell_length_b   7.28361816
_cell_length_c   7.29698731
_cell_angle_alpha   109.17410419
_cell_angle_beta   109.17410978
_cell_angle_gamma   109.99356493
_symmetry_Int_Tables_number   1
_chemical_formula_structural   Dy4Ga2As4Ir7
_chemical_formula_sum   'Dy4 Ga2 As4 Ir7'
_cell_volume   298.24866232
_cell_formula_units_Z   1
loop_
 _symmetry_equiv_pos_site_id
 _symmetry_equiv_pos_as_xyz
  1  'x, y, z'
loop_
 _atom_site_type_symbol
 _atom_site_label
 _atom_site_symmetry_multiplicity
 _atom_site_fract_x
 _atom_site_fract_y
 _atom_site_fract_z
 _atom_site_occupancy
  Dy  Dy0  1  0.999130  0.999130  0.492929  1
  Dy  Dy1  1  0.998195  0.498195  0.996388  1
  Dy  Dy2  1  0.498195  0.998195  0.996388  1
  Dy  Dy3  1  0.493798  0.493798  0.492929  1
  Ga  Ga4  1  0.689611  0.996303  0.685914  1
  Ga  Ga5  1  0.996303  0.689611  0.685914  1
  As  As6  1  0.681111  0.681111  0.994513  1
  As  As7  1  0.328296  0.997137  0.325433  1
  As  As8  1  0.997137  0.328296  0.325433  1
  As  As9  1  0.313402  0.313402  0.994513  1
  Ir  Ir10  1  0.750780  0.250780  0.501560  1
  Ir  Ir11  1  0.746205  0.501316  0.247522  1
  Ir  Ir12  1  0.500771  0.248704  0.749475  1
  Ir  Ir13  1  0.248704  0.500771  0.749475  1
  Ir  Ir14  1  0.250780  0.750780  0.501560  1
  Ir  Ir15  1  0.501316  0.746205  0.247522  1
  Ir  Ir16  1  0.006264  0.006264  0.012530  1
