# generated using pymatgen
data_CaSmY2(Mo2O7)2
_symmetry_space_group_name_H-M   'P 1'
_cell_length_a   7.36132184
_cell_length_b   7.35522184
_cell_length_c   7.45179845
_cell_angle_alpha   60.42781369
_cell_angle_beta   60.45459587
_cell_angle_gamma   60.02740652
_symmetry_Int_Tables_number   1
_chemical_formula_structural   CaSmY2(Mo2O7)2
_chemical_formula_sum   'Ca1 Sm1 Y2 Mo4 O14'
_cell_volume   287.24531271
_cell_formula_units_Z   1
loop_
 _symmetry_equiv_pos_site_id
 _symmetry_equiv_pos_as_xyz
  1  'x, y, z'
loop_
 _atom_site_type_symbol
 _atom_site_label
 _atom_site_symmetry_multiplicity
 _atom_site_fract_x
 _atom_site_fract_y
 _atom_site_fract_z
 _atom_site_occupancy
  Ca  Ca0  1  0.125000  0.125000  0.625000  1
  Sm  Sm1  1  0.625000  0.125000  0.125000  1
  Y  Y2  1  0.125000  0.125000  0.125000  1
  Y  Y3  1  0.125000  0.625000  0.125000  1
  Mo  Mo4  1  0.625000  0.625000  0.625000  1
  Mo  Mo5  1  0.125000  0.625000  0.625000  1
  Mo  Mo6  1  0.625000  0.125000  0.625000  1
  Mo  Mo7  1  0.625000  0.625000  0.125000  1
  O  O8  1  0.245947  0.255086  0.243879  1
  O  O9  1  0.004053  0.994914  0.006121  1
  O  O10  1  0.553383  0.959153  0.528313  1
  O  O11  1  0.298804  0.707219  0.286760  1
  O  O12  1  0.541652  0.543836  0.963063  1
  O  O13  1  0.959476  0.554906  0.525769  1
  O  O14  1  0.541652  0.951448  0.963063  1
  O  O15  1  0.959476  0.959851  0.525769  1
  O  O16  1  0.951196  0.542781  0.963240  1
  O  O17  1  0.708348  0.298552  0.286937  1
  O  O18  1  0.290524  0.695094  0.724231  1
  O  O19  1  0.708348  0.706164  0.286937  1
  O  O20  1  0.290524  0.290149  0.724231  1
  O  O21  1  0.696617  0.290847  0.721687  1
