# generated using pymatgen
data_Ac4As3O4
_symmetry_space_group_name_H-M   'P 1'
_cell_length_a   7.42363000
_cell_length_b   7.42363026
_cell_length_c   8.46502900
_cell_angle_alpha   90.00000000
_cell_angle_beta   90.00000000
_cell_angle_gamma   146.70258927
_symmetry_Int_Tables_number   1
_chemical_formula_structural   Ac4As3O4
_chemical_formula_sum   'Ac4 As3 O4'
_cell_volume   256.10709884
_cell_formula_units_Z   1
loop_
 _symmetry_equiv_pos_site_id
 _symmetry_equiv_pos_as_xyz
  1  'x, y, z'
loop_
 _atom_site_type_symbol
 _atom_site_label
 _atom_site_symmetry_multiplicity
 _atom_site_fract_x
 _atom_site_fract_y
 _atom_site_fract_z
 _atom_site_occupancy
  Ac  Ac0  1  0.318593  0.681407  0.757634  1
  Ac  Ac1  1  0.318593  0.681407  0.242366  1
  Ac  Ac2  1  0.992129  0.007871  0.500000  1
  Ac  Ac3  1  0.000858  0.999142  0.000000  1
  As  As4  1  0.625685  0.374315  0.257973  1
  As  As5  1  0.625685  0.374315  0.742027  1
  As  As6  1  0.699853  0.300147  0.000000  1
  O  O7  1  0.398631  0.601369  0.500000  1
  O  O8  1  0.411034  0.588966  0.000000  1
  O  O9  1  0.905075  0.094925  0.749054  1
  O  O10  1  0.905075  0.094925  0.250946  1
