# generated using pymatgen
data_K2Rb7InSb4
_symmetry_space_group_name_H-M   'P 1'
_cell_length_a   11.02697220
_cell_length_b   11.07303731
_cell_length_c   11.56915500
_cell_angle_alpha   90.00000000
_cell_angle_beta   90.00000000
_cell_angle_gamma   120.13827317
_symmetry_Int_Tables_number   1
_chemical_formula_structural   K2Rb7InSb4
_chemical_formula_sum   'K4 Rb14 In2 Sb8'
_cell_volume   1221.65481225
_cell_formula_units_Z   2
loop_
 _symmetry_equiv_pos_site_id
 _symmetry_equiv_pos_as_xyz
  1  'x, y, z'
loop_
 _atom_site_type_symbol
 _atom_site_label
 _atom_site_symmetry_multiplicity
 _atom_site_fract_x
 _atom_site_fract_y
 _atom_site_fract_z
 _atom_site_occupancy
  K  K0  1  0.238501  0.118686  0.750000  1
  K  K1  1  0.761499  0.880184  0.250000  1
  K  K2  1  0.118753  0.880260  0.250000  1
  K  K3  1  0.881247  0.761509  0.750000  1
  Rb  Rb4  1  0.207772  0.415127  0.543848  1
  Rb  Rb5  1  0.792228  0.207357  0.043848  1
  Rb  Rb6  1  0.414661  0.207016  0.043020  1
  Rb  Rb7  1  0.585339  0.792354  0.543020  1
  Rb  Rb8  1  0.206864  0.792939  0.543544  1
  Rb  Rb9  1  0.793136  0.586076  0.456456  1
  Rb  Rb10  1  0.792228  0.207357  0.456152  1
  Rb  Rb11  1  0.793136  0.586076  0.043544  1
  Rb  Rb12  1  0.414661  0.207016  0.456980  1
  Rb  Rb13  1  0.585339  0.792354  0.956980  1
  Rb  Rb14  1  0.207772  0.415127  0.956152  1
  Rb  Rb15  1  0.206864  0.792939  0.956456  1
  Rb  Rb16  1  0.118449  0.236619  0.250000  1
  Rb  Rb17  1  0.881551  0.118172  0.750000  1
  In  In18  1  0.333473  0.666959  0.250000  1
  In  In19  1  0.666527  0.333485  0.750000  1
  Sb  Sb20  1  0.486486  0.520227  0.250000  1
  Sb  Sb21  1  0.966772  0.486609  0.750000  1
  Sb  Sb22  1  0.513514  0.033743  0.750000  1
  Sb  Sb23  1  0.482938  0.965573  0.250000  1
  Sb  Sb24  1  0.033228  0.519836  0.250000  1
  Sb  Sb25  1  0.517062  0.482637  0.750000  1
  Sb  Sb26  1  0.000000  0.996881  0.000000  1
  Sb  Sb27  1  0.000000  0.996881  0.500000  1
