# generated using pymatgen
data_Pr4MnCo5O19
_symmetry_space_group_name_H-M   'P 1'
_cell_length_a   7.45123139
_cell_length_b   7.45123220
_cell_length_c   7.44139300
_cell_angle_alpha   109.54908669
_cell_angle_beta   109.34643633
_cell_angle_gamma   109.57165841
_symmetry_Int_Tables_number   1
_chemical_formula_structural   Pr4MnCo5O19
_chemical_formula_sum   'Pr4 Mn1 Co5 O19'
_cell_volume   317.83358651
_cell_formula_units_Z   1
loop_
 _symmetry_equiv_pos_site_id
 _symmetry_equiv_pos_as_xyz
  1  'x, y, z'
loop_
 _atom_site_type_symbol
 _atom_site_label
 _atom_site_symmetry_multiplicity
 _atom_site_fract_x
 _atom_site_fract_y
 _atom_site_fract_z
 _atom_site_occupancy
  Pr  Pr0  1  0.670961  0.672515  0.670286  1
  Pr  Pr1  1  0.329882  0.000126  0.003732  1
  Pr  Pr2  1  0.996395  0.326150  0.996268  1
  Pr  Pr3  1  0.002228  0.000674  0.329714  1
  Mn  Mn4  1  0.342568  0.842568  0.500000  1
  Co  Co5  1  0.659312  0.159312  0.500000  1
  Co  Co6  1  0.840961  0.498889  0.340387  1
  Co  Co7  1  0.158502  0.500574  0.659613  1
  Co  Co8  1  0.498702  0.342726  0.842208  1
  Co  Co9  1  0.500518  0.656495  0.157792  1
  O  O10  1  0.644811  0.644811  0.000000  1
  O  O11  1  0.356048  0.356048  0.000000  1
  O  O12  1  0.653792  0.001996  0.650950  1
  O  O13  1  0.351045  0.002842  0.349050  1
  O  O14  1  0.999969  0.644380  0.644005  1
  O  O15  1  0.000375  0.355964  0.355995  1
  O  O16  1  0.999650  0.999650  0.000000  1
  O  O17  1  0.366405  0.610806  0.323302  1
  O  O18  1  0.635769  0.958630  0.251844  1
  O  O19  1  0.706786  0.383925  0.748156  1
  O  O20  1  0.616993  0.325540  0.365160  1
  O  O21  1  0.287503  0.043103  0.676698  1
  O  O22  1  0.960379  0.251832  0.634840  1
  O  O23  1  0.387223  0.750758  0.715451  1
  O  O24  1  0.035309  0.671774  0.284549  1
  O  O25  1  0.323978  0.366258  0.616384  1
  O  O26  1  0.749874  0.707595  0.383616  1
  O  O27  1  0.673835  0.290790  0.040561  1
  O  O28  1  0.250229  0.633274  0.959439  1
