# generated using pymatgen
data_PrDy5(Si3Os)8
_symmetry_space_group_name_H-M   'P 1'
_cell_length_a   10.15190929
_cell_length_b   10.15190881
_cell_length_c   8.19357608
_cell_angle_alpha   89.90585421
_cell_angle_beta   90.09414377
_cell_angle_gamma   132.41284217
_symmetry_Int_Tables_number   1
_chemical_formula_structural   PrDy5(Si3Os)8
_chemical_formula_sum   'Pr1 Dy5 Si24 Os8'
_cell_volume   623.45276799
_cell_formula_units_Z   1
loop_
 _symmetry_equiv_pos_site_id
 _symmetry_equiv_pos_as_xyz
  1  'x, y, z'
loop_
 _atom_site_type_symbol
 _atom_site_label
 _atom_site_symmetry_multiplicity
 _atom_site_fract_x
 _atom_site_fract_y
 _atom_site_fract_z
 _atom_site_occupancy
  Pr  Pr0  1  0.001601  0.501601  0.750000  1
  Dy  Dy1  1  0.500852  0.000852  0.750000  1
  Dy  Dy2  1  0.999221  0.499221  0.250000  1
  Dy  Dy3  1  0.499340  0.999340  0.250000  1
  Dy  Dy4  1  0.999994  0.999982  0.000161  1
  Dy  Dy5  1  0.499982  0.499994  0.499839  1
  Si  Si6  1  0.793491  0.203268  0.498355  1
  Si  Si7  1  0.703268  0.293491  0.001645  1
  Si  Si8  1  0.206749  0.796912  0.498161  1
  Si  Si9  1  0.296912  0.706749  0.001839  1
  Si  Si10  1  0.667714  0.667866  0.166922  1
  Si  Si11  1  0.167866  0.167714  0.333078  1
  Si  Si12  1  0.832354  0.832215  0.667197  1
  Si  Si13  1  0.332215  0.332354  0.832803  1
  Si  Si14  1  0.845304  0.611779  0.997967  1
  Si  Si15  1  0.111779  0.345304  0.502033  1
  Si  Si16  1  0.655813  0.888992  0.495786  1
  Si  Si17  1  0.388992  0.155813  0.004214  1
  Si  Si18  1  0.153914  0.388186  0.006400  1
  Si  Si19  1  0.888186  0.653914  0.493600  1
  Si  Si20  1  0.122712  0.888114  0.728739  1
  Si  Si21  1  0.388114  0.622712  0.771261  1
  Si  Si22  1  0.378671  0.612710  0.227534  1
  Si  Si23  1  0.112710  0.878671  0.272466  1
  Si  Si24  1  0.879944  0.113696  0.272389  1
  Si  Si25  1  0.613696  0.379944  0.227611  1
  Si  Si26  1  0.618991  0.384842  0.771795  1
  Si  Si27  1  0.884842  0.118991  0.728205  1
  Si  Si28  1  0.611247  0.844416  0.995447  1
  Si  Si29  1  0.344416  0.111247  0.504553  1
  Os  Os30  1  0.626285  0.626281  0.872398  1
  Os  Os31  1  0.126281  0.126285  0.627602  1
  Os  Os32  1  0.373244  0.373597  0.127032  1
  Os  Os33  1  0.873597  0.873244  0.372968  1
  Os  Os34  1  0.171052  0.834169  0.002656  1
  Os  Os35  1  0.334169  0.671052  0.497344  1
  Os  Os36  1  0.828797  0.165690  0.001975  1
  Os  Os37  1  0.665690  0.328797  0.498025  1
