# generated using pymatgen
data_Tb4Co15Si6P6Ru5
_symmetry_space_group_name_H-M   'P 1'
_cell_length_a   3.72025700
_cell_length_b   10.51731475
_cell_length_c   11.92485831
_cell_angle_alpha   90.20621465
_cell_angle_beta   90.00000000
_cell_angle_gamma   90.00000000
_symmetry_Int_Tables_number   1
_chemical_formula_structural   Tb4Co15Si6P6Ru5
_chemical_formula_sum   'Tb4 Co15 Si6 P6 Ru5'
_cell_volume   466.58226637
_cell_formula_units_Z   1
loop_
 _symmetry_equiv_pos_site_id
 _symmetry_equiv_pos_as_xyz
  1  'x, y, z'
loop_
 _atom_site_type_symbol
 _atom_site_label
 _atom_site_symmetry_multiplicity
 _atom_site_fract_x
 _atom_site_fract_y
 _atom_site_fract_z
 _atom_site_occupancy
  Tb  Tb0  1  0.250000  0.585546  0.705046  1
  Tb  Tb1  1  0.250000  0.916384  0.203200  1
  Tb  Tb2  1  0.750000  0.413899  0.292904  1
  Tb  Tb3  1  0.750000  0.085503  0.797307  1
  Co  Co4  1  0.250000  0.093619  0.986570  1
  Co  Co5  1  0.750000  0.596928  0.507942  1
  Co  Co6  1  0.750000  0.908342  0.006211  1
  Co  Co7  1  0.250000  0.221932  0.174557  1
  Co  Co8  1  0.250000  0.274251  0.679483  1
  Co  Co9  1  0.750000  0.786605  0.824721  1
  Co  Co10  1  0.750000  0.714735  0.323714  1
  Co  Co11  1  0.250000  0.889964  0.702870  1
  Co  Co12  1  0.250000  0.612431  0.200551  1
  Co  Co13  1  0.750000  0.117642  0.301760  1
  Co  Co14  1  0.750000  0.382719  0.802977  1
  Co  Co15  1  0.250000  0.462776  0.934820  1
  Co  Co16  1  0.250000  0.036243  0.434437  1
  Co  Co17  1  0.750000  0.529227  0.069717  1
  Co  Co18  1  0.750000  0.969590  0.570267  1
  Si  Si19  1  0.750000  0.583393  0.889142  1
  Si  Si20  1  0.750000  0.917050  0.388465  1
  Si  Si21  1  0.750000  0.728047  0.130875  1
  Si  Si22  1  0.750000  0.772294  0.632099  1
  Si  Si23  1  0.750000  0.400516  0.612197  1
  Si  Si24  1  0.750000  0.098065  0.109188  1
  P  P25  1  0.250000  0.420653  0.113080  1
  P  P26  1  0.250000  0.078812  0.613651  1
  P  P27  1  0.250000  0.272714  0.866873  1
  P  P28  1  0.250000  0.224002  0.363250  1
  P  P29  1  0.250000  0.601829  0.389019  1
  P  P30  1  0.250000  0.902270  0.891188  1
  Ru  Ru31  1  0.250000  0.710456  0.986829  1
  Ru  Ru32  1  0.250000  0.792207  0.487640  1
  Ru  Ru33  1  0.750000  0.288407  0.008758  1
  Ru  Ru34  1  0.750000  0.204887  0.513569  1
  Ru  Ru35  1  0.250000  0.406060  0.485118  1
