# generated using pymatgen
data_Pr10Si4AgAu
_symmetry_space_group_name_H-M   'P 1'
_cell_length_a   7.78478427
_cell_length_b   7.78478461
_cell_length_c   9.32959196
_cell_angle_alpha   114.65851723
_cell_angle_beta   114.65852113
_cell_angle_gamma   89.99999875
_symmetry_Int_Tables_number   1
_chemical_formula_structural   Pr10Si4AgAu
_chemical_formula_sum   'Pr10 Si4 Ag1 Au1'
_cell_volume   456.49634742
_cell_formula_units_Z   1
loop_
 _symmetry_equiv_pos_site_id
 _symmetry_equiv_pos_as_xyz
  1  'x, y, z'
loop_
 _atom_site_type_symbol
 _atom_site_label
 _atom_site_symmetry_multiplicity
 _atom_site_fract_x
 _atom_site_fract_y
 _atom_site_fract_z
 _atom_site_occupancy
  Pr  Pr0  1  0.475588  0.475588  0.951177  1
  Pr  Pr1  1  0.024412  0.024412  0.048823  1
  Pr  Pr2  1  0.952693  0.803253  0.278390  1
  Pr  Pr3  1  0.325697  0.475137  0.278390  1
  Pr  Pr4  1  0.803253  0.325697  0.278390  1
  Pr  Pr5  1  0.475137  0.952693  0.278390  1
  Pr  Pr6  1  0.024863  0.174303  0.721610  1
  Pr  Pr7  1  0.696747  0.547307  0.721610  1
  Pr  Pr8  1  0.174303  0.696747  0.721610  1
  Pr  Pr9  1  0.547307  0.024863  0.721610  1
  Si  Si10  1  0.615137  0.884863  0.000000  1
  Si  Si11  1  0.384863  0.115137  0.000000  1
  Si  Si12  1  0.884863  0.384863  0.000000  1
  Si  Si13  1  0.115137  0.615137  0.000000  1
  Ag  Ag14  1  0.250000  0.250000  0.500000  1
  Au  Au15  1  0.750000  0.750000  0.500000  1
