# generated using pymatgen
data_DySc(Si7Rh3)2
_symmetry_space_group_name_H-M   'P 1'
_cell_length_a   7.95351916
_cell_length_b   7.95352004
_cell_length_c   7.95351981
_cell_angle_alpha   57.11907078
_cell_angle_beta   57.11906932
_cell_angle_gamma   57.11906226
_symmetry_Int_Tables_number   1
_chemical_formula_structural   DySc(Si7Rh3)2
_chemical_formula_sum   'Dy1 Sc1 Si14 Rh6'
_cell_volume   332.14623833
_cell_formula_units_Z   1
loop_
 _symmetry_equiv_pos_site_id
 _symmetry_equiv_pos_as_xyz
  1  'x, y, z'
loop_
 _atom_site_type_symbol
 _atom_site_label
 _atom_site_symmetry_multiplicity
 _atom_site_fract_x
 _atom_site_fract_y
 _atom_site_fract_z
 _atom_site_occupancy
  Dy  Dy0  1  0.500000  0.500000  0.500000  1
  Sc  Sc1  1  0.000000  0.000000  0.000000  1
  Si  Si2  1  0.749837  0.749837  0.749837  1
  Si  Si3  1  0.250163  0.250163  0.250163  1
  Si  Si4  1  0.852561  0.064847  0.673209  1
  Si  Si5  1  0.673209  0.852561  0.064847  1
  Si  Si6  1  0.064847  0.673209  0.852561  1
  Si  Si7  1  0.649272  0.828672  0.433062  1
  Si  Si8  1  0.433062  0.649272  0.828672  1
  Si  Si9  1  0.828672  0.433062  0.649272  1
  Si  Si10  1  0.171328  0.566938  0.350728  1
  Si  Si11  1  0.566938  0.350728  0.171328  1
  Si  Si12  1  0.350728  0.171328  0.566938  1
  Si  Si13  1  0.935153  0.326791  0.147439  1
  Si  Si14  1  0.326791  0.147439  0.935153  1
  Si  Si15  1  0.147439  0.935153  0.326791  1
  Rh  Rh16  1  0.069548  0.427416  0.751966  1
  Rh  Rh17  1  0.248034  0.930452  0.572584  1
  Rh  Rh18  1  0.572584  0.248034  0.930452  1
  Rh  Rh19  1  0.930452  0.572584  0.248034  1
  Rh  Rh20  1  0.427416  0.751966  0.069548  1
  Rh  Rh21  1  0.751966  0.069548  0.427416  1
