# generated using pymatgen
data_TmSc(Ni2As)4
_symmetry_space_group_name_H-M   'P 1'
_cell_length_a   7.12889443
_cell_length_b   7.12889443
_cell_length_c   3.76350400
_cell_angle_alpha   90.00000000
_cell_angle_beta   90.00000000
_cell_angle_gamma   89.64905057
_symmetry_Int_Tables_number   1
_chemical_formula_structural   TmSc(Ni2As)4
_chemical_formula_sum   'Tm1 Sc1 Ni8 As4'
_cell_volume   191.26196003
_cell_formula_units_Z   1
loop_
 _symmetry_equiv_pos_site_id
 _symmetry_equiv_pos_as_xyz
  1  'x, y, z'
loop_
 _atom_site_type_symbol
 _atom_site_label
 _atom_site_symmetry_multiplicity
 _atom_site_fract_x
 _atom_site_fract_y
 _atom_site_fract_z
 _atom_site_occupancy
  Tm  Tm0  1  0.500000  0.500000  0.000000  1
  Sc  Sc1  1  0.000000  0.000000  0.500000  1
  Ni  Ni2  1  0.590101  0.154141  0.500000  1
  Ni  Ni3  1  0.409899  0.845859  0.500000  1
  Ni  Ni4  1  0.088718  0.346012  0.000000  1
  Ni  Ni5  1  0.911282  0.653988  0.000000  1
  Ni  Ni6  1  0.154141  0.590101  0.500000  1
  Ni  Ni7  1  0.845859  0.409899  0.500000  1
  Ni  Ni8  1  0.346012  0.088718  0.000000  1
  Ni  Ni9  1  0.653988  0.911282  0.000000  1
  As  As10  1  0.722415  0.722415  0.500000  1
  As  As11  1  0.277585  0.277585  0.500000  1
  As  As12  1  0.212003  0.787997  0.000000  1
  As  As13  1  0.787997  0.212003  0.000000  1
