# generated using pymatgen
data_Cs2SrTa4(NbBr9)2
_symmetry_space_group_name_H-M   'P 1'
_cell_length_a   11.07801453
_cell_length_b   11.07171429
_cell_length_c   11.07510583
_cell_angle_alpha   55.02846689
_cell_angle_beta   55.00973583
_cell_angle_gamma   55.03186728
_symmetry_Int_Tables_number   1
_chemical_formula_structural   Cs2SrTa4(NbBr9)2
_chemical_formula_sum   'Cs2 Sr1 Ta4 Nb2 Br18'
_cell_volume   849.31689779
_cell_formula_units_Z   1
loop_
 _symmetry_equiv_pos_site_id
 _symmetry_equiv_pos_as_xyz
  1  'x, y, z'
loop_
 _atom_site_type_symbol
 _atom_site_label
 _atom_site_symmetry_multiplicity
 _atom_site_fract_x
 _atom_site_fract_y
 _atom_site_fract_z
 _atom_site_occupancy
  Cs  Cs0  1  0.276830  0.276729  0.276538  1
  Cs  Cs1  1  0.723201  0.723473  0.723221  1
  Sr  Sr2  1  0.000555  0.999697  0.999750  1
  Ta  Ta3  1  0.689746  0.362058  0.576089  1
  Ta  Ta4  1  0.637428  0.424187  0.310945  1
  Ta  Ta5  1  0.575862  0.688997  0.362551  1
  Ta  Ta6  1  0.310343  0.637923  0.423858  1
  Nb  Nb7  1  0.423475  0.309304  0.638583  1
  Nb  Nb8  1  0.361452  0.576545  0.690655  1
  Br  Br9  1  0.639641  0.097023  0.766751  1
  Br  Br10  1  0.767021  0.638416  0.096796  1
  Br  Br11  1  0.096485  0.767207  0.637264  1
  Br  Br12  1  0.824679  0.323166  0.044503  1
  Br  Br13  1  0.170216  0.436711  0.575844  1
  Br  Br14  1  0.677100  0.955399  0.175138  1
  Br  Br15  1  0.902791  0.233238  0.361701  1
  Br  Br16  1  0.566221  0.422269  0.828737  1
  Br  Br17  1  0.424146  0.830127  0.563342  1
  Br  Br18  1  0.955635  0.175355  0.676735  1
  Br  Br19  1  0.174201  0.677808  0.956897  1
  Br  Br20  1  0.044534  0.824908  0.322790  1
  Br  Br21  1  0.322407  0.043037  0.825706  1
  Br  Br22  1  0.232410  0.361203  0.904290  1
  Br  Br23  1  0.577795  0.170914  0.433670  1
  Br  Br24  1  0.435260  0.576721  0.171141  1
  Br  Br25  1  0.361708  0.902823  0.233244  1
  Br  Br26  1  0.828857  0.564761  0.423257  1
