# generated using pymatgen
data_YbPdRh2F12
_symmetry_space_group_name_H-M   'P 1'
_cell_length_a   5.15445514
_cell_length_b   5.16558968
_cell_length_c   10.04683952
_cell_angle_alpha   75.18446561
_cell_angle_beta   75.31320951
_cell_angle_gamma   60.00559828
_symmetry_Int_Tables_number   1
_chemical_formula_structural   YbPdRh2F12
_chemical_formula_sum   'Yb1 Pd1 Rh2 F12'
_cell_volume   221.43836560
_cell_formula_units_Z   1
loop_
 _symmetry_equiv_pos_site_id
 _symmetry_equiv_pos_as_xyz
  1  'x, y, z'
loop_
 _atom_site_type_symbol
 _atom_site_label
 _atom_site_symmetry_multiplicity
 _atom_site_fract_x
 _atom_site_fract_y
 _atom_site_fract_z
 _atom_site_occupancy
  Yb  Yb0  1  0.500000  0.500000  0.500000  1
  Pd  Pd1  1  0.000000  0.000000  0.000000  1
  Rh  Rh2  1  0.742537  0.747046  0.764718  1
  Rh  Rh3  1  0.257463  0.252954  0.235282  1
  F  F4  1  0.489462  0.772993  0.642193  1
  F  F5  1  0.510538  0.227007  0.357807  1
  F  F6  1  0.766008  0.096850  0.643277  1
  F  F7  1  0.233992  0.903150  0.356723  1
  F  F8  1  0.710807  0.384054  0.878144  1
  F  F9  1  0.289193  0.615946  0.121856  1
  F  F10  1  0.025595  0.713769  0.878362  1
  F  F11  1  0.974405  0.286231  0.121638  1
  F  F12  1  0.620560  0.971308  0.121788  1
  F  F13  1  0.379440  0.028692  0.878212  1
  F  F14  1  0.908971  0.501658  0.358711  1
  F  F15  1  0.091029  0.498342  0.641289  1
