# generated using pymatgen
data_La3Pr(CoB10)2
_symmetry_space_group_name_H-M   'P 1'
_cell_length_a   4.21406800
_cell_length_b   5.66169368
_cell_length_c   11.28202466
_cell_angle_alpha   90.04265334
_cell_angle_beta   90.00000000
_cell_angle_gamma   90.00000000
_symmetry_Int_Tables_number   1
_chemical_formula_structural   La3Pr(CoB10)2
_chemical_formula_sum   'La3 Pr1 Co2 B20'
_cell_volume   269.17506853
_cell_formula_units_Z   1
loop_
 _symmetry_equiv_pos_site_id
 _symmetry_equiv_pos_as_xyz
  1  'x, y, z'
loop_
 _atom_site_type_symbol
 _atom_site_label
 _atom_site_symmetry_multiplicity
 _atom_site_fract_x
 _atom_site_fract_y
 _atom_site_fract_z
 _atom_site_occupancy
  La  La0  1  0.500000  0.699326  0.134062  1
  La  La1  1  0.500000  0.801107  0.634825  1
  La  La2  1  0.500000  0.199471  0.365576  1
  Pr  Pr3  1  0.500000  0.300709  0.865626  1
  Co  Co4  1  0.000000  0.500092  0.500043  1
  Co  Co5  1  0.000000  0.999976  0.999877  1
  B  B6  1  0.000000  0.127931  0.541003  1
  B  B7  1  0.000000  0.871993  0.459118  1
  B  B8  1  0.000000  0.627726  0.959172  1
  B  B9  1  0.000000  0.371975  0.040747  1
  B  B10  1  0.000000  0.154947  0.697102  1
  B  B11  1  0.000000  0.844926  0.303062  1
  B  B12  1  0.298073  0.200636  0.112863  1
  B  B13  1  0.298148  0.798520  0.887269  1
  B  B14  1  0.702105  0.700993  0.387197  1
  B  B15  1  0.702006  0.298919  0.612902  1
  B  B16  1  0.701852  0.798520  0.887269  1
  B  B17  1  0.701927  0.200636  0.112863  1
  B  B18  1  0.297994  0.298919  0.612902  1
  B  B19  1  0.297895  0.700993  0.387197  1
  B  B20  1  0.000000  0.036036  0.187190  1
  B  B21  1  0.000000  0.964394  0.812933  1
  B  B22  1  0.000000  0.536169  0.312746  1
  B  B23  1  0.000000  0.464503  0.686964  1
  B  B24  1  0.000000  0.345072  0.196704  1
  B  B25  1  0.000000  0.655513  0.802790  1
