# generated using pymatgen
data_Ho2Er8Si5Pb
_symmetry_space_group_name_H-M   'P 1'
_cell_length_a   8.45516514
_cell_length_b   8.48512661
_cell_length_c   6.34436100
_cell_angle_alpha   90.00000000
_cell_angle_beta   90.00000000
_cell_angle_gamma   119.90416570
_symmetry_Int_Tables_number   1
_chemical_formula_structural   Ho2Er8Si5Pb
_chemical_formula_sum   'Ho2 Er8 Si5 Pb1'
_cell_volume   394.56406052
_cell_formula_units_Z   1
loop_
 _symmetry_equiv_pos_site_id
 _symmetry_equiv_pos_as_xyz
  1  'x, y, z'
loop_
 _atom_site_type_symbol
 _atom_site_label
 _atom_site_symmetry_multiplicity
 _atom_site_fract_x
 _atom_site_fract_y
 _atom_site_fract_z
 _atom_site_occupancy
  Ho  Ho0  1  0.756223  0.757632  0.250000  1
  Ho  Ho1  1  0.240145  0.000078  0.250000  1
  Er  Er2  1  0.987567  0.747794  0.750000  1
  Er  Er3  1  0.998674  0.242460  0.250000  1
  Er  Er4  1  0.767005  0.000047  0.750000  1
  Er  Er5  1  0.239604  0.252141  0.750000  1
  Er  Er6  1  0.331290  0.656513  0.496100  1
  Er  Er7  1  0.674784  0.343358  0.003895  1
  Er  Er8  1  0.674784  0.343358  0.496105  1
  Er  Er9  1  0.331290  0.656513  0.003900  1
  Si  Si10  1  0.393638  0.392477  0.250000  1
  Si  Si11  1  0.001345  0.607314  0.250000  1
  Si  Si12  1  0.998577  0.394542  0.750000  1
  Si  Si13  1  0.604086  0.605545  0.750000  1
  Si  Si14  1  0.605968  0.000177  0.250000  1
  Pb  Pb15  1  0.395022  0.000051  0.750000  1
