# generated using pymatgen
data_Nd16Mg2Cd2OsPt3
_symmetry_space_group_name_H-M   'P 1'
_cell_length_a   10.06435227
_cell_length_b   10.06435288
_cell_length_c   10.06236414
_cell_angle_alpha   59.59082430
_cell_angle_beta   59.59082803
_cell_angle_gamma   59.55670747
_symmetry_Int_Tables_number   1
_chemical_formula_structural   Nd16Mg2Cd2OsPt3
_chemical_formula_sum   'Nd16 Mg2 Cd2 Os1 Pt3'
_cell_volume   713.81373450
_cell_formula_units_Z   1
loop_
 _symmetry_equiv_pos_site_id
 _symmetry_equiv_pos_as_xyz
  1  'x, y, z'
loop_
 _atom_site_type_symbol
 _atom_site_label
 _atom_site_symmetry_multiplicity
 _atom_site_fract_x
 _atom_site_fract_y
 _atom_site_fract_z
 _atom_site_occupancy
  Nd  Nd0  1  0.350606  0.350606  0.351130  1
  Nd  Nd1  1  0.347120  0.347120  0.953872  1
  Nd  Nd2  1  0.346213  0.956026  0.346964  1
  Nd  Nd3  1  0.956026  0.346213  0.346964  1
  Nd  Nd4  1  0.816583  0.188780  0.188193  1
  Nd  Nd5  1  0.187944  0.809096  0.809307  1
  Nd  Nd6  1  0.188780  0.816583  0.188193  1
  Nd  Nd7  1  0.809096  0.187944  0.809307  1
  Nd  Nd8  1  0.189926  0.189926  0.815180  1
  Nd  Nd9  1  0.810487  0.810487  0.186945  1
  Nd  Nd10  1  0.938126  0.564110  0.563561  1
  Nd  Nd11  1  0.557285  0.939120  0.936571  1
  Nd  Nd12  1  0.564110  0.938126  0.563561  1
  Nd  Nd13  1  0.939120  0.557285  0.936571  1
  Nd  Nd14  1  0.564591  0.564591  0.936350  1
  Nd  Nd15  1  0.938349  0.938349  0.556140  1
  Mg  Mg16  1  0.575872  0.575872  0.579096  1
  Mg  Mg17  1  0.576163  0.576163  0.266759  1
  Cd  Cd18  1  0.581333  0.256794  0.580334  1
  Cd  Cd19  1  0.256794  0.581333  0.580334  1
  Os  Os20  1  0.143213  0.143213  0.142732  1
  Pt  Pt21  1  0.144728  0.144728  0.573129  1
  Pt  Pt22  1  0.144734  0.572807  0.144406  1
  Pt  Pt23  1  0.572807  0.144734  0.144406  1
