# generated using pymatgen
data_Yb7Ho(Sc3Pt4)4
_symmetry_space_group_name_H-M   'P 1'
_cell_length_a   7.29005806
_cell_length_b   7.33947310
_cell_length_c   14.00418709
_cell_angle_alpha   89.93811324
_cell_angle_beta   90.01027427
_cell_angle_gamma   90.00999749
_symmetry_Int_Tables_number   1
_chemical_formula_structural   Yb7Ho(Sc3Pt4)4
_chemical_formula_sum   'Yb7 Ho1 Sc12 Pt16'
_cell_volume   749.29616088
_cell_formula_units_Z   1
loop_
 _symmetry_equiv_pos_site_id
 _symmetry_equiv_pos_as_xyz
  1  'x, y, z'
loop_
 _atom_site_type_symbol
 _atom_site_label
 _atom_site_symmetry_multiplicity
 _atom_site_fract_x
 _atom_site_fract_y
 _atom_site_fract_z
 _atom_site_occupancy
  Yb  Yb0  1  0.990231  0.824723  0.907143  1
  Yb  Yb1  1  0.510937  0.325091  0.093260  1
  Yb  Yb2  1  0.011222  0.175224  0.406335  1
  Yb  Yb3  1  0.510903  0.324568  0.406233  1
  Yb  Yb4  1  0.010573  0.175390  0.093273  1
  Yb  Yb5  1  0.489021  0.675205  0.906089  1
  Yb  Yb6  1  0.989265  0.824941  0.593324  1
  Ho  Ho7  1  0.489780  0.676038  0.594575  1
  Sc  Sc8  1  0.649686  0.167448  0.624049  1
  Sc  Sc9  1  0.149387  0.334578  0.875203  1
  Sc  Sc10  1  0.350143  0.833988  0.124070  1
  Sc  Sc11  1  0.851027  0.664993  0.375657  1
  Sc  Sc12  1  0.350166  0.834478  0.374560  1
  Sc  Sc13  1  0.850325  0.665467  0.124585  1
  Sc  Sc14  1  0.650189  0.166558  0.875949  1
  Sc  Sc15  1  0.148159  0.333726  0.624906  1
  Sc  Sc16  1  0.813085  0.505100  0.750619  1
  Sc  Sc17  1  0.311593  0.996157  0.750572  1
  Sc  Sc18  1  0.188057  0.494881  0.250066  1
  Sc  Sc19  1  0.687654  0.004607  0.249653  1
  Pt  Pt20  1  0.673864  0.952751  0.454496  1
  Pt  Pt21  1  0.174892  0.543159  0.047126  1
  Pt  Pt22  1  0.325657  0.043631  0.952607  1
  Pt  Pt23  1  0.819349  0.462283  0.546972  1
  Pt  Pt24  1  0.326239  0.039198  0.547489  1
  Pt  Pt25  1  0.824966  0.457148  0.952772  1
  Pt  Pt26  1  0.674973  0.956697  0.046909  1
  Pt  Pt27  1  0.179850  0.543862  0.456507  1
  Pt  Pt28  1  0.448804  0.371247  0.748985  1
  Pt  Pt29  1  0.947075  0.127770  0.750771  1
  Pt  Pt30  1  0.551248  0.629039  0.249653  1
  Pt  Pt31  1  0.050522  0.870667  0.249644  1
  Pt  Pt32  1  0.672340  0.863391  0.747801  1
  Pt  Pt33  1  0.174713  0.636080  0.748635  1
  Pt  Pt34  1  0.326411  0.134400  0.249409  1
  Pt  Pt35  1  0.827695  0.365515  0.250104  1
