# generated using pymatgen
data_LaDy2Th(AsPt)4
_symmetry_space_group_name_H-M   'P 1'
_cell_length_a   4.32441500
_cell_length_b   4.32441590
_cell_length_c   15.84629000
_cell_angle_alpha   90.00000000
_cell_angle_beta   90.00000000
_cell_angle_gamma   120.00000075
_symmetry_Int_Tables_number   1
_chemical_formula_structural   LaDy2Th(AsPt)4
_chemical_formula_sum   'La1 Dy2 Th1 As4 Pt4'
_cell_volume   256.63332387
_cell_formula_units_Z   1
loop_
 _symmetry_equiv_pos_site_id
 _symmetry_equiv_pos_as_xyz
  1  'x, y, z'
loop_
 _atom_site_type_symbol
 _atom_site_label
 _atom_site_symmetry_multiplicity
 _atom_site_fract_x
 _atom_site_fract_y
 _atom_site_fract_z
 _atom_site_occupancy
  La  La0  1  0.000000  0.000000  0.500000  1
  Dy  Dy1  1  0.000000  0.000000  0.252510  1
  Dy  Dy2  1  0.000000  0.000000  0.747490  1
  Th  Th3  1  0.000000  0.000000  0.000000  1
  As  As4  1  0.333333  0.666667  0.882663  1
  As  As5  1  0.666667  0.333333  0.117337  1
  As  As6  1  0.666667  0.333333  0.379690  1
  As  As7  1  0.333333  0.666667  0.620310  1
  Pt  Pt8  1  0.333333  0.666667  0.354523  1
  Pt  Pt9  1  0.666667  0.333333  0.645477  1
  Pt  Pt10  1  0.666667  0.333333  0.861224  1
  Pt  Pt11  1  0.333333  0.666667  0.138776  1
