# generated using pymatgen
data_Eu3P6(Ir2Rh)2
_symmetry_space_group_name_H-M   'P 1'
_cell_length_a   6.72645424
_cell_length_b   6.72662017
_cell_length_c   7.08891836
_cell_angle_alpha   90.00000048
_cell_angle_beta   89.83532290
_cell_angle_gamma   120.00081536
_symmetry_Int_Tables_number   1
_chemical_formula_structural   Eu3P6(Ir2Rh)2
_chemical_formula_sum   'Eu3 P6 Ir4 Rh2'
_cell_volume   277.77153808
_cell_formula_units_Z   1
loop_
 _symmetry_equiv_pos_site_id
 _symmetry_equiv_pos_as_xyz
  1  'x, y, z'
loop_
 _atom_site_type_symbol
 _atom_site_label
 _atom_site_symmetry_multiplicity
 _atom_site_fract_x
 _atom_site_fract_y
 _atom_site_fract_z
 _atom_site_occupancy
  Eu  Eu0  1  0.395321  0.396540  0.500235  1
  Eu  Eu1  1  0.604679  0.001220  0.166432  1
  Eu  Eu2  1  0.000000  0.604545  0.833333  1
  P  P3  1  0.884637  0.222585  0.542702  1
  P  P4  1  0.223795  0.883715  0.457084  1
  P  P5  1  0.115363  0.337949  0.123965  1
  P  P6  1  0.776205  0.659919  0.209582  1
  P  P7  1  0.338383  0.116132  0.875753  1
  P  P8  1  0.661617  0.777750  0.790914  1
  Ir  Ir9  1  0.483462  0.483850  0.000599  1
  Ir  Ir10  1  0.000000  0.517438  0.333333  1
  Ir  Ir11  1  0.516538  0.000388  0.666068  1
  Ir  Ir12  1  0.000000  0.130726  0.833333  1
  Rh  Rh13  1  0.868989  0.868116  0.499309  1
  Rh  Rh14  1  0.131011  0.999127  0.167358  1
