# generated using pymatgen
data_GaH6Ir
_symmetry_space_group_name_H-M   'P 1'
_cell_length_a   4.40379352
_cell_length_b   4.40379353
_cell_length_c   5.21375307
_cell_angle_alpha   99.83762496
_cell_angle_beta   99.83762167
_cell_angle_gamma   119.66734107
_symmetry_Int_Tables_number   1
_chemical_formula_structural   GaH6Ir
_chemical_formula_sum   'Ga1 H6 Ir1'
_cell_volume   82.62369107
_cell_formula_units_Z   1
loop_
 _symmetry_equiv_pos_site_id
 _symmetry_equiv_pos_as_xyz
  1  'x, y, z'
loop_
 _atom_site_type_symbol
 _atom_site_label
 _atom_site_symmetry_multiplicity
 _atom_site_fract_x
 _atom_site_fract_y
 _atom_site_fract_z
 _atom_site_occupancy
  Ga  Ga0  1  0.167415  0.832586  0.000000  1
  H  H1  1  0.874173  0.513206  0.223405  1
  H  H2  1  0.660393  0.949219  0.220514  1
  H  H3  1  0.223235  0.296397  0.226369  1
  H  H4  1  0.703603  0.776765  0.773631  1
  H  H5  1  0.486794  0.125827  0.776595  1
  H  H6  1  0.050781  0.339607  0.779486  1
  Ir  Ir7  1  0.833606  0.166395  0.000000  1
