# generated using pymatgen
data_Dy2HoCdSn3Ir2
_symmetry_space_group_name_H-M   'P 1'
_cell_length_a   7.69128823
_cell_length_b   7.69580627
_cell_length_c   3.94201900
_cell_angle_alpha   90.00000000
_cell_angle_beta   90.00000000
_cell_angle_gamma   119.95269484
_symmetry_Int_Tables_number   1
_chemical_formula_structural   Dy2HoCdSn3Ir2
_chemical_formula_sum   'Dy2 Ho1 Cd1 Sn3 Ir2'
_cell_volume   202.16658703
_cell_formula_units_Z   1
loop_
 _symmetry_equiv_pos_site_id
 _symmetry_equiv_pos_as_xyz
  1  'x, y, z'
loop_
 _atom_site_type_symbol
 _atom_site_label
 _atom_site_symmetry_multiplicity
 _atom_site_fract_x
 _atom_site_fract_y
 _atom_site_fract_z
 _atom_site_occupancy
  Dy  Dy0  1  0.383387  0.409844  0.500000  1
  Dy  Dy1  1  0.590028  0.973664  0.500000  1
  Ho  Ho2  1  0.027054  0.617094  0.500000  1
  Cd  Cd3  1  0.666926  0.333548  0.000000  1
  Sn  Sn4  1  0.745314  0.746046  0.000000  1
  Sn  Sn5  1  0.253867  0.998897  0.000000  1
  Sn  Sn6  1  0.000973  0.254974  0.000000  1
  Ir  Ir7  1  0.332501  0.666308  0.000000  1
  Ir  Ir8  1  0.999947  0.999627  0.500000  1
