# generated using pymatgen
data_Zn2HgBi(Pt2O7)2
_symmetry_space_group_name_H-M   'P 1'
_cell_length_a   7.10978585
_cell_length_b   7.10978634
_cell_length_c   7.23552809
_cell_angle_alpha   60.67786166
_cell_angle_beta   60.67787257
_cell_angle_gamma   60.29990307
_symmetry_Int_Tables_number   1
_chemical_formula_structural   Zn2HgBi(Pt2O7)2
_chemical_formula_sum   'Zn2 Hg1 Bi1 Pt4 O14'
_cell_volume   261.84080361
_cell_formula_units_Z   1
loop_
 _symmetry_equiv_pos_site_id
 _symmetry_equiv_pos_as_xyz
  1  'x, y, z'
loop_
 _atom_site_type_symbol
 _atom_site_label
 _atom_site_symmetry_multiplicity
 _atom_site_fract_x
 _atom_site_fract_y
 _atom_site_fract_z
 _atom_site_occupancy
  Zn  Zn0  1  0.125000  0.625000  0.125000  1
  Zn  Zn1  1  0.625000  0.125000  0.125000  1
  Hg  Hg2  1  0.125000  0.125000  0.125000  1
  Bi  Bi3  1  0.125000  0.125000  0.625000  1
  Pt  Pt4  1  0.625000  0.625000  0.125000  1
  Pt  Pt5  1  0.625000  0.125000  0.625000  1
  Pt  Pt6  1  0.125000  0.625000  0.625000  1
  Pt  Pt7  1  0.625000  0.625000  0.625000  1
  O  O8  1  0.259129  0.259129  0.249925  1
  O  O9  1  0.990871  0.990871  0.000075  1
  O  O10  1  0.536007  0.962375  0.537098  1
  O  O11  1  0.288033  0.696752  0.290208  1
  O  O12  1  0.535437  0.535437  0.961418  1
  O  O13  1  0.962375  0.536007  0.537098  1
  O  O14  1  0.553248  0.961967  0.959792  1
  O  O15  1  0.961657  0.961657  0.545073  1
  O  O16  1  0.961967  0.553248  0.959792  1
  O  O17  1  0.696752  0.288033  0.290208  1
  O  O18  1  0.287625  0.713993  0.712902  1
  O  O19  1  0.713993  0.287625  0.712902  1
  O  O20  1  0.288343  0.288343  0.704927  1
  O  O21  1  0.714563  0.714563  0.288582  1
