# generated using pymatgen
data_Tb7Dy3(SiSn3)2
_symmetry_space_group_name_H-M   'P 1'
_cell_length_a   9.25873700
_cell_length_b   9.25873686
_cell_length_c   6.47410200
_cell_angle_alpha   90.00000000
_cell_angle_beta   90.00000000
_cell_angle_gamma   120.00000407
_symmetry_Int_Tables_number   1
_chemical_formula_structural   Tb7Dy3(SiSn3)2
_chemical_formula_sum   'Tb7 Dy3 Si2 Sn6'
_cell_volume   480.63306052
_cell_formula_units_Z   1
loop_
 _symmetry_equiv_pos_site_id
 _symmetry_equiv_pos_as_xyz
  1  'x, y, z'
loop_
 _atom_site_type_symbol
 _atom_site_label
 _atom_site_symmetry_multiplicity
 _atom_site_fract_x
 _atom_site_fract_y
 _atom_site_fract_z
 _atom_site_occupancy
  Tb  Tb0  1  0.666667  0.333333  0.000000  1
  Tb  Tb1  1  0.747178  0.747192  0.750019  1
  Tb  Tb2  1  0.252808  0.999985  0.750019  1
  Tb  Tb3  1  0.000015  0.252822  0.750019  1
  Tb  Tb4  1  0.252808  0.252822  0.249981  1
  Tb  Tb5  1  0.747178  0.999985  0.249981  1
  Tb  Tb6  1  0.000015  0.747192  0.249981  1
  Dy  Dy7  1  0.333333  0.666667  0.000000  1
  Dy  Dy8  1  0.333333  0.666667  0.500000  1
  Dy  Dy9  1  0.666667  0.333333  0.500000  1
  Si  Si10  1  0.000000  0.000000  0.000000  1
  Si  Si11  1  0.000000  0.000000  0.500000  1
  Sn  Sn12  1  0.391132  0.391175  0.749981  1
  Sn  Sn13  1  0.608825  0.999957  0.749981  1
  Sn  Sn14  1  0.000043  0.608868  0.749981  1
  Sn  Sn15  1  0.608825  0.608868  0.250019  1
  Sn  Sn16  1  0.391132  0.999957  0.250019  1
  Sn  Sn17  1  0.000043  0.391175  0.250019  1
