# generated using pymatgen
data_NaMn2(PO4)2
_symmetry_space_group_name_H-M   'P 1'
_cell_length_a   8.73224992
_cell_length_b   8.73225070
_cell_length_c   6.76152293
_cell_angle_alpha   72.23850902
_cell_angle_beta   72.23851206
_cell_angle_gamma   90.70216751
_symmetry_Int_Tables_number   1
_chemical_formula_structural   NaMn2(PO4)2
_chemical_formula_sum   'Na3 Mn6 P6 O24'
_cell_volume   464.43845544
_cell_formula_units_Z   3
loop_
 _symmetry_equiv_pos_site_id
 _symmetry_equiv_pos_as_xyz
  1  'x, y, z'
loop_
 _atom_site_type_symbol
 _atom_site_label
 _atom_site_symmetry_multiplicity
 _atom_site_fract_x
 _atom_site_fract_y
 _atom_site_fract_z
 _atom_site_occupancy
  Na  Na0  1  0.502601  0.499947  0.250970  1
  Na  Na1  1  0.987466  0.012534  0.000000  1
  Na  Na2  1  0.500053  0.497399  0.749030  1
  Mn  Mn3  1  0.379092  0.064470  0.111054  1
  Mn  Mn4  1  0.742297  0.257703  0.500000  1
  Mn  Mn5  1  0.065265  0.387486  0.601999  1
  Mn  Mn6  1  0.935530  0.620908  0.888946  1
  Mn  Mn7  1  0.265678  0.734322  0.000000  1
  Mn  Mn8  1  0.612514  0.934735  0.398001  1
  P  P9  1  0.129553  0.350057  0.121018  1
  P  P10  1  0.283522  0.716478  0.500000  1
  P  P11  1  0.348089  0.130946  0.626452  1
  P  P12  1  0.649943  0.870447  0.878982  1
  P  P13  1  0.716075  0.283925  0.000000  1
  P  P14  1  0.869054  0.651911  0.373548  1
  O  O15  1  0.182917  0.183381  0.111368  1
  O  O16  1  0.170062  0.741222  0.712091  1
  O  O17  1  0.045867  0.411167  0.939040  1
  O  O18  1  0.461547  0.734339  0.500751  1
  O  O19  1  0.729675  0.522871  0.419788  1
  O  O20  1  0.000946  0.329437  0.348108  1
  O  O21  1  0.670563  0.999054  0.651892  1
  O  O22  1  0.477129  0.270325  0.580212  1
  O  O23  1  0.265661  0.538453  0.499249  1
  O  O24  1  0.588833  0.954133  0.060960  1
  O  O25  1  0.258778  0.829938  0.287909  1
  O  O26  1  0.180473  0.189815  0.629190  1
  O  O27  1  0.816619  0.817083  0.888632  1
  O  O28  1  0.744302  0.165920  0.209092  1
  O  O29  1  0.407080  0.048376  0.442176  1
  O  O30  1  0.735481  0.461170  0.999200  1
  O  O31  1  0.525745  0.726524  0.924617  1
  O  O32  1  0.319340  0.997542  0.853018  1
  O  O33  1  0.002458  0.680660  0.146982  1
  O  O34  1  0.273476  0.474255  0.075383  1
  O  O35  1  0.538830  0.264519  0.000800  1
  O  O36  1  0.951624  0.592920  0.557824  1
  O  O37  1  0.834080  0.255698  0.790908  1
  O  O38  1  0.810185  0.819527  0.370810  1
