# generated using pymatgen
data_Sc4Re2MoOs5
_symmetry_space_group_name_H-M   'P 1'
_cell_length_a   5.32737483
_cell_length_b   5.20334883
_cell_length_c   8.73114900
_cell_angle_alpha   90.00000000
_cell_angle_beta   90.00000000
_cell_angle_gamma   121.65621851
_symmetry_Int_Tables_number   1
_chemical_formula_structural   Sc4Re2MoOs5
_chemical_formula_sum   'Sc4 Re2 Mo1 Os5'
_cell_volume   206.01817347
_cell_formula_units_Z   1
loop_
 _symmetry_equiv_pos_site_id
 _symmetry_equiv_pos_as_xyz
  1  'x, y, z'
loop_
 _atom_site_type_symbol
 _atom_site_label
 _atom_site_symmetry_multiplicity
 _atom_site_fract_x
 _atom_site_fract_y
 _atom_site_fract_z
 _atom_site_occupancy
  Sc  Sc0  1  0.333375  0.662619  0.434609  1
  Sc  Sc1  1  0.668985  0.339968  0.563909  1
  Sc  Sc2  1  0.668985  0.339968  0.936091  1
  Sc  Sc3  1  0.333375  0.662619  0.065391  1
  Re  Re4  1  0.340264  0.170577  0.250000  1
  Re  Re5  1  0.827454  0.659114  0.250000  1
  Mo  Mo6  1  0.167189  0.336446  0.750000  1
  Os  Os7  1  0.173470  0.826181  0.750000  1
  Os  Os8  1  0.653020  0.828255  0.750000  1
  Os  Os9  1  0.005213  0.000685  0.999995  1
  Os  Os10  1  0.823456  0.172887  0.250000  1
  Os  Os11  1  0.005213  0.000685  0.500005  1
