# generated using pymatgen
data_U4CoGe2Ir5
_symmetry_space_group_name_H-M   'P 1'
_cell_length_a   5.49565979
_cell_length_b   5.49566616
_cell_length_c   7.83298300
_cell_angle_alpha   90.00000000
_cell_angle_beta   90.00000000
_cell_angle_gamma   119.32660944
_symmetry_Int_Tables_number   1
_chemical_formula_structural   U4CoGe2Ir5
_chemical_formula_sum   'U4 Co1 Ge2 Ir5'
_cell_volume   206.25529346
_cell_formula_units_Z   1
loop_
 _symmetry_equiv_pos_site_id
 _symmetry_equiv_pos_as_xyz
  1  'x, y, z'
loop_
 _atom_site_type_symbol
 _atom_site_label
 _atom_site_symmetry_multiplicity
 _atom_site_fract_x
 _atom_site_fract_y
 _atom_site_fract_z
 _atom_site_occupancy
  U  U0  1  0.667069  0.332825  0.571825  1
  U  U1  1  0.333609  0.666566  0.425234  1
  U  U2  1  0.333609  0.666566  0.074766  1
  U  U3  1  0.667069  0.332825  0.928175  1
  Co  Co4  1  0.832566  0.167382  0.250000  1
  Ge  Ge5  1  0.992357  0.007679  0.006648  1
  Ge  Ge6  1  0.992357  0.007679  0.493352  1
  Ir  Ir7  1  0.171038  0.339780  0.750000  1
  Ir  Ir8  1  0.660093  0.828798  0.750000  1
  Ir  Ir9  1  0.168199  0.831642  0.750000  1
  Ir  Ir10  1  0.833643  0.651672  0.250000  1
  Ir  Ir11  1  0.348393  0.166588  0.250000  1
