# generated using pymatgen
data_LiDy3Y5Sc11Si15Os
_symmetry_space_group_name_H-M   'P 1'
_cell_length_a   7.04460404
_cell_length_b   7.43058486
_cell_length_c   13.98429809
_cell_angle_alpha   90.00966808
_cell_angle_beta   89.99183669
_cell_angle_gamma   90.03596577
_symmetry_Int_Tables_number   1
_chemical_formula_structural   LiDy3Y5Sc11Si15Os
_chemical_formula_sum   'Li1 Dy3 Y5 Sc11 Si15 Os1'
_cell_volume   732.01530617
_cell_formula_units_Z   1
loop_
 _symmetry_equiv_pos_site_id
 _symmetry_equiv_pos_as_xyz
  1  'x, y, z'
loop_
 _atom_site_type_symbol
 _atom_site_label
 _atom_site_symmetry_multiplicity
 _atom_site_fract_x
 _atom_site_fract_y
 _atom_site_fract_z
 _atom_site_occupancy
  Li  Li0  1  0.840043  0.495564  0.250016  1
  Dy  Dy1  1  0.010461  0.184633  0.401622  1
  Dy  Dy2  1  0.515821  0.325520  0.402194  1
  Dy  Dy3  1  0.488826  0.675831  0.595119  1
  Y  Y4  1  0.010352  0.184521  0.098413  1
  Y  Y5  1  0.990408  0.826841  0.903900  1
  Y  Y6  1  0.488882  0.675895  0.904816  1
  Y  Y7  1  0.990364  0.826789  0.596049  1
  Y  Y8  1  0.515806  0.325619  0.097860  1
  Sc  Sc9  1  0.156156  0.496057  0.749896  1
  Sc  Sc10  1  0.340809  0.004311  0.250124  1
  Sc  Sc11  1  0.669311  0.999505  0.749909  1
  Sc  Sc12  1  0.317583  0.171177  0.626904  1
  Sc  Sc13  1  0.674283  0.819739  0.373151  1
  Sc  Sc14  1  0.165116  0.675634  0.373142  1
  Sc  Sc15  1  0.674174  0.819810  0.127027  1
  Sc  Sc16  1  0.836233  0.318065  0.627468  1
  Sc  Sc17  1  0.317514  0.171145  0.872940  1
  Sc  Sc18  1  0.836313  0.318029  0.872357  1
  Sc  Sc19  1  0.165121  0.675767  0.126973  1
  Si  Si20  1  0.969216  0.895421  0.250078  1
  Si  Si21  1  0.465655  0.613478  0.250085  1
  Si  Si22  1  0.528891  0.388057  0.749927  1
  Si  Si23  1  0.285737  0.866896  0.749888  1
  Si  Si24  1  0.713589  0.119022  0.250175  1
  Si  Si25  1  0.221941  0.373641  0.250168  1
  Si  Si26  1  0.778618  0.626578  0.749930  1
  Si  Si27  1  0.159634  0.468750  0.536591  1
  Si  Si28  1  0.843188  0.537969  0.465421  1
  Si  Si29  1  0.343889  0.966559  0.458856  1
  Si  Si30  1  0.843355  0.538257  0.034549  1
  Si  Si31  1  0.654375  0.034070  0.537566  1
  Si  Si32  1  0.159434  0.468778  0.963351  1
  Si  Si33  1  0.654499  0.034066  0.962373  1
  Si  Si34  1  0.343976  0.966339  0.041177  1
  Os  Os35  1  0.030429  0.111672  0.749983  1
