# generated using pymatgen
data_NdEr3(Si5Os3)2
_symmetry_space_group_name_H-M   'P 1'
_cell_length_a   8.15123670
_cell_length_b   8.13370984
_cell_length_c   5.80876082
_cell_angle_alpha   70.56461108
_cell_angle_beta   70.51098602
_cell_angle_gamma   93.97258118
_symmetry_Int_Tables_number   1
_chemical_formula_structural   NdEr3(Si5Os3)2
_chemical_formula_sum   'Nd1 Er3 Si10 Os6'
_cell_volume   335.25192255
_cell_formula_units_Z   1
loop_
 _symmetry_equiv_pos_site_id
 _symmetry_equiv_pos_as_xyz
  1  'x, y, z'
loop_
 _atom_site_type_symbol
 _atom_site_label
 _atom_site_symmetry_multiplicity
 _atom_site_fract_x
 _atom_site_fract_y
 _atom_site_fract_z
 _atom_site_occupancy
  Nd  Nd0  1  0.867804  0.601933  0.753952  1
  Er  Er1  1  0.399239  0.129946  0.746940  1
  Er  Er2  1  0.130684  0.399085  0.246522  1
  Er  Er3  1  0.602140  0.867716  0.254014  1
  Si  Si4  1  0.070378  0.262116  0.832806  1
  Si  Si5  1  0.737555  0.936396  0.665532  1
  Si  Si6  1  0.933042  0.738904  0.165450  1
  Si  Si7  1  0.260044  0.067919  0.333836  1
  Si  Si8  1  0.208365  0.795159  0.750805  1
  Si  Si9  1  0.793958  0.207306  0.247038  1
  Si  Si10  1  0.509167  0.484257  0.753701  1
  Si  Si11  1  0.486066  0.511367  0.250023  1
  Si  Si12  1  0.773730  0.223412  0.751516  1
  Si  Si13  1  0.227462  0.774349  0.246999  1
  Os  Os14  1  0.257970  0.544790  0.630530  1
  Os  Os15  1  0.457248  0.744783  0.867070  1
  Os  Os16  1  0.742633  0.454393  0.371573  1
  Os  Os17  1  0.541780  0.252446  0.133571  1
  Os  Os18  1  0.002996  0.999744  0.749002  1
  Os  Os19  1  0.997741  0.003978  0.249120  1
