# generated using pymatgen
data_AcYbB4Ir5
_symmetry_space_group_name_H-M   'P 1'
_cell_length_a   7.61668965
_cell_length_b   6.36252508
_cell_length_c   5.75574626
_cell_angle_alpha   77.70515540
_cell_angle_beta   54.70430161
_cell_angle_gamma   47.59051941
_symmetry_Int_Tables_number   1
_chemical_formula_structural   AcYbB4Ir5
_chemical_formula_sum   'Ac1 Yb1 B4 Ir5'
_cell_volume   160.69868402
_cell_formula_units_Z   1
loop_
 _symmetry_equiv_pos_site_id
 _symmetry_equiv_pos_as_xyz
  1  'x, y, z'
loop_
 _atom_site_type_symbol
 _atom_site_label
 _atom_site_symmetry_multiplicity
 _atom_site_fract_x
 _atom_site_fract_y
 _atom_site_fract_z
 _atom_site_occupancy
  Ac  Ac0  1  0.638815  0.638816  0.361185  1
  Yb  Yb1  1  0.355607  0.355608  0.644393  1
  B  B2  1  0.292808  0.968541  0.031459  1
  B  B3  1  0.032250  0.711107  0.288893  1
  B  B4  1  0.968541  0.292808  0.707192  1
  B  B5  1  0.711107  0.032250  0.967750  1
  Ir  Ir6  1  0.997426  0.997426  0.002574  1
  Ir  Ir7  1  0.499041  0.499041  0.000959  1
  Ir  Ir8  1  0.252682  0.252682  0.247319  1
  Ir  Ir9  1  0.999041  0.999041  0.500959  1
  Ir  Ir10  1  0.752681  0.752682  0.747319  1
