# generated using pymatgen
data_Tb16Cd2Hg2OsPt3
_symmetry_space_group_name_H-M   'P 1'
_cell_length_a   9.72227135
_cell_length_b   9.72227126
_cell_length_c   9.73118800
_cell_angle_alpha   59.56573316
_cell_angle_beta   59.56573249
_cell_angle_gamma   59.60229276
_symmetry_Int_Tables_number   1
_chemical_formula_structural   Tb16Cd2Hg2OsPt3
_chemical_formula_sum   'Tb16 Cd2 Hg2 Os1 Pt3'
_cell_volume   644.16804452
_cell_formula_units_Z   1
loop_
 _symmetry_equiv_pos_site_id
 _symmetry_equiv_pos_as_xyz
  1  'x, y, z'
loop_
 _atom_site_type_symbol
 _atom_site_label
 _atom_site_symmetry_multiplicity
 _atom_site_fract_x
 _atom_site_fract_y
 _atom_site_fract_z
 _atom_site_occupancy
  Tb  Tb0  1  0.352191  0.352191  0.351667  1
  Tb  Tb1  1  0.350284  0.350284  0.947806  1
  Tb  Tb2  1  0.350978  0.946059  0.350552  1
  Tb  Tb3  1  0.946059  0.350978  0.350552  1
  Tb  Tb4  1  0.814533  0.188726  0.189775  1
  Tb  Tb5  1  0.187681  0.809122  0.809140  1
  Tb  Tb6  1  0.188726  0.814533  0.189775  1
  Tb  Tb7  1  0.809122  0.187681  0.809140  1
  Tb  Tb8  1  0.188824  0.188824  0.814964  1
  Tb  Tb9  1  0.808140  0.808140  0.188868  1
  Tb  Tb10  1  0.935369  0.564409  0.565085  1
  Tb  Tb11  1  0.557794  0.936705  0.938576  1
  Tb  Tb12  1  0.564409  0.935369  0.565085  1
  Tb  Tb13  1  0.936705  0.557794  0.938576  1
  Tb  Tb14  1  0.564229  0.564229  0.937142  1
  Tb  Tb15  1  0.937112  0.937112  0.558625  1
  Cd  Cd16  1  0.580570  0.255221  0.581137  1
  Cd  Cd17  1  0.255221  0.580570  0.581137  1
  Hg  Hg18  1  0.583448  0.583448  0.585258  1
  Hg  Hg19  1  0.584634  0.584634  0.242519  1
  Os  Os20  1  0.143400  0.143400  0.143775  1
  Pt  Pt21  1  0.144228  0.144228  0.572091  1
  Pt  Pt22  1  0.144024  0.572324  0.144379  1
  Pt  Pt23  1  0.572324  0.144024  0.144379  1
