# generated using pymatgen
data_Sr2Zr(SiO3)4
_symmetry_space_group_name_H-M   'P 1'
_cell_length_a   14.04425900
_cell_length_b   5.54048924
_cell_length_c   7.59702587
_cell_angle_alpha   71.70322005
_cell_angle_beta   90.00000000
_cell_angle_gamma   90.00000000
_symmetry_Int_Tables_number   1
_chemical_formula_structural   Sr2Zr(SiO3)4
_chemical_formula_sum   'Sr4 Zr2 Si8 O24'
_cell_volume   561.25407096
_cell_formula_units_Z   2
loop_
 _symmetry_equiv_pos_site_id
 _symmetry_equiv_pos_as_xyz
  1  'x, y, z'
loop_
 _atom_site_type_symbol
 _atom_site_label
 _atom_site_symmetry_multiplicity
 _atom_site_fract_x
 _atom_site_fract_y
 _atom_site_fract_z
 _atom_site_occupancy
  Sr  Sr0  1  0.000000  0.000000  0.500000  1
  Sr  Sr1  1  0.250000  0.174423  0.176680  1
  Sr  Sr2  1  0.750000  0.825577  0.823320  1
  Sr  Sr3  1  0.500000  0.000000  0.500000  1
  Zr  Zr4  1  0.500000  0.000000  0.000000  1
  Zr  Zr5  1  0.000000  0.000000  0.000000  1
  Si  Si6  1  0.640265  0.414337  0.618282  1
  Si  Si7  1  0.864021  0.429424  0.185853  1
  Si  Si8  1  0.859735  0.414337  0.618282  1
  Si  Si9  1  0.135979  0.570576  0.814147  1
  Si  Si10  1  0.140265  0.585663  0.381718  1
  Si  Si11  1  0.635979  0.429424  0.185853  1
  Si  Si12  1  0.364021  0.570576  0.814147  1
  Si  Si13  1  0.359735  0.585663  0.381718  1
  O  O14  1  0.074274  0.798927  0.848721  1
  O  O15  1  0.869670  0.695041  0.629326  1
  O  O16  1  0.890962  0.716932  0.059781  1
  O  O17  1  0.121595  0.610451  0.590968  1
  O  O18  1  0.927873  0.190065  0.750363  1
  O  O19  1  0.750000  0.300965  0.679283  1
  O  O20  1  0.878405  0.389549  0.409032  1
  O  O21  1  0.250000  0.699035  0.320717  1
  O  O22  1  0.369670  0.304959  0.370674  1
  O  O23  1  0.750000  0.396118  0.139743  1
  O  O24  1  0.250000  0.603882  0.860257  1
  O  O25  1  0.621595  0.389549  0.409032  1
  O  O26  1  0.109038  0.283068  0.940219  1
  O  O27  1  0.425726  0.798927  0.848721  1
  O  O28  1  0.072127  0.809935  0.249637  1
  O  O29  1  0.925726  0.201073  0.151279  1
  O  O30  1  0.572127  0.190065  0.750363  1
  O  O31  1  0.609038  0.716932  0.059781  1
  O  O32  1  0.630330  0.695041  0.629326  1
  O  O33  1  0.378405  0.610451  0.590968  1
  O  O34  1  0.130330  0.304959  0.370674  1
  O  O35  1  0.427873  0.809935  0.249637  1
  O  O36  1  0.390962  0.283068  0.940219  1
  O  O37  1  0.574274  0.201073  0.151279  1
