# generated using pymatgen
data_Ca3Ac7
_symmetry_space_group_name_H-M   'P 1'
_cell_length_a   17.85708900
_cell_length_b   17.85708846
_cell_length_c   7.10771100
_cell_angle_alpha   90.00000000
_cell_angle_beta   90.00000000
_cell_angle_gamma   167.42886208
_symmetry_Int_Tables_number   1
_chemical_formula_structural   Ca3Ac7
_chemical_formula_sum   'Ca3 Ac7'
_cell_volume   493.30208644
_cell_formula_units_Z   1
loop_
 _symmetry_equiv_pos_site_id
 _symmetry_equiv_pos_as_xyz
  1  'x, y, z'
loop_
 _atom_site_type_symbol
 _atom_site_label
 _atom_site_symmetry_multiplicity
 _atom_site_fract_x
 _atom_site_fract_y
 _atom_site_fract_z
 _atom_site_occupancy
  Ca  Ca0  1  0.799455  0.200545  0.000000  1
  Ca  Ca1  1  0.200545  0.799455  0.000000  1
  Ca  Ca2  1  0.500000  0.500000  0.500000  1
  Ac  Ac3  1  0.000000  0.000000  0.000000  1
  Ac  Ac4  1  0.598374  0.401626  0.000000  1
  Ac  Ac5  1  0.401626  0.598374  0.000000  1
  Ac  Ac6  1  0.898486  0.101513  0.500000  1
  Ac  Ac7  1  0.701309  0.298691  0.500000  1
  Ac  Ac8  1  0.298691  0.701309  0.500000  1
  Ac  Ac9  1  0.101513  0.898486  0.500000  1
