# generated using pymatgen
data_TbThRh6C
_symmetry_space_group_name_H-M   'P 1'
_cell_length_a   5.88248101
_cell_length_b   5.88248010
_cell_length_c   5.88233300
_cell_angle_alpha   60.00083285
_cell_angle_beta   60.00083792
_cell_angle_gamma   59.99835668
_symmetry_Int_Tables_number   1
_chemical_formula_structural   TbThRh6C
_chemical_formula_sum   'Tb1 Th1 Rh6 C1'
_cell_volume   143.93144931
_cell_formula_units_Z   1
loop_
 _symmetry_equiv_pos_site_id
 _symmetry_equiv_pos_as_xyz
  1  'x, y, z'
loop_
 _atom_site_type_symbol
 _atom_site_label
 _atom_site_symmetry_multiplicity
 _atom_site_fract_x
 _atom_site_fract_y
 _atom_site_fract_z
 _atom_site_occupancy
  Tb  Tb0  1  0.750000  0.750000  0.750000  1
  Th  Th1  1  0.250000  0.250000  0.250000  1
  Rh  Rh2  1  0.748428  0.251573  0.251573  1
  Rh  Rh3  1  0.251573  0.748428  0.251573  1
  Rh  Rh4  1  0.748430  0.748430  0.251571  1
  Rh  Rh5  1  0.251570  0.251570  0.748431  1
  Rh  Rh6  1  0.748427  0.251574  0.748427  1
  Rh  Rh7  1  0.251574  0.748427  0.748427  1
  C  C8  1  0.000000  0.000000  0.000000  1
