# generated using pymatgen
data_Er2Lu4Si5GeRu4
_symmetry_space_group_name_H-M   'P 1'
_cell_length_a   5.65898148
_cell_length_b   5.65898142
_cell_length_c   13.68042800
_cell_angle_alpha   90.00000000
_cell_angle_beta   90.00000000
_cell_angle_gamma   137.01452704
_symmetry_Int_Tables_number   1
_chemical_formula_structural   Er2Lu4Si5GeRu4
_chemical_formula_sum   'Er2 Lu4 Si5 Ge1 Ru4'
_cell_volume   298.70427884
_cell_formula_units_Z   1
loop_
 _symmetry_equiv_pos_site_id
 _symmetry_equiv_pos_as_xyz
  1  'x, y, z'
loop_
 _atom_site_type_symbol
 _atom_site_label
 _atom_site_symmetry_multiplicity
 _atom_site_fract_x
 _atom_site_fract_y
 _atom_site_fract_z
 _atom_site_occupancy
  Er  Er0  1  0.642261  0.357739  0.250000  1
  Er  Er1  1  0.356126  0.643874  0.750000  1
  Lu  Lu2  1  0.924044  0.075956  0.385452  1
  Lu  Lu3  1  0.075333  0.924667  0.611616  1
  Lu  Lu4  1  0.924044  0.075956  0.114548  1
  Lu  Lu5  1  0.075333  0.924667  0.888384  1
  Si  Si6  1  0.615729  0.384271  0.461191  1
  Si  Si7  1  0.386151  0.613849  0.537311  1
  Si  Si8  1  0.615729  0.384271  0.038809  1
  Si  Si9  1  0.386151  0.613849  0.962689  1
  Si  Si10  1  0.333185  0.666815  0.250000  1
  Ge  Ge11  1  0.660231  0.339769  0.750000  1
  Ru  Ru12  1  0.789692  0.210308  0.920805  1
  Ru  Ru13  1  0.213149  0.786851  0.082197  1
  Ru  Ru14  1  0.789692  0.210308  0.579195  1
  Ru  Ru15  1  0.213149  0.786851  0.417803  1
