# generated using pymatgen
data_LiHoErAs2
_symmetry_space_group_name_H-M   'P 1'
_cell_length_a   4.15177700
_cell_length_b   4.15177594
_cell_length_c   14.02083400
_cell_angle_alpha   90.00000000
_cell_angle_beta   90.00000000
_cell_angle_gamma   119.99998451
_symmetry_Int_Tables_number   1
_chemical_formula_structural   LiHoErAs2
_chemical_formula_sum   'Li2 Ho2 Er2 As4'
_cell_volume   209.30156415
_cell_formula_units_Z   2
loop_
 _symmetry_equiv_pos_site_id
 _symmetry_equiv_pos_as_xyz
  1  'x, y, z'
loop_
 _atom_site_type_symbol
 _atom_site_label
 _atom_site_symmetry_multiplicity
 _atom_site_fract_x
 _atom_site_fract_y
 _atom_site_fract_z
 _atom_site_occupancy
  Li  Li0  1  0.000000  0.000000  0.249917  1
  Li  Li1  1  0.000000  0.000000  0.750083  1
  Ho  Ho2  1  0.333333  0.666667  0.389383  1
  Ho  Ho3  1  0.666667  0.333333  0.610617  1
  Er  Er4  1  0.666667  0.333333  0.889467  1
  Er  Er5  1  0.333333  0.666667  0.110533  1
  As  As6  1  0.000000  0.000000  0.500000  1
  As  As7  1  0.000000  0.000000  0.000000  1
  As  As8  1  0.333333  0.666667  0.750414  1
  As  As9  1  0.666667  0.333333  0.249586  1
