# generated using pymatgen
data_Nd3Hf3Sn6(Ir2Rh)2
_symmetry_space_group_name_H-M   'P 1'
_cell_length_a   7.50276900
_cell_length_b   7.50276964
_cell_length_c   7.72980400
_cell_angle_alpha   90.00000000
_cell_angle_beta   90.00000000
_cell_angle_gamma   120.00000160
_symmetry_Int_Tables_number   1
_chemical_formula_structural   Nd3Hf3Sn6(Ir2Rh)2
_chemical_formula_sum   'Nd3 Hf3 Sn6 Ir4 Rh2'
_cell_volume   376.82724409
_cell_formula_units_Z   1
loop_
 _symmetry_equiv_pos_site_id
 _symmetry_equiv_pos_as_xyz
  1  'x, y, z'
loop_
 _atom_site_type_symbol
 _atom_site_label
 _atom_site_symmetry_multiplicity
 _atom_site_fract_x
 _atom_site_fract_y
 _atom_site_fract_z
 _atom_site_occupancy
  Nd  Nd0  1  0.000030  0.409242  0.750000  1
  Nd  Nd1  1  0.590758  0.590788  0.750000  1
  Nd  Nd2  1  0.409212  0.999970  0.750000  1
  Hf  Hf3  1  0.999238  0.394142  0.250000  1
  Hf  Hf4  1  0.605858  0.605097  0.250000  1
  Hf  Hf5  1  0.394903  0.000762  0.250000  1
  Sn  Sn6  1  0.263886  0.264455  0.487584  1
  Sn  Sn7  1  0.000569  0.736114  0.487584  1
  Sn  Sn8  1  0.000569  0.736114  0.012416  1
  Sn  Sn9  1  0.735545  0.999431  0.487584  1
  Sn  Sn10  1  0.735545  0.999431  0.012416  1
  Sn  Sn11  1  0.263886  0.264455  0.012416  1
  Ir  Ir12  1  0.333333  0.666667  0.451384  1
  Ir  Ir13  1  0.666667  0.333333  0.452879  1
  Ir  Ir14  1  0.333333  0.666667  0.048616  1
  Ir  Ir15  1  0.666667  0.333333  0.047121  1
  Rh  Rh16  1  0.000000  0.000000  0.750000  1
  Rh  Rh17  1  0.000000  0.000000  0.250000  1
