# generated using pymatgen
data_CsAlHgF6
_symmetry_space_group_name_H-M   'P 1'
_cell_length_a   7.36550900
_cell_length_b   7.74731900
_cell_length_c   10.66350600
_cell_angle_alpha   90.00000000
_cell_angle_beta   90.00000000
_cell_angle_gamma   90.00000000
_symmetry_Int_Tables_number   1
_chemical_formula_structural   CsAlHgF6
_chemical_formula_sum   'Cs4 Al4 Hg4 F24'
_cell_volume   608.49108646
_cell_formula_units_Z   4
loop_
 _symmetry_equiv_pos_site_id
 _symmetry_equiv_pos_as_xyz
  1  'x, y, z'
loop_
 _atom_site_type_symbol
 _atom_site_label
 _atom_site_symmetry_multiplicity
 _atom_site_fract_x
 _atom_site_fract_y
 _atom_site_fract_z
 _atom_site_occupancy
  Cs  Cs0  1  0.750000  0.522418  0.134591  1
  Cs  Cs1  1  0.250000  0.477582  0.865409  1
  Cs  Cs2  1  0.250000  0.977582  0.634591  1
  Cs  Cs3  1  0.750000  0.022418  0.365409  1
  Al  Al4  1  0.500000  0.000000  0.000000  1
  Al  Al5  1  0.500000  0.500000  0.500000  1
  Al  Al6  1  0.000000  0.000000  0.000000  1
  Al  Al7  1  0.000000  0.500000  0.500000  1
  Hg  Hg8  1  0.250000  0.779240  0.256090  1
  Hg  Hg9  1  0.750000  0.720760  0.756090  1
  Hg  Hg10  1  0.250000  0.279240  0.243910  1
  Hg  Hg11  1  0.750000  0.220760  0.743910  1
  F  F12  1  0.250000  0.465513  0.500078  1
  F  F13  1  0.750000  0.534487  0.499922  1
  F  F14  1  0.750000  0.963735  0.644012  1
  F  F15  1  0.474147  0.696873  0.408487  1
  F  F16  1  0.250000  0.965513  0.999922  1
  F  F17  1  0.017325  0.626276  0.644054  1
  F  F18  1  0.025853  0.196873  0.091513  1
  F  F19  1  0.525853  0.303127  0.591513  1
  F  F20  1  0.517325  0.873724  0.144054  1
  F  F21  1  0.250000  0.536265  0.144012  1
  F  F22  1  0.982675  0.873724  0.144054  1
  F  F23  1  0.517325  0.373724  0.355946  1
  F  F24  1  0.474147  0.196873  0.091513  1
  F  F25  1  0.974147  0.303127  0.591513  1
  F  F26  1  0.250000  0.036265  0.355988  1
  F  F27  1  0.974147  0.803127  0.908487  1
  F  F28  1  0.482675  0.626276  0.644054  1
  F  F29  1  0.750000  0.463735  0.855988  1
  F  F30  1  0.750000  0.034487  0.000078  1
  F  F31  1  0.482675  0.126276  0.855946  1
  F  F32  1  0.982675  0.373724  0.355946  1
  F  F33  1  0.525853  0.803127  0.908487  1
  F  F34  1  0.017325  0.126276  0.855946  1
  F  F35  1  0.025853  0.696873  0.408487  1
