# generated using pymatgen
data_Sm8Hf3Si16Mo9
_symmetry_space_group_name_H-M   'P 1'
_cell_length_a   7.04560917
_cell_length_b   7.04560969
_cell_length_c   13.06585603
_cell_angle_alpha   89.94176761
_cell_angle_beta   90.05823343
_cell_angle_gamma   89.86149326
_symmetry_Int_Tables_number   1
_chemical_formula_structural   Sm8Hf3Si16Mo9
_chemical_formula_sum   'Sm8 Hf3 Si16 Mo9'
_cell_volume   648.59452605
_cell_formula_units_Z   1
loop_
 _symmetry_equiv_pos_site_id
 _symmetry_equiv_pos_as_xyz
  1  'x, y, z'
loop_
 _atom_site_type_symbol
 _atom_site_label
 _atom_site_symmetry_multiplicity
 _atom_site_fract_x
 _atom_site_fract_y
 _atom_site_fract_z
 _atom_site_occupancy
  Sm  Sm0  1  0.999160  0.336496  0.216336  1
  Sm  Sm1  1  0.006100  0.662279  0.720259  1
  Sm  Sm2  1  0.162125  0.496093  0.468274  1
  Sm  Sm3  1  0.501888  0.839449  0.031032  1
  Sm  Sm4  1  0.839449  0.501888  0.968968  1
  Sm  Sm5  1  0.496093  0.162125  0.531726  1
  Sm  Sm6  1  0.336496  0.999160  0.783664  1
  Sm  Sm7  1  0.662279  0.006100  0.279741  1
  Hf  Hf8  1  0.831925  0.831925  0.500000  1
  Hf  Hf9  1  0.329164  0.668681  0.247375  1
  Hf  Hf10  1  0.668681  0.329164  0.752625  1
  Si  Si11  1  0.373655  0.296121  0.314710  1
  Si  Si12  1  0.624512  0.705484  0.815180  1
  Si  Si13  1  0.203589  0.874498  0.565564  1
  Si  Si14  1  0.122072  0.806088  0.936960  1
  Si  Si15  1  0.806088  0.122072  0.063040  1
  Si  Si16  1  0.874498  0.203589  0.434436  1
  Si  Si17  1  0.296121  0.373655  0.685290  1
  Si  Si18  1  0.705484  0.624512  0.184820  1
  Si  Si19  1  0.285859  0.045172  0.183311  1
  Si  Si20  1  0.711020  0.958572  0.688929  1
  Si  Si21  1  0.457618  0.788003  0.437749  1
  Si  Si22  1  0.214170  0.531538  0.057906  1
  Si  Si23  1  0.531538  0.214170  0.942094  1
  Si  Si24  1  0.788003  0.457618  0.562251  1
  Si  Si25  1  0.045172  0.285859  0.816689  1
  Si  Si26  1  0.958572  0.711020  0.311071  1
  Mo  Mo27  1  0.167352  0.167352  0.000000  1
  Mo  Mo28  1  0.161594  0.992950  0.374651  1
  Mo  Mo29  1  0.832548  0.006293  0.875757  1
  Mo  Mo30  1  0.508074  0.660991  0.626121  1
  Mo  Mo31  1  0.342644  0.496222  0.873412  1
  Mo  Mo32  1  0.496222  0.342644  0.126588  1
  Mo  Mo33  1  0.660991  0.508074  0.373879  1
  Mo  Mo34  1  0.992950  0.161594  0.625349  1
  Mo  Mo35  1  0.006293  0.832548  0.124243  1
