# generated using pymatgen
data_Dy4Tm12MgIn3Ni4
_symmetry_space_group_name_H-M   'P 1'
_cell_length_a   9.53715104
_cell_length_b   9.48827718
_cell_length_c   9.48827722
_cell_angle_alpha   59.80950410
_cell_angle_beta   59.99426423
_cell_angle_gamma   59.99426277
_symmetry_Int_Tables_number   1
_chemical_formula_structural   Dy4Tm12MgIn3Ni4
_chemical_formula_sum   'Dy4 Tm12 Mg1 In3 Ni4'
_cell_volume   606.19408272
_cell_formula_units_Z   1
loop_
 _symmetry_equiv_pos_site_id
 _symmetry_equiv_pos_as_xyz
  1  'x, y, z'
loop_
 _atom_site_type_symbol
 _atom_site_label
 _atom_site_symmetry_multiplicity
 _atom_site_fract_x
 _atom_site_fract_y
 _atom_site_fract_z
 _atom_site_occupancy
  Dy  Dy0  1  0.564106  0.935856  0.564171  1
  Dy  Dy1  1  0.937040  0.564015  0.935999  1
  Dy  Dy2  1  0.564106  0.564171  0.935856  1
  Dy  Dy3  1  0.937040  0.935999  0.564015  1
  Tm  Tm4  1  0.344722  0.345881  0.345881  1
  Tm  Tm5  1  0.347913  0.344908  0.959857  1
  Tm  Tm6  1  0.347913  0.959857  0.344908  1
  Tm  Tm7  1  0.953497  0.349679  0.349679  1
  Tm  Tm8  1  0.810378  0.189009  0.189009  1
  Tm  Tm9  1  0.184669  0.813667  0.813667  1
  Tm  Tm10  1  0.185322  0.814280  0.186248  1
  Tm  Tm11  1  0.812042  0.188685  0.812221  1
  Tm  Tm12  1  0.185322  0.186248  0.814280  1
  Tm  Tm13  1  0.812042  0.812221  0.188685  1
  Tm  Tm14  1  0.938482  0.562776  0.562776  1
  Tm  Tm15  1  0.561087  0.939341  0.939341  1
  Mg  Mg16  1  0.269105  0.576545  0.576545  1
  In  In17  1  0.582926  0.582284  0.582284  1
  In  In18  1  0.582069  0.582230  0.253245  1
  In  In19  1  0.582069  0.253245  0.582230  1
  Ni  Ni20  1  0.144774  0.141162  0.141162  1
  Ni  Ni21  1  0.139228  0.143570  0.573347  1
  Ni  Ni22  1  0.139228  0.573347  0.143570  1
  Ni  Ni23  1  0.574916  0.141025  0.141025  1
