# generated using pymatgen
data_Tb12Er4InAg3Rh4
_symmetry_space_group_name_H-M   'P 1'
_cell_length_a   9.53955749
_cell_length_b   9.57449107
_cell_length_c   9.57473655
_cell_angle_alpha   60.21304977
_cell_angle_beta   60.06946066
_cell_angle_gamma   60.04260452
_symmetry_Int_Tables_number   1
_chemical_formula_structural   Tb12Er4InAg3Rh4
_chemical_formula_sum   'Tb12 Er4 In1 Ag3 Rh4'
_cell_volume   619.89565782
_cell_formula_units_Z   1
loop_
 _symmetry_equiv_pos_site_id
 _symmetry_equiv_pos_as_xyz
  1  'x, y, z'
loop_
 _atom_site_type_symbol
 _atom_site_label
 _atom_site_symmetry_multiplicity
 _atom_site_fract_x
 _atom_site_fract_y
 _atom_site_fract_z
 _atom_site_occupancy
  Tb  Tb0  1  0.066873  0.060964  0.436554  1
  Tb  Tb1  1  0.438463  0.434944  0.062581  1
  Tb  Tb2  1  0.648833  0.648258  0.648555  1
  Tb  Tb3  1  0.810830  0.189558  0.189490  1
  Tb  Tb4  1  0.186630  0.813734  0.812808  1
  Tb  Tb5  1  0.056609  0.646728  0.647659  1
  Tb  Tb6  1  0.438255  0.063129  0.062278  1
  Tb  Tb7  1  0.438445  0.062401  0.436078  1
  Tb  Tb8  1  0.067743  0.435761  0.060729  1
  Tb  Tb9  1  0.648867  0.648543  0.054291  1
  Tb  Tb10  1  0.186919  0.813745  0.187968  1
  Tb  Tb11  1  0.068011  0.435055  0.435820  1
  Er  Er12  1  0.811689  0.810179  0.189151  1
  Er  Er13  1  0.811763  0.189136  0.810009  1
  Er  Er14  1  0.187261  0.188177  0.812887  1
  Er  Er15  1  0.648439  0.054410  0.649073  1
  In  In16  1  0.737188  0.420326  0.421195  1
  Ag  Ag17  1  0.416640  0.417263  0.418581  1
  Ag  Ag18  1  0.416618  0.416782  0.747989  1
  Ag  Ag19  1  0.416510  0.748081  0.417511  1
  Rh  Rh20  1  0.857430  0.427482  0.856395  1
  Rh  Rh21  1  0.855731  0.859076  0.857389  1
  Rh  Rh22  1  0.855334  0.857402  0.429104  1
  Rh  Rh23  1  0.428920  0.858866  0.855904  1
