# generated using pymatgen
data_Zr5Cr2Co16ReP12
_symmetry_space_group_name_H-M   'P 1'
_cell_length_a   11.86431688
_cell_length_b   11.86431737
_cell_length_c   3.62734400
_cell_angle_alpha   90.00000000
_cell_angle_beta   90.00000000
_cell_angle_gamma   119.96807996
_symmetry_Int_Tables_number   1
_chemical_formula_structural   Zr5Cr2Co16ReP12
_chemical_formula_sum   'Zr5 Cr2 Co16 Re1 P12'
_cell_volume   442.32803745
_cell_formula_units_Z   1
loop_
 _symmetry_equiv_pos_site_id
 _symmetry_equiv_pos_as_xyz
  1  'x, y, z'
loop_
 _atom_site_type_symbol
 _atom_site_label
 _atom_site_symmetry_multiplicity
 _atom_site_fract_x
 _atom_site_fract_y
 _atom_site_fract_z
 _atom_site_occupancy
  Zr  Zr0  1  0.668329  0.333892  0.000000  1
  Zr  Zr1  1  0.333892  0.668329  0.000000  1
  Zr  Zr2  1  0.819034  0.819034  0.500000  1
  Zr  Zr3  1  0.180832  0.999168  0.500000  1
  Zr  Zr4  1  0.999168  0.180832  0.500000  1
  Cr  Cr5  1  0.555697  0.000505  0.000000  1
  Cr  Cr6  1  0.000505  0.555697  0.000000  1
  Co  Co7  1  0.196041  0.374087  0.000000  1
  Co  Co8  1  0.179382  0.804231  0.000000  1
  Co  Co9  1  0.820403  0.623502  0.000000  1
  Co  Co10  1  0.804231  0.179382  0.000000  1
  Co  Co11  1  0.374087  0.196041  0.000000  1
  Co  Co12  1  0.128335  0.483825  0.500000  1
  Co  Co13  1  0.355890  0.873930  0.500000  1
  Co  Co14  1  0.515649  0.643707  0.500000  1
  Co  Co15  1  0.643707  0.515649  0.500000  1
  Co  Co16  1  0.873930  0.355890  0.500000  1
  Co  Co17  1  0.483825  0.128335  0.500000  1
  Co  Co18  1  0.998641  0.998641  0.000000  1
  Co  Co19  1  0.717181  0.000072  0.500000  1
  Co  Co20  1  0.000072  0.717181  0.500000  1
  Co  Co21  1  0.623502  0.820403  0.000000  1
  Co  Co22  1  0.281194  0.281194  0.500000  1
  Re  Re23  1  0.447878  0.447878  0.000000  1
  P  P24  1  0.642447  0.642447  0.000000  1
  P  P25  1  0.359490  0.000583  0.000000  1
  P  P26  1  0.000583  0.359490  0.000000  1
  P  P27  1  0.481756  0.314468  0.500000  1
  P  P28  1  0.685091  0.166418  0.500000  1
  P  P29  1  0.834520  0.517992  0.500000  1
  P  P30  1  0.517992  0.834520  0.500000  1
  P  P31  1  0.166418  0.685091  0.500000  1
  P  P32  1  0.821918  0.999213  0.000000  1
  P  P33  1  0.999213  0.821918  0.000000  1
  P  P34  1  0.314468  0.481756  0.500000  1
  P  P35  1  0.174701  0.174701  0.000000  1
