# generated using pymatgen
data_PrNdRe4(SiC)2
_symmetry_space_group_name_H-M   'P 1'
_cell_length_a   5.84117375
_cell_length_b   5.84117363
_cell_length_c   7.39002900
_cell_angle_alpha   90.00000000
_cell_angle_beta   90.00000000
_cell_angle_gamma   139.67975680
_symmetry_Int_Tables_number   1
_chemical_formula_structural   PrNdRe4(SiC)2
_chemical_formula_sum   'Pr1 Nd1 Re4 Si2 C2'
_cell_volume   163.15124729
_cell_formula_units_Z   1
loop_
 _symmetry_equiv_pos_site_id
 _symmetry_equiv_pos_as_xyz
  1  'x, y, z'
loop_
 _atom_site_type_symbol
 _atom_site_label
 _atom_site_symmetry_multiplicity
 _atom_site_fract_x
 _atom_site_fract_y
 _atom_site_fract_z
 _atom_site_occupancy
  Pr  Pr0  1  0.542879  0.457121  0.250000  1
  Nd  Nd1  1  0.457139  0.542861  0.750000  1
  Re  Re2  1  0.825726  0.174274  0.061113  1
  Re  Re3  1  0.174338  0.825662  0.938063  1
  Re  Re4  1  0.174338  0.825662  0.561937  1
  Re  Re5  1  0.825726  0.174274  0.438887  1
  Si  Si6  1  0.264396  0.735604  0.250000  1
  Si  Si7  1  0.735662  0.264338  0.750000  1
  C  C8  1  0.999898  0.000102  0.999028  1
  C  C9  1  0.999898  0.000102  0.500972  1
