# generated using pymatgen
data_Y4Si8AgAu15
_symmetry_space_group_name_H-M   'P 1'
_cell_length_a   4.40143800
_cell_length_b   4.39865600
_cell_length_c   27.18512700
_cell_angle_alpha   90.00000000
_cell_angle_beta   90.00000000
_cell_angle_gamma   90.00000000
_symmetry_Int_Tables_number   1
_chemical_formula_structural   Y4Si8AgAu15
_chemical_formula_sum   'Y4 Si8 Ag1 Au15'
_cell_volume   526.31524995
_cell_formula_units_Z   1
loop_
 _symmetry_equiv_pos_site_id
 _symmetry_equiv_pos_as_xyz
  1  'x, y, z'
loop_
 _atom_site_type_symbol
 _atom_site_label
 _atom_site_symmetry_multiplicity
 _atom_site_fract_x
 _atom_site_fract_y
 _atom_site_fract_z
 _atom_site_occupancy
  Y  Y0  1  0.000000  0.500000  0.750192  1
  Y  Y1  1  0.500000  0.000000  0.250453  1
  Y  Y2  1  0.500000  0.500000  0.000116  1
  Y  Y3  1  0.500000  0.500000  0.499773  1
  Si  Si4  1  0.000000  0.000000  0.957048  1
  Si  Si5  1  0.000000  0.000000  0.457356  1
  Si  Si6  1  0.500000  0.000000  0.793337  1
  Si  Si7  1  0.500000  0.000000  0.707350  1
  Si  Si8  1  0.000000  0.500000  0.207335  1
  Si  Si9  1  0.000000  0.500000  0.293364  1
  Si  Si10  1  0.000000  0.000000  0.042918  1
  Si  Si11  1  0.000000  0.000000  0.543040  1
  Ag  Ag12  1  0.500000  0.500000  0.659026  1
  Au  Au13  1  0.500000  0.000000  0.086115  1
  Au  Au14  1  0.500000  0.500000  0.836816  1
  Au  Au15  1  0.000000  0.500000  0.085392  1
  Au  Au16  1  0.500000  0.000000  0.914790  1
  Au  Au17  1  0.000000  0.000000  0.665010  1
  Au  Au18  1  0.000000  0.500000  0.414993  1
  Au  Au19  1  0.500000  0.500000  0.336935  1
  Au  Au20  1  0.500000  0.000000  0.414127  1
  Au  Au21  1  0.000000  0.000000  0.335550  1
  Au  Au22  1  0.000000  0.000000  0.165101  1
  Au  Au23  1  0.500000  0.000000  0.585006  1
  Au  Au24  1  0.000000  0.000000  0.835106  1
  Au  Au25  1  0.500000  0.500000  0.163777  1
  Au  Au26  1  0.000000  0.500000  0.585974  1
  Au  Au27  1  0.000000  0.500000  0.914001  1
