# generated using pymatgen
data_Ce3Pa(B2Os)4
_symmetry_space_group_name_H-M   'P 1'
_cell_length_a   5.36078200
_cell_length_b   5.93084664
_cell_length_c   6.49474050
_cell_angle_alpha   89.72833163
_cell_angle_beta   90.00000000
_cell_angle_gamma   90.00000000
_symmetry_Int_Tables_number   1
_chemical_formula_structural   Ce3Pa(B2Os)4
_chemical_formula_sum   'Ce3 Pa1 B8 Os4'
_cell_volume   206.49130181
_cell_formula_units_Z   1
loop_
 _symmetry_equiv_pos_site_id
 _symmetry_equiv_pos_as_xyz
  1  'x, y, z'
loop_
 _atom_site_type_symbol
 _atom_site_label
 _atom_site_symmetry_multiplicity
 _atom_site_fract_x
 _atom_site_fract_y
 _atom_site_fract_z
 _atom_site_occupancy
  Ce  Ce0  1  0.250000  0.003096  0.341053  1
  Ce  Ce1  1  0.250000  0.502088  0.159868  1
  Ce  Ce2  1  0.750000  0.999596  0.655984  1
  Pa  Pa3  1  0.750000  0.499461  0.841840  1
  B  B4  1  0.086318  0.370685  0.539522  1
  B  B5  1  0.412726  0.870180  0.962101  1
  B  B6  1  0.587969  0.628936  0.462585  1
  B  B7  1  0.912221  0.130261  0.036690  1
  B  B8  1  0.912031  0.628936  0.462585  1
  B  B9  1  0.587779  0.130261  0.036690  1
  B  B10  1  0.413682  0.370685  0.539522  1
  B  B11  1  0.087274  0.870180  0.962101  1
  Os  Os12  1  0.250000  0.187890  0.816938  1
  Os  Os13  1  0.250000  0.683099  0.688206  1
  Os  Os14  1  0.750000  0.809613  0.178482  1
  Os  Os15  1  0.750000  0.315035  0.315835  1
