# generated using pymatgen
data_YTh3(ScIr)4
_symmetry_space_group_name_H-M   'P 1'
_cell_length_a   4.42932900
_cell_length_b   7.13354903
_cell_length_c   8.73021755
_cell_angle_alpha   87.75860051
_cell_angle_beta   90.00000000
_cell_angle_gamma   90.00000000
_symmetry_Int_Tables_number   1
_chemical_formula_structural   YTh3(ScIr)4
_chemical_formula_sum   'Y1 Th3 Sc4 Ir4'
_cell_volume   275.63620302
_cell_formula_units_Z   1
loop_
 _symmetry_equiv_pos_site_id
 _symmetry_equiv_pos_as_xyz
  1  'x, y, z'
loop_
 _atom_site_type_symbol
 _atom_site_label
 _atom_site_symmetry_multiplicity
 _atom_site_fract_x
 _atom_site_fract_y
 _atom_site_fract_z
 _atom_site_occupancy
  Y  Y0  1  0.750000  0.484208  0.825327  1
  Th  Th1  1  0.250000  0.015918  0.319581  1
  Th  Th2  1  0.250000  0.517469  0.168379  1
  Th  Th3  1  0.750000  0.976886  0.681662  1
  Sc  Sc4  1  0.250000  0.150136  0.929456  1
  Sc  Sc5  1  0.250000  0.626953  0.572193  1
  Sc  Sc6  1  0.750000  0.864039  0.062863  1
  Sc  Sc7  1  0.750000  0.365788  0.437285  1
  Ir  Ir8  1  0.250000  0.239413  0.592805  1
  Ir  Ir9  1  0.250000  0.760810  0.897330  1
  Ir  Ir10  1  0.750000  0.750485  0.406890  1
  Ir  Ir11  1  0.750000  0.247893  0.106229  1
