# generated using pymatgen
data_Ce2DyS3
_symmetry_space_group_name_H-M   'P 1'
_cell_length_a   3.96481500
_cell_length_b   3.96481567
_cell_length_c   9.83029700
_cell_angle_alpha   90.00000000
_cell_angle_beta   90.00000000
_cell_angle_gamma   120.00000273
_symmetry_Int_Tables_number   1
_chemical_formula_structural   Ce2DyS3
_chemical_formula_sum   'Ce2 Dy1 S3'
_cell_volume   133.82682922
_cell_formula_units_Z   1
loop_
 _symmetry_equiv_pos_site_id
 _symmetry_equiv_pos_as_xyz
  1  'x, y, z'
loop_
 _atom_site_type_symbol
 _atom_site_label
 _atom_site_symmetry_multiplicity
 _atom_site_fract_x
 _atom_site_fract_y
 _atom_site_fract_z
 _atom_site_occupancy
  Ce  Ce0  1  0.333333  0.666667  0.667342  1
  Ce  Ce1  1  0.666667  0.333333  0.332658  1
  Dy  Dy2  1  0.000000  0.000000  0.000000  1
  S  S3  1  0.333333  0.666667  0.157867  1
  S  S4  1  0.666667  0.333333  0.842133  1
  S  S5  1  0.000000  0.000000  0.500000  1
