# generated using pymatgen
data_Ho3Tm2Bi2Rh
_symmetry_space_group_name_H-M   'P 1'
_cell_length_a   7.93860300
_cell_length_b   8.97815800
_cell_length_c   12.44015900
_cell_angle_alpha   90.00000000
_cell_angle_beta   90.00000000
_cell_angle_gamma   90.00000000
_symmetry_Int_Tables_number   1
_chemical_formula_structural   Ho3Tm2Bi2Rh
_chemical_formula_sum   'Ho12 Tm8 Bi8 Rh4'
_cell_volume   886.66029107
_cell_formula_units_Z   4
loop_
 _symmetry_equiv_pos_site_id
 _symmetry_equiv_pos_as_xyz
  1  'x, y, z'
loop_
 _atom_site_type_symbol
 _atom_site_label
 _atom_site_symmetry_multiplicity
 _atom_site_fract_x
 _atom_site_fract_y
 _atom_site_fract_z
 _atom_site_occupancy
  Ho  Ho0  1  0.840487  0.750000  0.793729  1
  Ho  Ho1  1  0.159513  0.250000  0.206271  1
  Ho  Ho2  1  0.340487  0.250000  0.706271  1
  Ho  Ho3  1  0.659513  0.750000  0.293729  1
  Ho  Ho4  1  0.374734  0.750000  0.690424  1
  Ho  Ho5  1  0.625266  0.250000  0.309576  1
  Ho  Ho6  1  0.874734  0.250000  0.809576  1
  Ho  Ho7  1  0.125266  0.750000  0.190424  1
  Ho  Ho8  1  0.952405  0.750000  0.501778  1
  Ho  Ho9  1  0.047595  0.250000  0.498222  1
  Ho  Ho10  1  0.452405  0.250000  0.998222  1
  Ho  Ho11  1  0.547595  0.750000  0.001778  1
  Tm  Tm12  1  0.675939  0.042397  0.566244  1
  Tm  Tm13  1  0.324061  0.957603  0.433756  1
  Tm  Tm14  1  0.175939  0.957603  0.933756  1
  Tm  Tm15  1  0.324061  0.542397  0.433756  1
  Tm  Tm16  1  0.824061  0.042397  0.066244  1
  Tm  Tm17  1  0.675939  0.457603  0.566244  1
  Tm  Tm18  1  0.824061  0.457603  0.066244  1
  Tm  Tm19  1  0.175939  0.542397  0.933756  1
  Bi  Bi20  1  0.566362  0.491945  0.825998  1
  Bi  Bi21  1  0.433638  0.508055  0.174002  1
  Bi  Bi22  1  0.066362  0.508055  0.674002  1
  Bi  Bi23  1  0.433638  0.991945  0.174002  1
  Bi  Bi24  1  0.933638  0.491945  0.325998  1
  Bi  Bi25  1  0.566362  0.008055  0.825998  1
  Bi  Bi26  1  0.933638  0.008055  0.325998  1
  Bi  Bi27  1  0.066362  0.991945  0.674002  1
  Rh  Rh28  1  0.571854  0.750000  0.508928  1
  Rh  Rh29  1  0.428146  0.250000  0.491072  1
  Rh  Rh30  1  0.071854  0.250000  0.991072  1
  Rh  Rh31  1  0.928146  0.750000  0.008928  1
