# generated using pymatgen
data_Hf6Fe16ReSi6
_symmetry_space_group_name_H-M   'P 1'
_cell_length_a   8.07808230
_cell_length_b   8.07808240
_cell_length_c   8.07808200
_cell_angle_alpha   59.99999344
_cell_angle_beta   59.99999306
_cell_angle_gamma   59.99999103
_symmetry_Int_Tables_number   1
_chemical_formula_structural   Hf6Fe16ReSi6
_chemical_formula_sum   'Hf6 Fe16 Re1 Si6'
_cell_volume   372.74320766
_cell_formula_units_Z   1
loop_
 _symmetry_equiv_pos_site_id
 _symmetry_equiv_pos_as_xyz
  1  'x, y, z'
loop_
 _atom_site_type_symbol
 _atom_site_label
 _atom_site_symmetry_multiplicity
 _atom_site_fract_x
 _atom_site_fract_y
 _atom_site_fract_z
 _atom_site_occupancy
  Hf  Hf0  1  0.289957  0.710043  0.710043  1
  Hf  Hf1  1  0.710043  0.710043  0.289957  1
  Hf  Hf2  1  0.289957  0.289957  0.710043  1
  Hf  Hf3  1  0.710043  0.289957  0.289957  1
  Hf  Hf4  1  0.710043  0.289957  0.710043  1
  Hf  Hf5  1  0.289957  0.710043  0.289957  1
  Fe  Fe6  1  0.877158  0.877158  0.877158  1
  Fe  Fe7  1  0.028253  0.323916  0.323916  1
  Fe  Fe8  1  0.122842  0.122842  0.631474  1
  Fe  Fe9  1  0.323916  0.028253  0.323916  1
  Fe  Fe10  1  0.323916  0.323916  0.323916  1
  Fe  Fe11  1  0.676084  0.676084  0.971747  1
  Fe  Fe12  1  0.877158  0.877158  0.368526  1
  Fe  Fe13  1  0.676084  0.676084  0.676084  1
  Fe  Fe14  1  0.676084  0.971747  0.676084  1
  Fe  Fe15  1  0.323916  0.323916  0.028253  1
  Fe  Fe16  1  0.877158  0.368526  0.877158  1
  Fe  Fe17  1  0.631474  0.122842  0.122842  1
  Fe  Fe18  1  0.122842  0.631474  0.122842  1
  Fe  Fe19  1  0.122842  0.122842  0.122842  1
  Fe  Fe20  1  0.971747  0.676084  0.676084  1
  Fe  Fe21  1  0.368526  0.877158  0.877158  1
  Re  Re22  1  0.000000  0.000000  0.000000  1
  Si  Si23  1  0.000000  0.000000  0.500000  1
  Si  Si24  1  0.000000  0.500000  0.000000  1
  Si  Si25  1  0.500000  0.000000  0.500000  1
  Si  Si26  1  0.000000  0.500000  0.500000  1
  Si  Si27  1  0.500000  0.000000  0.000000  1
  Si  Si28  1  0.500000  0.500000  0.000000  1
