# generated using pymatgen
data_CaGe4(PdRh2)2
_symmetry_space_group_name_H-M   'P 1'
_cell_length_a   7.30981940
_cell_length_b   7.35584283
_cell_length_c   3.83501000
_cell_angle_alpha   90.00000000
_cell_angle_beta   90.00000000
_cell_angle_gamma   120.20850050
_symmetry_Int_Tables_number   1
_chemical_formula_structural   CaGe4(PdRh2)2
_chemical_formula_sum   'Ca1 Ge4 Pd2 Rh4'
_cell_volume   178.20501989
_cell_formula_units_Z   1
loop_
 _symmetry_equiv_pos_site_id
 _symmetry_equiv_pos_as_xyz
  1  'x, y, z'
loop_
 _atom_site_type_symbol
 _atom_site_label
 _atom_site_symmetry_multiplicity
 _atom_site_fract_x
 _atom_site_fract_y
 _atom_site_fract_z
 _atom_site_occupancy
  Ca  Ca0  1  0.996685  0.998343  0.000000  1
  Ge  Ge1  1  0.798191  0.193176  0.500000  1
  Ge  Ge2  1  0.798191  0.605016  0.500000  1
  Ge  Ge3  1  0.400262  0.200132  0.500000  1
  Ge  Ge4  1  0.342210  0.671106  0.000000  1
  Pd  Pd5  1  0.197935  0.801843  0.500000  1
  Pd  Pd6  1  0.197935  0.396091  0.500000  1
  Rh  Rh7  1  0.533173  0.464505  0.000000  1
  Rh  Rh8  1  0.533173  0.068667  0.000000  1
  Rh  Rh9  1  0.933134  0.466567  0.000000  1
  Rh  Rh10  1  0.602445  0.801222  0.500000  1
