# generated using pymatgen
data_Pm6H13
_symmetry_space_group_name_H-M   'P 1'
_cell_length_a   7.66523187
_cell_length_b   6.62349202
_cell_length_c   6.64478145
_cell_angle_alpha   80.09552771
_cell_angle_beta   125.32642500
_cell_angle_gamma   73.61650164
_symmetry_Int_Tables_number   1
_chemical_formula_structural   Pm6H13
_chemical_formula_sum   'Pm6 H13'
_cell_volume   238.64234756
_cell_formula_units_Z   1
loop_
 _symmetry_equiv_pos_site_id
 _symmetry_equiv_pos_as_xyz
  1  'x, y, z'
loop_
 _atom_site_type_symbol
 _atom_site_label
 _atom_site_symmetry_multiplicity
 _atom_site_fract_x
 _atom_site_fract_y
 _atom_site_fract_z
 _atom_site_occupancy
  Pm  Pm0  1  0.898148  0.766694  0.448235  1
  Pm  Pm1  1  0.074368  0.423680  0.121871  1
  Pm  Pm2  1  0.240892  0.094824  0.790197  1
  Pm  Pm3  1  0.569441  0.422036  0.120392  1
  Pm  Pm4  1  0.404440  0.766298  0.451135  1
  Pm  Pm5  1  0.736063  0.094279  0.782899  1
  H  H6  1  0.874947  0.094129  0.544215  1
  H  H7  1  0.696248  0.428453  0.870104  1
  H  H8  1  0.530081  0.750206  0.200874  1
  H  H9  1  0.184941  0.437901  0.855390  1
  H  H10  1  0.359776  0.094883  0.543817  1
  H  H11  1  0.029837  0.761030  0.204051  1
  H  H12  1  0.445171  0.436706  0.372688  1
  H  H13  1  0.278227  0.760684  0.702377  1
  H  H14  1  0.101802  0.095266  0.028394  1
  H  H15  1  0.616282  0.094438  0.027193  1
  H  H16  1  0.486683  0.096436  0.277548  1
  H  H17  1  0.944305  0.428024  0.368198  1
  H  H18  1  0.786455  0.752760  0.713864  1
