# generated using pymatgen
data_Tb3DyAl4Pt3Rh
_symmetry_space_group_name_H-M   'P 1'
_cell_length_a   4.42908100
_cell_length_b   6.86226141
_cell_length_c   7.80669845
_cell_angle_alpha   90.03939111
_cell_angle_beta   90.00000000
_cell_angle_gamma   90.00000000
_symmetry_Int_Tables_number   1
_chemical_formula_structural   Tb3DyAl4Pt3Rh
_chemical_formula_sum   'Tb3 Dy1 Al4 Pt3 Rh1'
_cell_volume   237.27292423
_cell_formula_units_Z   1
loop_
 _symmetry_equiv_pos_site_id
 _symmetry_equiv_pos_as_xyz
  1  'x, y, z'
loop_
 _atom_site_type_symbol
 _atom_site_label
 _atom_site_symmetry_multiplicity
 _atom_site_fract_x
 _atom_site_fract_y
 _atom_site_fract_z
 _atom_site_occupancy
  Tb  Tb0  1  0.250000  0.468716  0.180633  1
  Tb  Tb1  1  0.750000  0.531475  0.817120  1
  Tb  Tb2  1  0.250000  0.966421  0.322173  1
  Dy  Dy3  1  0.750000  0.028138  0.680813  1
  Al  Al4  1  0.250000  0.854303  0.936402  1
  Al  Al5  1  0.750000  0.144854  0.062452  1
  Al  Al6  1  0.750000  0.644330  0.438471  1
  Al  Al7  1  0.250000  0.360289  0.563425  1
  Pt  Pt8  1  0.750000  0.271517  0.382226  1
  Pt  Pt9  1  0.750000  0.772427  0.118373  1
  Pt  Pt10  1  0.250000  0.225285  0.881637  1
  Rh  Rh11  1  0.250000  0.732244  0.616275  1
