# generated using pymatgen
data_Zr6Zn17SnPt6
_symmetry_space_group_name_H-M   'P 1'
_cell_length_a   8.92174492
_cell_length_b   8.92340602
_cell_length_c   8.92012500
_cell_angle_alpha   59.99977763
_cell_angle_beta   60.01359513
_cell_angle_gamma   59.98022527
_symmetry_Int_Tables_number   1
_chemical_formula_structural   Zr6Zn17SnPt6
_chemical_formula_sum   'Zr6 Zn17 Sn1 Pt6'
_cell_volume   502.12900738
_cell_formula_units_Z   1
loop_
 _symmetry_equiv_pos_site_id
 _symmetry_equiv_pos_as_xyz
  1  'x, y, z'
loop_
 _atom_site_type_symbol
 _atom_site_label
 _atom_site_symmetry_multiplicity
 _atom_site_fract_x
 _atom_site_fract_y
 _atom_site_fract_z
 _atom_site_occupancy
  Zr  Zr0  1  0.737966  0.262035  0.262027  1
  Zr  Zr1  1  0.262034  0.737965  0.737973  1
  Zr  Zr2  1  0.262017  0.737979  0.262010  1
  Zr  Zr3  1  0.737983  0.262021  0.737990  1
  Zr  Zr4  1  0.262109  0.262086  0.737918  1
  Zr  Zr5  1  0.737891  0.737914  0.262082  1
  Zn  Zn6  1  0.132060  0.131962  0.132027  1
  Zn  Zn7  1  0.867940  0.868038  0.867973  1
  Zn  Zn8  1  0.132000  0.132048  0.603923  1
  Zn  Zn9  1  0.132017  0.603958  0.132040  1
  Zn  Zn10  1  0.868000  0.867952  0.396077  1
  Zn  Zn11  1  0.867983  0.396042  0.867960  1
  Zn  Zn12  1  0.603937  0.132017  0.131980  1
  Zn  Zn13  1  0.396063  0.867983  0.868020  1
  Zn  Zn14  1  0.350528  0.350589  0.350511  1
  Zn  Zn15  1  0.649472  0.649411  0.649489  1
  Zn  Zn16  1  0.350557  0.350523  0.948423  1
  Zn  Zn17  1  0.350520  0.948361  0.350543  1
  Zn  Zn18  1  0.649443  0.649477  0.051577  1
  Zn  Zn19  1  0.649480  0.051639  0.649457  1
  Zn  Zn20  1  0.948393  0.350513  0.350575  1
  Zn  Zn21  1  0.051607  0.649487  0.649425  1
  Zn  Zn22  1  0.000000  0.000000  0.000000  1
  Sn  Sn23  1  0.500000  0.500000  0.500000  1
  Pt  Pt24  1  0.500000  0.000000  0.000000  1
  Pt  Pt25  1  0.000000  0.500000  0.500000  1
  Pt  Pt26  1  0.000000  0.500000  0.000000  1
  Pt  Pt27  1  0.500000  0.000000  0.500000  1
  Pt  Pt28  1  0.000000  0.000000  0.500000  1
  Pt  Pt29  1  0.500000  0.500000  0.000000  1
