# generated using pymatgen
data_TbY7Ta3Ti9Si16
_symmetry_space_group_name_H-M   'P 1'
_cell_length_a   7.05037921
_cell_length_b   7.05108489
_cell_length_c   12.98387027
_cell_angle_alpha   89.97334172
_cell_angle_beta   90.00573879
_cell_angle_gamma   89.92752364
_symmetry_Int_Tables_number   1
_chemical_formula_structural   TbY7Ta3Ti9Si16
_chemical_formula_sum   'Tb1 Y7 Ta3 Ti9 Si16'
_cell_volume   645.46424628
_cell_formula_units_Z   1
loop_
 _symmetry_equiv_pos_site_id
 _symmetry_equiv_pos_as_xyz
  1  'x, y, z'
loop_
 _atom_site_type_symbol
 _atom_site_label
 _atom_site_symmetry_multiplicity
 _atom_site_fract_x
 _atom_site_fract_y
 _atom_site_fract_z
 _atom_site_occupancy
  Tb  Tb0  1  0.997714  0.659783  0.033191  1
  Y  Y1  1  0.340105  0.002243  0.466631  1
  Y  Y2  1  0.497677  0.840033  0.717132  1
  Y  Y3  1  0.502251  0.159331  0.216936  1
  Y  Y4  1  0.840006  0.497566  0.282900  1
  Y  Y5  1  0.159336  0.502176  0.783024  1
  Y  Y6  1  0.659732  0.997945  0.966759  1
  Y  Y7  1  0.002206  0.340133  0.533386  1
  Ta  Ta8  1  0.326834  0.326885  0.999985  1
  Ta  Ta9  1  0.173169  0.826936  0.250015  1
  Ta  Ta10  1  0.826896  0.173188  0.749937  1
  Ti  Ti11  1  0.673136  0.673144  0.500003  1
  Ti  Ti12  1  0.153336  0.008990  0.875641  1
  Ti  Ti13  1  0.490790  0.653159  0.126065  1
  Ti  Ti14  1  0.509077  0.346507  0.626626  1
  Ti  Ti15  1  0.653207  0.490638  0.873967  1
  Ti  Ti16  1  0.346610  0.509022  0.373434  1
  Ti  Ti17  1  0.847664  0.991619  0.375430  1
  Ti  Ti18  1  0.009137  0.153488  0.124387  1
  Ti  Ti19  1  0.991535  0.847692  0.624593  1
  Si  Si20  1  0.201739  0.129303  0.684697  1
  Si  Si21  1  0.370838  0.702018  0.934708  1
  Si  Si22  1  0.629455  0.297984  0.434856  1
  Si  Si23  1  0.701891  0.370519  0.065192  1
  Si  Si24  1  0.298027  0.629451  0.565180  1
  Si  Si25  1  0.797866  0.870626  0.185127  1
  Si  Si26  1  0.129309  0.201700  0.315302  1
  Si  Si27  1  0.870544  0.798004  0.814944  1
  Si  Si28  1  0.292090  0.953998  0.064305  1
  Si  Si29  1  0.546630  0.791626  0.314865  1
  Si  Si30  1  0.453833  0.207953  0.814332  1
  Si  Si31  1  0.791514  0.546638  0.685160  1
  Si  Si32  1  0.207920  0.453693  0.185696  1
  Si  Si33  1  0.708125  0.046061  0.564327  1
  Si  Si34  1  0.953836  0.291800  0.935597  1
  Si  Si35  1  0.045970  0.708145  0.435673  1
