# generated using pymatgen
data_U4Re7Ge5P
_symmetry_space_group_name_H-M   'P 1'
_cell_length_a   7.22018779
_cell_length_b   7.21768273
_cell_length_c   7.22018799
_cell_angle_alpha   109.43042169
_cell_angle_beta   109.43111788
_cell_angle_gamma   109.56623936
_symmetry_Int_Tables_number   1
_chemical_formula_structural   U4Re7Ge5P
_chemical_formula_sum   'U4 Re7 Ge5 P1'
_cell_volume   289.59869563
_cell_formula_units_Z   1
loop_
 _symmetry_equiv_pos_site_id
 _symmetry_equiv_pos_as_xyz
  1  'x, y, z'
loop_
 _atom_site_type_symbol
 _atom_site_label
 _atom_site_symmetry_multiplicity
 _atom_site_fract_x
 _atom_site_fract_y
 _atom_site_fract_z
 _atom_site_occupancy
  U  U0  1  0.489567  0.489421  0.486557  1
  U  U1  1  0.003115  0.003176  0.513429  1
  U  U2  1  0.489747  0.003176  0.000061  1
  U  U3  1  0.002864  0.489421  0.999854  1
  Re  Re4  1  0.745451  0.245506  0.500055  1
  Re  Re5  1  0.499299  0.251838  0.752539  1
  Re  Re6  1  0.499083  0.746568  0.247484  1
  Re  Re7  1  0.251726  0.499395  0.752512  1
  Re  Re8  1  0.746882  0.499395  0.247668  1
  Re  Re9  1  0.245293  0.745052  0.499758  1
  Re  Re10  1  0.022629  0.022680  0.000051  1
  Ge  Ge11  1  0.994452  0.302168  0.307716  1
  Ge  Ge12  1  0.994453  0.686833  0.692381  1
  Ge  Ge13  1  0.686676  0.994338  0.692246  1
  Ge  Ge14  1  0.302093  0.994338  0.307662  1
  Ge  Ge15  1  0.705250  0.705295  0.000045  1
  P  P16  1  0.321419  0.321401  0.999982  1
