# generated using pymatgen
data_Ti3Mn7NbGa
_symmetry_space_group_name_H-M   'P 1'
_cell_length_a   4.76883400
_cell_length_b   4.76883453
_cell_length_c   7.96393100
_cell_angle_alpha   90.00000000
_cell_angle_beta   90.00000000
_cell_angle_gamma   119.99999634
_symmetry_Int_Tables_number   1
_chemical_formula_structural   Ti3Mn7NbGa
_chemical_formula_sum   'Ti3 Mn7 Nb1 Ga1'
_cell_volume   156.84930360
_cell_formula_units_Z   1
loop_
 _symmetry_equiv_pos_site_id
 _symmetry_equiv_pos_as_xyz
  1  'x, y, z'
loop_
 _atom_site_type_symbol
 _atom_site_label
 _atom_site_symmetry_multiplicity
 _atom_site_fract_x
 _atom_site_fract_y
 _atom_site_fract_z
 _atom_site_occupancy
  Ti  Ti0  1  0.333333  0.666667  0.927482  1
  Ti  Ti1  1  0.333333  0.666667  0.562643  1
  Ti  Ti2  1  0.666667  0.333333  0.440996  1
  Mn  Mn3  1  0.654271  0.827135  0.256580  1
  Mn  Mn4  1  0.172865  0.827135  0.256580  1
  Mn  Mn5  1  0.172865  0.345729  0.256580  1
  Mn  Mn6  1  0.345641  0.172821  0.742934  1
  Mn  Mn7  1  0.827179  0.172821  0.742934  1
  Mn  Mn8  1  0.827179  0.654359  0.742934  1
  Mn  Mn9  1  0.000000  0.000000  0.498755  1
  Nb  Nb10  1  0.666667  0.333333  0.072992  1
  Ga  Ga11  1  0.000000  0.000000  0.998589  1
