# generated using pymatgen
data_DyLu7(Si4Tc3)4
_symmetry_space_group_name_H-M   'P 1'
_cell_length_a   6.74799841
_cell_length_b   6.75000154
_cell_length_c   12.56398453
_cell_angle_alpha   90.20477877
_cell_angle_beta   89.92754787
_cell_angle_gamma   89.99164387
_symmetry_Int_Tables_number   1
_chemical_formula_structural   DyLu7(Si4Tc3)4
_chemical_formula_sum   'Dy1 Lu7 Si16 Tc12'
_cell_volume   572.27280790
_cell_formula_units_Z   1
loop_
 _symmetry_equiv_pos_site_id
 _symmetry_equiv_pos_as_xyz
  1  'x, y, z'
loop_
 _atom_site_type_symbol
 _atom_site_label
 _atom_site_symmetry_multiplicity
 _atom_site_fract_x
 _atom_site_fract_y
 _atom_site_fract_z
 _atom_site_occupancy
  Dy  Dy0  1  0.338426  0.996806  0.469637  1
  Lu  Lu1  1  0.003643  0.660062  0.029917  1
  Lu  Lu2  1  0.996861  0.339657  0.529839  1
  Lu  Lu3  1  0.660497  0.003128  0.970245  1
  Lu  Lu4  1  0.161130  0.496666  0.779982  1
  Lu  Lu5  1  0.839910  0.504226  0.279624  1
  Lu  Lu6  1  0.497079  0.161146  0.219916  1
  Lu  Lu7  1  0.504652  0.839954  0.720078  1
  Si  Si8  1  0.022616  0.723060  0.436513  1
  Si  Si9  1  0.973275  0.279436  0.934736  1
  Si  Si10  1  0.726789  0.024306  0.564316  1
  Si  Si11  1  0.222903  0.475064  0.185207  1
  Si  Si12  1  0.779740  0.525689  0.685770  1
  Si  Si13  1  0.473262  0.220308  0.815701  1
  Si  Si14  1  0.525418  0.776259  0.312477  1
  Si  Si15  1  0.279016  0.973866  0.064894  1
  Si  Si16  1  0.807896  0.881965  0.185567  1
  Si  Si17  1  0.308069  0.615877  0.564642  1
  Si  Si18  1  0.692092  0.381710  0.063358  1
  Si  Si19  1  0.617767  0.309745  0.436515  1
  Si  Si20  1  0.380989  0.692442  0.936061  1
  Si  Si21  1  0.116368  0.193663  0.312404  1
  Si  Si22  1  0.191820  0.117818  0.687360  1
  Si  Si23  1  0.881216  0.807037  0.814542  1
  Tc  Tc24  1  0.317194  0.480802  0.377450  1
  Tc  Tc25  1  0.817186  0.022549  0.371334  1
  Tc  Tc26  1  0.978461  0.179982  0.125813  1
  Tc  Tc27  1  0.022363  0.815532  0.630108  1
  Tc  Tc28  1  0.480711  0.320669  0.625143  1
  Tc  Tc29  1  0.178740  0.978467  0.873852  1
  Tc  Tc30  1  0.669479  0.667110  0.500168  1
  Tc  Tc31  1  0.833108  0.167830  0.750427  1
  Tc  Tc32  1  0.167440  0.831969  0.248373  1
  Tc  Tc33  1  0.332191  0.332395  0.000088  1
  Tc  Tc34  1  0.522583  0.681723  0.120851  1
  Tc  Tc35  1  0.679106  0.521082  0.877094  1
