# generated using pymatgen
data_Yb2Si3AgPd6
_symmetry_space_group_name_H-M   'P 1'
_cell_length_a   6.82275662
_cell_length_b   6.80937916
_cell_length_c   6.82275600
_cell_angle_alpha   130.22981539
_cell_angle_beta   114.40219486
_cell_angle_gamma   86.68407998
_symmetry_Int_Tables_number   1
_chemical_formula_structural   Yb2Si3AgPd6
_chemical_formula_sum   'Yb2 Si3 Ag1 Pd6'
_cell_volume   210.18895420
_cell_formula_units_Z   1
loop_
 _symmetry_equiv_pos_site_id
 _symmetry_equiv_pos_as_xyz
  1  'x, y, z'
loop_
 _atom_site_type_symbol
 _atom_site_label
 _atom_site_symmetry_multiplicity
 _atom_site_fract_x
 _atom_site_fract_y
 _atom_site_fract_z
 _atom_site_occupancy
  Yb  Yb0  1  0.009408  0.967584  0.958177  1
  Yb  Yb1  1  0.496627  0.072816  0.576189  1
  Si  Si2  1  0.809320  0.246993  0.437674  1
  Si  Si3  1  0.642550  0.702156  0.059608  1
  Si  Si4  1  0.198740  0.630293  0.431554  1
  Ag  Ag5  1  0.362597  0.443959  0.081362  1
  Pd  Pd6  1  0.935276  0.500411  0.947763  1
  Pd  Pd7  1  0.552647  0.500411  0.565135  1
  Pd  Pd8  1  0.020894  0.986091  0.520525  1
  Pd  Pd9  1  0.808127  0.474097  0.275848  1
  Pd  Pd10  1  0.198250  0.474097  0.665969  1
  Pd  Pd11  1  0.465566  0.986091  0.965197  1
