# generated using pymatgen
data_MnGa(PO3)6
_symmetry_space_group_name_H-M   'P 1'
_cell_length_a   5.08163899
_cell_length_b   7.10334484
_cell_length_c   10.50616500
_cell_angle_alpha   96.86023533
_cell_angle_beta   91.00966614
_cell_angle_gamma   91.05180711
_symmetry_Int_Tables_number   1
_chemical_formula_structural   MnGa(PO3)6
_chemical_formula_sum   'Mn1 Ga1 P6 O18'
_cell_volume   376.38359795
_cell_formula_units_Z   1
loop_
 _symmetry_equiv_pos_site_id
 _symmetry_equiv_pos_as_xyz
  1  'x, y, z'
loop_
 _atom_site_type_symbol
 _atom_site_label
 _atom_site_symmetry_multiplicity
 _atom_site_fract_x
 _atom_site_fract_y
 _atom_site_fract_z
 _atom_site_occupancy
  Mn  Mn0  1  0.000000  0.000000  0.000000  1
  Ga  Ga1  1  0.000000  0.500000  0.500000  1
  P  P2  1  0.505321  0.335500  0.641851  1
  P  P3  1  0.494679  0.664500  0.358149  1
  P  P4  1  0.485096  0.034993  0.818647  1
  P  P5  1  0.514904  0.965007  0.181353  1
  P  P6  1  0.234832  0.321837  0.231149  1
  P  P7  1  0.765168  0.678163  0.768851  1
  O  O8  1  0.312558  0.899450  0.077307  1
  O  O9  1  0.687442  0.100550  0.922693  1
  O  O10  1  0.455988  0.865685  0.306381  1
  O  O11  1  0.544012  0.134315  0.693619  1
  O  O12  1  0.607016  0.478633  0.764871  1
  O  O13  1  0.392984  0.521367  0.235129  1
  O  O14  1  0.911936  0.684758  0.645947  1
  O  O15  1  0.088064  0.315242  0.354053  1
  O  O16  1  0.688951  0.340222  0.531524  1
  O  O17  1  0.311049  0.659778  0.468476  1
  O  O18  1  0.484204  0.181061  0.236033  1
  O  O19  1  0.515796  0.818939  0.763967  1
  O  O20  1  0.906626  0.722328  0.894428  1
  O  O21  1  0.093374  0.277672  0.105572  1
  O  O22  1  0.798824  0.930790  0.146325  1
  O  O23  1  0.201176  0.069210  0.853675  1
  O  O24  1  0.783350  0.639886  0.382007  1
  O  O25  1  0.216650  0.360114  0.617993  1
