# generated using pymatgen
data_Ta4Al4V3Rh
_symmetry_space_group_name_H-M   'P 1'
_cell_length_a   5.00367002
_cell_length_b   5.00163975
_cell_length_c   8.47919400
_cell_angle_alpha   90.00000000
_cell_angle_beta   90.00000000
_cell_angle_gamma   61.31279297
_symmetry_Int_Tables_number   1
_chemical_formula_structural   Ta4Al4V3Rh
_chemical_formula_sum   'Ta4 Al4 V3 Rh1'
_cell_volume   186.15756264
_cell_formula_units_Z   1
loop_
 _symmetry_equiv_pos_site_id
 _symmetry_equiv_pos_as_xyz
  1  'x, y, z'
loop_
 _atom_site_type_symbol
 _atom_site_label
 _atom_site_symmetry_multiplicity
 _atom_site_fract_x
 _atom_site_fract_y
 _atom_site_fract_z
 _atom_site_occupancy
  Ta  Ta0  1  0.337192  0.337282  0.553091  1
  Ta  Ta1  1  0.662668  0.662720  0.434930  1
  Ta  Ta2  1  0.662668  0.662720  0.065070  1
  Ta  Ta3  1  0.337192  0.337282  0.946909  1
  Al  Al4  1  0.995446  0.995165  0.499829  1
  Al  Al5  1  0.995446  0.995165  0.000171  1
  Al  Al6  1  0.833810  0.348160  0.750000  1
  Al  Al7  1  0.348197  0.833809  0.750000  1
  V  V8  1  0.167032  0.652379  0.250000  1
  V  V9  1  0.652282  0.167112  0.250000  1
  V  V10  1  0.170555  0.170725  0.250000  1
  Rh  Rh11  1  0.837513  0.837483  0.750000  1
