# generated using pymatgen
data_Ho5Zr3Ir4
_symmetry_space_group_name_H-M   'P 1'
_cell_length_a   4.58344400
_cell_length_b   7.09918477
_cell_length_c   8.37974423
_cell_angle_alpha   89.71182578
_cell_angle_beta   90.00000000
_cell_angle_gamma   90.00000000
_symmetry_Int_Tables_number   1
_chemical_formula_structural   Ho5Zr3Ir4
_chemical_formula_sum   'Ho5 Zr3 Ir4'
_cell_volume   272.66266753
_cell_formula_units_Z   1
loop_
 _symmetry_equiv_pos_site_id
 _symmetry_equiv_pos_as_xyz
  1  'x, y, z'
loop_
 _atom_site_type_symbol
 _atom_site_label
 _atom_site_symmetry_multiplicity
 _atom_site_fract_x
 _atom_site_fract_y
 _atom_site_fract_z
 _atom_site_occupancy
  Ho  Ho0  1  0.750000  0.646754  0.419577  1
  Ho  Ho1  1  0.250000  0.991911  0.327013  1
  Ho  Ho2  1  0.250000  0.481550  0.169744  1
  Ho  Ho3  1  0.750000  0.015900  0.680807  1
  Ho  Ho4  1  0.750000  0.514652  0.822383  1
  Zr  Zr5  1  0.250000  0.858664  0.925014  1
  Zr  Zr6  1  0.250000  0.354410  0.575251  1
  Zr  Zr7  1  0.750000  0.145492  0.076709  1
  Ir  Ir8  1  0.250000  0.233644  0.908698  1
  Ir  Ir9  1  0.250000  0.737458  0.603868  1
  Ir  Ir10  1  0.750000  0.767526  0.080350  1
  Ir  Ir11  1  0.750000  0.252041  0.410588  1
