# generated using pymatgen
data_YErSc3Si7Pt9
_symmetry_space_group_name_H-M   'P 1'
_cell_length_a   10.04524100
_cell_length_b   10.04524134
_cell_length_c   3.97908300
_cell_angle_alpha   90.00000000
_cell_angle_beta   90.00000000
_cell_angle_gamma   120.00000217
_symmetry_Int_Tables_number   1
_chemical_formula_structural   YErSc3Si7Pt9
_chemical_formula_sum   'Y1 Er1 Sc3 Si7 Pt9'
_cell_volume   347.72375144
_cell_formula_units_Z   1
loop_
 _symmetry_equiv_pos_site_id
 _symmetry_equiv_pos_as_xyz
  1  'x, y, z'
loop_
 _atom_site_type_symbol
 _atom_site_label
 _atom_site_symmetry_multiplicity
 _atom_site_fract_x
 _atom_site_fract_y
 _atom_site_fract_z
 _atom_site_occupancy
  Y  Y0  1  0.000000  0.000000  0.000000  1
  Er  Er1  1  0.333333  0.666667  0.500000  1
  Sc  Sc2  1  0.895006  0.455801  0.500000  1
  Sc  Sc3  1  0.560795  0.104994  0.500000  1
  Sc  Sc4  1  0.544199  0.439205  0.500000  1
  Si  Si5  1  0.246201  0.195358  0.500000  1
  Si  Si6  1  0.804642  0.050845  0.500000  1
  Si  Si7  1  0.949155  0.753799  0.500000  1
  Si  Si8  1  0.556191  0.647092  0.000000  1
  Si  Si9  1  0.352908  0.909098  0.000000  1
  Si  Si10  1  0.090902  0.443809  0.000000  1
  Si  Si11  1  0.666667  0.333333  0.000000  1
  Pt  Pt12  1  0.219159  0.935678  0.500000  1
  Pt  Pt13  1  0.064322  0.283482  0.500000  1
  Pt  Pt14  1  0.716518  0.780841  0.500000  1
  Pt  Pt15  1  0.314281  0.414083  0.000000  1
  Pt  Pt16  1  0.585917  0.900199  0.000000  1
  Pt  Pt17  1  0.099801  0.685719  0.000000  1
  Pt  Pt18  1  0.383726  0.171588  0.000000  1
  Pt  Pt19  1  0.828412  0.212140  0.000000  1
  Pt  Pt20  1  0.787860  0.616274  0.000000  1
