# generated using pymatgen
data_CeInAu5
_symmetry_space_group_name_H-M   'P 1'
_cell_length_a   5.82630503
_cell_length_b   5.82630438
_cell_length_c   5.82630442
_cell_angle_alpha   102.95822327
_cell_angle_beta   102.95822238
_cell_angle_gamma   123.47128123
_symmetry_Int_Tables_number   1
_chemical_formula_structural   CeInAu5
_chemical_formula_sum   'Ce1 In1 Au5'
_cell_volume   145.30939511
_cell_formula_units_Z   1
loop_
 _symmetry_equiv_pos_site_id
 _symmetry_equiv_pos_as_xyz
  1  'x, y, z'
loop_
 _atom_site_type_symbol
 _atom_site_label
 _atom_site_symmetry_multiplicity
 _atom_site_fract_x
 _atom_site_fract_y
 _atom_site_fract_z
 _atom_site_occupancy
  Ce  Ce0  1  0.000000  0.000000  0.000000  1
  In  In1  1  0.750000  0.250000  0.500000  1
  Au  Au2  1  0.305820  0.694180  0.000000  1
  Au  Au3  1  0.694180  0.305820  0.000000  1
  Au  Au4  1  0.694180  0.694180  0.388358  1
  Au  Au5  1  0.305820  0.305820  0.611642  1
  Au  Au6  1  0.250000  0.750000  0.500000  1
