# generated using pymatgen
data_LaNd19(CoAu2)4
_symmetry_space_group_name_H-M   'P 1'
_cell_length_a   8.75098754
_cell_length_b   8.25295800
_cell_length_c   12.14658600
_cell_angle_alpha   90.00000000
_cell_angle_beta   89.96597342
_cell_angle_gamma   90.00000000
_symmetry_Int_Tables_number   1
_chemical_formula_structural   LaNd19(CoAu2)4
_chemical_formula_sum   'La1 Nd19 Co4 Au8'
_cell_volume   877.24490272
_cell_formula_units_Z   1
loop_
 _symmetry_equiv_pos_site_id
 _symmetry_equiv_pos_as_xyz
  1  'x, y, z'
loop_
 _atom_site_type_symbol
 _atom_site_label
 _atom_site_symmetry_multiplicity
 _atom_site_fract_x
 _atom_site_fract_y
 _atom_site_fract_z
 _atom_site_occupancy
  La  La0  1  0.546885  0.750000  0.990688  1
  Nd  Nd1  1  0.840033  0.750000  0.787623  1
  Nd  Nd2  1  0.160080  0.250000  0.212043  1
  Nd  Nd3  1  0.339252  0.250000  0.711514  1
  Nd  Nd4  1  0.660036  0.750000  0.288655  1
  Nd  Nd5  1  0.386726  0.750000  0.698199  1
  Nd  Nd6  1  0.613536  0.250000  0.302179  1
  Nd  Nd7  1  0.886651  0.250000  0.801566  1
  Nd  Nd8  1  0.113541  0.750000  0.198348  1
  Nd  Nd9  1  0.953232  0.750000  0.490642  1
  Nd  Nd10  1  0.046489  0.250000  0.508990  1
  Nd  Nd11  1  0.452901  0.250000  0.009119  1
  Nd  Nd12  1  0.671542  0.037832  0.575398  1
  Nd  Nd13  1  0.328341  0.962753  0.424796  1
  Nd  Nd14  1  0.171155  0.962507  0.924389  1
  Nd  Nd15  1  0.328341  0.537247  0.424796  1
  Nd  Nd16  1  0.828538  0.037543  0.075677  1
  Nd  Nd17  1  0.671542  0.462168  0.575398  1
  Nd  Nd18  1  0.828538  0.462457  0.075677  1
  Nd  Nd19  1  0.171155  0.537493  0.924389  1
  Co  Co20  1  0.564975  0.750000  0.505606  1
  Co  Co21  1  0.434915  0.250000  0.494567  1
  Co  Co22  1  0.064001  0.250000  0.994674  1
  Co  Co23  1  0.936337  0.750000  0.005295  1
  Au  Au24  1  0.581607  0.468594  0.825582  1
  Au  Au25  1  0.418731  0.528685  0.174509  1
  Au  Au26  1  0.081272  0.529965  0.673407  1
  Au  Au27  1  0.418731  0.971315  0.174509  1
  Au  Au28  1  0.919019  0.470277  0.326387  1
  Au  Au29  1  0.581607  0.031406  0.825582  1
  Au  Au30  1  0.919019  0.029723  0.326387  1
  Au  Au31  1  0.081272  0.970035  0.673407  1
