# generated using pymatgen
data_LaSmMo2O7
_symmetry_space_group_name_H-M   'P 1'
_cell_length_a   7.55685800
_cell_length_b   7.52153985
_cell_length_c   7.52154049
_cell_angle_alpha   59.52354076
_cell_angle_beta   59.84455490
_cell_angle_gamma   59.84455315
_symmetry_Int_Tables_number   1
_chemical_formula_structural   LaSmMo2O7
_chemical_formula_sum   'La2 Sm2 Mo4 O14'
_cell_volume   300.49307954
_cell_formula_units_Z   2
loop_
 _symmetry_equiv_pos_site_id
 _symmetry_equiv_pos_as_xyz
  1  'x, y, z'
loop_
 _atom_site_type_symbol
 _atom_site_label
 _atom_site_symmetry_multiplicity
 _atom_site_fract_x
 _atom_site_fract_y
 _atom_site_fract_z
 _atom_site_occupancy
  La  La0  1  0.125000  0.125000  0.125000  1
  La  La1  1  0.625000  0.125000  0.125000  1
  Sm  Sm2  1  0.125000  0.125000  0.625000  1
  Sm  Sm3  1  0.125000  0.625000  0.125000  1
  Mo  Mo4  1  0.625000  0.625000  0.625000  1
  Mo  Mo5  1  0.125000  0.625000  0.625000  1
  Mo  Mo6  1  0.625000  0.125000  0.625000  1
  Mo  Mo7  1  0.625000  0.625000  0.125000  1
  O  O8  1  0.292187  0.293575  0.702970  1
  O  O9  1  0.292187  0.702970  0.293575  1
  O  O10  1  0.957813  0.547030  0.956425  1
  O  O11  1  0.706985  0.293015  0.293015  1
  O  O12  1  0.002663  0.997337  0.997337  1
  O  O13  1  0.538732  0.547030  0.956425  1
  O  O14  1  0.285705  0.714295  0.714295  1
  O  O15  1  0.538732  0.956425  0.547030  1
  O  O16  1  0.543015  0.956985  0.956985  1
  O  O17  1  0.711268  0.702970  0.293575  1
  O  O18  1  0.247337  0.252663  0.252663  1
  O  O19  1  0.957813  0.956425  0.547030  1
  O  O20  1  0.964295  0.535705  0.535705  1
  O  O21  1  0.711268  0.293575  0.702970  1
