# generated using pymatgen
data_Nd4Cu(Si2Pt)5
_symmetry_space_group_name_H-M   'P 1'
_cell_length_a   8.26596650
_cell_length_b   8.26596652
_cell_length_c   8.26596809
_cell_angle_alpha   137.00289226
_cell_angle_beta   105.48575495
_cell_angle_gamma   90.09242273
_symmetry_Int_Tables_number   1
_chemical_formula_structural   Nd4Cu(Si2Pt)5
_chemical_formula_sum   'Nd4 Cu1 Si10 Pt5'
_cell_volume   354.12810455
_cell_formula_units_Z   1
loop_
 _symmetry_equiv_pos_site_id
 _symmetry_equiv_pos_as_xyz
  1  'x, y, z'
loop_
 _atom_site_type_symbol
 _atom_site_label
 _atom_site_symmetry_multiplicity
 _atom_site_fract_x
 _atom_site_fract_y
 _atom_site_fract_z
 _atom_site_occupancy
  Nd  Nd0  1  0.637819  0.874464  0.767759  1
  Nd  Nd1  1  0.362181  0.129940  0.236644  1
  Nd  Nd2  1  0.106705  0.370060  0.732241  1
  Nd  Nd3  1  0.893295  0.625536  0.263356  1
  Cu  Cu4  1  0.500000  0.250000  0.750000  1
  Si  Si5  1  0.269618  0.019618  0.750000  1
  Si  Si6  1  0.727742  0.977742  0.250000  1
  Si  Si7  1  0.730382  0.480382  0.750000  1
  Si  Si8  1  0.272258  0.522258  0.250000  1
  Si  Si9  1  0.466641  0.611433  0.849479  1
  Si  Si10  1  0.533359  0.382838  0.144792  1
  Si  Si11  1  0.761954  0.117162  0.650521  1
  Si  Si12  1  0.238046  0.888567  0.355208  1
  Si  Si13  1  0.000000  0.750000  0.750000  1
  Si  Si14  1  0.000000  0.250000  0.250000  1
  Pt  Pt15  1  0.246981  0.635788  0.610214  1
  Pt  Pt16  1  0.753019  0.363233  0.388807  1
  Pt  Pt17  1  0.025574  0.136767  0.889786  1
  Pt  Pt18  1  0.974426  0.864212  0.111193  1
  Pt  Pt19  1  0.500000  0.750000  0.250000  1
