# generated using pymatgen
data_Ti12Al7CuO4
_symmetry_space_group_name_H-M   'P 1'
_cell_length_a   6.89570430
_cell_length_b   6.89570407
_cell_length_c   6.89570548
_cell_angle_alpha   89.83816584
_cell_angle_beta   90.16183662
_cell_angle_gamma   90.16183333
_symmetry_Int_Tables_number   1
_chemical_formula_structural   Ti12Al7CuO4
_chemical_formula_sum   'Ti12 Al7 Cu1 O4'
_cell_volume   327.89195508
_cell_formula_units_Z   1
loop_
 _symmetry_equiv_pos_site_id
 _symmetry_equiv_pos_as_xyz
  1  'x, y, z'
loop_
 _atom_site_type_symbol
 _atom_site_label
 _atom_site_symmetry_multiplicity
 _atom_site_fract_x
 _atom_site_fract_y
 _atom_site_fract_z
 _atom_site_occupancy
  Ti  Ti0  1  0.790359  0.959631  0.374853  1
  Ti  Ti1  1  0.709291  0.042308  0.876090  1
  Ti  Ti2  1  0.210003  0.458719  0.124161  1
  Ti  Ti3  1  0.292602  0.541669  0.626842  1
  Ti  Ti4  1  0.957692  0.376090  0.790709  1
  Ti  Ti5  1  0.040369  0.874853  0.709641  1
  Ti  Ti6  1  0.458331  0.126842  0.207398  1
  Ti  Ti7  1  0.541281  0.624161  0.289997  1
  Ti  Ti8  1  0.375839  0.789997  0.958719  1
  Ti  Ti9  1  0.873158  0.707398  0.041669  1
  Ti  Ti10  1  0.125147  0.209641  0.459631  1
  Ti  Ti11  1  0.623910  0.290709  0.542308  1
  Al  Al12  1  0.320325  0.175543  0.821323  1
  Al  Al13  1  0.824457  0.321323  0.179675  1
  Al  Al14  1  0.678677  0.679675  0.675543  1
  Al  Al15  1  0.571317  0.428683  0.928683  1
  Al  Al16  1  0.418575  0.924885  0.561932  1
  Al  Al17  1  0.938068  0.581425  0.424885  1
  Al  Al18  1  0.075115  0.061932  0.081425  1
  Cu  Cu19  1  0.179488  0.820512  0.320512  1
  O  O20  1  0.876051  0.123949  0.623949  1
  O  O21  1  0.622640  0.875300  0.127391  1
  O  O22  1  0.124700  0.627391  0.877360  1
  O  O23  1  0.372609  0.377360  0.375300  1
