# generated using pymatgen
data_Dy3Al12Ru3Au
_symmetry_space_group_name_H-M   'P 1'
_cell_length_a   8.88373404
_cell_length_b   8.83731450
_cell_length_c   9.57278992
_cell_angle_alpha   90.00000113
_cell_angle_beta   90.04425372
_cell_angle_gamma   119.82730311
_symmetry_Int_Tables_number   1
_chemical_formula_structural   Dy3Al12Ru3Au
_chemical_formula_sum   'Dy6 Al24 Ru6 Au2'
_cell_volume   651.98556722
_cell_formula_units_Z   2
loop_
 _symmetry_equiv_pos_site_id
 _symmetry_equiv_pos_as_xyz
  1  'x, y, z'
loop_
 _atom_site_type_symbol
 _atom_site_label
 _atom_site_symmetry_multiplicity
 _atom_site_fract_x
 _atom_site_fract_y
 _atom_site_fract_z
 _atom_site_occupancy
  Dy  Dy0  1  0.191553  0.805425  0.246655  1
  Dy  Dy1  1  0.191553  0.386128  0.246655  1
  Dy  Dy2  1  0.615214  0.807607  0.251638  1
  Dy  Dy3  1  0.808447  0.194575  0.753345  1
  Dy  Dy4  1  0.808447  0.613872  0.753345  1
  Dy  Dy5  1  0.384786  0.192393  0.748362  1
  Al  Al6  1  0.564445  0.436510  0.242892  1
  Al  Al7  1  0.564445  0.127935  0.242892  1
  Al  Al8  1  0.878402  0.439201  0.250157  1
  Al  Al9  1  0.435555  0.563490  0.757108  1
  Al  Al10  1  0.435555  0.872065  0.757108  1
  Al  Al11  1  0.121598  0.560799  0.749843  1
  Al  Al12  1  0.317725  0.158862  0.415582  1
  Al  Al13  1  0.848777  0.171746  0.418237  1
  Al  Al14  1  0.848777  0.677030  0.418237  1
  Al  Al15  1  0.682275  0.841138  0.584418  1
  Al  Al16  1  0.151223  0.828254  0.581763  1
  Al  Al17  1  0.151223  0.322970  0.581763  1
  Al  Al18  1  0.673567  0.836784  0.927988  1
  Al  Al19  1  0.164030  0.836896  0.924331  1
  Al  Al20  1  0.164030  0.327134  0.924331  1
  Al  Al21  1  0.326433  0.163216  0.072012  1
  Al  Al22  1  0.835970  0.163104  0.075669  1
  Al  Al23  1  0.835970  0.672866  0.075669  1
  Al  Al24  1  0.679320  0.339659  0.528732  1
  Al  Al25  1  0.320680  0.660341  0.471268  1
  Al  Al26  1  0.334011  0.667006  0.026079  1
  Al  Al27  1  0.665989  0.332994  0.973921  1
  Al  Al28  1  0.996790  0.998395  0.249044  1
  Al  Al29  1  0.003210  0.001605  0.750956  1
  Ru  Ru30  1  0.000000  0.000000  0.500000  1
  Ru  Ru31  1  0.000000  0.000000  0.000000  1
  Ru  Ru32  1  0.000000  0.500000  0.500000  1
  Ru  Ru33  1  0.500000  0.500000  0.000000  1
  Ru  Ru34  1  0.500000  0.000000  0.000000  1
  Ru  Ru35  1  0.000000  0.500000  0.000000  1
  Au  Au36  1  0.500000  0.500000  0.500000  1
  Au  Au37  1  0.500000  0.000000  0.500000  1
