# generated using pymatgen
data_Tb3Lu7Co4
_symmetry_space_group_name_H-M   'P 1'
_cell_length_a   8.43246020
_cell_length_b   8.41788193
_cell_length_c   6.86997422
_cell_angle_alpha   83.62211790
_cell_angle_beta   83.60386316
_cell_angle_gamma   43.38713453
_symmetry_Int_Tables_number   1
_chemical_formula_structural   Tb3Lu7Co4
_chemical_formula_sum   'Tb3 Lu7 Co4'
_cell_volume   332.57230142
_cell_formula_units_Z   1
loop_
 _symmetry_equiv_pos_site_id
 _symmetry_equiv_pos_as_xyz
  1  'x, y, z'
loop_
 _atom_site_type_symbol
 _atom_site_label
 _atom_site_symmetry_multiplicity
 _atom_site_fract_x
 _atom_site_fract_y
 _atom_site_fract_z
 _atom_site_occupancy
  Tb  Tb0  1  0.014633  0.793756  0.413086  1
  Tb  Tb1  1  0.794273  0.014728  0.914117  1
  Tb  Tb2  1  0.986988  0.206252  0.586308  1
  Lu  Lu3  1  0.643690  0.786761  0.684783  1
  Lu  Lu4  1  0.213038  0.354540  0.817040  1
  Lu  Lu5  1  0.355372  0.212605  0.314873  1
  Lu  Lu6  1  0.784235  0.645356  0.183888  1
  Lu  Lu7  1  0.429951  0.570781  0.751030  1
  Lu  Lu8  1  0.570380  0.430536  0.249443  1
  Lu  Lu9  1  0.205600  0.986616  0.086107  1
  Co  Co10  1  0.402480  0.822206  0.425654  1
  Co  Co11  1  0.179560  0.596552  0.072299  1
  Co  Co12  1  0.595688  0.178959  0.572854  1
  Co  Co13  1  0.824113  0.400351  0.928516  1
