# generated using pymatgen
data_Er2Pa2TlPdPt3Pb
_symmetry_space_group_name_H-M   'P 1'
_cell_length_a   7.96150520
_cell_length_b   7.87779130
_cell_length_c   3.60787200
_cell_angle_alpha   90.00000000
_cell_angle_beta   90.00000000
_cell_angle_gamma   89.99693282
_symmetry_Int_Tables_number   1
_chemical_formula_structural   Er2Pa2TlPdPt3Pb
_chemical_formula_sum   'Er2 Pa2 Tl1 Pd1 Pt3 Pb1'
_cell_volume   226.28239933
_cell_formula_units_Z   1
loop_
 _symmetry_equiv_pos_site_id
 _symmetry_equiv_pos_as_xyz
  1  'x, y, z'
loop_
 _atom_site_type_symbol
 _atom_site_label
 _atom_site_symmetry_multiplicity
 _atom_site_fract_x
 _atom_site_fract_y
 _atom_site_fract_z
 _atom_site_occupancy
  Er  Er0  1  0.833266  0.676439  0.500000  1
  Er  Er1  1  0.324702  0.828216  0.500000  1
  Pa  Pa2  1  0.664499  0.161979  0.500000  1
  Pa  Pa3  1  0.174275  0.335038  0.500000  1
  Tl  Tl4  1  0.002033  0.994906  0.000000  1
  Pd  Pd5  1  0.868249  0.358562  0.000000  1
  Pt  Pt6  1  0.368629  0.137013  0.000000  1
  Pt  Pt7  1  0.125435  0.612128  0.000000  1
  Pt  Pt8  1  0.627011  0.883402  0.000000  1
  Pb  Pb9  1  0.511902  0.512318  0.000000  1
