# generated using pymatgen
data_Ce3Al2Sn2Ge
_symmetry_space_group_name_H-M   'P 1'
_cell_length_a   8.21788321
_cell_length_b   8.21690826
_cell_length_c   8.21788500
_cell_angle_alpha   119.50423646
_cell_angle_beta   119.50792033
_cell_angle_gamma   90.86109496
_symmetry_Int_Tables_number   1
_chemical_formula_structural   Ce3Al2Sn2Ge
_chemical_formula_sum   'Ce6 Al4 Sn4 Ge2'
_cell_volume   395.25535745
_cell_formula_units_Z   2
loop_
 _symmetry_equiv_pos_site_id
 _symmetry_equiv_pos_as_xyz
  1  'x, y, z'
loop_
 _atom_site_type_symbol
 _atom_site_label
 _atom_site_symmetry_multiplicity
 _atom_site_fract_x
 _atom_site_fract_y
 _atom_site_fract_z
 _atom_site_occupancy
  Ce  Ce0  1  0.753833  0.754488  0.999313  1
  Ce  Ce1  1  0.255176  0.254488  0.000657  1
  Ce  Ce2  1  0.342754  0.843053  0.175203  1
  Ce  Ce3  1  0.666425  0.166893  0.824097  1
  Ce  Ce4  1  0.842797  0.666893  0.500467  1
  Ce  Ce5  1  0.167848  0.343053  0.500298  1
  Al  Al6  1  0.043009  0.543252  0.227194  1
  Al  Al7  1  0.316666  0.817009  0.772793  1
  Al  Al8  1  0.544216  0.317009  0.500344  1
  Al  Al9  1  0.816058  0.043252  0.500242  1
  Sn  Sn10  1  0.958259  0.458096  0.798746  1
  Sn  Sn11  1  0.660657  0.160499  0.201898  1
  Sn  Sn12  1  0.458601  0.660499  0.499842  1
  Sn  Sn13  1  0.159351  0.958096  0.499837  1
  Ge  Ge14  1  0.005267  0.006710  0.997628  1
  Ge  Ge15  1  0.509082  0.506710  0.001443  1
