# generated using pymatgen
data_CaEr(Ga2Ag)2
_symmetry_space_group_name_H-M   'P 1'
_cell_length_a   4.36078900
_cell_length_b   6.98438072
_cell_length_c   10.38961573
_cell_angle_alpha   90.72041419
_cell_angle_beta   90.00000000
_cell_angle_gamma   90.00000000
_symmetry_Int_Tables_number   1
_chemical_formula_structural   CaEr(Ga2Ag)2
_chemical_formula_sum   'Ca2 Er2 Ga8 Ag4'
_cell_volume   316.41577869
_cell_formula_units_Z   2
loop_
 _symmetry_equiv_pos_site_id
 _symmetry_equiv_pos_as_xyz
  1  'x, y, z'
loop_
 _atom_site_type_symbol
 _atom_site_label
 _atom_site_symmetry_multiplicity
 _atom_site_fract_x
 _atom_site_fract_y
 _atom_site_fract_z
 _atom_site_occupancy
  Ca  Ca0  1  0.750000  0.724231  0.327430  1
  Ca  Ca1  1  0.250000  0.275769  0.672570  1
  Er  Er2  1  0.250000  0.776811  0.828558  1
  Er  Er3  1  0.750000  0.223189  0.171442  1
  Ga  Ga4  1  0.250000  0.702803  0.535977  1
  Ga  Ga5  1  0.750000  0.297197  0.464023  1
  Ga  Ga6  1  0.750000  0.797026  0.034811  1
  Ga  Ga7  1  0.250000  0.202974  0.965189  1
  Ga  Ga8  1  0.250000  0.928881  0.150719  1
  Ga  Ga9  1  0.750000  0.071119  0.849281  1
  Ga  Ga10  1  0.750000  0.574017  0.652815  1
  Ga  Ga11  1  0.250000  0.425983  0.347185  1
  Ag  Ag12  1  0.250000  0.542562  0.098545  1
  Ag  Ag13  1  0.750000  0.457438  0.901455  1
  Ag  Ag14  1  0.750000  0.958593  0.599099  1
  Ag  Ag15  1  0.250000  0.041407  0.400901  1
