# generated using pymatgen
data_HfZr3CuRh
_symmetry_space_group_name_H-M   'P 1'
_cell_length_a   3.26538700
_cell_length_b   3.26538700
_cell_length_c   10.94042900
_cell_angle_alpha   90.00000000
_cell_angle_beta   90.00000000
_cell_angle_gamma   90.00000000
_symmetry_Int_Tables_number   1
_chemical_formula_structural   HfZr3CuRh
_chemical_formula_sum   'Hf1 Zr3 Cu1 Rh1'
_cell_volume   116.65508404
_cell_formula_units_Z   1
loop_
 _symmetry_equiv_pos_site_id
 _symmetry_equiv_pos_as_xyz
  1  'x, y, z'
loop_
 _atom_site_type_symbol
 _atom_site_label
 _atom_site_symmetry_multiplicity
 _atom_site_fract_x
 _atom_site_fract_y
 _atom_site_fract_z
 _atom_site_occupancy
  Hf  Hf0  1  0.500000  0.500000  0.152181  1
  Zr  Zr1  1  0.000000  0.000000  0.656836  1
  Zr  Zr2  1  0.000000  0.000000  0.339379  1
  Zr  Zr3  1  0.500000  0.500000  0.847755  1
  Cu  Cu4  1  0.500000  0.500000  0.498492  1
  Rh  Rh5  1  0.000000  0.000000  0.005357  1
