# generated using pymatgen
data_Th3Ga2IrRh2Au
_symmetry_space_group_name_H-M   'P 1'
_cell_length_a   7.41475017
_cell_length_b   7.68408041
_cell_length_c   3.91175300
_cell_angle_alpha   90.00000000
_cell_angle_beta   90.00000000
_cell_angle_gamma   121.32877583
_symmetry_Int_Tables_number   1
_chemical_formula_structural   Th3Ga2IrRh2Au
_chemical_formula_sum   'Th3 Ga2 Ir1 Rh2 Au1'
_cell_volume   190.37867413
_cell_formula_units_Z   1
loop_
 _symmetry_equiv_pos_site_id
 _symmetry_equiv_pos_as_xyz
  1  'x, y, z'
loop_
 _atom_site_type_symbol
 _atom_site_label
 _atom_site_symmetry_multiplicity
 _atom_site_fract_x
 _atom_site_fract_y
 _atom_site_fract_z
 _atom_site_occupancy
  Th  Th0  1  0.000509  0.406475  0.500000  1
  Th  Th1  1  0.601986  0.599829  0.500000  1
  Th  Th2  1  0.397275  0.994345  0.500000  1
  Ga  Ga3  1  0.253782  0.253024  0.000000  1
  Ga  Ga4  1  0.746804  0.000032  0.000000  1
  Ir  Ir5  1  0.346691  0.655352  0.000000  1
  Rh  Rh6  1  0.653404  0.306829  0.000000  1
  Rh  Rh7  1  0.000059  0.036642  0.500000  1
  Au  Au8  1  0.999490  0.747473  0.000000  1
