# generated using pymatgen
data_Sr4Lu2IrRhO12
_symmetry_space_group_name_H-M   'P 1'
_cell_length_a   5.77591148
_cell_length_b   5.79142172
_cell_length_c   8.17401744
_cell_angle_alpha   89.85938032
_cell_angle_beta   90.26744933
_cell_angle_gamma   90.04167929
_symmetry_Int_Tables_number   1
_chemical_formula_structural   Sr4Lu2IrRhO12
_chemical_formula_sum   'Sr4 Lu2 Ir1 Rh1 O12'
_cell_volume   273.42305353
_cell_formula_units_Z   1
loop_
 _symmetry_equiv_pos_site_id
 _symmetry_equiv_pos_as_xyz
  1  'x, y, z'
loop_
 _atom_site_type_symbol
 _atom_site_label
 _atom_site_symmetry_multiplicity
 _atom_site_fract_x
 _atom_site_fract_y
 _atom_site_fract_z
 _atom_site_occupancy
  Sr  Sr0  1  0.506645  0.533775  0.240874  1
  Sr  Sr1  1  0.994838  0.028173  0.242677  1
  Sr  Sr2  1  0.493354  0.466224  0.759127  1
  Sr  Sr3  1  0.005163  0.971827  0.757324  1
  Lu  Lu4  1  0.000000  0.500000  0.000000  1
  Lu  Lu5  1  0.499999  0.000000  0.500001  1
  Ir  Ir6  1  0.000000  0.500000  0.500000  1
  Rh  Rh7  1  0.500001  0.000000  0.000000  1
  O  O8  1  0.435203  0.986471  0.241476  1
  O  O9  1  0.063757  0.488465  0.264041  1
  O  O10  1  0.564798  0.013529  0.758525  1
  O  O11  1  0.936244  0.511536  0.735960  1
  O  O12  1  0.292515  0.725880  0.966831  1
  O  O13  1  0.202075  0.229142  0.534682  1
  O  O14  1  0.707484  0.274121  0.033168  1
  O  O15  1  0.797924  0.770857  0.465317  1
  O  O16  1  0.227095  0.209753  0.967049  1
  O  O17  1  0.269002  0.703961  0.534354  1
  O  O18  1  0.772905  0.790247  0.032951  1
  O  O19  1  0.730998  0.296040  0.465647  1
