# generated using pymatgen
data_FeH6F8
_symmetry_space_group_name_H-M   'P 1'
_cell_length_a   3.85846251
_cell_length_b   5.21892408
_cell_length_c   9.17090790
_cell_angle_alpha   98.11596500
_cell_angle_beta   104.57873348
_cell_angle_gamma   95.41088657
_symmetry_Int_Tables_number   1
_chemical_formula_structural   FeH6F8
_chemical_formula_sum   'Fe1 H6 F8'
_cell_volume   175.30658371
_cell_formula_units_Z   1
loop_
 _symmetry_equiv_pos_site_id
 _symmetry_equiv_pos_as_xyz
  1  'x, y, z'
loop_
 _atom_site_type_symbol
 _atom_site_label
 _atom_site_symmetry_multiplicity
 _atom_site_fract_x
 _atom_site_fract_y
 _atom_site_fract_z
 _atom_site_occupancy
  Fe  Fe0  1  0.180379  0.265438  0.100924  1
  H  H1  1  0.688689  0.688281  0.655840  1
  H  H2  1  0.861653  0.813595  0.891656  1
  H  H3  1  0.562847  0.615822  0.406329  1
  H  H4  1  0.311264  0.925154  0.311561  1
  H  H5  1  0.937199  0.344805  0.560728  1
  H  H6  1  0.079896  0.269043  0.763931  1
  F  F7  1  0.059058  0.201779  0.605652  1
  F  F8  1  0.265989  0.109370  0.312507  1
  F  F9  1  0.065756  0.346577  0.867773  1
  F  F10  1  0.029857  0.862493  0.997446  1
  F  F11  1  0.383099  0.657864  0.306674  1
  F  F12  1  0.772712  0.571870  0.528847  1
  F  F13  1  0.612134  0.771253  0.748087  1
  F  F14  1  0.691781  0.319492  0.109771  1
