# generated using pymatgen
data_Dy3Ho(GaAu)4
_symmetry_space_group_name_H-M   'P 1'
_cell_length_a   4.51603400
_cell_length_b   7.14939356
_cell_length_c   7.75187013
_cell_angle_alpha   90.00276106
_cell_angle_beta   90.00000000
_cell_angle_gamma   90.00000000
_symmetry_Int_Tables_number   1
_chemical_formula_structural   Dy3Ho(GaAu)4
_chemical_formula_sum   'Dy3 Ho1 Ga4 Au4'
_cell_volume   250.28388957
_cell_formula_units_Z   1
loop_
 _symmetry_equiv_pos_site_id
 _symmetry_equiv_pos_as_xyz
  1  'x, y, z'
loop_
 _atom_site_type_symbol
 _atom_site_label
 _atom_site_symmetry_multiplicity
 _atom_site_fract_x
 _atom_site_fract_y
 _atom_site_fract_z
 _atom_site_occupancy
  Dy  Dy0  1  0.250000  0.501241  0.710597  1
  Dy  Dy1  1  0.750000  0.998716  0.210236  1
  Dy  Dy2  1  0.750000  0.498683  0.289624  1
  Ho  Ho3  1  0.250000  0.001160  0.789306  1
  Ga  Ga4  1  0.250000  0.190182  0.415638  1
  Ga  Ga5  1  0.250000  0.690212  0.084438  1
  Ga  Ga6  1  0.750000  0.810167  0.584673  1
  Ga  Ga7  1  0.750000  0.310051  0.915473  1
  Au  Au8  1  0.250000  0.787041  0.415178  1
  Au  Au9  1  0.250000  0.286215  0.084574  1
  Au  Au10  1  0.750000  0.212201  0.585613  1
  Au  Au11  1  0.750000  0.714130  0.914650  1
