# generated using pymatgen
data_Mn2AlSbO6
_symmetry_space_group_name_H-M   'P 1'
_cell_length_a   5.20583298
_cell_length_b   5.20577877
_cell_length_c   5.72457643
_cell_angle_alpha   62.95469591
_cell_angle_beta   117.04491405
_cell_angle_gamma   119.99916883
_symmetry_Int_Tables_number   1
_chemical_formula_structural   Mn2AlSbO6
_chemical_formula_sum   'Mn2 Al1 Sb1 O6'
_cell_volume   114.34685813
_cell_formula_units_Z   1
loop_
 _symmetry_equiv_pos_site_id
 _symmetry_equiv_pos_as_xyz
  1  'x, y, z'
loop_
 _atom_site_type_symbol
 _atom_site_label
 _atom_site_symmetry_multiplicity
 _atom_site_fract_x
 _atom_site_fract_y
 _atom_site_fract_z
 _atom_site_occupancy
  Mn  Mn0  1  0.863502  0.136491  0.590513  1
  Mn  Mn1  1  0.136078  0.863942  0.408236  1
  Al  Al2  1  0.655580  0.344422  0.966791  1
  Sb  Sb3  1  0.343555  0.656424  0.030637  1
  O  O4  1  0.459042  0.280496  0.227612  1
  O  O5  1  0.049077  0.540961  0.227604  1
  O  O6  1  0.719486  0.950929  0.227606  1
  O  O7  1  0.546712  0.704640  0.773666  1
  O  O8  1  0.931598  0.453287  0.773669  1
  O  O9  1  0.295370  0.068407  0.773668  1
