# generated using pymatgen
data_Rb3Ho7Se12
_symmetry_space_group_name_H-M   'P 1'
_cell_length_a   4.16393400
_cell_length_b   12.84796100
_cell_length_c   26.15086100
_cell_angle_alpha   90.00000000
_cell_angle_beta   90.00000000
_cell_angle_gamma   90.00000000
_symmetry_Int_Tables_number   1
_chemical_formula_structural   Rb3Ho7Se12
_chemical_formula_sum   'Rb6 Ho14 Se24'
_cell_volume   1399.02037368
_cell_formula_units_Z   2
loop_
 _symmetry_equiv_pos_site_id
 _symmetry_equiv_pos_as_xyz
  1  'x, y, z'
loop_
 _atom_site_type_symbol
 _atom_site_label
 _atom_site_symmetry_multiplicity
 _atom_site_fract_x
 _atom_site_fract_y
 _atom_site_fract_z
 _atom_site_occupancy
  Rb  Rb0  1  0.500000  0.535570  0.132507  1
  Rb  Rb1  1  0.500000  0.956090  0.863575  1
  Rb  Rb2  1  0.000000  0.043910  0.363575  1
  Rb  Rb3  1  0.000000  0.464430  0.632507  1
  Rb  Rb4  1  0.500000  0.808370  0.471439  1
  Rb  Rb5  1  0.000000  0.191630  0.971439  1
  Ho  Ho6  1  0.500000  0.468677  0.417828  1
  Ho  Ho7  1  0.500000  0.031992  0.583932  1
  Ho  Ho8  1  0.000000  0.968008  0.083932  1
  Ho  Ho9  1  0.000000  0.531323  0.917828  1
  Ho  Ho10  1  0.000000  0.249432  0.499847  1
  Ho  Ho11  1  0.500000  0.750568  0.999847  1
  Ho  Ho12  1  0.500000  0.329031  0.817070  1
  Ho  Ho13  1  0.500000  0.173486  0.181745  1
  Ho  Ho14  1  0.000000  0.826514  0.681745  1
  Ho  Ho15  1  0.000000  0.670969  0.317070  1
  Ho  Ho16  1  0.500000  0.657397  0.788249  1
  Ho  Ho17  1  0.500000  0.842754  0.211606  1
  Ho  Ho18  1  0.000000  0.157246  0.711606  1
  Ho  Ho19  1  0.000000  0.342603  0.288249  1
  Se  Se20  1  0.500000  0.398214  0.519124  1
  Se  Se21  1  0.500000  0.095552  0.480216  1
  Se  Se22  1  0.000000  0.904448  0.980216  1
  Se  Se23  1  0.000000  0.601786  0.019124  1
  Se  Se24  1  0.500000  0.303489  0.710708  1
  Se  Se25  1  0.500000  0.196211  0.288946  1
  Se  Se26  1  0.000000  0.803789  0.788946  1
  Se  Se27  1  0.000000  0.696511  0.210708  1
  Se  Se28  1  0.500000  0.677919  0.679237  1
  Se  Se29  1  0.500000  0.822063  0.322653  1
  Se  Se30  1  0.000000  0.177937  0.822653  1
  Se  Se31  1  0.000000  0.322081  0.179237  1
  Se  Se32  1  0.500000  0.379072  0.922722  1
  Se  Se33  1  0.500000  0.120062  0.076383  1
  Se  Se34  1  0.000000  0.879938  0.576383  1
  Se  Se35  1  0.000000  0.620928  0.422722  1
  Se  Se36  1  0.500000  0.505255  0.303760  1
  Se  Se37  1  0.500000  0.994662  0.696704  1
  Se  Se38  1  0.000000  0.005338  0.196704  1
  Se  Se39  1  0.000000  0.494745  0.803760  1
  Se  Se40  1  0.500000  0.679671  0.896763  1
  Se  Se41  1  0.500000  0.818761  0.103448  1
  Se  Se42  1  0.000000  0.181239  0.603448  1
  Se  Se43  1  0.000000  0.320329  0.396763  1
