# generated using pymatgen
data_Rb3NbP2O9
_symmetry_space_group_name_H-M   'P 1'
_cell_length_a   17.93559100
_cell_length_b   5.29444268
_cell_length_c   9.94017700
_cell_angle_alpha   89.92385729
_cell_angle_beta   90.00000000
_cell_angle_gamma   90.00000000
_symmetry_Int_Tables_number   1
_chemical_formula_structural   Rb3NbP2O9
_chemical_formula_sum   'Rb12 Nb4 P8 O36'
_cell_volume   943.90802068
_cell_formula_units_Z   4
loop_
 _symmetry_equiv_pos_site_id
 _symmetry_equiv_pos_as_xyz
  1  'x, y, z'
loop_
 _atom_site_type_symbol
 _atom_site_label
 _atom_site_symmetry_multiplicity
 _atom_site_fract_x
 _atom_site_fract_y
 _atom_site_fract_z
 _atom_site_occupancy
  Rb  Rb0  1  0.863257  0.758606  0.080654  1
  Rb  Rb1  1  0.636743  0.758606  0.580654  1
  Rb  Rb2  1  0.429534  0.255224  0.038791  1
  Rb  Rb3  1  0.363257  0.241394  0.419346  1
  Rb  Rb4  1  0.136743  0.241394  0.919346  1
  Rb  Rb5  1  0.707061  0.248434  0.963793  1
  Rb  Rb6  1  0.207061  0.751566  0.536207  1
  Rb  Rb7  1  0.292939  0.751566  0.036207  1
  Rb  Rb8  1  0.792939  0.248434  0.463793  1
  Rb  Rb9  1  0.070466  0.255224  0.538791  1
  Rb  Rb10  1  0.570466  0.744776  0.961209  1
  Rb  Rb11  1  0.929534  0.744776  0.461209  1
  Nb  Nb12  1  0.411089  0.763590  0.685803  1
  Nb  Nb13  1  0.588911  0.236410  0.314197  1
  Nb  Nb14  1  0.911089  0.236410  0.814197  1
  Nb  Nb15  1  0.088911  0.763590  0.185803  1
  P  P16  1  0.710383  0.744573  0.264773  1
  P  P17  1  0.210383  0.255427  0.235227  1
  P  P18  1  0.961593  0.263178  0.168773  1
  P  P19  1  0.461593  0.736822  0.331227  1
  P  P20  1  0.789617  0.744573  0.764773  1
  P  P21  1  0.038407  0.736822  0.831227  1
  P  P22  1  0.289617  0.255427  0.735227  1
  P  P23  1  0.538407  0.263178  0.668773  1
  O  O24  1  0.420193  0.773464  0.864332  1
  O  O25  1  0.404498  0.745396  0.447520  1
  O  O26  1  0.701032  0.747861  0.113540  1
  O  O27  1  0.298968  0.252139  0.886460  1
  O  O28  1  0.071524  0.771571  0.692197  1
  O  O29  1  0.977381  0.942183  0.859111  1
  O  O30  1  0.595502  0.254604  0.552480  1
  O  O31  1  0.079807  0.773464  0.364332  1
  O  O32  1  0.662018  0.522163  0.329094  1
  O  O33  1  0.289481  0.280312  0.183519  1
  O  O34  1  0.710519  0.719688  0.816481  1
  O  O35  1  0.522619  0.942183  0.359111  1
  O  O36  1  0.837982  0.522163  0.829094  1
  O  O37  1  0.095502  0.745396  0.947520  1
  O  O38  1  0.022619  0.057817  0.140889  1
  O  O39  1  0.497741  0.525381  0.659043  1
  O  O40  1  0.920193  0.226536  0.635668  1
  O  O41  1  0.675769  0.993083  0.329724  1
  O  O42  1  0.904498  0.254604  0.052480  1
  O  O43  1  0.210519  0.280312  0.683519  1
  O  O44  1  0.428476  0.771571  0.192197  1
  O  O45  1  0.324231  0.006917  0.670276  1
  O  O46  1  0.789481  0.719688  0.316481  1
  O  O47  1  0.824231  0.993083  0.829724  1
  O  O48  1  0.162018  0.477837  0.170906  1
  O  O49  1  0.798968  0.747861  0.613540  1
  O  O50  1  0.928476  0.228429  0.307803  1
  O  O51  1  0.201032  0.252139  0.386460  1
  O  O52  1  0.175769  0.006917  0.170276  1
  O  O53  1  0.997741  0.474619  0.840957  1
  O  O54  1  0.502259  0.474619  0.340957  1
  O  O55  1  0.477381  0.057817  0.640889  1
  O  O56  1  0.579807  0.226536  0.135668  1
  O  O57  1  0.002259  0.525381  0.159043  1
  O  O58  1  0.571524  0.228429  0.807803  1
  O  O59  1  0.337982  0.477837  0.670906  1
