# generated using pymatgen
data_Nd4NiTe2
_symmetry_space_group_name_H-M   'P 1'
_cell_length_a   16.02209200
_cell_length_b   4.23969100
_cell_length_c   12.09172700
_cell_angle_alpha   90.00000000
_cell_angle_beta   90.00000000
_cell_angle_gamma   90.00000000
_symmetry_Int_Tables_number   1
_chemical_formula_structural   Nd4NiTe2
_chemical_formula_sum   'Nd16 Ni4 Te8'
_cell_volume   821.37552867
_cell_formula_units_Z   4
loop_
 _symmetry_equiv_pos_site_id
 _symmetry_equiv_pos_as_xyz
  1  'x, y, z'
loop_
 _atom_site_type_symbol
 _atom_site_label
 _atom_site_symmetry_multiplicity
 _atom_site_fract_x
 _atom_site_fract_y
 _atom_site_fract_z
 _atom_site_occupancy
  Nd  Nd0  1  0.896740  0.249999  0.035104  1
  Nd  Nd1  1  0.603259  0.750000  0.535104  1
  Nd  Nd2  1  0.396741  0.249999  0.464897  1
  Nd  Nd3  1  0.223100  0.750000  0.629850  1
  Nd  Nd4  1  0.276900  0.249999  0.129850  1
  Nd  Nd5  1  0.958923  0.750000  0.298690  1
  Nd  Nd6  1  0.541078  0.249999  0.798690  1
  Nd  Nd7  1  0.458923  0.750000  0.201310  1
  Nd  Nd8  1  0.041077  0.249999  0.701310  1
  Nd  Nd9  1  0.871062  0.750000  0.584761  1
  Nd  Nd10  1  0.628937  0.249999  0.084761  1
  Nd  Nd11  1  0.371063  0.750000  0.915239  1
  Nd  Nd12  1  0.128937  0.249999  0.415239  1
  Nd  Nd13  1  0.103260  0.750000  0.964897  1
  Nd  Nd14  1  0.723100  0.750000  0.870150  1
  Nd  Nd15  1  0.776900  0.249999  0.370150  1
  Ni  Ni16  1  0.955490  0.249999  0.473152  1
  Ni  Ni17  1  0.544510  0.750000  0.973152  1
  Ni  Ni18  1  0.455490  0.249999  0.026848  1
  Ni  Ni19  1  0.044510  0.750000  0.526848  1
  Te  Te20  1  0.720268  0.249999  0.655916  1
  Te  Te21  1  0.779732  0.750000  0.155916  1
  Te  Te22  1  0.220268  0.249999  0.844083  1
  Te  Te23  1  0.279733  0.750000  0.344084  1
  Te  Te24  1  0.925906  0.750000  0.845082  1
  Te  Te25  1  0.574095  0.249999  0.345083  1
  Te  Te26  1  0.425906  0.750000  0.654918  1
  Te  Te27  1  0.074094  0.249999  0.154918  1
