# generated using pymatgen
data_Tm4Sc8Fe3Pb2
_symmetry_space_group_name_H-M   'P 1'
_cell_length_a   7.98090602
_cell_length_b   7.98090527
_cell_length_c   7.98090675
_cell_angle_alpha   108.15598197
_cell_angle_beta   108.15597354
_cell_angle_gamma   112.13500317
_symmetry_Int_Tables_number   1
_chemical_formula_structural   Tm4Sc8Fe3Pb2
_chemical_formula_sum   'Tm4 Sc8 Fe3 Pb2'
_cell_volume   390.68475473
_cell_formula_units_Z   1
loop_
 _symmetry_equiv_pos_site_id
 _symmetry_equiv_pos_as_xyz
  1  'x, y, z'
loop_
 _atom_site_type_symbol
 _atom_site_label
 _atom_site_symmetry_multiplicity
 _atom_site_fract_x
 _atom_site_fract_y
 _atom_site_fract_z
 _atom_site_occupancy
  Tm  Tm0  1  0.303621  0.303621  0.607242  1
  Tm  Tm1  1  0.696379  0.696379  0.392758  1
  Tm  Tm2  1  0.696379  0.303621  0.000000  1
  Tm  Tm3  1  0.303621  0.696379  0.000000  1
  Sc  Sc4  1  0.191895  0.421202  0.229307  1
  Sc  Sc5  1  0.808105  0.578798  0.770693  1
  Sc  Sc6  1  0.191895  0.962588  0.770693  1
  Sc  Sc7  1  0.962588  0.191895  0.770693  1
  Sc  Sc8  1  0.808105  0.037412  0.229307  1
  Sc  Sc9  1  0.037412  0.808105  0.229307  1
  Sc  Sc10  1  0.421202  0.191895  0.229307  1
  Sc  Sc11  1  0.578798  0.808105  0.770693  1
  Fe  Fe12  1  0.378940  0.378940  0.000000  1
  Fe  Fe13  1  0.621060  0.621060  0.000000  1
  Fe  Fe14  1  0.000000  0.000000  0.000000  1
  Pb  Pb15  1  0.000000  0.500000  0.500000  1
  Pb  Pb16  1  0.500000  0.000000  0.500000  1
