# generated using pymatgen
data_Gd3Tm2LuTa2O14
_symmetry_space_group_name_H-M   'P 1'
_cell_length_a   6.44152649
_cell_length_b   6.47141957
_cell_length_c   7.49714225
_cell_angle_alpha   89.99577575
_cell_angle_beta   90.03857868
_cell_angle_gamma   108.86188174
_symmetry_Int_Tables_number   1
_chemical_formula_structural   Gd3Tm2LuTa2O14
_chemical_formula_sum   'Gd3 Tm2 Lu1 Ta2 O14'
_cell_volume   295.74209197
_cell_formula_units_Z   1
loop_
 _symmetry_equiv_pos_site_id
 _symmetry_equiv_pos_as_xyz
  1  'x, y, z'
loop_
 _atom_site_type_symbol
 _atom_site_label
 _atom_site_symmetry_multiplicity
 _atom_site_fract_x
 _atom_site_fract_y
 _atom_site_fract_z
 _atom_site_occupancy
  Gd  Gd0  1  0.998890  0.532978  0.244850  1
  Gd  Gd1  1  0.473954  0.470370  0.997906  1
  Gd  Gd2  1  0.516933  0.521781  0.500337  1
  Tm  Tm3  1  0.533875  0.000766  0.755196  1
  Tm  Tm4  1  0.998766  0.465431  0.744093  1
  Lu  Lu5  1  0.466797  0.997809  0.255330  1
  Ta  Ta6  1  0.002166  0.001342  0.500567  1
  Ta  Ta7  1  0.997248  0.997108  0.998098  1
  O  O8  1  0.925049  0.065922  0.749594  1
  O  O9  1  0.641076  0.355106  0.749651  1
  O  O10  1  0.314089  0.049457  0.541355  1
  O  O11  1  0.939243  0.687129  0.954445  1
  O  O12  1  0.622242  0.358146  0.252541  1
  O  O13  1  0.919461  0.675109  0.532774  1
  O  O14  1  0.328074  0.073383  0.972559  1
  O  O15  1  0.083636  0.329146  0.019359  1
  O  O16  1  0.675410  0.928313  0.466942  1
  O  O17  1  0.368033  0.635676  0.750632  1
  O  O18  1  0.689872  0.951880  0.046576  1
  O  O19  1  0.071697  0.320109  0.469370  1
  O  O20  1  0.363478  0.645515  0.247960  1
  O  O21  1  0.070012  0.937522  0.249865  1
