# generated using pymatgen
data_KTc(Sb4Pd)3
_symmetry_space_group_name_H-M   'P 1'
_cell_length_a   8.26860299
_cell_length_b   8.33631020
_cell_length_c   8.26860287
_cell_angle_alpha   109.63719146
_cell_angle_beta   109.30475394
_cell_angle_gamma   109.63717569
_symmetry_Int_Tables_number   1
_chemical_formula_structural   KTc(Sb4Pd)3
_chemical_formula_sum   'K1 Tc1 Sb12 Pd3'
_cell_volume   437.84722039
_cell_formula_units_Z   1
loop_
 _symmetry_equiv_pos_site_id
 _symmetry_equiv_pos_as_xyz
  1  'x, y, z'
loop_
 _atom_site_type_symbol
 _atom_site_label
 _atom_site_symmetry_multiplicity
 _atom_site_fract_x
 _atom_site_fract_y
 _atom_site_fract_z
 _atom_site_occupancy
  K  K0  1  0.000000  0.000000  0.000000  1
  Tc  Tc1  1  0.000000  0.500000  0.000000  1
  Sb  Sb2  1  0.652699  0.808564  0.157745  1
  Sb  Sb3  1  0.849446  0.348148  0.187984  1
  Sb  Sb4  1  0.494955  0.844135  0.652699  1
  Sb  Sb5  1  0.842255  0.650820  0.494955  1
  Sb  Sb6  1  0.505045  0.155865  0.347301  1
  Sb  Sb7  1  0.150554  0.651852  0.812016  1
  Sb  Sb8  1  0.812016  0.160164  0.661462  1
  Sb  Sb9  1  0.187984  0.839836  0.338538  1
  Sb  Sb10  1  0.157745  0.349180  0.505045  1
  Sb  Sb11  1  0.661462  0.501298  0.849446  1
  Sb  Sb12  1  0.338538  0.498702  0.150554  1
  Sb  Sb13  1  0.347301  0.191436  0.842255  1
  Pd  Pd14  1  0.000000  0.000000  0.500000  1
  Pd  Pd15  1  0.500000  0.500000  0.500000  1
  Pd  Pd16  1  0.500000  0.000000  0.000000  1
