# generated using pymatgen
data_LaPIr2Au
_symmetry_space_group_name_H-M   'P 1'
_cell_length_a   4.05206300
_cell_length_b   4.05206300
_cell_length_c   11.28881600
_cell_angle_alpha   90.00000000
_cell_angle_beta   90.00000000
_cell_angle_gamma   90.00000000
_symmetry_Int_Tables_number   1
_chemical_formula_structural   LaPIr2Au
_chemical_formula_sum   'La2 P2 Ir4 Au2'
_cell_volume   185.35349199
_cell_formula_units_Z   2
loop_
 _symmetry_equiv_pos_site_id
 _symmetry_equiv_pos_as_xyz
  1  'x, y, z'
loop_
 _atom_site_type_symbol
 _atom_site_label
 _atom_site_symmetry_multiplicity
 _atom_site_fract_x
 _atom_site_fract_y
 _atom_site_fract_z
 _atom_site_occupancy
  La  La0  1  0.000000  0.500000  0.249597  1
  La  La1  1  0.500000  0.000000  0.750403  1
  P  P2  1  0.000000  0.500000  0.882851  1
  P  P3  1  0.500000  0.000000  0.117149  1
  Ir  Ir4  1  0.000000  0.000000  0.000000  1
  Ir  Ir5  1  0.500000  0.500000  0.000000  1
  Ir  Ir6  1  0.000000  0.500000  0.683002  1
  Ir  Ir7  1  0.500000  0.000000  0.316998  1
  Au  Au8  1  0.000000  0.000000  0.500000  1
  Au  Au9  1  0.500000  0.500000  0.500000  1
