# generated using pymatgen
data_Dy16In4Co3Ru
_symmetry_space_group_name_H-M   'P 1'
_cell_length_a   9.54324724
_cell_length_b   9.54374226
_cell_length_c   9.57242450
_cell_angle_alpha   60.13219291
_cell_angle_beta   60.12907948
_cell_angle_gamma   60.00524304
_symmetry_Int_Tables_number   1
_chemical_formula_structural   Dy16In4Co3Ru
_chemical_formula_sum   'Dy16 In4 Co3 Ru1'
_cell_volume   617.72308084
_cell_formula_units_Z   1
loop_
 _symmetry_equiv_pos_site_id
 _symmetry_equiv_pos_as_xyz
  1  'x, y, z'
loop_
 _atom_site_type_symbol
 _atom_site_label
 _atom_site_symmetry_multiplicity
 _atom_site_fract_x
 _atom_site_fract_y
 _atom_site_fract_z
 _atom_site_occupancy
  Dy  Dy0  1  0.149376  0.542604  0.154936  1
  Dy  Dy1  1  0.692489  0.312752  0.687174  1
  Dy  Dy2  1  0.690003  0.312203  0.310817  1
  Dy  Dy3  1  0.939030  0.560898  0.561347  1
  Dy  Dy4  1  0.542646  0.149417  0.154899  1
  Dy  Dy5  1  0.152153  0.152240  0.539143  1
  Dy  Dy6  1  0.938095  0.938096  0.561765  1
  Dy  Dy7  1  0.312192  0.689961  0.310796  1
  Dy  Dy8  1  0.559888  0.941624  0.938271  1
  Dy  Dy9  1  0.560893  0.939031  0.561340  1
  Dy  Dy10  1  0.689961  0.689869  0.312278  1
  Dy  Dy11  1  0.558061  0.558059  0.939721  1
  Dy  Dy12  1  0.941613  0.559883  0.938287  1
  Dy  Dy13  1  0.312754  0.692460  0.687212  1
  Dy  Dy14  1  0.151974  0.152061  0.157780  1
  Dy  Dy15  1  0.310476  0.310477  0.687761  1
  In  In16  1  0.918278  0.246597  0.917069  1
  In  In17  1  0.918236  0.918232  0.916768  1
  In  In18  1  0.918063  0.918062  0.246623  1
  In  In19  1  0.246601  0.918274  0.917066  1
  Co  Co20  1  0.359228  0.920239  0.358972  1
  Co  Co21  1  0.920240  0.359226  0.358964  1
  Co  Co22  1  0.358896  0.358897  0.359505  1
  Ru  Ru23  1  0.358855  0.358839  0.921507  1
