# generated using pymatgen
data_Rb3NaF12
_symmetry_space_group_name_H-M   'P 1'
_cell_length_a   6.98489697
_cell_length_b   4.96459182
_cell_length_c   8.69661044
_cell_angle_alpha   91.66609282
_cell_angle_beta   91.31347684
_cell_angle_gamma   90.39410553
_symmetry_Int_Tables_number   1
_chemical_formula_structural   Rb3NaF12
_chemical_formula_sum   'Rb3 Na1 F12'
_cell_volume   301.35848349
_cell_formula_units_Z   1
loop_
 _symmetry_equiv_pos_site_id
 _symmetry_equiv_pos_as_xyz
  1  'x, y, z'
loop_
 _atom_site_type_symbol
 _atom_site_label
 _atom_site_symmetry_multiplicity
 _atom_site_fract_x
 _atom_site_fract_y
 _atom_site_fract_z
 _atom_site_occupancy
  Rb  Rb0  1  0.268702  0.336891  0.871965  1
  Rb  Rb1  1  0.748746  0.819261  0.614632  1
  Rb  Rb2  1  0.770618  0.684400  0.141845  1
  Na  Na3  1  0.256000  0.247528  0.373029  1
  F  F4  1  0.079561  0.069277  0.131029  1
  F  F5  1  0.435691  0.455619  0.584062  1
  F  F6  1  0.548171  0.930289  0.906745  1
  F  F7  1  0.955107  0.467228  0.408973  1
  F  F8  1  0.565179  0.037816  0.345117  1
  F  F9  1  0.871386  0.449533  0.847692  1
  F  F10  1  0.139140  0.013694  0.594329  1
  F  F11  1  0.377056  0.518303  0.178422  1
  F  F12  1  0.226832  0.792212  0.153156  1
  F  F13  1  0.286946  0.736169  0.591435  1
  F  F14  1  0.709115  0.190805  0.880834  1
  F  F15  1  0.759325  0.250974  0.376736  1
