# generated using pymatgen
data_Er6Ti(Fe3Co8)2
_symmetry_space_group_name_H-M   'P 1'
_cell_length_a   8.38191686
_cell_length_b   8.38375411
_cell_length_c   8.38259001
_cell_angle_alpha   59.99985478
_cell_angle_beta   60.00009028
_cell_angle_gamma   59.99380321
_symmetry_Int_Tables_number   1
_chemical_formula_structural   Er6Ti(Fe3Co8)2
_chemical_formula_sum   'Er6 Ti1 Fe6 Co16'
_cell_volume   416.50918716
_cell_formula_units_Z   1
loop_
 _symmetry_equiv_pos_site_id
 _symmetry_equiv_pos_as_xyz
  1  'x, y, z'
loop_
 _atom_site_type_symbol
 _atom_site_label
 _atom_site_symmetry_multiplicity
 _atom_site_fract_x
 _atom_site_fract_y
 _atom_site_fract_z
 _atom_site_occupancy
  Er  Er0  1  0.712373  0.712570  0.287561  1
  Er  Er1  1  0.287599  0.712461  0.287477  1
  Er  Er2  1  0.712372  0.287499  0.287567  1
  Er  Er3  1  0.287627  0.287430  0.712439  1
  Er  Er4  1  0.712401  0.287539  0.712523  1
  Er  Er5  1  0.287628  0.712501  0.712433  1
  Ti  Ti6  1  0.000000  0.000000  0.000000  1
  Fe  Fe7  1  0.000000  0.000000  0.500000  1
  Fe  Fe8  1  0.500000  0.000000  0.500000  1
  Fe  Fe9  1  0.000000  0.500000  0.500000  1
  Fe  Fe10  1  0.500000  0.500000  0.000000  1
  Fe  Fe11  1  0.000000  0.500000  0.000000  1
  Fe  Fe12  1  0.500000  0.000000  0.000000  1
  Co  Co13  1  0.875832  0.875872  0.372404  1
  Co  Co14  1  0.875845  0.372441  0.875876  1
  Co  Co15  1  0.372421  0.875863  0.875854  1
  Co  Co16  1  0.875840  0.875835  0.875891  1
  Co  Co17  1  0.124168  0.124128  0.627596  1
  Co  Co18  1  0.124155  0.627559  0.124124  1
  Co  Co19  1  0.627579  0.124137  0.124146  1
  Co  Co20  1  0.124160  0.124165  0.124109  1
  Co  Co21  1  0.676565  0.676604  0.970251  1
  Co  Co22  1  0.676530  0.970243  0.676614  1
  Co  Co23  1  0.970215  0.676581  0.676626  1
  Co  Co24  1  0.676539  0.676625  0.676600  1
  Co  Co25  1  0.323435  0.323396  0.029749  1
  Co  Co26  1  0.323470  0.029757  0.323386  1
  Co  Co27  1  0.029785  0.323419  0.323374  1
  Co  Co28  1  0.323461  0.323375  0.323400  1
