# generated using pymatgen
data_YBi2WO7
_symmetry_space_group_name_H-M   'P 1'
_cell_length_a   6.46151937
_cell_length_b   6.82526680
_cell_length_c   7.65661600
_cell_angle_alpha   106.49132814
_cell_angle_beta   89.86715104
_cell_angle_gamma   99.05743878
_symmetry_Int_Tables_number   1
_chemical_formula_structural   YBi2WO7
_chemical_formula_sum   'Y2 Bi4 W2 O14'
_cell_volume   319.42075570
_cell_formula_units_Z   2
loop_
 _symmetry_equiv_pos_site_id
 _symmetry_equiv_pos_as_xyz
  1  'x, y, z'
loop_
 _atom_site_type_symbol
 _atom_site_label
 _atom_site_symmetry_multiplicity
 _atom_site_fract_x
 _atom_site_fract_y
 _atom_site_fract_z
 _atom_site_occupancy
  Y  Y0  1  0.545779  0.993643  0.747840  1
  Y  Y1  1  0.454221  0.006357  0.252160  1
  Bi  Bi2  1  0.252648  0.512503  0.880644  1
  Bi  Bi3  1  0.747352  0.487497  0.119356  1
  Bi  Bi4  1  0.729098  0.459855  0.610770  1
  Bi  Bi5  1  0.270902  0.540145  0.389230  1
  W  W6  1  0.000000  0.000000  0.500000  1
  W  W7  1  0.000000  0.000000  0.000000  1
  O  O8  1  0.460107  0.658624  0.178609  1
  O  O9  1  0.539893  0.341376  0.821391  1
  O  O10  1  0.286839  0.951036  0.949744  1
  O  O11  1  0.713161  0.048964  0.050256  1
  O  O12  1  0.290155  0.916250  0.510023  1
  O  O13  1  0.709845  0.083750  0.489977  1
  O  O14  1  0.526923  0.351522  0.348121  1
  O  O15  1  0.473077  0.648478  0.651879  1
  O  O16  1  0.914545  0.684442  0.953695  1
  O  O17  1  0.085455  0.315558  0.046305  1
  O  O18  1  0.101363  0.297080  0.614349  1
  O  O19  1  0.898637  0.702920  0.385651  1
  O  O20  1  0.901376  0.950808  0.737057  1
  O  O21  1  0.098624  0.049192  0.262943  1
