# generated using pymatgen
data_Yb5Ho(AgPb)3
_symmetry_space_group_name_H-M   'P 1'
_cell_length_a   5.24814514
_cell_length_b   7.36232007
_cell_length_c   15.74940400
_cell_angle_alpha   89.99307375
_cell_angle_beta   89.98672452
_cell_angle_gamma   90.00348487
_symmetry_Int_Tables_number   1
_chemical_formula_structural   Yb5Ho(AgPb)3
_chemical_formula_sum   'Yb10 Ho2 Ag6 Pb6'
_cell_volume   608.53370706
_cell_formula_units_Z   2
loop_
 _symmetry_equiv_pos_site_id
 _symmetry_equiv_pos_as_xyz
  1  'x, y, z'
loop_
 _atom_site_type_symbol
 _atom_site_label
 _atom_site_symmetry_multiplicity
 _atom_site_fract_x
 _atom_site_fract_y
 _atom_site_fract_z
 _atom_site_occupancy
  Yb  Yb0  1  0.000031  0.249270  0.169144  1
  Yb  Yb1  1  0.000062  0.750729  0.169153  1
  Yb  Yb2  1  0.499899  0.251646  0.332070  1
  Yb  Yb3  1  0.499993  0.748352  0.332069  1
  Yb  Yb4  1  0.999908  0.248893  0.500005  1
  Yb  Yb5  1  0.000090  0.751108  0.499995  1
  Yb  Yb6  1  0.500006  0.251648  0.667932  1
  Yb  Yb7  1  0.500099  0.748356  0.667931  1
  Yb  Yb8  1  0.999937  0.249270  0.830846  1
  Yb  Yb9  1  0.999969  0.750734  0.830855  1
  Ho  Ho10  1  0.500010  0.247561  0.000003  1
  Ho  Ho11  1  0.499989  0.752447  0.999995  1
  Ag  Ag12  1  0.000000  0.500000  0.999999  1
  Ag  Ag13  1  0.499904  0.999987  0.162832  1
  Ag  Ag14  1  0.999779  0.499904  0.334676  1
  Ag  Ag15  1  0.500001  0.000000  0.500001  1
  Ag  Ag16  1  0.000222  0.500097  0.665327  1
  Ag  Ag17  1  0.500092  0.000004  0.837167  1
  Pb  Pb18  1  0.000010  0.999987  0.999999  1
  Pb  Pb19  1  0.500078  0.500004  0.162599  1
  Pb  Pb20  1  0.999968  0.000010  0.333254  1
  Pb  Pb21  1  0.500003  0.500001  0.500001  1
  Pb  Pb22  1  0.000030  0.999991  0.666743  1
  Pb  Pb23  1  0.499922  0.500000  0.837409  1
