# generated using pymatgen
data_TbErAl20(RuRh)2
_symmetry_space_group_name_H-M   'P 1'
_cell_length_a   6.84668904
_cell_length_b   6.84287098
_cell_length_c   9.15183200
_cell_angle_alpha   90.00000000
_cell_angle_beta   90.00000000
_cell_angle_gamma   97.15139073
_symmetry_Int_Tables_number   1
_chemical_formula_structural   TbErAl20(RuRh)2
_chemical_formula_sum   'Tb1 Er1 Al20 Ru2 Rh2'
_cell_volume   425.43700884
_cell_formula_units_Z   1
loop_
 _symmetry_equiv_pos_site_id
 _symmetry_equiv_pos_as_xyz
  1  'x, y, z'
loop_
 _atom_site_type_symbol
 _atom_site_label
 _atom_site_symmetry_multiplicity
 _atom_site_fract_x
 _atom_site_fract_y
 _atom_site_fract_z
 _atom_site_occupancy
  Tb  Tb0  1  0.130237  0.874689  0.250000  1
  Er  Er1  1  0.869247  0.125540  0.750000  1
  Al  Al2  1  0.621326  0.375458  0.550031  1
  Al  Al3  1  0.378909  0.624323  0.450129  1
  Al  Al4  1  0.378909  0.624323  0.049871  1
  Al  Al5  1  0.621326  0.375458  0.949969  1
  Al  Al6  1  0.224895  0.223256  0.499233  1
  Al  Al7  1  0.774978  0.776883  0.501111  1
  Al  Al8  1  0.774978  0.776883  0.998889  1
  Al  Al9  1  0.224895  0.223256  0.000767  1
  Al  Al10  1  0.844108  0.154742  0.101381  1
  Al  Al11  1  0.155605  0.845540  0.898345  1
  Al  Al12  1  0.155605  0.845540  0.601655  1
  Al  Al13  1  0.844108  0.154742  0.398619  1
  Al  Al14  1  0.856774  0.588547  0.750000  1
  Al  Al15  1  0.143072  0.410938  0.250000  1
  Al  Al16  1  0.412361  0.141298  0.750000  1
  Al  Al17  1  0.588168  0.858792  0.250000  1
  Al  Al18  1  0.224180  0.480374  0.750000  1
  Al  Al19  1  0.775486  0.519213  0.250000  1
  Al  Al20  1  0.518923  0.778004  0.750000  1
  Al  Al21  1  0.481530  0.222316  0.250000  1
  Ru  Ru22  1  0.500137  0.000023  0.999663  1
  Ru  Ru23  1  0.500137  0.000023  0.500337  1
  Rh  Rh24  1  0.000052  0.499918  0.500190  1
  Rh  Rh25  1  0.000052  0.499918  0.999810  1
