# generated using pymatgen
data_KTb2YbB24
_symmetry_space_group_name_H-M   'P 1'
_cell_length_a   7.16209200
_cell_length_b   7.16209107
_cell_length_c   5.87027300
_cell_angle_alpha   90.00000000
_cell_angle_beta   90.00000000
_cell_angle_gamma   109.29635373
_symmetry_Int_Tables_number   1
_chemical_formula_structural   KTb2YbB24
_chemical_formula_sum   'K1 Tb2 Yb1 B24'
_cell_volume   284.20264923
_cell_formula_units_Z   1
loop_
 _symmetry_equiv_pos_site_id
 _symmetry_equiv_pos_as_xyz
  1  'x, y, z'
loop_
 _atom_site_type_symbol
 _atom_site_label
 _atom_site_symmetry_multiplicity
 _atom_site_fract_x
 _atom_site_fract_y
 _atom_site_fract_z
 _atom_site_occupancy
  K  K0  1  0.750633  0.249367  0.500000  1
  Tb  Tb1  1  0.502034  0.497966  0.000000  1
  Tb  Tb2  1  0.250446  0.749554  0.500000  1
  Yb  Yb3  1  0.997581  0.002419  0.000000  1
  B  B4  1  0.176537  0.326477  0.649085  1
  B  B5  1  0.926765  0.576441  0.149491  1
  B  B6  1  0.673523  0.823463  0.649085  1
  B  B7  1  0.423559  0.073235  0.149491  1
  B  B8  1  0.176537  0.326477  0.350915  1
  B  B9  1  0.926765  0.576441  0.850509  1
  B  B10  1  0.673523  0.823463  0.350915  1
  B  B11  1  0.423559  0.073235  0.850509  1
  B  B12  1  0.401273  0.398207  0.500000  1
  B  B13  1  0.149713  0.651262  0.000000  1
  B  B14  1  0.898157  0.900636  0.500000  1
  B  B15  1  0.648866  0.148112  0.000000  1
  B  B16  1  0.323978  0.174200  0.649152  1
  B  B17  1  0.076853  0.427254  0.149367  1
  B  B18  1  0.825800  0.676022  0.649152  1
  B  B19  1  0.572746  0.923147  0.149367  1
  B  B20  1  0.099364  0.101843  0.500000  1
  B  B21  1  0.851888  0.351134  0.000000  1
  B  B22  1  0.601793  0.598727  0.500000  1
  B  B23  1  0.348738  0.850287  0.000000  1
  B  B24  1  0.323978  0.174200  0.350848  1
  B  B25  1  0.076853  0.427254  0.850633  1
  B  B26  1  0.825800  0.676022  0.350848  1
  B  B27  1  0.572746  0.923147  0.850633  1
