# generated using pymatgen
data_PrSm2Cu2Pt7
_symmetry_space_group_name_H-M   'P 1'
_cell_length_a   9.10775032
_cell_length_b   9.10775119
_cell_length_c   9.10775000
_cell_angle_alpha   34.82796265
_cell_angle_beta   34.82795480
_cell_angle_gamma   34.82795524
_symmetry_Int_Tables_number   1
_chemical_formula_structural   PrSm2Cu2Pt7
_chemical_formula_sum   'Pr1 Sm2 Cu2 Pt7'
_cell_volume   219.96081049
_cell_formula_units_Z   1
loop_
 _symmetry_equiv_pos_site_id
 _symmetry_equiv_pos_as_xyz
  1  'x, y, z'
loop_
 _atom_site_type_symbol
 _atom_site_label
 _atom_site_symmetry_multiplicity
 _atom_site_fract_x
 _atom_site_fract_y
 _atom_site_fract_z
 _atom_site_occupancy
  Pr  Pr0  1  0.000000  0.000000  0.000000  1
  Sm  Sm1  1  0.860103  0.860103  0.860103  1
  Sm  Sm2  1  0.139897  0.139897  0.139897  1
  Cu  Cu3  1  0.666426  0.666426  0.666426  1
  Cu  Cu4  1  0.333574  0.333574  0.333574  1
  Pt  Pt5  1  0.416837  0.416837  0.922545  1
  Pt  Pt6  1  0.922545  0.416837  0.416837  1
  Pt  Pt7  1  0.416837  0.922545  0.416837  1
  Pt  Pt8  1  0.500000  0.500000  0.500000  1
  Pt  Pt9  1  0.583163  0.077455  0.583163  1
  Pt  Pt10  1  0.077455  0.583163  0.583163  1
  Pt  Pt11  1  0.583163  0.583163  0.077455  1
