# generated using pymatgen
data_TbHo11Co4BiOs
_symmetry_space_group_name_H-M   'P 1'
_cell_length_a   8.28882866
_cell_length_b   8.28891033
_cell_length_c   8.28759832
_cell_angle_alpha   111.41017579
_cell_angle_beta   110.36899298
_cell_angle_gamma   106.68019349
_symmetry_Int_Tables_number   1
_chemical_formula_structural   TbHo11Co4BiOs
_chemical_formula_sum   'Tb1 Ho11 Co4 Bi1 Os1'
_cell_volume   437.46648048
_cell_formula_units_Z   1
loop_
 _symmetry_equiv_pos_site_id
 _symmetry_equiv_pos_as_xyz
  1  'x, y, z'
loop_
 _atom_site_type_symbol
 _atom_site_label
 _atom_site_symmetry_multiplicity
 _atom_site_fract_x
 _atom_site_fract_y
 _atom_site_fract_z
 _atom_site_occupancy
  Tb  Tb0  1  0.819143  0.717534  0.536680  1
  Ho  Ho1  1  0.180589  0.282278  0.462851  1
  Ho  Ho2  1  0.180897  0.717764  0.898645  1
  Ho  Ho3  1  0.819352  0.282229  0.101554  1
  Ho  Ho4  1  0.687750  0.378568  0.690971  1
  Ho  Ho5  1  0.312005  0.621298  0.309034  1
  Ho  Ho6  1  0.687727  0.996981  0.308983  1
  Ho  Ho7  1  0.312369  0.003175  0.690956  1
  Ho  Ho8  1  0.590172  0.786781  0.803740  1
  Ho  Ho9  1  0.409592  0.213113  0.196314  1
  Ho  Ho10  1  0.983213  0.786746  0.196344  1
  Ho  Ho11  1  0.016965  0.213543  0.803725  1
  Co  Co12  1  0.624264  0.000086  0.624348  1
  Co  Co13  1  0.375671  0.000020  0.375692  1
  Co  Co14  1  0.111061  0.610799  0.499927  1
  Co  Co15  1  0.889146  0.388868  0.499929  1
  Bi  Bi16  1  0.499972  0.499986  0.999959  1
  Os  Os17  1  0.000113  0.000232  0.000346  1
