# generated using pymatgen
data_Yb9LuPb6F2
_symmetry_space_group_name_H-M   'P 1'
_cell_length_a   9.37831994
_cell_length_b   9.37831988
_cell_length_c   9.37831956
_cell_angle_alpha   128.17691586
_cell_angle_beta   128.17692424
_cell_angle_gamma   76.33860027
_symmetry_Int_Tables_number   1
_chemical_formula_structural   Yb9LuPb6F2
_chemical_formula_sum   'Yb9 Lu1 Pb6 F2'
_cell_volume   495.32539251
_cell_formula_units_Z   1
loop_
 _symmetry_equiv_pos_site_id
 _symmetry_equiv_pos_as_xyz
  1  'x, y, z'
loop_
 _atom_site_type_symbol
 _atom_site_label
 _atom_site_symmetry_multiplicity
 _atom_site_fract_x
 _atom_site_fract_y
 _atom_site_fract_z
 _atom_site_occupancy
  Yb  Yb0  1  0.000000  0.000000  0.000000  1
  Yb  Yb1  1  0.502777  0.003287  0.813237  1
  Yb  Yb2  1  0.190050  0.689540  0.186763  1
  Yb  Yb3  1  0.003287  0.190050  0.500510  1
  Yb  Yb4  1  0.689540  0.502777  0.499490  1
  Yb  Yb5  1  0.497223  0.996713  0.186763  1
  Yb  Yb6  1  0.809950  0.310460  0.813237  1
  Yb  Yb7  1  0.996713  0.809950  0.499490  1
  Yb  Yb8  1  0.310460  0.497223  0.500510  1
  Lu  Lu9  1  0.500000  0.500000  0.000000  1
  Pb  Pb10  1  0.251436  0.251436  0.000000  1
  Pb  Pb11  1  0.748564  0.748564  0.000000  1
  Pb  Pb12  1  0.861181  0.366700  0.227882  1
  Pb  Pb13  1  0.138819  0.633300  0.772119  1
  Pb  Pb14  1  0.366700  0.138819  0.505520  1
  Pb  Pb15  1  0.633300  0.861181  0.494480  1
  F  F16  1  0.250000  0.750000  0.500000  1
  F  F17  1  0.750000  0.250000  0.500000  1
