# generated using pymatgen
data_HoPa(ReO4)6
_symmetry_space_group_name_H-M   'P 1'
_cell_length_a   10.34020800
_cell_length_b   10.34020708
_cell_length_c   6.16299900
_cell_angle_alpha   90.00000000
_cell_angle_beta   90.00000000
_cell_angle_gamma   119.99999456
_symmetry_Int_Tables_number   1
_chemical_formula_structural   HoPa(ReO4)6
_chemical_formula_sum   'Ho1 Pa1 Re6 O24'
_cell_volume   570.66503507
_cell_formula_units_Z   1
loop_
 _symmetry_equiv_pos_site_id
 _symmetry_equiv_pos_as_xyz
  1  'x, y, z'
loop_
 _atom_site_type_symbol
 _atom_site_label
 _atom_site_symmetry_multiplicity
 _atom_site_fract_x
 _atom_site_fract_y
 _atom_site_fract_z
 _atom_site_occupancy
  Ho  Ho0  1  0.666667  0.333333  0.750000  1
  Pa  Pa1  1  0.333333  0.666667  0.250000  1
  Re  Re2  1  0.090089  0.396062  0.750000  1
  Re  Re3  1  0.395256  0.301414  0.250000  1
  Re  Re4  1  0.603938  0.694026  0.750000  1
  Re  Re5  1  0.906157  0.604744  0.250000  1
  Re  Re6  1  0.305974  0.909911  0.750000  1
  Re  Re7  1  0.698586  0.093843  0.250000  1
  O  O8  1  0.485295  0.650119  0.516341  1
  O  O9  1  0.349881  0.835176  0.516341  1
  O  O10  1  0.845930  0.733191  0.250000  1
  O  O11  1  0.116915  0.848333  0.750000  1
  O  O12  1  0.266809  0.112739  0.250000  1
  O  O13  1  0.151667  0.268581  0.750000  1
  O  O14  1  0.510125  0.346081  0.018925  1
  O  O15  1  0.887261  0.154070  0.250000  1
  O  O16  1  0.102827  0.695783  0.250000  1
  O  O17  1  0.164824  0.514705  0.983659  1
  O  O18  1  0.164824  0.514705  0.516341  1
  O  O19  1  0.894075  0.310839  0.750000  1
  O  O20  1  0.304217  0.407044  0.250000  1
  O  O21  1  0.689161  0.583235  0.750000  1
  O  O22  1  0.835956  0.489875  0.481075  1
  O  O23  1  0.416765  0.105925  0.750000  1
  O  O24  1  0.653919  0.164044  0.018925  1
  O  O25  1  0.485295  0.650119  0.983659  1
  O  O26  1  0.349881  0.835176  0.983659  1
  O  O27  1  0.653919  0.164044  0.481075  1
  O  O28  1  0.510125  0.346081  0.481075  1
  O  O29  1  0.835956  0.489875  0.018925  1
  O  O30  1  0.731419  0.883085  0.750000  1
  O  O31  1  0.592956  0.897173  0.250000  1
