# generated using pymatgen
data_Nd3Er4ThSb20
_symmetry_space_group_name_H-M   'P 1'
_cell_length_a   4.23904900
_cell_length_b   13.21060415
_cell_length_c   14.68569100
_cell_angle_alpha   78.00319710
_cell_angle_beta   90.00000000
_cell_angle_gamma   90.00000000
_symmetry_Int_Tables_number   1
_chemical_formula_structural   Nd3Er4ThSb20
_chemical_formula_sum   'Nd3 Er4 Th1 Sb20'
_cell_volume   804.44257310
_cell_formula_units_Z   1
loop_
 _symmetry_equiv_pos_site_id
 _symmetry_equiv_pos_as_xyz
  1  'x, y, z'
loop_
 _atom_site_type_symbol
 _atom_site_label
 _atom_site_symmetry_multiplicity
 _atom_site_fract_x
 _atom_site_fract_y
 _atom_site_fract_z
 _atom_site_occupancy
  Nd  Nd0  1  0.750000  0.329643  0.425017  1
  Nd  Nd1  1  0.250000  0.951564  0.354258  1
  Nd  Nd2  1  0.750000  0.048929  0.643671  1
  Er  Er3  1  0.250000  0.393721  0.774626  1
  Er  Er4  1  0.750000  0.604236  0.225482  1
  Er  Er5  1  0.250000  0.661244  0.858512  1
  Er  Er6  1  0.750000  0.339140  0.142368  1
  Th  Th7  1  0.250000  0.670364  0.573579  1
  Sb  Sb8  1  0.250000  0.147842  0.782975  1
  Sb  Sb9  1  0.750000  0.851799  0.216964  1
  Sb  Sb10  1  0.250000  0.139097  0.479647  1
  Sb  Sb11  1  0.750000  0.858210  0.519050  1
  Sb  Sb12  1  0.250000  0.156055  0.166412  1
  Sb  Sb13  1  0.750000  0.845430  0.834738  1
  Sb  Sb14  1  0.250000  0.420863  0.976488  1
  Sb  Sb15  1  0.750000  0.579744  0.022848  1
  Sb  Sb16  1  0.750000  0.030932  0.909785  1
  Sb  Sb17  1  0.250000  0.970416  0.092229  1
  Sb  Sb18  1  0.750000  0.141841  0.315917  1
  Sb  Sb19  1  0.250000  0.858383  0.687047  1
  Sb  Sb20  1  0.750000  0.280000  0.938895  1
  Sb  Sb21  1  0.250000  0.720265  0.061117  1
  Sb  Sb22  1  0.750000  0.288648  0.658557  1
  Sb  Sb23  1  0.250000  0.711081  0.341802  1
  Sb  Sb24  1  0.750000  0.575835  0.737368  1
  Sb  Sb25  1  0.250000  0.426261  0.259991  1
  Sb  Sb26  1  0.750000  0.570672  0.444055  1
  Sb  Sb27  1  0.250000  0.427785  0.556601  1
