# generated using pymatgen
data_Y2Er3Si6P6Ir19
_symmetry_space_group_name_H-M   'P 1'
_cell_length_a   12.79290300
_cell_length_b   12.79290153
_cell_length_c   3.94892200
_cell_angle_alpha   90.00000000
_cell_angle_beta   90.00000000
_cell_angle_gamma   120.00000639
_symmetry_Int_Tables_number   1
_chemical_formula_structural   Y2Er3Si6P6Ir19
_chemical_formula_sum   'Y2 Er3 Si6 P6 Ir19'
_cell_volume   559.68971110
_cell_formula_units_Z   1
loop_
 _symmetry_equiv_pos_site_id
 _symmetry_equiv_pos_as_xyz
  1  'x, y, z'
loop_
 _atom_site_type_symbol
 _atom_site_label
 _atom_site_symmetry_multiplicity
 _atom_site_fract_x
 _atom_site_fract_y
 _atom_site_fract_z
 _atom_site_occupancy
  Y  Y0  1  0.666667  0.333333  0.000000  1
  Y  Y1  1  0.333333  0.666667  0.000000  1
  Er  Er2  1  0.816600  0.814821  0.500000  1
  Er  Er3  1  0.185179  0.001779  0.500000  1
  Er  Er4  1  0.998221  0.183400  0.500000  1
  Si  Si5  1  0.682004  0.162434  0.500000  1
  Si  Si6  1  0.837566  0.519570  0.500000  1
  Si  Si7  1  0.480430  0.317996  0.500000  1
  Si  Si8  1  0.636589  0.635792  0.000000  1
  Si  Si9  1  0.364208  0.000797  0.000000  1
  Si  Si10  1  0.999203  0.363411  0.000000  1
  P  P11  1  0.177464  0.693857  0.500000  1
  P  P12  1  0.516394  0.822536  0.500000  1
  P  P13  1  0.306143  0.483606  0.500000  1
  P  P14  1  0.176042  0.180054  0.000000  1
  P  P15  1  0.819946  0.995987  0.000000  1
  P  P16  1  0.004013  0.823958  0.000000  1
  Ir  Ir17  1  0.809302  0.175691  0.000000  1
  Ir  Ir18  1  0.824309  0.633612  0.000000  1
  Ir  Ir19  1  0.366388  0.190698  0.000000  1
  Ir  Ir20  1  0.182660  0.801389  0.000000  1
  Ir  Ir21  1  0.618729  0.817340  0.000000  1
  Ir  Ir22  1  0.198611  0.381271  0.000000  1
  Ir  Ir23  1  0.458022  0.443247  0.000000  1
  Ir  Ir24  1  0.556753  0.014775  0.000000  1
  Ir  Ir25  1  0.985225  0.541978  0.000000  1
  Ir  Ir26  1  0.277547  0.284070  0.500000  1
  Ir  Ir27  1  0.715930  0.993476  0.500000  1
  Ir  Ir28  1  0.006524  0.722453  0.500000  1
  Ir  Ir29  1  0.869259  0.353289  0.500000  1
  Ir  Ir30  1  0.646711  0.515971  0.500000  1
  Ir  Ir31  1  0.484029  0.130741  0.500000  1
  Ir  Ir32  1  0.368257  0.874108  0.500000  1
  Ir  Ir33  1  0.505853  0.631743  0.500000  1
  Ir  Ir34  1  0.125892  0.494147  0.500000  1
  Ir  Ir35  1  0.000000  0.000000  0.000000  1
