# generated using pymatgen
data_LiLu12TlFe3
_symmetry_space_group_name_H-M   'P 1'
_cell_length_a   8.16490791
_cell_length_b   8.16490956
_cell_length_c   8.16490800
_cell_angle_alpha   106.15389414
_cell_angle_beta   110.14550808
_cell_angle_gamma   112.17125255
_symmetry_Int_Tables_number   1
_chemical_formula_structural   LiLu12TlFe3
_chemical_formula_sum   'Li1 Lu12 Tl1 Fe3'
_cell_volume   417.83269973
_cell_formula_units_Z   1
loop_
 _symmetry_equiv_pos_site_id
 _symmetry_equiv_pos_as_xyz
  1  'x, y, z'
loop_
 _atom_site_type_symbol
 _atom_site_label
 _atom_site_symmetry_multiplicity
 _atom_site_fract_x
 _atom_site_fract_y
 _atom_site_fract_z
 _atom_site_occupancy
  Li  Li0  1  0.500000  0.000000  0.500000  1
  Lu  Lu1  1  0.307383  0.311893  0.619275  1
  Lu  Lu2  1  0.692617  0.688107  0.380725  1
  Lu  Lu3  1  0.692617  0.311893  0.004511  1
  Lu  Lu4  1  0.307383  0.688107  0.995489  1
  Lu  Lu5  1  0.190547  0.421056  0.230509  1
  Lu  Lu6  1  0.809453  0.578944  0.769491  1
  Lu  Lu7  1  0.190547  0.960038  0.769491  1
  Lu  Lu8  1  0.949869  0.192345  0.757524  1
  Lu  Lu9  1  0.809453  0.039962  0.230509  1
  Lu  Lu10  1  0.050131  0.807655  0.242476  1
  Lu  Lu11  1  0.434821  0.192345  0.242476  1
  Lu  Lu12  1  0.565179  0.807655  0.757524  1
  Tl  Tl13  1  0.000000  0.500000  0.500000  1
  Fe  Fe14  1  0.381446  0.381446  0.000000  1
  Fe  Fe15  1  0.618554  0.618554  0.000000  1
  Fe  Fe16  1  0.000000  0.000000  0.000000  1
