# generated using pymatgen
data_Ca2Er3Sc(Si3Ru)8
_symmetry_space_group_name_H-M   'P 1'
_cell_length_a   10.10876100
_cell_length_b   10.10876141
_cell_length_c   8.12506000
_cell_angle_alpha   89.99931706
_cell_angle_beta   89.99932084
_cell_angle_gamma   132.62730619
_symmetry_Int_Tables_number   1
_chemical_formula_structural   Ca2Er3Sc(Si3Ru)8
_chemical_formula_sum   'Ca2 Er3 Sc1 Si24 Ru8'
_cell_volume   610.89579300
_cell_formula_units_Z   1
loop_
 _symmetry_equiv_pos_site_id
 _symmetry_equiv_pos_as_xyz
  1  'x, y, z'
loop_
 _atom_site_type_symbol
 _atom_site_label
 _atom_site_symmetry_multiplicity
 _atom_site_fract_x
 _atom_site_fract_y
 _atom_site_fract_z
 _atom_site_occupancy
  Ca  Ca0  1  0.499270  0.999304  0.249918  1
  Ca  Ca1  1  0.000696  0.500730  0.750082  1
  Er  Er2  1  0.503544  0.003572  0.750225  1
  Er  Er3  1  0.996428  0.496456  0.249775  1
  Er  Er4  1  0.999973  0.000027  0.000000  1
  Sc  Sc5  1  0.500163  0.499837  0.500000  1
  Si  Si6  1  0.389318  0.155725  0.001925  1
  Si  Si7  1  0.654824  0.887082  0.497381  1
  Si  Si8  1  0.112918  0.345176  0.502619  1
  Si  Si9  1  0.844275  0.610682  0.998075  1
  Si  Si10  1  0.611653  0.844672  0.992747  1
  Si  Si11  1  0.345498  0.114154  0.507251  1
  Si  Si12  1  0.885846  0.654502  0.492749  1
  Si  Si13  1  0.155328  0.388347  0.007253  1
  Si  Si14  1  0.612318  0.379643  0.228975  1
  Si  Si15  1  0.879498  0.113726  0.272516  1
  Si  Si16  1  0.886274  0.120502  0.727484  1
  Si  Si17  1  0.620357  0.387682  0.771025  1
  Si  Si18  1  0.392637  0.624283  0.770026  1
  Si  Si19  1  0.124928  0.891458  0.728161  1
  Si  Si20  1  0.705613  0.294387  0.000000  1
  Si  Si21  1  0.794092  0.205908  0.500000  1
  Si  Si22  1  0.294978  0.705022  0.000000  1
  Si  Si23  1  0.205309  0.794691  0.500000  1
  Si  Si24  1  0.165782  0.171695  0.333570  1
  Si  Si25  1  0.669514  0.663330  0.168728  1
  Si  Si26  1  0.336670  0.330486  0.831272  1
  Si  Si27  1  0.828305  0.834218  0.666430  1
  Si  Si28  1  0.375717  0.607363  0.229974  1
  Si  Si29  1  0.108542  0.875072  0.271839  1
  Ru  Ru30  1  0.626067  0.626443  0.872960  1
  Ru  Ru31  1  0.127108  0.126928  0.626302  1
  Ru  Ru32  1  0.873072  0.872892  0.373698  1
  Ru  Ru33  1  0.373557  0.373933  0.127040  1
  Ru  Ru34  1  0.330958  0.669042  0.500000  1
  Ru  Ru35  1  0.169766  0.830234  0.000000  1
  Ru  Ru36  1  0.667881  0.332119  0.500000  1
  Ru  Ru37  1  0.831318  0.168682  0.000000  1
