# generated using pymatgen
data_Y8HoErIn6
_symmetry_space_group_name_H-M   'P 1'
_cell_length_a   6.04574971
_cell_length_b   9.19250147
_cell_length_c   9.19250112
_cell_angle_alpha   83.79208294
_cell_angle_beta   70.80152959
_cell_angle_gamma   70.80153194
_symmetry_Int_Tables_number   1
_chemical_formula_structural   Y8HoErIn6
_chemical_formula_sum   'Y8 Ho1 Er1 In6'
_cell_volume   455.63373119
_cell_formula_units_Z   1
loop_
 _symmetry_equiv_pos_site_id
 _symmetry_equiv_pos_as_xyz
  1  'x, y, z'
loop_
 _atom_site_type_symbol
 _atom_site_label
 _atom_site_symmetry_multiplicity
 _atom_site_fract_x
 _atom_site_fract_y
 _atom_site_fract_z
 _atom_site_occupancy
  Y  Y0  1  0.719142  0.862026  0.699541  1
  Y  Y1  1  0.280709  0.137974  0.300459  1
  Y  Y2  1  0.780858  0.300459  0.137974  1
  Y  Y3  1  0.219291  0.699541  0.862026  1
  Y  Y4  1  0.581317  0.699541  0.137974  1
  Y  Y5  1  0.418832  0.300459  0.862026  1
  Y  Y6  1  0.081168  0.137974  0.699541  1
  Y  Y7  1  0.918683  0.862026  0.300459  1
  Ho  Ho8  1  0.250000  0.500000  0.500000  1
  Er  Er9  1  0.750000  0.500000  0.500000  1
  In  In10  1  0.161969  0.500000  0.175691  1
  In  In11  1  0.837660  0.500000  0.824309  1
  In  In12  1  0.338031  0.824309  0.500000  1
  In  In13  1  0.662340  0.175691  0.500000  1
  In  In14  1  0.250000  0.000000  0.000000  1
  In  In15  1  0.750000  0.000000  0.000000  1
