# generated using pymatgen
data_SrGe2(AsRh3)2
_symmetry_space_group_name_H-M   'P 1'
_cell_length_a   7.33736300
_cell_length_b   7.28841123
_cell_length_c   3.87101600
_cell_angle_alpha   90.00000000
_cell_angle_beta   90.00000000
_cell_angle_gamma   120.22242145
_symmetry_Int_Tables_number   1
_chemical_formula_structural   SrGe2(AsRh3)2
_chemical_formula_sum   'Sr1 Ge2 As2 Rh6'
_cell_volume   178.87544745
_cell_formula_units_Z   1
loop_
 _symmetry_equiv_pos_site_id
 _symmetry_equiv_pos_as_xyz
  1  'x, y, z'
loop_
 _atom_site_type_symbol
 _atom_site_label
 _atom_site_symmetry_multiplicity
 _atom_site_fract_x
 _atom_site_fract_y
 _atom_site_fract_z
 _atom_site_occupancy
  Sr  Sr0  1  0.000011  0.000023  0.000000  1
  Ge  Ge1  1  0.804669  0.609340  0.500000  1
  Ge  Ge2  1  0.333253  0.666507  0.000000  1
  As  As3  1  0.386520  0.194522  0.500000  1
  As  As4  1  0.808001  0.194522  0.500000  1
  Rh  Rh5  1  0.202275  0.798402  0.500000  1
  Rh  Rh6  1  0.201875  0.403749  0.500000  1
  Rh  Rh7  1  0.535302  0.070604  0.000000  1
  Rh  Rh8  1  0.929761  0.465298  0.000000  1
  Rh  Rh9  1  0.535537  0.465298  0.000000  1
  Rh  Rh10  1  0.596128  0.798402  0.500000  1
