# generated using pymatgen
data_Li6Ta6RuRh11
_symmetry_space_group_name_H-M   'P 1'
_cell_length_a   4.37036600
_cell_length_b   6.10202600
_cell_length_c   13.03674900
_cell_angle_alpha   89.99952793
_cell_angle_beta   89.99980714
_cell_angle_gamma   89.99599576
_symmetry_Int_Tables_number   1
_chemical_formula_structural   Li6Ta6RuRh11
_chemical_formula_sum   'Li6 Ta6 Ru1 Rh11'
_cell_volume   347.66515560
_cell_formula_units_Z   1
loop_
 _symmetry_equiv_pos_site_id
 _symmetry_equiv_pos_as_xyz
  1  'x, y, z'
loop_
 _atom_site_type_symbol
 _atom_site_label
 _atom_site_symmetry_multiplicity
 _atom_site_fract_x
 _atom_site_fract_y
 _atom_site_fract_z
 _atom_site_occupancy
  Li  Li0  1  0.999995  0.499566  0.999853  1
  Li  Li1  1  0.499840  0.000064  0.166582  1
  Li  Li2  1  0.999790  0.499508  0.333400  1
  Li  Li3  1  0.499970  0.000076  0.500102  1
  Li  Li4  1  0.000159  0.499574  0.666749  1
  Li  Li5  1  0.500172  0.001201  0.833351  1
  Ta  Ta6  1  0.999968  0.997711  0.997567  1
  Ta  Ta7  1  0.499904  0.499527  0.166622  1
  Ta  Ta8  1  0.999815  0.999594  0.333308  1
  Ta  Ta9  1  0.500046  0.499547  0.500066  1
  Ta  Ta10  1  0.000089  0.997764  0.669093  1
  Ta  Ta11  1  0.500146  0.505593  0.833339  1
  Ru  Ru12  1  0.000107  0.749703  0.833308  1
  Rh  Rh13  1  0.499922  0.249933  0.000592  1
  Rh  Rh14  1  0.500082  0.750462  0.000411  1
  Rh  Rh15  1  0.999940  0.250032  0.167006  1
  Rh  Rh16  1  0.999828  0.749506  0.166969  1
  Rh  Rh17  1  0.499768  0.249015  0.333327  1
  Rh  Rh18  1  0.499913  0.750512  0.333329  1
  Rh  Rh19  1  0.000068  0.250010  0.499636  1
  Rh  Rh20  1  0.999968  0.749548  0.499679  1
  Rh  Rh21  1  0.500061  0.249930  0.666103  1
  Rh  Rh22  1  0.500211  0.750473  0.666279  1
  Rh  Rh23  1  0.000238  0.251148  0.833331  1
