# generated using pymatgen
data_Nd5Ga5P7Ir19
_symmetry_space_group_name_H-M   'P 1'
_cell_length_a   13.02758604
_cell_length_b   13.00165562
_cell_length_c   4.01966800
_cell_angle_alpha   90.00000000
_cell_angle_beta   90.00000000
_cell_angle_gamma   119.97373382
_symmetry_Int_Tables_number   1
_chemical_formula_structural   Nd5Ga5P7Ir19
_chemical_formula_sum   'Nd5 Ga5 P7 Ir19'
_cell_volume   589.79123091
_cell_formula_units_Z   1
loop_
 _symmetry_equiv_pos_site_id
 _symmetry_equiv_pos_as_xyz
  1  'x, y, z'
loop_
 _atom_site_type_symbol
 _atom_site_label
 _atom_site_symmetry_multiplicity
 _atom_site_fract_x
 _atom_site_fract_y
 _atom_site_fract_z
 _atom_site_occupancy
  Nd  Nd0  1  0.335406  0.666363  0.500000  1
  Nd  Nd1  1  0.664847  0.332870  0.500000  1
  Nd  Nd2  1  0.002543  0.814599  0.000000  1
  Nd  Nd3  1  0.183064  0.184340  0.000000  1
  Nd  Nd4  1  0.814244  0.998819  0.000000  1
  Ga  Ga5  1  0.998970  0.636177  0.500000  1
  Ga  Ga6  1  0.362266  0.363156  0.500000  1
  Ga  Ga7  1  0.637105  0.003435  0.500000  1
  Ga  Ga8  1  0.520254  0.679484  0.000000  1
  Ga  Ga9  1  0.321496  0.836970  0.000000  1
  P  P10  1  0.166530  0.478745  0.000000  1
  P  P11  1  0.479515  0.177228  0.000000  1
  P  P12  1  0.694964  0.518156  0.000000  1
  P  P13  1  0.820185  0.303567  0.000000  1
  P  P14  1  0.996758  0.180294  0.500000  1
  P  P15  1  0.822015  0.817928  0.500000  1
  P  P16  1  0.181485  0.000532  0.500000  1
  Ir  Ir17  1  0.525820  0.876256  0.000000  1
  Ir  Ir18  1  0.129240  0.633936  0.000000  1
  Ir  Ir19  1  0.346788  0.477419  0.000000  1
  Ir  Ir20  1  0.497365  0.369729  0.000000  1
  Ir  Ir21  1  0.870004  0.500981  0.000000  1
  Ir  Ir22  1  0.629720  0.130403  0.000000  1
  Ir  Ir23  1  0.000267  0.447393  0.500000  1
  Ir  Ir24  1  0.550162  0.557767  0.500000  1
  Ir  Ir25  1  0.441542  0.995513  0.500000  1
  Ir  Ir26  1  0.995733  0.283636  0.000000  1
  Ir  Ir27  1  0.728288  0.716592  0.000000  1
  Ir  Ir28  1  0.282948  0.008370  0.000000  1
  Ir  Ir29  1  0.637596  0.808126  0.500000  1
  Ir  Ir30  1  0.194244  0.824804  0.500000  1
  Ir  Ir31  1  0.168639  0.375619  0.500000  1
  Ir  Ir32  1  0.383572  0.178367  0.500000  1
  Ir  Ir33  1  0.791692  0.612006  0.500000  1
  Ir  Ir34  1  0.823827  0.208512  0.500000  1
  Ir  Ir35  1  0.000902  0.001908  0.500000  1
