# generated using pymatgen
data_Cs6Ho(NpBr6)3
_symmetry_space_group_name_H-M   'P 1'
_cell_length_a   10.57843559
_cell_length_b   10.57843454
_cell_length_c   10.57843605
_cell_angle_alpha   83.14745750
_cell_angle_beta   83.14745215
_cell_angle_gamma   83.14746268
_symmetry_Int_Tables_number   1
_chemical_formula_structural   Cs6Ho(NpBr6)3
_chemical_formula_sum   'Cs6 Ho1 Np3 Br18'
_cell_volume   1160.26123069
_cell_formula_units_Z   1
loop_
 _symmetry_equiv_pos_site_id
 _symmetry_equiv_pos_as_xyz
  1  'x, y, z'
loop_
 _atom_site_type_symbol
 _atom_site_label
 _atom_site_symmetry_multiplicity
 _atom_site_fract_x
 _atom_site_fract_y
 _atom_site_fract_z
 _atom_site_occupancy
  Cs  Cs0  1  0.588389  0.910939  0.251675  1
  Cs  Cs1  1  0.251675  0.588389  0.910939  1
  Cs  Cs2  1  0.910939  0.251675  0.588389  1
  Cs  Cs3  1  0.749875  0.411910  0.087612  1
  Cs  Cs4  1  0.087612  0.749875  0.411910  1
  Cs  Cs5  1  0.411910  0.087612  0.749875  1
  Ho  Ho6  1  0.653044  0.653044  0.653044  1
  Np  Np7  1  0.847464  0.847464  0.847464  1
  Np  Np8  1  0.348124  0.348124  0.348124  1
  Np  Np9  1  0.152189  0.152189  0.152189  1
  Br  Br10  1  0.091390  0.408270  0.250228  1
  Br  Br11  1  0.250228  0.091390  0.408270  1
  Br  Br12  1  0.408270  0.250228  0.091390  1
  Br  Br13  1  0.747458  0.902283  0.591522  1
  Br  Br14  1  0.591522  0.747458  0.902283  1
  Br  Br15  1  0.902283  0.591522  0.747458  1
  Br  Br16  1  0.232378  0.418905  0.586568  1
  Br  Br17  1  0.586568  0.232378  0.418905  1
  Br  Br18  1  0.418905  0.586568  0.232378  1
  Br  Br19  1  0.086035  0.917881  0.732267  1
  Br  Br20  1  0.732267  0.086035  0.917881  1
  Br  Br21  1  0.917881  0.732267  0.086035  1
  Br  Br22  1  0.763737  0.585170  0.422275  1
  Br  Br23  1  0.422275  0.763737  0.585170  1
  Br  Br24  1  0.585170  0.422275  0.763737  1
  Br  Br25  1  0.913699  0.081175  0.267535  1
  Br  Br26  1  0.267535  0.913699  0.081175  1
  Br  Br27  1  0.081175  0.267535  0.913699  1
