# generated using pymatgen
data_La12ZnCdCo4
_symmetry_space_group_name_H-M   'P 1'
_cell_length_a   8.73551103
_cell_length_b   8.73551249
_cell_length_c   8.73551100
_cell_angle_alpha   113.68811828
_cell_angle_beta   108.96931264
_cell_angle_gamma   105.85360276
_symmetry_Int_Tables_number   1
_chemical_formula_structural   La12ZnCdCo4
_chemical_formula_sum   'La12 Zn1 Cd1 Co4'
_cell_volume   510.69768293
_cell_formula_units_Z   1
loop_
 _symmetry_equiv_pos_site_id
 _symmetry_equiv_pos_as_xyz
  1  'x, y, z'
loop_
 _atom_site_type_symbol
 _atom_site_label
 _atom_site_symmetry_multiplicity
 _atom_site_fract_x
 _atom_site_fract_y
 _atom_site_fract_z
 _atom_site_occupancy
  La  La0  1  0.418579  0.217525  0.201054  1
  La  La1  1  0.581421  0.782475  0.798946  1
  La  La2  1  0.016471  0.217525  0.798946  1
  La  La3  1  0.983529  0.782475  0.201054  1
  La  La4  1  0.173616  0.300469  0.474084  1
  La  La5  1  0.826384  0.699531  0.525916  1
  La  La6  1  0.173616  0.699531  0.873148  1
  La  La7  1  0.826384  0.300469  0.126852  1
  La  La8  1  0.329710  0.643080  0.313369  1
  La  La9  1  0.670290  0.356920  0.686631  1
  La  La10  1  0.329710  0.016342  0.686631  1
  La  La11  1  0.670290  0.983658  0.313369  1
  Zn  Zn12  1  0.000000  0.000000  0.000000  1
  Cd  Cd13  1  0.500000  0.500000  0.000000  1
  Co  Co14  1  0.328656  0.000000  0.328656  1
  Co  Co15  1  0.671344  0.000000  0.671344  1
  Co  Co16  1  0.137138  0.637138  0.500000  1
  Co  Co17  1  0.862862  0.362862  0.500000  1
