# generated using pymatgen
data_Dy2Ho3Ni2P12Ir17
_symmetry_space_group_name_H-M   'P 1'
_cell_length_a   12.68020301
_cell_length_b   12.70290212
_cell_length_c   3.94739800
_cell_angle_alpha   90.00000000
_cell_angle_beta   90.00000000
_cell_angle_gamma   119.93584400
_symmetry_Int_Tables_number   1
_chemical_formula_structural   Dy2Ho3Ni2P12Ir17
_chemical_formula_sum   'Dy2 Ho3 Ni2 P12 Ir17'
_cell_volume   550.99937455
_cell_formula_units_Z   1
loop_
 _symmetry_equiv_pos_site_id
 _symmetry_equiv_pos_as_xyz
  1  'x, y, z'
loop_
 _atom_site_type_symbol
 _atom_site_label
 _atom_site_symmetry_multiplicity
 _atom_site_fract_x
 _atom_site_fract_y
 _atom_site_fract_z
 _atom_site_occupancy
  Dy  Dy0  1  0.189574  0.188736  0.000000  1
  Dy  Dy1  1  0.814742  0.999987  0.000000  1
  Ho  Ho2  1  0.333652  0.665057  0.500000  1
  Ho  Ho3  1  0.668586  0.335015  0.500000  1
  Ho  Ho4  1  0.000812  0.811233  0.000000  1
  Ni  Ni5  1  0.999052  0.461918  0.500000  1
  Ni  Ni6  1  0.537116  0.538026  0.500000  1
  P  P7  1  0.000027  0.634240  0.500000  1
  P  P8  1  0.365960  0.365962  0.500000  1
  P  P9  1  0.642206  0.000000  0.500000  1
  P  P10  1  0.515630  0.685567  0.000000  1
  P  P11  1  0.310022  0.826044  0.000000  1
  P  P12  1  0.170405  0.482479  0.000000  1
  P  P13  1  0.483936  0.173956  0.000000  1
  P  P14  1  0.687964  0.517565  0.000000  1
  P  P15  1  0.829997  0.314461  0.000000  1
  P  P16  1  0.999439  0.179439  0.500000  1
  P  P17  1  0.820060  0.820455  0.500000  1
  P  P18  1  0.177611  0.999824  0.500000  1
  Ir  Ir19  1  0.505362  0.866810  0.000000  1
  Ir  Ir20  1  0.131838  0.638367  0.000000  1
  Ir  Ir21  1  0.359953  0.491481  0.000000  1
  Ir  Ir22  1  0.493538  0.361708  0.000000  1
  Ir  Ir23  1  0.868506  0.508591  0.000000  1
  Ir  Ir24  1  0.638516  0.133208  0.000000  1
  Ir  Ir25  1  0.461559  0.999953  0.500000  1
  Ir  Ir26  1  0.998659  0.284150  0.000000  1
  Ir  Ir27  1  0.714668  0.715897  0.000000  1
  Ir  Ir28  1  0.283964  0.999888  0.000000  1
  Ir  Ir29  1  0.622920  0.805293  0.500000  1
  Ir  Ir30  1  0.196539  0.820813  0.500000  1
  Ir  Ir31  1  0.179381  0.374452  0.500000  1
  Ir  Ir32  1  0.376119  0.179045  0.500000  1
  Ir  Ir33  1  0.805423  0.625946  0.500000  1
  Ir  Ir34  1  0.817561  0.194678  0.500000  1
  Ir  Ir35  1  0.998703  0.999758  0.500000  1
