# generated using pymatgen
data_ErTm3(PbAu2)2
_symmetry_space_group_name_H-M   'P 1'
_cell_length_a   8.05974551
_cell_length_b   8.05974551
_cell_length_c   3.68212900
_cell_angle_alpha   90.00000000
_cell_angle_beta   90.00000000
_cell_angle_gamma   90.18510115
_symmetry_Int_Tables_number   1
_chemical_formula_structural   ErTm3(PbAu2)2
_chemical_formula_sum   'Er1 Tm3 Pb2 Au4'
_cell_volume   239.18800234
_cell_formula_units_Z   1
loop_
 _symmetry_equiv_pos_site_id
 _symmetry_equiv_pos_as_xyz
  1  'x, y, z'
loop_
 _atom_site_type_symbol
 _atom_site_label
 _atom_site_symmetry_multiplicity
 _atom_site_fract_x
 _atom_site_fract_y
 _atom_site_fract_z
 _atom_site_occupancy
  Er  Er0  1  0.332694  0.167307  0.500000  1
  Tm  Tm1  1  0.832911  0.332956  0.500000  1
  Tm  Tm2  1  0.167045  0.667089  0.500000  1
  Tm  Tm3  1  0.667235  0.832765  0.500000  1
  Pb  Pb4  1  0.999860  0.999949  0.000000  1
  Pb  Pb5  1  0.500051  0.500140  0.000000  1
  Au  Au6  1  0.627876  0.126751  0.000000  1
  Au  Au7  1  0.126234  0.373766  0.000000  1
  Au  Au8  1  0.872846  0.627154  0.000000  1
  Au  Au9  1  0.373249  0.872124  0.000000  1
