# generated using pymatgen
data_Tb6Lu4In8Pt3Rh
_symmetry_space_group_name_H-M   'P 1'
_cell_length_a   3.62976600
_cell_length_b   8.12103916
_cell_length_c   18.08700892
_cell_angle_alpha   89.99305142
_cell_angle_beta   90.00000000
_cell_angle_gamma   90.00000000
_symmetry_Int_Tables_number   1
_chemical_formula_structural   Tb6Lu4In8Pt3Rh
_chemical_formula_sum   'Tb6 Lu4 In8 Pt3 Rh1'
_cell_volume   533.15929170
_cell_formula_units_Z   1
loop_
 _symmetry_equiv_pos_site_id
 _symmetry_equiv_pos_as_xyz
  1  'x, y, z'
loop_
 _atom_site_type_symbol
 _atom_site_label
 _atom_site_symmetry_multiplicity
 _atom_site_fract_x
 _atom_site_fract_y
 _atom_site_fract_z
 _atom_site_occupancy
  Tb  Tb0  1  0.000000  0.237021  0.220023  1
  Tb  Tb1  1  0.000000  0.759993  0.781932  1
  Tb  Tb2  1  0.000000  0.259633  0.718525  1
  Tb  Tb3  1  0.000000  0.748052  0.280890  1
  Tb  Tb4  1  0.000000  0.999289  0.999914  1
  Tb  Tb5  1  0.000000  0.499891  0.499670  1
  Lu  Lu6  1  0.000000  0.113797  0.411501  1
  Lu  Lu7  1  0.000000  0.883037  0.585632  1
  Lu  Lu8  1  0.000000  0.383768  0.914342  1
  Lu  Lu9  1  0.000000  0.616495  0.087085  1
  In  In10  1  0.500000  0.418012  0.350900  1
  In  In11  1  0.500000  0.581641  0.649094  1
  In  In12  1  0.500000  0.081661  0.851212  1
  In  In13  1  0.500000  0.923280  0.149856  1
  In  In14  1  0.500000  0.297175  0.064189  1
  In  In15  1  0.500000  0.702003  0.936934  1
  In  In16  1  0.500000  0.201671  0.563285  1
  In  In17  1  0.500000  0.797736  0.434107  1
  Pt  Pt18  1  0.500000  0.974333  0.694115  1
  Pt  Pt19  1  0.500000  0.474689  0.805695  1
  Pt  Pt20  1  0.500000  0.523851  0.195132  1
  Rh  Rh21  1  0.500000  0.022972  0.305970  1
