# generated using pymatgen
data_LiTm6Al11(Si3Ru2)4
_symmetry_space_group_name_H-M   'P 1'
_cell_length_a   8.62670303
_cell_length_b   8.62670290
_cell_length_c   9.19449691
_cell_angle_alpha   90.04422348
_cell_angle_beta   89.95577643
_cell_angle_gamma   119.86054654
_symmetry_Int_Tables_number   1
_chemical_formula_structural   LiTm6Al11(Si3Ru2)4
_chemical_formula_sum   'Li1 Tm6 Al11 Si12 Ru8'
_cell_volume   593.41249635
_cell_formula_units_Z   1
loop_
 _symmetry_equiv_pos_site_id
 _symmetry_equiv_pos_as_xyz
  1  'x, y, z'
loop_
 _atom_site_type_symbol
 _atom_site_label
 _atom_site_symmetry_multiplicity
 _atom_site_fract_x
 _atom_site_fract_y
 _atom_site_fract_z
 _atom_site_occupancy
  Li  Li0  1  0.834924  0.165076  0.413878  1
  Tm  Tm1  1  0.806602  0.193398  0.747746  1
  Tm  Tm2  1  0.192452  0.807548  0.250028  1
  Tm  Tm3  1  0.386433  0.193957  0.749240  1
  Tm  Tm4  1  0.614898  0.807875  0.251078  1
  Tm  Tm5  1  0.806043  0.613567  0.749240  1
  Tm  Tm6  1  0.192125  0.385102  0.251078  1
  Al  Al7  1  0.165072  0.834928  0.581842  1
  Al  Al8  1  0.329898  0.165266  0.417485  1
  Al  Al9  1  0.165345  0.834655  0.917563  1
  Al  Al10  1  0.671896  0.838983  0.579981  1
  Al  Al11  1  0.834136  0.165864  0.082295  1
  Al  Al12  1  0.834734  0.670102  0.417485  1
  Al  Al13  1  0.669420  0.834701  0.917967  1
  Al  Al14  1  0.161017  0.328104  0.579981  1
  Al  Al15  1  0.330828  0.165359  0.083499  1
  Al  Al16  1  0.165299  0.330580  0.917967  1
  Al  Al17  1  0.834641  0.669172  0.083499  1
  Si  Si18  1  0.666744  0.333256  0.956861  1
  Si  Si19  1  0.333323  0.666677  0.044049  1
  Si  Si20  1  0.333164  0.666836  0.457909  1
  Si  Si21  1  0.669051  0.330949  0.538003  1
  Si  Si22  1  0.437319  0.562681  0.748925  1
  Si  Si23  1  0.562819  0.437181  0.250113  1
  Si  Si24  1  0.123995  0.562170  0.749810  1
  Si  Si25  1  0.875612  0.432588  0.253881  1
  Si  Si26  1  0.437830  0.876005  0.749810  1
  Si  Si27  1  0.567412  0.124388  0.253881  1
  Si  Si28  1  0.999246  0.000754  0.749782  1
  Si  Si29  1  0.998642  0.001358  0.251869  1
  Ru  Ru30  1  0.499709  0.500291  0.000047  1
  Ru  Ru31  1  0.000041  0.500669  0.999596  1
  Ru  Ru32  1  0.500166  0.499834  0.500026  1
  Ru  Ru33  1  0.499331  0.999959  0.999596  1
  Ru  Ru34  1  0.003176  0.507133  0.501517  1
  Ru  Ru35  1  0.492867  0.996824  0.501517  1
  Ru  Ru36  1  0.999739  0.000261  0.999031  1
  Ru  Ru37  1  0.004050  0.995950  0.501926  1
