# generated using pymatgen
data_Th3Co8Ni3B4
_symmetry_space_group_name_H-M   'P 1'
_cell_length_a   5.05038200
_cell_length_b   5.03511085
_cell_length_c   10.11351900
_cell_angle_alpha   90.00000000
_cell_angle_beta   90.00000000
_cell_angle_gamma   120.10039258
_symmetry_Int_Tables_number   1
_chemical_formula_structural   Th3Co8Ni3B4
_chemical_formula_sum   'Th3 Co8 Ni3 B4'
_cell_volume   222.49792202
_cell_formula_units_Z   1
loop_
 _symmetry_equiv_pos_site_id
 _symmetry_equiv_pos_as_xyz
  1  'x, y, z'
loop_
 _atom_site_type_symbol
 _atom_site_label
 _atom_site_symmetry_multiplicity
 _atom_site_fract_x
 _atom_site_fract_y
 _atom_site_fract_z
 _atom_site_occupancy
  Th  Th0  1  0.000000  0.000000  0.661069  1
  Th  Th1  1  0.000000  0.000000  0.339465  1
  Th  Th2  1  0.000000  0.000000  0.997761  1
  Co  Co3  1  0.500000  0.500000  0.499293  1
  Co  Co4  1  0.000000  0.500000  0.499293  1
  Co  Co5  1  0.500000  0.500000  0.206551  1
  Co  Co6  1  0.000000  0.500000  0.206551  1
  Co  Co7  1  0.500000  0.000000  0.795355  1
  Co  Co8  1  0.500000  0.500000  0.795200  1
  Co  Co9  1  0.000000  0.500000  0.795200  1
  Co  Co10  1  0.500000  0.000000  0.500916  1
  Ni  Ni11  1  0.500000  0.000000  0.201168  1
  Ni  Ni12  1  0.329950  0.659901  0.999726  1
  Ni  Ni13  1  0.670050  0.340099  0.999726  1
  B  B14  1  0.333333  0.666667  0.651216  1
  B  B15  1  0.666667  0.333333  0.651216  1
  B  B16  1  0.666676  0.333352  0.350147  1
  B  B17  1  0.333324  0.666648  0.350147  1
