# generated using pymatgen
data_La2Sn2Au3
_symmetry_space_group_name_H-M   'P 1'
_cell_length_a   16.40832135
_cell_length_b   16.40832102
_cell_length_c   16.40832075
_cell_angle_alpha   17.59425481
_cell_angle_beta   17.59425763
_cell_angle_gamma   17.59425079
_symmetry_Int_Tables_number   1
_chemical_formula_structural   La2Sn2Au3
_chemical_formula_sum   'La4 Sn4 Au6'
_cell_volume   352.30948822
_cell_formula_units_Z   2
loop_
 _symmetry_equiv_pos_site_id
 _symmetry_equiv_pos_as_xyz
  1  'x, y, z'
loop_
 _atom_site_type_symbol
 _atom_site_label
 _atom_site_symmetry_multiplicity
 _atom_site_fract_x
 _atom_site_fract_y
 _atom_site_fract_z
 _atom_site_occupancy
  La  La0  1  0.579974  0.579974  0.579974  1
  La  La1  1  0.420026  0.420026  0.420026  1
  La  La2  1  0.500000  0.500000  0.500000  1
  La  La3  1  0.000000  0.000000  0.000000  1
  Sn  Sn4  1  0.873589  0.873589  0.873589  1
  Sn  Sn5  1  0.126411  0.126411  0.126411  1
  Sn  Sn6  1  0.708968  0.708968  0.708968  1
  Sn  Sn7  1  0.291032  0.291032  0.291032  1
  Au  Au8  1  0.933924  0.933924  0.933924  1
  Au  Au9  1  0.066076  0.066076  0.066076  1
  Au  Au10  1  0.797671  0.797671  0.797671  1
  Au  Au11  1  0.202329  0.202329  0.202329  1
  Au  Au12  1  0.642825  0.642825  0.642825  1
  Au  Au13  1  0.357175  0.357175  0.357175  1
