# generated using pymatgen
data_Eu4ZnGa5Ir2
_symmetry_space_group_name_H-M   'P 1'
_cell_length_a   5.67477200
_cell_length_b   5.65855329
_cell_length_c   8.77110000
_cell_angle_alpha   90.00000000
_cell_angle_beta   90.00000000
_cell_angle_gamma   120.09485950
_symmetry_Int_Tables_number   1
_chemical_formula_structural   Eu4ZnGa5Ir2
_chemical_formula_sum   'Eu4 Zn1 Ga5 Ir2'
_cell_volume   243.68152245
_cell_formula_units_Z   1
loop_
 _symmetry_equiv_pos_site_id
 _symmetry_equiv_pos_as_xyz
  1  'x, y, z'
loop_
 _atom_site_type_symbol
 _atom_site_label
 _atom_site_symmetry_multiplicity
 _atom_site_fract_x
 _atom_site_fract_y
 _atom_site_fract_z
 _atom_site_occupancy
  Eu  Eu0  1  0.333711  0.667423  0.447606  1
  Eu  Eu1  1  0.667179  0.334358  0.947646  1
  Eu  Eu2  1  0.333711  0.667423  0.052394  1
  Eu  Eu3  1  0.667179  0.334358  0.552354  1
  Zn  Zn4  1  0.838605  0.677209  0.250000  1
  Ga  Ga5  1  0.837570  0.153499  0.250000  1
  Ga  Ga6  1  0.161100  0.839158  0.750000  1
  Ga  Ga7  1  0.315929  0.153499  0.250000  1
  Ga  Ga8  1  0.678059  0.839158  0.750000  1
  Ga  Ga9  1  0.161786  0.323572  0.750000  1
  Ir  Ir10  1  0.002585  0.005171  0.997851  1
  Ir  Ir11  1  0.002585  0.005171  0.502149  1
