# generated using pymatgen
data_TbEr7(PI6)2
_symmetry_space_group_name_H-M   'P 1'
_cell_length_a   4.14243500
_cell_length_b   13.75958703
_cell_length_c   14.51292009
_cell_angle_alpha   90.04441311
_cell_angle_beta   90.00000000
_cell_angle_gamma   90.00000000
_symmetry_Int_Tables_number   1
_chemical_formula_structural   TbEr7(PI6)2
_chemical_formula_sum   'Tb1 Er7 P2 I12'
_cell_volume   827.20999953
_cell_formula_units_Z   1
loop_
 _symmetry_equiv_pos_site_id
 _symmetry_equiv_pos_as_xyz
  1  'x, y, z'
loop_
 _atom_site_type_symbol
 _atom_site_label
 _atom_site_symmetry_multiplicity
 _atom_site_fract_x
 _atom_site_fract_y
 _atom_site_fract_z
 _atom_site_occupancy
  Tb  Tb0  1  0.000000  0.392033  0.072457  1
  Er  Er1  1  0.500000  0.112784  0.350563  1
  Er  Er2  1  0.500000  0.887350  0.649194  1
  Er  Er3  1  0.500000  0.612879  0.149603  1
  Er  Er4  1  0.500000  0.387072  0.850589  1
  Er  Er5  1  0.000000  0.106850  0.571674  1
  Er  Er6  1  0.000000  0.893121  0.428375  1
  Er  Er7  1  0.000000  0.607828  0.927632  1
  P  P8  1  0.500000  0.000067  0.499933  1
  P  P9  1  0.500000  0.501903  0.998779  1
  I  I10  1  0.500000  0.244541  0.163093  1
  I  I11  1  0.500000  0.753327  0.838208  1
  I  I12  1  0.500000  0.747219  0.338571  1
  I  I13  1  0.500000  0.252898  0.661339  1
  I  I14  1  0.000000  0.259379  0.415711  1
  I  I15  1  0.000000  0.740553  0.584341  1
  I  I16  1  0.000000  0.759624  0.084420  1
  I  I17  1  0.000000  0.239532  0.914056  1
  I  I18  1  0.000000  0.999074  0.240668  1
  I  I19  1  0.000000  0.000704  0.759392  1
  I  I20  1  0.000000  0.500564  0.261045  1
  I  I21  1  0.000000  0.500697  0.740358  1
