# generated using pymatgen
data_Sr3YbIrO6
_symmetry_space_group_name_H-M   'P 1'
_cell_length_a   6.83760425
_cell_length_b   6.83760451
_cell_length_c   6.83760406
_cell_angle_alpha   91.99897916
_cell_angle_beta   91.99898428
_cell_angle_gamma   91.99899577
_symmetry_Int_Tables_number   1
_chemical_formula_structural   Sr3YbIrO6
_chemical_formula_sum   'Sr6 Yb2 Ir2 O12'
_cell_volume   319.07979222
_cell_formula_units_Z   2
loop_
 _symmetry_equiv_pos_site_id
 _symmetry_equiv_pos_as_xyz
  1  'x, y, z'
loop_
 _atom_site_type_symbol
 _atom_site_label
 _atom_site_symmetry_multiplicity
 _atom_site_fract_x
 _atom_site_fract_y
 _atom_site_fract_z
 _atom_site_occupancy
  Sr  Sr0  1  0.250000  0.613573  0.886427  1
  Sr  Sr1  1  0.886427  0.250000  0.613573  1
  Sr  Sr2  1  0.613573  0.886427  0.250000  1
  Sr  Sr3  1  0.750000  0.386427  0.113573  1
  Sr  Sr4  1  0.113573  0.750000  0.386427  1
  Sr  Sr5  1  0.386427  0.113573  0.750000  1
  Yb  Yb6  1  0.750000  0.750000  0.750000  1
  Yb  Yb7  1  0.250000  0.250000  0.250000  1
  Ir  Ir8  1  0.500000  0.500000  0.500000  1
  Ir  Ir9  1  0.000000  0.000000  0.000000  1
  O  O10  1  0.082096  0.287000  0.951982  1
  O  O11  1  0.951982  0.082096  0.287000  1
  O  O12  1  0.287000  0.951982  0.082096  1
  O  O13  1  0.417904  0.548018  0.213000  1
  O  O14  1  0.213000  0.417904  0.548018  1
  O  O15  1  0.548018  0.213000  0.417904  1
  O  O16  1  0.917904  0.713000  0.048018  1
  O  O17  1  0.048018  0.917904  0.713000  1
  O  O18  1  0.713000  0.048018  0.917904  1
  O  O19  1  0.582096  0.451982  0.787000  1
  O  O20  1  0.451982  0.787000  0.582096  1
  O  O21  1  0.787000  0.582096  0.451982  1
