# generated using pymatgen
data_Y3Tm17Sn16
_symmetry_space_group_name_H-M   'P 1'
_cell_length_a   7.96468908
_cell_length_b   8.08043623
_cell_length_c   15.31236764
_cell_angle_alpha   89.99817775
_cell_angle_beta   90.07885047
_cell_angle_gamma   89.93688221
_symmetry_Int_Tables_number   1
_chemical_formula_structural   Y3Tm17Sn16
_chemical_formula_sum   'Y3 Tm17 Sn16'
_cell_volume   985.47430906
_cell_formula_units_Z   1
loop_
 _symmetry_equiv_pos_site_id
 _symmetry_equiv_pos_as_xyz
  1  'x, y, z'
loop_
 _atom_site_type_symbol
 _atom_site_label
 _atom_site_symmetry_multiplicity
 _atom_site_fract_x
 _atom_site_fract_y
 _atom_site_fract_z
 _atom_site_occupancy
  Y  Y0  1  0.977854  0.821022  0.402959  1
  Y  Y1  1  0.522222  0.321223  0.596769  1
  Y  Y2  1  0.022465  0.178668  0.903290  1
  Tm  Tm3  1  0.368182  0.836843  0.877453  1
  Tm  Tm4  1  0.867537  0.662775  0.622900  1
  Tm  Tm5  1  0.632357  0.162627  0.376915  1
  Tm  Tm6  1  0.132199  0.337359  0.122683  1
  Tm  Tm7  1  0.632002  0.163092  0.122611  1
  Tm  Tm8  1  0.132282  0.337032  0.377211  1
  Tm  Tm9  1  0.367941  0.836854  0.622712  1
  Tm  Tm10  1  0.868546  0.663088  0.877437  1
  Tm  Tm11  1  0.523361  0.321396  0.902391  1
  Tm  Tm12  1  0.023030  0.178953  0.597621  1
  Tm  Tm13  1  0.477160  0.678841  0.402550  1
  Tm  Tm14  1  0.976832  0.820831  0.097605  1
  Tm  Tm15  1  0.476814  0.678701  0.097117  1
  Tm  Tm16  1  0.198586  0.503789  0.750132  1
  Tm  Tm17  1  0.698469  0.996250  0.750097  1
  Tm  Tm18  1  0.801205  0.496423  0.249696  1
  Tm  Tm19  1  0.301568  0.003616  0.249719  1
  Sn  Sn20  1  0.292935  0.035019  0.042298  1
  Sn  Sn21  1  0.792603  0.463782  0.457973  1
  Sn  Sn22  1  0.707455  0.963971  0.541941  1
  Sn  Sn23  1  0.208693  0.536675  0.958696  1
  Sn  Sn24  1  0.706183  0.962703  0.958796  1
  Sn  Sn25  1  0.205898  0.537352  0.541215  1
  Sn  Sn26  1  0.294042  0.037250  0.458696  1
  Sn  Sn27  1  0.791967  0.464197  0.041499  1
  Sn  Sn28  1  0.564796  0.619690  0.750196  1
  Sn  Sn29  1  0.064796  0.880064  0.749961  1
  Sn  Sn30  1  0.435207  0.381071  0.249888  1
  Sn  Sn31  1  0.935274  0.119647  0.249837  1
  Sn  Sn32  1  0.331759  0.148419  0.750360  1
  Sn  Sn33  1  0.831851  0.351498  0.749685  1
  Sn  Sn34  1  0.667060  0.850753  0.249678  1
  Sn  Sn35  1  0.168872  0.648525  0.249413  1
