# generated using pymatgen
data_TmPuF7
_symmetry_space_group_name_H-M   'P 1'
_cell_length_a   5.84487500
_cell_length_b   6.18858541
_cell_length_c   8.45191565
_cell_angle_alpha   103.21929606
_cell_angle_beta   90.00000000
_cell_angle_gamma   90.00000000
_symmetry_Int_Tables_number   1
_chemical_formula_structural   TmPuF7
_chemical_formula_sum   'Tm2 Pu2 F14'
_cell_volume   297.61758863
_cell_formula_units_Z   2
loop_
 _symmetry_equiv_pos_site_id
 _symmetry_equiv_pos_as_xyz
  1  'x, y, z'
loop_
 _atom_site_type_symbol
 _atom_site_label
 _atom_site_symmetry_multiplicity
 _atom_site_fract_x
 _atom_site_fract_y
 _atom_site_fract_z
 _atom_site_occupancy
  Tm  Tm0  1  0.698556  0.650183  0.681062  1
  Tm  Tm1  1  0.198556  0.349817  0.318938  1
  Pu  Pu2  1  0.706673  0.812353  0.225858  1
  Pu  Pu3  1  0.206673  0.187647  0.774142  1
  F  F4  1  0.904930  0.469214  0.481864  1
  F  F5  1  0.404930  0.530786  0.518136  1
  F  F6  1  0.435370  0.910455  0.764077  1
  F  F7  1  0.935370  0.089545  0.235923  1
  F  F8  1  0.937595  0.938986  0.757002  1
  F  F9  1  0.437595  0.061014  0.242998  1
  F  F10  1  0.981185  0.468094  0.787285  1
  F  F11  1  0.481185  0.531906  0.212715  1
  F  F12  1  0.697523  0.756342  0.967342  1
  F  F13  1  0.197523  0.243658  0.032658  1
  F  F14  1  0.701008  0.864900  0.485937  1
  F  F15  1  0.201008  0.135100  0.514063  1
  F  F16  1  0.513517  0.390285  0.778975  1
  F  F17  1  0.013517  0.609715  0.221025  1
