# generated using pymatgen
data_LaPrGdNbO7
_symmetry_space_group_name_H-M   'P 1'
_cell_length_a   6.67797286
_cell_length_b   6.67797190
_cell_length_c   7.76956500
_cell_angle_alpha   90.00000000
_cell_angle_beta   90.00000000
_cell_angle_gamma   108.97309822
_symmetry_Int_Tables_number   1
_chemical_formula_structural   LaPrGdNbO7
_chemical_formula_sum   'La2 Pr2 Gd2 Nb2 O14'
_cell_volume   327.66206627
_cell_formula_units_Z   2
loop_
 _symmetry_equiv_pos_site_id
 _symmetry_equiv_pos_as_xyz
  1  'x, y, z'
loop_
 _atom_site_type_symbol
 _atom_site_label
 _atom_site_symmetry_multiplicity
 _atom_site_fract_x
 _atom_site_fract_y
 _atom_site_fract_z
 _atom_site_occupancy
  La  La0  1  0.476802  0.476802  0.500000  1
  La  La1  1  0.476802  0.476802  0.000000  1
  Pr  Pr2  1  0.536207  0.996181  0.750000  1
  Pr  Pr3  1  0.996181  0.536207  0.250000  1
  Gd  Gd4  1  0.465766  0.997389  0.250000  1
  Gd  Gd5  1  0.997389  0.465766  0.750000  1
  Nb  Nb6  1  0.997890  0.997890  0.500000  1
  Nb  Nb7  1  0.997890  0.997890  0.000000  1
  O  O8  1  0.693404  0.943818  0.461136  1
  O  O9  1  0.943818  0.693404  0.538864  1
  O  O10  1  0.693404  0.943818  0.038864  1
  O  O11  1  0.943818  0.693404  0.961136  1
  O  O12  1  0.321725  0.074849  0.523562  1
  O  O13  1  0.074849  0.321725  0.476438  1
  O  O14  1  0.321725  0.074849  0.976438  1
  O  O15  1  0.074849  0.321725  0.023562  1
  O  O16  1  0.358938  0.623875  0.750000  1
  O  O17  1  0.623875  0.358938  0.250000  1
  O  O18  1  0.641768  0.364040  0.750000  1
  O  O19  1  0.364040  0.641768  0.250000  1
  O  O20  1  0.938389  0.060473  0.750000  1
  O  O21  1  0.060473  0.938389  0.250000  1
