# generated using pymatgen
data_Sr2NbIrO8
_symmetry_space_group_name_H-M   'P 1'
_cell_length_a   5.12144700
_cell_length_b   5.64639200
_cell_length_c   13.18256100
_cell_angle_alpha   90.00000000
_cell_angle_beta   90.00000000
_cell_angle_gamma   90.00000000
_symmetry_Int_Tables_number   1
_chemical_formula_structural   Sr2NbIrO8
_chemical_formula_sum   'Sr4 Nb2 Ir2 O16'
_cell_volume   381.20930955
_cell_formula_units_Z   2
loop_
 _symmetry_equiv_pos_site_id
 _symmetry_equiv_pos_as_xyz
  1  'x, y, z'
loop_
 _atom_site_type_symbol
 _atom_site_label
 _atom_site_symmetry_multiplicity
 _atom_site_fract_x
 _atom_site_fract_y
 _atom_site_fract_z
 _atom_site_occupancy
  Sr  Sr0  1  0.750000  0.000000  0.659219  1
  Sr  Sr1  1  0.250000  0.500000  0.840781  1
  Sr  Sr2  1  0.250000  0.000000  0.339757  1
  Sr  Sr3  1  0.750000  0.500000  0.160243  1
  Nb  Nb4  1  0.250000  0.500000  0.579599  1
  Nb  Nb5  1  0.750000  0.000000  0.920401  1
  Ir  Ir6  1  0.750000  0.500000  0.426669  1
  Ir  Ir7  1  0.250000  0.000000  0.073331  1
  O  O8  1  0.126746  0.280712  0.672258  1
  O  O9  1  0.626746  0.219288  0.827742  1
  O  O10  1  0.873254  0.780712  0.827742  1
  O  O11  1  0.373254  0.719288  0.672258  1
  O  O12  1  0.882098  0.702328  0.326965  1
  O  O13  1  0.382098  0.797672  0.173035  1
  O  O14  1  0.117902  0.202328  0.173035  1
  O  O15  1  0.617902  0.297672  0.326965  1
  O  O16  1  0.568954  0.309707  0.535771  1
  O  O17  1  0.068954  0.190293  0.964229  1
  O  O18  1  0.431046  0.809707  0.964229  1
  O  O19  1  0.931046  0.690293  0.535771  1
  O  O20  1  0.448100  0.687282  0.447463  1
  O  O21  1  0.948100  0.812718  0.052537  1
  O  O22  1  0.551900  0.187282  0.052537  1
  O  O23  1  0.051900  0.312718  0.447463  1
