# generated using pymatgen
data_Dy13Y2Er(In3Co)2
_symmetry_space_group_name_H-M   'P 1'
_cell_length_a   10.36383300
_cell_length_b   10.36383364
_cell_length_c   7.01924100
_cell_angle_alpha   90.00002764
_cell_angle_beta   89.99996683
_cell_angle_gamma   119.99996922
_symmetry_Int_Tables_number   1
_chemical_formula_structural   Dy13Y2Er(In3Co)2
_chemical_formula_sum   'Dy13 Y2 Er1 In6 Co2'
_cell_volume   652.92268776
_cell_formula_units_Z   1
loop_
 _symmetry_equiv_pos_site_id
 _symmetry_equiv_pos_as_xyz
  1  'x, y, z'
loop_
 _atom_site_type_symbol
 _atom_site_label
 _atom_site_symmetry_multiplicity
 _atom_site_fract_x
 _atom_site_fract_y
 _atom_site_fract_z
 _atom_site_occupancy
  Dy  Dy0  1  0.464388  0.535612  0.483029  1
  Dy  Dy1  1  0.071225  0.535612  0.483029  1
  Dy  Dy2  1  0.464388  0.928775  0.483029  1
  Dy  Dy3  1  0.535724  0.464276  0.982665  1
  Dy  Dy4  1  0.928553  0.464276  0.982665  1
  Dy  Dy5  1  0.535724  0.071447  0.982665  1
  Dy  Dy6  1  0.821543  0.178457  0.276319  1
  Dy  Dy7  1  0.356915  0.178457  0.276319  1
  Dy  Dy8  1  0.821543  0.643086  0.276319  1
  Dy  Dy9  1  0.178133  0.821867  0.775694  1
  Dy  Dy10  1  0.643733  0.821867  0.775694  1
  Dy  Dy11  1  0.178133  0.356267  0.775694  1
  Dy  Dy12  1  0.333333  0.666667  0.092130  1
  Y  Y13  1  0.000000  0.000000  0.494701  1
  Y  Y14  1  0.000000  0.000000  0.995185  1
  Er  Er15  1  0.666667  0.333333  0.590950  1
  In  In16  1  0.162852  0.837148  0.234332  1
  In  In17  1  0.674296  0.837148  0.234332  1
  In  In18  1  0.162852  0.325704  0.234331  1
  In  In19  1  0.836800  0.163200  0.733946  1
  In  In20  1  0.326399  0.163200  0.733946  1
  In  In21  1  0.836800  0.673601  0.733946  1
  Co  Co22  1  0.333333  0.666667  0.707241  1
  Co  Co23  1  0.666667  0.333333  0.206394  1
