# generated using pymatgen
data_Ho12Ni4SnPd
_symmetry_space_group_name_H-M   'P 1'
_cell_length_a   8.30968151
_cell_length_b   8.30968238
_cell_length_c   8.30968144
_cell_angle_alpha   111.74588109
_cell_angle_beta   109.80529467
_cell_angle_gamma   106.89894387
_symmetry_Int_Tables_number   1
_chemical_formula_structural   Ho12Ni4SnPd
_chemical_formula_sum   'Ho12 Ni4 Sn1 Pd1'
_cell_volume   440.90723623
_cell_formula_units_Z   1
loop_
 _symmetry_equiv_pos_site_id
 _symmetry_equiv_pos_as_xyz
  1  'x, y, z'
loop_
 _atom_site_type_symbol
 _atom_site_label
 _atom_site_symmetry_multiplicity
 _atom_site_fract_x
 _atom_site_fract_y
 _atom_site_fract_z
 _atom_site_occupancy
  Ho  Ho0  1  0.410322  0.215263  0.195058  1
  Ho  Ho1  1  0.589678  0.784737  0.804942  1
  Ho  Ho2  1  0.020205  0.215263  0.804942  1
  Ho  Ho3  1  0.979795  0.784737  0.195058  1
  Ho  Ho4  1  0.182500  0.296612  0.479111  1
  Ho  Ho5  1  0.817500  0.703388  0.520889  1
  Ho  Ho6  1  0.182500  0.703388  0.885889  1
  Ho  Ho7  1  0.817500  0.296612  0.114111  1
  Ho  Ho8  1  0.321779  0.627833  0.306054  1
  Ho  Ho9  1  0.678221  0.372167  0.693946  1
  Ho  Ho10  1  0.321779  0.015725  0.693946  1
  Ho  Ho11  1  0.678221  0.984275  0.306054  1
  Ni  Ni12  1  0.363883  0.000000  0.363883  1
  Ni  Ni13  1  0.636117  0.000000  0.636117  1
  Ni  Ni14  1  0.125340  0.625340  0.500000  1
  Ni  Ni15  1  0.874660  0.374660  0.500000  1
  Sn  Sn16  1  0.500000  0.500000  0.000000  1
  Pd  Pd17  1  0.000000  0.000000  0.000000  1
