# generated using pymatgen
data_Tb4YTl3Cl
_symmetry_space_group_name_H-M   'P 1'
_cell_length_a   9.19404600
_cell_length_b   9.19423082
_cell_length_c   6.65256000
_cell_angle_alpha   90.00111548
_cell_angle_beta   89.99943913
_cell_angle_gamma   120.00066626
_symmetry_Int_Tables_number   1
_chemical_formula_structural   Tb4YTl3Cl
_chemical_formula_sum   'Tb8 Y2 Tl6 Cl2'
_cell_volume   487.01079840
_cell_formula_units_Z   2
loop_
 _symmetry_equiv_pos_site_id
 _symmetry_equiv_pos_as_xyz
  1  'x, y, z'
loop_
 _atom_site_type_symbol
 _atom_site_label
 _atom_site_symmetry_multiplicity
 _atom_site_fract_x
 _atom_site_fract_y
 _atom_site_fract_z
 _atom_site_occupancy
  Tb  Tb0  1  0.741806  0.741793  0.250577  1
  Tb  Tb1  1  0.000000  0.741787  0.749421  1
  Tb  Tb2  1  0.741806  0.000014  0.749423  1
  Tb  Tb3  1  0.258194  0.258207  0.749423  1
  Tb  Tb4  1  0.000000  0.258213  0.250579  1
  Tb  Tb5  1  0.258194  0.999986  0.250577  1
  Tb  Tb6  1  0.333315  0.666658  0.000000  1
  Tb  Tb7  1  0.666685  0.333342  0.000000  1
  Y  Y8  1  0.333328  0.666665  0.500000  1
  Y  Y9  1  0.666672  0.333335  0.500000  1
  Tl  Tl10  1  0.394248  0.999998  0.748252  1
  Tl  Tl11  1  0.000000  0.605775  0.251736  1
  Tl  Tl12  1  0.605752  0.000002  0.251748  1
  Tl  Tl13  1  0.000000  0.394225  0.748264  1
  Tl  Tl14  1  0.394248  0.394252  0.251748  1
  Tl  Tl15  1  0.605752  0.605748  0.748252  1
  Cl  Cl16  1  0.000000  0.000000  0.500000  1
  Cl  Cl17  1  0.000000  0.000000  0.000000  1
