# generated using pymatgen
data_MnSe5N8
_symmetry_space_group_name_H-M   'P 1'
_cell_length_a   7.01216224
_cell_length_b   6.82035420
_cell_length_c   11.33762512
_cell_angle_alpha   102.24138875
_cell_angle_beta   73.24807061
_cell_angle_gamma   111.50709817
_symmetry_Int_Tables_number   1
_chemical_formula_structural   MnSe5N8
_chemical_formula_sum   'Mn1 Se5 N8'
_cell_volume   479.60869726
_cell_formula_units_Z   1
loop_
 _symmetry_equiv_pos_site_id
 _symmetry_equiv_pos_as_xyz
  1  'x, y, z'
loop_
 _atom_site_type_symbol
 _atom_site_label
 _atom_site_symmetry_multiplicity
 _atom_site_fract_x
 _atom_site_fract_y
 _atom_site_fract_z
 _atom_site_occupancy
  Mn  Mn0  1  0.267609  0.798739  0.598166  1
  Se  Se1  1  0.088000  0.036983  0.609587  1
  Se  Se2  1  0.404616  0.566272  0.673462  1
  Se  Se3  1  0.599665  0.850993  0.483288  1
  Se  Se4  1  0.153774  0.258003  0.794228  1
  Se  Se5  1  0.331914  0.871815  0.795632  1
  N  N6  1  0.757582  0.426042  0.164064  1
  N  N7  1  0.700550  0.562738  0.902984  1
  N  N8  1  0.213033  0.126151  0.222811  1
  N  N9  1  0.014431  0.469368  0.411855  1
  N  N10  1  0.929588  0.509491  0.133119  1
  N  N11  1  0.111251  0.586410  0.475135  1
  N  N12  1  0.790433  0.538521  0.805682  1
  N  N13  1  0.116210  0.067326  0.152241  1
