# generated using pymatgen
data_CsAu4
_symmetry_space_group_name_H-M   'P 1'
_cell_length_a   5.57596405
_cell_length_b   5.59481410
_cell_length_c   8.40433652
_cell_angle_alpha   122.38297105
_cell_angle_beta   55.43427064
_cell_angle_gamma   120.11206054
_symmetry_Int_Tables_number   1
_chemical_formula_structural   CsAu4
_chemical_formula_sum   'Cs1 Au4'
_cell_volume   174.79428565
_cell_formula_units_Z   1
loop_
 _symmetry_equiv_pos_site_id
 _symmetry_equiv_pos_as_xyz
  1  'x, y, z'
loop_
 _atom_site_type_symbol
 _atom_site_label
 _atom_site_symmetry_multiplicity
 _atom_site_fract_x
 _atom_site_fract_y
 _atom_site_fract_z
 _atom_site_occupancy
  Cs  Cs0  1  0.837161  0.527941  0.209345  1
  Au  Au1  1  0.200009  0.618852  0.709557  1
  Au  Au2  1  0.211030  0.109876  0.693236  1
  Au  Au3  1  0.698972  0.121886  0.713225  1
  Au  Au4  1  0.696116  0.623249  0.717619  1
