# generated using pymatgen
data_Nd16Cd3HgRu3Pt
_symmetry_space_group_name_H-M   'P 1'
_cell_length_a   9.95368790
_cell_length_b   9.98058439
_cell_length_c   9.98058387
_cell_angle_alpha   59.73346881
_cell_angle_beta   59.72622391
_cell_angle_gamma   59.72622238
_symmetry_Int_Tables_number   1
_chemical_formula_structural   Nd16Cd3HgRu3Pt
_chemical_formula_sum   'Nd16 Cd3 Hg1 Ru3 Pt1'
_cell_volume   696.78077220
_cell_formula_units_Z   1
loop_
 _symmetry_equiv_pos_site_id
 _symmetry_equiv_pos_as_xyz
  1  'x, y, z'
loop_
 _atom_site_type_symbol
 _atom_site_label
 _atom_site_symmetry_multiplicity
 _atom_site_fract_x
 _atom_site_fract_y
 _atom_site_fract_z
 _atom_site_occupancy
  Nd  Nd0  1  0.342761  0.350312  0.350312  1
  Nd  Nd1  1  0.344042  0.350969  0.954435  1
  Nd  Nd2  1  0.344042  0.954435  0.350969  1
  Nd  Nd3  1  0.960267  0.345700  0.345700  1
  Nd  Nd4  1  0.813978  0.190589  0.190589  1
  Nd  Nd5  1  0.189867  0.809718  0.809718  1
  Nd  Nd6  1  0.190833  0.809250  0.189737  1
  Nd  Nd7  1  0.814233  0.191086  0.803235  1
  Nd  Nd8  1  0.190833  0.189737  0.809250  1
  Nd  Nd9  1  0.814233  0.803235  0.191086  1
  Nd  Nd10  1  0.936716  0.562087  0.562087  1
  Nd  Nd11  1  0.558824  0.939123  0.939123  1
  Nd  Nd12  1  0.559125  0.937506  0.564504  1
  Nd  Nd13  1  0.937962  0.561539  0.939727  1
  Nd  Nd14  1  0.559125  0.564504  0.937506  1
  Nd  Nd15  1  0.937962  0.939727  0.561539  1
  Cd  Cd16  1  0.579639  0.579166  0.260437  1
  Cd  Cd17  1  0.579639  0.260437  0.579166  1
  Cd  Cd18  1  0.259373  0.579584  0.579584  1
  Hg  Hg19  1  0.583365  0.582323  0.582323  1
  Ru  Ru20  1  0.142111  0.137109  0.137109  1
  Ru  Ru21  1  0.143089  0.139018  0.580811  1
  Ru  Ru22  1  0.143089  0.580811  0.139018  1
  Pt  Pt23  1  0.574888  0.142037  0.142037  1
