# generated using pymatgen
data_TbHo9(InBi2)2
_symmetry_space_group_name_H-M   'P 1'
_cell_length_a   9.06668846
_cell_length_b   9.06668720
_cell_length_c   6.49129800
_cell_angle_alpha   90.00000000
_cell_angle_beta   90.00000000
_cell_angle_gamma   119.81060490
_symmetry_Int_Tables_number   1
_chemical_formula_structural   TbHo9(InBi2)2
_chemical_formula_sum   'Tb1 Ho9 In2 Bi4'
_cell_volume   463.00446981
_cell_formula_units_Z   1
loop_
 _symmetry_equiv_pos_site_id
 _symmetry_equiv_pos_as_xyz
  1  'x, y, z'
loop_
 _atom_site_type_symbol
 _atom_site_label
 _atom_site_symmetry_multiplicity
 _atom_site_fract_x
 _atom_site_fract_y
 _atom_site_fract_z
 _atom_site_occupancy
  Tb  Tb0  1  0.761788  0.761788  0.750000  1
  Ho  Ho1  1  0.668842  0.329012  0.003589  1
  Ho  Ho2  1  0.329012  0.668842  0.003589  1
  Ho  Ho3  1  0.329012  0.668842  0.496411  1
  Ho  Ho4  1  0.668842  0.329012  0.496411  1
  Ho  Ho5  1  0.235920  0.998438  0.750000  1
  Ho  Ho6  1  0.998438  0.235920  0.750000  1
  Ho  Ho7  1  0.234185  0.234185  0.250000  1
  Ho  Ho8  1  0.765225  0.008470  0.250000  1
  Ho  Ho9  1  0.008470  0.765225  0.250000  1
  In  In10  1  0.396057  0.001471  0.250000  1
  In  In11  1  0.001471  0.396057  0.250000  1
  Bi  Bi12  1  0.393181  0.393181  0.750000  1
  Bi  Bi13  1  0.602891  0.997505  0.750000  1
  Bi  Bi14  1  0.997505  0.602891  0.750000  1
  Bi  Bi15  1  0.609161  0.609161  0.250000  1
