# generated using pymatgen
data_Tm4Lu8ZnNi4Sn
_symmetry_space_group_name_H-M   'P 1'
_cell_length_a   8.18534176
_cell_length_b   8.18900793
_cell_length_c   8.18601870
_cell_angle_alpha   106.38025734
_cell_angle_beta   109.71651338
_cell_angle_gamma   112.39876375
_symmetry_Int_Tables_number   1
_chemical_formula_structural   Tm4Lu8ZnNi4Sn
_chemical_formula_sum   'Tm4 Lu8 Zn1 Ni4 Sn1'
_cell_volume   421.09394895
_cell_formula_units_Z   1
loop_
 _symmetry_equiv_pos_site_id
 _symmetry_equiv_pos_as_xyz
  1  'x, y, z'
loop_
 _atom_site_type_symbol
 _atom_site_label
 _atom_site_symmetry_multiplicity
 _atom_site_fract_x
 _atom_site_fract_y
 _atom_site_fract_z
 _atom_site_occupancy
  Tm  Tm0  1  0.608824  0.789849  0.819101  1
  Tm  Tm1  1  0.971013  0.789894  0.181106  1
  Tm  Tm2  1  0.028980  0.210086  0.818896  1
  Tm  Tm3  1  0.391163  0.210165  0.180892  1
  Lu  Lu4  1  0.699626  0.273127  0.972531  1
  Lu  Lu5  1  0.300350  0.726899  0.027494  1
  Lu  Lu6  1  0.699642  0.727166  0.426542  1
  Lu  Lu7  1  0.300360  0.272782  0.573406  1
  Lu  Lu8  1  0.807097  0.131908  0.324819  1
  Lu  Lu9  1  0.807064  0.482347  0.675104  1
  Lu  Lu10  1  0.192900  0.868071  0.675193  1
  Lu  Lu11  1  0.192955  0.517656  0.324893  1
  Zn  Zn12  1  0.499947  0.499999  0.999948  1
  Ni  Ni13  1  0.851876  0.500086  0.351922  1
  Ni  Ni14  1  0.148203  0.499910  0.648117  1
  Ni  Ni15  1  0.000031  0.125966  0.125984  1
  Ni  Ni16  1  0.999966  0.874084  0.874041  1
  Sn  Sn17  1  0.500006  0.000004  0.500011  1
