# generated using pymatgen
data_Tb15YCd4Os3Pd
_symmetry_space_group_name_H-M   'P 1'
_cell_length_a   9.67821030
_cell_length_b   9.77259953
_cell_length_c   9.77634006
_cell_angle_alpha   59.66487398
_cell_angle_beta   59.32189207
_cell_angle_gamma   59.30861772
_symmetry_Int_Tables_number   1
_chemical_formula_structural   Tb15YCd4Os3Pd
_chemical_formula_sum   'Tb15 Y1 Cd4 Os3 Pd1'
_cell_volume   645.36342773
_cell_formula_units_Z   1
loop_
 _symmetry_equiv_pos_site_id
 _symmetry_equiv_pos_as_xyz
  1  'x, y, z'
loop_
 _atom_site_type_symbol
 _atom_site_label
 _atom_site_symmetry_multiplicity
 _atom_site_fract_x
 _atom_site_fract_y
 _atom_site_fract_z
 _atom_site_occupancy
  Tb  Tb0  1  0.347628  0.351356  0.351132  1
  Tb  Tb1  1  0.345521  0.351869  0.954415  1
  Tb  Tb2  1  0.345702  0.954176  0.351924  1
  Tb  Tb3  1  0.965966  0.344721  0.344696  1
  Tb  Tb4  1  0.814547  0.190043  0.189975  1
  Tb  Tb5  1  0.184114  0.810612  0.810621  1
  Tb  Tb6  1  0.187173  0.811160  0.190258  1
  Tb  Tb7  1  0.814429  0.189752  0.802853  1
  Tb  Tb8  1  0.187162  0.190287  0.811120  1
  Tb  Tb9  1  0.814562  0.802910  0.189503  1
  Tb  Tb10  1  0.938315  0.559657  0.559762  1
  Tb  Tb11  1  0.554559  0.939568  0.939518  1
  Tb  Tb12  1  0.554049  0.938743  0.567978  1
  Tb  Tb13  1  0.937126  0.559845  0.939750  1
  Tb  Tb14  1  0.554210  0.567995  0.938638  1
  Y  Y15  1  0.936637  0.939412  0.560398  1
  Cd  Cd16  1  0.580396  0.579633  0.579608  1
  Cd  Cd17  1  0.580571  0.579628  0.258474  1
  Cd  Cd18  1  0.580756  0.258396  0.579628  1
  Cd  Cd19  1  0.256341  0.581131  0.581008  1
  Os  Os20  1  0.146825  0.138033  0.138019  1
  Os  Os21  1  0.148261  0.139944  0.578662  1
  Os  Os22  1  0.148340  0.578732  0.139752  1
  Pd  Pd23  1  0.576810  0.142393  0.142311  1
