# generated using pymatgen
data_CaTbCe2Zn8TcRu
_symmetry_space_group_name_H-M   'P 1'
_cell_length_a   7.19537700
_cell_length_b   7.19537700
_cell_length_c   5.14780900
_cell_angle_alpha   90.00000000
_cell_angle_beta   90.00000000
_cell_angle_gamma   90.00000000
_symmetry_Int_Tables_number   1
_chemical_formula_structural   CaTbCe2Zn8TcRu
_chemical_formula_sum   'Ca1 Tb1 Ce2 Zn8 Tc1 Ru1'
_cell_volume   266.51983276
_cell_formula_units_Z   1
loop_
 _symmetry_equiv_pos_site_id
 _symmetry_equiv_pos_as_xyz
  1  'x, y, z'
loop_
 _atom_site_type_symbol
 _atom_site_label
 _atom_site_symmetry_multiplicity
 _atom_site_fract_x
 _atom_site_fract_y
 _atom_site_fract_z
 _atom_site_occupancy
  Ca  Ca0  1  0.000000  0.500000  0.771174  1
  Tb  Tb1  1  0.500000  0.000000  0.226950  1
  Ce  Ce2  1  0.000000  0.000000  0.995908  1
  Ce  Ce3  1  0.500000  0.500000  0.996477  1
  Zn  Zn4  1  0.187119  0.687342  0.291370  1
  Zn  Zn5  1  0.812881  0.687342  0.291370  1
  Zn  Zn6  1  0.812881  0.312658  0.291370  1
  Zn  Zn7  1  0.315523  0.184995  0.711223  1
  Zn  Zn8  1  0.187119  0.312658  0.291370  1
  Zn  Zn9  1  0.684477  0.184995  0.711223  1
  Zn  Zn10  1  0.684477  0.815005  0.711223  1
  Zn  Zn11  1  0.315523  0.815005  0.711223  1
  Tc  Tc12  1  0.500000  0.500000  0.499463  1
  Ru  Ru13  1  0.000000  0.000000  0.499658  1
