# generated using pymatgen
data_LiLa4Sb8Ir4Rh
_symmetry_space_group_name_H-M   'P 1'
_cell_length_a   4.60969500
_cell_length_b   11.40842900
_cell_length_c   16.31147300
_cell_angle_alpha   90.00000000
_cell_angle_beta   90.00000000
_cell_angle_gamma   90.00000000
_symmetry_Int_Tables_number   1
_chemical_formula_structural   LiLa4Sb8Ir4Rh
_chemical_formula_sum   'Li2 La8 Sb16 Ir8 Rh2'
_cell_volume   857.81022128
_cell_formula_units_Z   2
loop_
 _symmetry_equiv_pos_site_id
 _symmetry_equiv_pos_as_xyz
  1  'x, y, z'
loop_
 _atom_site_type_symbol
 _atom_site_label
 _atom_site_symmetry_multiplicity
 _atom_site_fract_x
 _atom_site_fract_y
 _atom_site_fract_z
 _atom_site_occupancy
  Li  Li0  1  0.250000  0.467490  0.555315  1
  Li  Li1  1  0.250000  0.032510  0.055315  1
  La  La2  1  0.250000  0.753923  0.505514  1
  La  La3  1  0.250000  0.746077  0.005514  1
  La  La4  1  0.750000  0.246967  0.489933  1
  La  La5  1  0.750000  0.253033  0.989933  1
  La  La6  1  0.250000  0.594124  0.754463  1
  La  La7  1  0.250000  0.905876  0.254463  1
  La  La8  1  0.750000  0.407156  0.248741  1
  La  La9  1  0.750000  0.092844  0.748741  1
  Sb  Sb10  1  0.250000  0.266849  0.649569  1
  Sb  Sb11  1  0.250000  0.233151  0.149569  1
  Sb  Sb12  1  0.750000  0.721562  0.352895  1
  Sb  Sb13  1  0.750000  0.778438  0.852895  1
  Sb  Sb14  1  0.250000  0.890546  0.712062  1
  Sb  Sb15  1  0.250000  0.609454  0.212062  1
  Sb  Sb16  1  0.750000  0.111270  0.289284  1
  Sb  Sb17  1  0.750000  0.388730  0.789284  1
  Sb  Sb18  1  0.250000  0.064416  0.892032  1
  Sb  Sb19  1  0.250000  0.435584  0.392032  1
  Sb  Sb20  1  0.750000  0.916399  0.103254  1
  Sb  Sb21  1  0.750000  0.583601  0.603254  1
  Sb  Sb22  1  0.250000  0.449740  0.931134  1
  Sb  Sb23  1  0.250000  0.050260  0.431134  1
  Sb  Sb24  1  0.750000  0.554424  0.067051  1
  Sb  Sb25  1  0.750000  0.945576  0.567051  1
  Ir  Ir26  1  0.250000  0.052032  0.593068  1
  Ir  Ir27  1  0.250000  0.447968  0.093068  1
  Ir  Ir28  1  0.750000  0.942142  0.405234  1
  Ir  Ir29  1  0.750000  0.557858  0.905234  1
  Ir  Ir30  1  0.250000  0.278350  0.818733  1
  Ir  Ir31  1  0.250000  0.221650  0.318733  1
  Ir  Ir32  1  0.750000  0.715631  0.185795  1
  Ir  Ir33  1  0.750000  0.784369  0.685795  1
  Rh  Rh34  1  0.750000  0.528819  0.445922  1
  Rh  Rh35  1  0.750000  0.971181  0.945922  1
