# generated using pymatgen
data_Na5NiH9Pt
_symmetry_space_group_name_H-M   'P 1'
_cell_length_a   8.03531500
_cell_length_b   8.03531421
_cell_length_c   7.85399947
_cell_angle_alpha   111.04059835
_cell_angle_beta   111.04062176
_cell_angle_gamma   107.34728961
_symmetry_Int_Tables_number   1
_chemical_formula_structural   Na5NiH9Pt
_chemical_formula_sum   'Na10 Ni2 H18 Pt2'
_cell_volume   385.00708435
_cell_formula_units_Z   2
loop_
 _symmetry_equiv_pos_site_id
 _symmetry_equiv_pos_as_xyz
  1  'x, y, z'
loop_
 _atom_site_type_symbol
 _atom_site_label
 _atom_site_symmetry_multiplicity
 _atom_site_fract_x
 _atom_site_fract_y
 _atom_site_fract_z
 _atom_site_occupancy
  Na  Na0  1  0.688861  0.188861  0.193195  1
  Na  Na1  1  0.995667  0.495667  0.806807  1
  Na  Na2  1  0.197096  0.991252  0.500000  1
  Na  Na3  1  0.491252  0.697096  0.500000  1
  Na  Na4  1  0.311139  0.811139  0.806805  1
  Na  Na5  1  0.004333  0.504333  0.193193  1
  Na  Na6  1  0.802904  0.008748  0.500000  1
  Na  Na7  1  0.508748  0.302904  0.500000  1
  Na  Na8  1  0.500000  0.500000  0.000000  1
  Na  Na9  1  0.000000  0.000000  0.000000  1
  Ni  Ni10  1  0.647412  0.147411  0.794817  1
  Ni  Ni11  1  0.352588  0.852589  0.205183  1
  H  H12  1  0.477319  0.143479  0.842832  1
  H  H13  1  0.300644  0.634484  0.157166  1
  H  H14  1  0.954988  0.113672  0.313736  1
  H  H15  1  0.799937  0.641253  0.686261  1
  H  H16  1  0.613672  0.454989  0.313736  1
  H  H17  1  0.141253  0.299937  0.686261  1
  H  H18  1  0.643478  0.977319  0.842832  1
  H  H19  1  0.134485  0.800644  0.157166  1
  H  H20  1  0.522681  0.856521  0.157168  1
  H  H21  1  0.699356  0.365516  0.842834  1
  H  H22  1  0.045012  0.886328  0.686264  1
  H  H23  1  0.200063  0.358747  0.313739  1
  H  H24  1  0.386328  0.545011  0.686264  1
  H  H25  1  0.858747  0.700063  0.313739  1
  H  H26  1  0.356522  0.022681  0.157168  1
  H  H27  1  0.865515  0.199356  0.842834  1
  H  H28  1  0.500000  0.000000  0.500000  1
  H  H29  1  0.000000  0.500000  0.500000  1
  Pt  Pt30  1  0.154289  0.345711  0.500000  1
  Pt  Pt31  1  0.845711  0.654289  0.500000  1
