# generated using pymatgen
data_Ho3Zr(P3Ir4)2
_symmetry_space_group_name_H-M   'P 1'
_cell_length_a   4.00023900
_cell_length_b   11.21306600
_cell_length_c   12.90078300
_cell_angle_alpha   90.00000000
_cell_angle_beta   90.00000000
_cell_angle_gamma   90.00000000
_symmetry_Int_Tables_number   1
_chemical_formula_structural   Ho3Zr(P3Ir4)2
_chemical_formula_sum   'Ho6 Zr2 P12 Ir16'
_cell_volume   578.66389802
_cell_formula_units_Z   2
loop_
 _symmetry_equiv_pos_site_id
 _symmetry_equiv_pos_as_xyz
  1  'x, y, z'
loop_
 _atom_site_type_symbol
 _atom_site_label
 _atom_site_symmetry_multiplicity
 _atom_site_fract_x
 _atom_site_fract_y
 _atom_site_fract_z
 _atom_site_occupancy
  Ho  Ho0  1  0.000000  0.500000  0.524005  1
  Ho  Ho1  1  0.500000  0.000000  0.475995  1
  Ho  Ho2  1  0.500000  0.820201  0.202454  1
  Ho  Ho3  1  0.500000  0.179799  0.202454  1
  Ho  Ho4  1  0.000000  0.679799  0.797546  1
  Ho  Ho5  1  0.000000  0.320201  0.797546  1
  Zr  Zr6  1  0.500000  0.500000  0.159777  1
  Zr  Zr7  1  0.000000  0.000000  0.840223  1
  P  P8  1  0.500000  0.313759  0.617019  1
  P  P9  1  0.500000  0.686241  0.617019  1
  P  P10  1  0.000000  0.186241  0.382981  1
  P  P11  1  0.000000  0.813759  0.382981  1
  P  P12  1  0.500000  0.500000  0.877114  1
  P  P13  1  0.000000  0.000000  0.122886  1
  P  P14  1  0.500000  0.842379  0.887194  1
  P  P15  1  0.500000  0.157621  0.887194  1
  P  P16  1  0.000000  0.657621  0.112806  1
  P  P17  1  0.000000  0.342379  0.112806  1
  P  P18  1  0.500000  0.500000  0.361084  1
  P  P19  1  0.000000  0.000000  0.638916  1
  Ir  Ir20  1  0.000000  0.500000  0.988603  1
  Ir  Ir21  1  0.500000  0.000000  0.011397  1
  Ir  Ir22  1  0.500000  0.294937  0.432696  1
  Ir  Ir23  1  0.500000  0.705063  0.432696  1
  Ir  Ir24  1  0.000000  0.205063  0.567304  1
  Ir  Ir25  1  0.000000  0.794937  0.567304  1
  Ir  Ir26  1  0.500000  0.870034  0.708336  1
  Ir  Ir27  1  0.500000  0.129966  0.708336  1
  Ir  Ir28  1  0.000000  0.629966  0.291664  1
  Ir  Ir29  1  0.000000  0.370034  0.291664  1
  Ir  Ir30  1  0.500000  0.330784  0.982557  1
  Ir  Ir31  1  0.500000  0.669216  0.982557  1
  Ir  Ir32  1  0.000000  0.169216  0.017443  1
  Ir  Ir33  1  0.000000  0.830784  0.017443  1
  Ir  Ir34  1  0.500000  0.500000  0.699272  1
  Ir  Ir35  1  0.000000  0.000000  0.300728  1
