# generated using pymatgen
data_NdAl8GeAu4
_symmetry_space_group_name_H-M   'P 1'
_cell_length_a   6.11276002
_cell_length_b   6.11276096
_cell_length_c   14.97578942
_cell_angle_alpha   101.77612100
_cell_angle_beta   101.77612300
_cell_angle_gamma   90.00000119
_symmetry_Int_Tables_number   1
_chemical_formula_structural   NdAl8GeAu4
_chemical_formula_sum   'Nd2 Al16 Ge2 Au8'
_cell_volume   535.76849999
_cell_formula_units_Z   2
loop_
 _symmetry_equiv_pos_site_id
 _symmetry_equiv_pos_as_xyz
  1  'x, y, z'
loop_
 _atom_site_type_symbol
 _atom_site_label
 _atom_site_symmetry_multiplicity
 _atom_site_fract_x
 _atom_site_fract_y
 _atom_site_fract_z
 _atom_site_occupancy
  Nd  Nd0  1  0.750001  0.250000  0.500000  1
  Nd  Nd1  1  0.250000  0.750001  0.500000  1
  Al  Al2  1  0.302132  0.302132  0.105566  1
  Al  Al3  1  0.803434  0.302132  0.105566  1
  Al  Al4  1  0.302132  0.803434  0.105566  1
  Al  Al5  1  0.803434  0.803434  0.105566  1
  Al  Al6  1  0.406597  0.406597  0.311652  1
  Al  Al7  1  0.905054  0.406597  0.311652  1
  Al  Al8  1  0.406597  0.905054  0.311652  1
  Al  Al9  1  0.905054  0.905054  0.311652  1
  Al  Al10  1  0.094945  0.094945  0.688348  1
  Al  Al11  1  0.593403  0.094945  0.688348  1
  Al  Al12  1  0.094945  0.593403  0.688348  1
  Al  Al13  1  0.593403  0.593403  0.688348  1
  Al  Al14  1  0.196567  0.196567  0.894434  1
  Al  Al15  1  0.697867  0.196567  0.894434  1
  Al  Al16  1  0.196567  0.697867  0.894434  1
  Al  Al17  1  0.697867  0.697867  0.894434  1
  Ge  Ge18  1  0.207175  0.207175  0.414351  1
  Ge  Ge19  1  0.792825  0.792825  0.585650  1
  Au  Au20  1  0.000000  0.000000  0.000000  1
  Au  Au21  1  0.500001  0.500001  0.000000  1
  Au  Au22  1  0.605176  0.105176  0.210352  1
  Au  Au23  1  0.105176  0.605176  0.210352  1
  Au  Au24  1  0.704395  0.704395  0.408788  1
  Au  Au25  1  0.295606  0.295606  0.591212  1
  Au  Au26  1  0.894825  0.394824  0.789647  1
  Au  Au27  1  0.394824  0.894825  0.789647  1
