# generated using pymatgen
data_Nb6CuSbS12
_symmetry_space_group_name_H-M   'P 1'
_cell_length_a   5.82778700
_cell_length_b   5.82778811
_cell_length_c   13.20136500
_cell_angle_alpha   90.00000000
_cell_angle_beta   90.00000000
_cell_angle_gamma   120.00001076
_symmetry_Int_Tables_number   1
_chemical_formula_structural   Nb6CuSbS12
_chemical_formula_sum   'Nb6 Cu1 Sb1 S12'
_cell_volume   388.29057280
_cell_formula_units_Z   1
loop_
 _symmetry_equiv_pos_site_id
 _symmetry_equiv_pos_as_xyz
  1  'x, y, z'
loop_
 _atom_site_type_symbol
 _atom_site_label
 _atom_site_symmetry_multiplicity
 _atom_site_fract_x
 _atom_site_fract_y
 _atom_site_fract_z
 _atom_site_occupancy
  Nb  Nb0  1  0.333333  0.666667  0.235295  1
  Nb  Nb1  1  0.000000  0.000000  0.235028  1
  Nb  Nb2  1  0.000000  0.000000  0.764972  1
  Nb  Nb3  1  0.333333  0.666667  0.764705  1
  Nb  Nb4  1  0.666667  0.333333  0.764705  1
  Nb  Nb5  1  0.666667  0.333333  0.235295  1
  Cu  Cu6  1  0.000000  0.000000  0.000000  1
  Sb  Sb7  1  0.000000  0.000000  0.500000  1
  S  S8  1  0.000000  0.664049  0.645170  1
  S  S9  1  0.000000  0.663856  0.883271  1
  S  S10  1  0.000000  0.336144  0.116729  1
  S  S11  1  0.000000  0.335951  0.354830  1
  S  S12  1  0.335951  0.335951  0.645170  1
  S  S13  1  0.336144  0.336144  0.883271  1
  S  S14  1  0.663856  0.663856  0.116729  1
  S  S15  1  0.664049  0.664049  0.354830  1
  S  S16  1  0.336144  0.000000  0.116729  1
  S  S17  1  0.335951  0.000000  0.354830  1
  S  S18  1  0.664049  0.000000  0.645170  1
  S  S19  1  0.663856  0.000000  0.883271  1
