# generated using pymatgen
data_Dy5Sc3(P3Rh4)4
_symmetry_space_group_name_H-M   'P 1'
_cell_length_a   12.86286000
_cell_length_b   12.86286041
_cell_length_c   3.92419100
_cell_angle_alpha   90.00000000
_cell_angle_beta   90.00000000
_cell_angle_gamma   119.99999894
_symmetry_Int_Tables_number   1
_chemical_formula_structural   Dy5Sc3(P3Rh4)4
_chemical_formula_sum   'Dy5 Sc3 P12 Rh16'
_cell_volume   562.28419096
_cell_formula_units_Z   1
loop_
 _symmetry_equiv_pos_site_id
 _symmetry_equiv_pos_as_xyz
  1  'x, y, z'
loop_
 _atom_site_type_symbol
 _atom_site_label
 _atom_site_symmetry_multiplicity
 _atom_site_fract_x
 _atom_site_fract_y
 _atom_site_fract_z
 _atom_site_occupancy
  Dy  Dy0  1  0.333333  0.666667  0.500000  1
  Dy  Dy1  1  0.666667  0.333333  0.500000  1
  Dy  Dy2  1  0.000000  0.811737  0.000000  1
  Dy  Dy3  1  0.188263  0.188263  0.000000  1
  Dy  Dy4  1  0.811737  0.000000  0.000000  1
  Sc  Sc5  1  0.000000  0.443355  0.500000  1
  Sc  Sc6  1  0.556645  0.556645  0.500000  1
  Sc  Sc7  1  0.443355  0.000000  0.500000  1
  P  P8  1  0.000000  0.645163  0.500000  1
  P  P9  1  0.354837  0.354837  0.500000  1
  P  P10  1  0.645163  0.000000  0.500000  1
  P  P11  1  0.517315  0.687631  0.000000  1
  P  P12  1  0.312369  0.829684  0.000000  1
  P  P13  1  0.170316  0.482685  0.000000  1
  P  P14  1  0.482685  0.170316  0.000000  1
  P  P15  1  0.687631  0.517315  0.000000  1
  P  P16  1  0.829684  0.312369  0.000000  1
  P  P17  1  0.000000  0.177151  0.500000  1
  P  P18  1  0.822849  0.822849  0.500000  1
  P  P19  1  0.177151  0.000000  0.500000  1
  Rh  Rh20  1  0.513460  0.870554  0.000000  1
  Rh  Rh21  1  0.129446  0.642907  0.000000  1
  Rh  Rh22  1  0.357093  0.486540  0.000000  1
  Rh  Rh23  1  0.486540  0.357093  0.000000  1
  Rh  Rh24  1  0.870554  0.513460  0.000000  1
  Rh  Rh25  1  0.642907  0.129446  0.000000  1
  Rh  Rh26  1  0.000000  0.278370  0.000000  1
  Rh  Rh27  1  0.721630  0.721630  0.000000  1
  Rh  Rh28  1  0.278370  0.000000  0.000000  1
  Rh  Rh29  1  0.626633  0.804801  0.500000  1
  Rh  Rh30  1  0.195199  0.821832  0.500000  1
  Rh  Rh31  1  0.178168  0.373367  0.500000  1
  Rh  Rh32  1  0.373367  0.178168  0.500000  1
  Rh  Rh33  1  0.804801  0.626633  0.500000  1
  Rh  Rh34  1  0.821832  0.195199  0.500000  1
  Rh  Rh35  1  0.000000  0.000000  0.500000  1
