# generated using pymatgen
data_Sm2Zn3Ag4
_symmetry_space_group_name_H-M   'P 1'
_cell_length_a   5.37856595
_cell_length_b   5.37856492
_cell_length_c   14.09923600
_cell_angle_alpha   90.00000000
_cell_angle_beta   90.00000000
_cell_angle_gamma   119.62085721
_symmetry_Int_Tables_number   1
_chemical_formula_structural   Sm2Zn3Ag4
_chemical_formula_sum   'Sm4 Zn6 Ag8'
_cell_volume   354.57303034
_cell_formula_units_Z   2
loop_
 _symmetry_equiv_pos_site_id
 _symmetry_equiv_pos_as_xyz
  1  'x, y, z'
loop_
 _atom_site_type_symbol
 _atom_site_label
 _atom_site_symmetry_multiplicity
 _atom_site_fract_x
 _atom_site_fract_y
 _atom_site_fract_z
 _atom_site_occupancy
  Sm  Sm0  1  0.821976  0.821976  0.119436  1
  Sm  Sm1  1  0.178024  0.178024  0.880564  1
  Sm  Sm2  1  0.821976  0.821976  0.380564  1
  Sm  Sm3  1  0.178024  0.178024  0.619436  1
  Zn  Zn4  1  0.169876  0.674669  0.750000  1
  Zn  Zn5  1  0.674669  0.169876  0.750000  1
  Zn  Zn6  1  0.675625  0.675625  0.750000  1
  Zn  Zn7  1  0.325331  0.830124  0.250000  1
  Zn  Zn8  1  0.830124  0.325331  0.250000  1
  Zn  Zn9  1  0.324375  0.324375  0.250000  1
  Ag  Ag10  1  0.163080  0.490351  0.078610  1
  Ag  Ag11  1  0.509649  0.836920  0.921390  1
  Ag  Ag12  1  0.490351  0.163080  0.078610  1
  Ag  Ag13  1  0.836920  0.509649  0.578610  1
  Ag  Ag14  1  0.490351  0.163080  0.421390  1
  Ag  Ag15  1  0.836920  0.509649  0.921390  1
  Ag  Ag16  1  0.509649  0.836920  0.578610  1
  Ag  Ag17  1  0.163080  0.490351  0.421390  1
