# generated using pymatgen
data_Ba3EuHfSe6
_symmetry_space_group_name_H-M   'P 1'
_cell_length_a   8.81674277
_cell_length_b   8.81674300
_cell_length_c   8.81674390
_cell_angle_alpha   91.58261439
_cell_angle_beta   91.58260739
_cell_angle_gamma   91.58261899
_symmetry_Int_Tables_number   1
_chemical_formula_structural   Ba3EuHfSe6
_chemical_formula_sum   'Ba6 Eu2 Hf2 Se12'
_cell_volume   684.57011767
_cell_formula_units_Z   2
loop_
 _symmetry_equiv_pos_site_id
 _symmetry_equiv_pos_as_xyz
  1  'x, y, z'
loop_
 _atom_site_type_symbol
 _atom_site_label
 _atom_site_symmetry_multiplicity
 _atom_site_fract_x
 _atom_site_fract_y
 _atom_site_fract_z
 _atom_site_occupancy
  Ba  Ba0  1  0.874767  0.625233  0.250000  1
  Ba  Ba1  1  0.250000  0.874767  0.625233  1
  Ba  Ba2  1  0.625233  0.250000  0.874767  1
  Ba  Ba3  1  0.750000  0.125233  0.374767  1
  Ba  Ba4  1  0.374767  0.750000  0.125233  1
  Ba  Ba5  1  0.125233  0.374767  0.750000  1
  Eu  Eu6  1  0.250000  0.250000  0.250000  1
  Eu  Eu7  1  0.750000  0.750000  0.750000  1
  Hf  Hf8  1  0.500000  0.500000  0.500000  1
  Hf  Hf9  1  0.000000  0.000000  0.000000  1
  Se  Se10  1  0.207519  0.550706  0.419298  1
  Se  Se11  1  0.419298  0.207519  0.550706  1
  Se  Se12  1  0.550706  0.419298  0.207519  1
  Se  Se13  1  0.919298  0.050706  0.707519  1
  Se  Se14  1  0.707519  0.919298  0.050706  1
  Se  Se15  1  0.050706  0.707519  0.919298  1
  Se  Se16  1  0.792481  0.449294  0.580702  1
  Se  Se17  1  0.580702  0.792481  0.449294  1
  Se  Se18  1  0.449294  0.580702  0.792481  1
  Se  Se19  1  0.080702  0.949294  0.292481  1
  Se  Se20  1  0.292481  0.080702  0.949294  1
  Se  Se21  1  0.949294  0.292481  0.080702  1
