# generated using pymatgen
data_KBa2Cd2Bi3
_symmetry_space_group_name_H-M   'P 1'
_cell_length_a   5.16514600
_cell_length_b   13.61285500
_cell_length_c   17.35582300
_cell_angle_alpha   90.00000000
_cell_angle_beta   90.00000000
_cell_angle_gamma   90.00000000
_symmetry_Int_Tables_number   1
_chemical_formula_structural   KBa2Cd2Bi3
_chemical_formula_sum   'K4 Ba8 Cd8 Bi12'
_cell_volume   1220.32928363
_cell_formula_units_Z   4
loop_
 _symmetry_equiv_pos_site_id
 _symmetry_equiv_pos_as_xyz
  1  'x, y, z'
loop_
 _atom_site_type_symbol
 _atom_site_label
 _atom_site_symmetry_multiplicity
 _atom_site_fract_x
 _atom_site_fract_y
 _atom_site_fract_z
 _atom_site_occupancy
  K  K0  1  0.250000  0.390783  0.551724  1
  K  K1  1  0.750000  0.109217  0.051724  1
  K  K2  1  0.250000  0.890783  0.948276  1
  K  K3  1  0.750000  0.609217  0.448276  1
  Ba  Ba4  1  0.250000  0.365086  0.287708  1
  Ba  Ba5  1  0.750000  0.134914  0.787708  1
  Ba  Ba6  1  0.250000  0.865086  0.212292  1
  Ba  Ba7  1  0.750000  0.634914  0.712292  1
  Ba  Ba8  1  0.250000  0.097178  0.426750  1
  Ba  Ba9  1  0.750000  0.402822  0.926750  1
  Ba  Ba10  1  0.250000  0.597178  0.073250  1
  Ba  Ba11  1  0.750000  0.902822  0.573250  1
  Cd  Cd12  1  0.250000  0.305605  0.081982  1
  Cd  Cd13  1  0.750000  0.194395  0.581982  1
  Cd  Cd14  1  0.250000  0.805605  0.418018  1
  Cd  Cd15  1  0.750000  0.694395  0.918018  1
  Cd  Cd16  1  0.250000  0.371567  0.783854  1
  Cd  Cd17  1  0.750000  0.128433  0.283854  1
  Cd  Cd18  1  0.250000  0.871567  0.716146  1
  Cd  Cd19  1  0.750000  0.628433  0.216146  1
  Bi  Bi20  1  0.250000  0.127571  0.193557  1
  Bi  Bi21  1  0.750000  0.372429  0.693557  1
  Bi  Bi22  1  0.250000  0.627571  0.306443  1
  Bi  Bi23  1  0.750000  0.872429  0.806443  1
  Bi  Bi24  1  0.250000  0.715768  0.578716  1
  Bi  Bi25  1  0.750000  0.784232  0.078716  1
  Bi  Bi26  1  0.250000  0.215768  0.921284  1
  Bi  Bi27  1  0.750000  0.284232  0.421284  1
  Bi  Bi28  1  0.250000  0.083451  0.637874  1
  Bi  Bi29  1  0.750000  0.416549  0.137874  1
  Bi  Bi30  1  0.250000  0.583451  0.862126  1
  Bi  Bi31  1  0.750000  0.916549  0.362126  1
