# generated using pymatgen
data_Tb4Er4B24IrRu3
_symmetry_space_group_name_H-M   'P 1'
_cell_length_a   3.65552500
_cell_length_b   9.13964994
_cell_length_c   11.49933601
_cell_angle_alpha   90.03458624
_cell_angle_beta   90.00000000
_cell_angle_gamma   90.00000000
_symmetry_Int_Tables_number   1
_chemical_formula_structural   Tb4Er4B24IrRu3
_chemical_formula_sum   'Tb4 Er4 B24 Ir1 Ru3'
_cell_volume   384.19526292
_cell_formula_units_Z   1
loop_
 _symmetry_equiv_pos_site_id
 _symmetry_equiv_pos_as_xyz
  1  'x, y, z'
loop_
 _atom_site_type_symbol
 _atom_site_label
 _atom_site_symmetry_multiplicity
 _atom_site_fract_x
 _atom_site_fract_y
 _atom_site_fract_z
 _atom_site_occupancy
  Tb  Tb0  1  0.000000  0.319420  0.414338  1
  Tb  Tb1  1  0.000000  0.678778  0.588972  1
  Tb  Tb2  1  0.000000  0.823462  0.084346  1
  Tb  Tb3  1  0.000000  0.178465  0.912984  1
  Er  Er4  1  0.000000  0.945640  0.372903  1
  Er  Er5  1  0.000000  0.056002  0.627059  1
  Er  Er6  1  0.000000  0.441869  0.125785  1
  Er  Er7  1  0.000000  0.555929  0.873191  1
  B  B8  1  0.500000  0.553842  0.433360  1
  B  B9  1  0.500000  0.445780  0.567465  1
  B  B10  1  0.500000  0.054423  0.067301  1
  B  B11  1  0.500000  0.946035  0.932357  1
  B  B12  1  0.500000  0.749856  0.420751  1
  B  B13  1  0.500000  0.251180  0.580456  1
  B  B14  1  0.500000  0.248326  0.080253  1
  B  B15  1  0.500000  0.751746  0.919619  1
  B  B16  1  0.500000  0.791943  0.265902  1
  B  B17  1  0.500000  0.209063  0.733454  1
  B  B18  1  0.500000  0.291160  0.233868  1
  B  B19  1  0.500000  0.708848  0.766613  1
  B  B20  1  0.500000  0.631410  0.183847  1
  B  B21  1  0.500000  0.368926  0.814698  1
  B  B22  1  0.500000  0.131208  0.314942  1
  B  B23  1  0.500000  0.868633  0.685387  1
  B  B24  1  0.500000  0.983433  0.213183  1
  B  B25  1  0.500000  0.016680  0.786489  1
  B  B26  1  0.500000  0.482208  0.286516  1
  B  B27  1  0.500000  0.516594  0.713580  1
  B  B28  1  0.500000  0.608322  0.030149  1
  B  B29  1  0.500000  0.391748  0.970234  1
  B  B30  1  0.500000  0.107614  0.470310  1
  B  B31  1  0.500000  0.891605  0.529428  1
  Ir  Ir32  1  0.000000  0.637692  0.321192  1
  Ru  Ru33  1  0.000000  0.362069  0.678889  1
  Ru  Ru34  1  0.000000  0.138265  0.179629  1
  Ru  Ru35  1  0.000000  0.861826  0.820553  1
