# generated using pymatgen
data_Ba2Yb(SmSn2)2
_symmetry_space_group_name_H-M   'P 1'
_cell_length_a   8.32080400
_cell_length_b   8.79854700
_cell_length_c   16.87828200
_cell_angle_alpha   90.00000000
_cell_angle_beta   90.00000000
_cell_angle_gamma   90.00000000
_symmetry_Int_Tables_number   1
_chemical_formula_structural   Ba2Yb(SmSn2)2
_chemical_formula_sum   'Ba8 Yb4 Sm8 Sn16'
_cell_volume   1235.67565154
_cell_formula_units_Z   4
loop_
 _symmetry_equiv_pos_site_id
 _symmetry_equiv_pos_as_xyz
  1  'x, y, z'
loop_
 _atom_site_type_symbol
 _atom_site_label
 _atom_site_symmetry_multiplicity
 _atom_site_fract_x
 _atom_site_fract_y
 _atom_site_fract_z
 _atom_site_occupancy
  Ba  Ba0  1  0.508443  0.676898  0.596053  1
  Ba  Ba1  1  0.008443  0.823102  0.903947  1
  Ba  Ba2  1  0.491557  0.323102  0.096053  1
  Ba  Ba3  1  0.991557  0.176898  0.403947  1
  Ba  Ba4  1  0.491557  0.323102  0.403947  1
  Ba  Ba5  1  0.991557  0.176898  0.096053  1
  Ba  Ba6  1  0.508443  0.676898  0.903947  1
  Ba  Ba7  1  0.008443  0.823102  0.596053  1
  Yb  Yb8  1  0.840754  0.504110  0.750000  1
  Yb  Yb9  1  0.340754  0.995890  0.750000  1
  Yb  Yb10  1  0.159246  0.495890  0.250000  1
  Yb  Yb11  1  0.659246  0.004110  0.250000  1
  Sm  Sm12  1  0.673748  0.171169  0.622637  1
  Sm  Sm13  1  0.173748  0.328831  0.877363  1
  Sm  Sm14  1  0.326252  0.828831  0.122637  1
  Sm  Sm15  1  0.826252  0.671169  0.377363  1
  Sm  Sm16  1  0.326252  0.828831  0.377363  1
  Sm  Sm17  1  0.826252  0.671169  0.122637  1
  Sm  Sm18  1  0.673748  0.171169  0.877363  1
  Sm  Sm19  1  0.173748  0.328831  0.622637  1
  Sn  Sn20  1  0.654497  0.957508  0.459364  1
  Sn  Sn21  1  0.154497  0.542492  0.040636  1
  Sn  Sn22  1  0.345503  0.042492  0.959364  1
  Sn  Sn23  1  0.845503  0.457508  0.540636  1
  Sn  Sn24  1  0.345503  0.042492  0.540636  1
  Sn  Sn25  1  0.845503  0.457508  0.959364  1
  Sn  Sn26  1  0.654497  0.957508  0.040636  1
  Sn  Sn27  1  0.154497  0.542492  0.459364  1
  Sn  Sn28  1  0.469944  0.369184  0.750000  1
  Sn  Sn29  1  0.969944  0.130816  0.750000  1
  Sn  Sn30  1  0.530056  0.630816  0.250000  1
  Sn  Sn31  1  0.030056  0.869184  0.250000  1
  Sn  Sn32  1  0.717265  0.891414  0.750000  1
  Sn  Sn33  1  0.217265  0.608586  0.750000  1
  Sn  Sn34  1  0.282735  0.108586  0.250000  1
  Sn  Sn35  1  0.782735  0.391414  0.250000  1
