# generated using pymatgen
data_P4RhWO14
_symmetry_space_group_name_H-M   'P 1'
_cell_length_a   8.17022253
_cell_length_b   4.94211916
_cell_length_c   7.03356027
_cell_angle_alpha   73.19061062
_cell_angle_beta   90.30401315
_cell_angle_gamma   89.70569868
_symmetry_Int_Tables_number   1
_chemical_formula_structural   P4RhWO14
_chemical_formula_sum   'P4 Rh1 W1 O14'
_cell_volume   271.85733923
_cell_formula_units_Z   1
loop_
 _symmetry_equiv_pos_site_id
 _symmetry_equiv_pos_as_xyz
  1  'x, y, z'
loop_
 _atom_site_type_symbol
 _atom_site_label
 _atom_site_symmetry_multiplicity
 _atom_site_fract_x
 _atom_site_fract_y
 _atom_site_fract_z
 _atom_site_occupancy
  P  P0  1  0.961866  0.225417  0.901366  1
  P  P1  1  0.055975  0.610193  0.522691  1
  P  P2  1  0.570547  0.398376  0.488560  1
  P  P3  1  0.478922  0.761784  0.094027  1
  Rh  Rh4  1  0.743171  0.788680  0.723202  1
  W  W5  1  0.244314  0.210394  0.275955  1
  O  O6  1  0.934083  0.954540  0.845608  1
  O  O7  1  0.569092  0.884701  0.905215  1
  O  O8  1  0.811780  0.401956  0.914316  1
  O  O9  1  0.093553  0.418973  0.741828  1
  O  O10  1  0.556967  0.597806  0.616488  1
  O  O11  1  0.882801  0.723070  0.502057  1
  O  O12  1  0.188752  0.839020  0.476624  1
  O  O13  1  0.704646  0.177717  0.524402  1
  O  O14  1  0.397676  0.267539  0.481748  1
  O  O15  1  0.081312  0.421062  0.381399  1
  O  O16  1  0.603387  0.588219  0.258837  1
  O  O17  1  0.329663  0.571333  0.084131  1
  O  O18  1  0.067374  0.150476  0.094073  1
  O  O19  1  0.408044  0.008744  0.167472  1
