# generated using pymatgen
data_Ti3GaPdO
_symmetry_space_group_name_H-M   'P 1'
_cell_length_a   6.87706300
_cell_length_b   6.87706300
_cell_length_c   6.87706300
_cell_angle_alpha   90.00000000
_cell_angle_beta   90.00000000
_cell_angle_gamma   90.00000000
_symmetry_Int_Tables_number   1
_chemical_formula_structural   Ti3GaPdO
_chemical_formula_sum   'Ti12 Ga4 Pd4 O4'
_cell_volume   325.24378662
_cell_formula_units_Z   4
loop_
 _symmetry_equiv_pos_site_id
 _symmetry_equiv_pos_as_xyz
  1  'x, y, z'
loop_
 _atom_site_type_symbol
 _atom_site_label
 _atom_site_symmetry_multiplicity
 _atom_site_fract_x
 _atom_site_fract_y
 _atom_site_fract_z
 _atom_site_occupancy
  Ti  Ti0  1  0.790439  0.957366  0.376166  1
  Ti  Ti1  1  0.709561  0.042634  0.876166  1
  Ti  Ti2  1  0.209561  0.457366  0.123834  1
  Ti  Ti3  1  0.290439  0.542634  0.623834  1
  Ti  Ti4  1  0.957366  0.376166  0.790439  1
  Ti  Ti5  1  0.042634  0.876166  0.709561  1
  Ti  Ti6  1  0.457366  0.123834  0.209561  1
  Ti  Ti7  1  0.542634  0.623834  0.290439  1
  Ti  Ti8  1  0.376166  0.790439  0.957366  1
  Ti  Ti9  1  0.876166  0.709561  0.042634  1
  Ti  Ti10  1  0.123834  0.209561  0.457366  1
  Ti  Ti11  1  0.623834  0.290439  0.542634  1
  Ga  Ga12  1  0.569233  0.430767  0.930767  1
  Ga  Ga13  1  0.430767  0.930767  0.569233  1
  Ga  Ga14  1  0.930767  0.569233  0.430767  1
  Ga  Ga15  1  0.069233  0.069233  0.069233  1
  Pd  Pd16  1  0.180287  0.819713  0.319713  1
  Pd  Pd17  1  0.319713  0.180287  0.819713  1
  Pd  Pd18  1  0.819713  0.319713  0.180287  1
  Pd  Pd19  1  0.680287  0.680287  0.680287  1
  O  O20  1  0.875159  0.124841  0.624841  1
  O  O21  1  0.624841  0.875159  0.124841  1
  O  O22  1  0.124841  0.624841  0.875159  1
  O  O23  1  0.375159  0.375159  0.375159  1
