# generated using pymatgen
data_Ce5Y2PbF30
_symmetry_space_group_name_H-M   'P 1'
_cell_length_a   8.53157056
_cell_length_b   8.53157230
_cell_length_c   8.56458900
_cell_angle_alpha   79.75364587
_cell_angle_beta   79.75363694
_cell_angle_gamma   100.27267399
_symmetry_Int_Tables_number   1
_chemical_formula_structural   Ce5Y2PbF30
_chemical_formula_sum   'Ce5 Y2 Pb1 F30'
_cell_volume   589.30904716
_cell_formula_units_Z   1
loop_
 _symmetry_equiv_pos_site_id
 _symmetry_equiv_pos_as_xyz
  1  'x, y, z'
loop_
 _atom_site_type_symbol
 _atom_site_label
 _atom_site_symmetry_multiplicity
 _atom_site_fract_x
 _atom_site_fract_y
 _atom_site_fract_z
 _atom_site_occupancy
  Ce  Ce0  1  0.249914  0.750086  0.750000  1
  Ce  Ce1  1  0.753828  0.679500  0.673562  1
  Ce  Ce2  1  0.320500  0.246172  0.826438  1
  Ce  Ce3  1  0.246136  0.320561  0.327186  1
  Ce  Ce4  1  0.679439  0.753864  0.172814  1
  Y  Y5  1  0.179072  0.820928  0.250000  1
  Y  Y6  1  0.821502  0.178498  0.750000  1
  Pb  Pb7  1  0.749938  0.250062  0.250000  1
  F  F8  1  0.315342  0.351619  0.053152  1
  F  F9  1  0.945696  0.813071  0.154213  1
  F  F10  1  0.845248  0.450912  0.685772  1
  F  F11  1  0.452517  0.844852  0.181518  1
  F  F12  1  0.817823  0.946347  0.653828  1
  F  F13  1  0.351420  0.321713  0.552261  1
  F  F14  1  0.678287  0.648580  0.947738  1
  F  F15  1  0.053653  0.182177  0.846172  1
  F  F16  1  0.155148  0.547483  0.318482  1
  F  F17  1  0.549088  0.154752  0.814228  1
  F  F18  1  0.186929  0.054304  0.345787  1
  F  F19  1  0.648381  0.684658  0.446848  1
  F  F20  1  0.774479  0.279834  0.996897  1
  F  F21  1  0.005335  0.273855  0.214823  1
  F  F22  1  0.785676  0.505130  0.223266  1
  F  F23  1  0.511896  0.784754  0.723508  1
  F  F24  1  0.274399  0.013060  0.712833  1
  F  F25  1  0.277897  0.774382  0.490276  1
  F  F26  1  0.225618  0.722103  0.009724  1
  F  F27  1  0.986940  0.725601  0.787167  1
  F  F28  1  0.215246  0.488104  0.776492  1
  F  F29  1  0.494870  0.214324  0.276734  1
  F  F30  1  0.726145  0.994665  0.285177  1
  F  F31  1  0.720166  0.225521  0.503103  1
  F  F32  1  0.468206  0.531794  0.250000  1
  F  F33  1  0.750647  0.962870  0.964956  1
  F  F34  1  0.037130  0.249353  0.535044  1
  F  F35  1  0.250649  0.036532  0.034203  1
  F  F36  1  0.963468  0.749351  0.465797  1
  F  F37  1  0.531375  0.468625  0.750000  1
