# generated using pymatgen
data_Ce2Y2TlCdPt4
_symmetry_space_group_name_H-M   'P 1'
_cell_length_a   7.84100208
_cell_length_b   7.90334009
_cell_length_c   3.71032100
_cell_angle_alpha   90.00000000
_cell_angle_beta   90.00000000
_cell_angle_gamma   89.98283942
_symmetry_Int_Tables_number   1
_chemical_formula_structural   Ce2Y2TlCdPt4
_chemical_formula_sum   'Ce2 Y2 Tl1 Cd1 Pt4'
_cell_volume   229.92897586
_cell_formula_units_Z   1
loop_
 _symmetry_equiv_pos_site_id
 _symmetry_equiv_pos_as_xyz
  1  'x, y, z'
loop_
 _atom_site_type_symbol
 _atom_site_label
 _atom_site_symmetry_multiplicity
 _atom_site_fract_x
 _atom_site_fract_y
 _atom_site_fract_z
 _atom_site_occupancy
  Ce  Ce0  1  0.832552  0.671392  0.500000  1
  Ce  Ce1  1  0.667508  0.170475  0.500000  1
  Y  Y2  1  0.169611  0.329276  0.500000  1
  Y  Y3  1  0.328765  0.830093  0.500000  1
  Tl  Tl4  1  0.495843  0.502567  0.000000  1
  Cd  Cd5  1  0.004489  0.001925  0.000000  1
  Pt  Pt6  1  0.639894  0.872734  0.000000  1
  Pt  Pt7  1  0.120013  0.631369  0.000000  1
  Pt  Pt8  1  0.867832  0.366317  0.000000  1
  Pt  Pt9  1  0.373494  0.123852  0.000000  1
