# generated using pymatgen
data_TlCr4Tc2S7
_symmetry_space_group_name_H-M   'P 1'
_cell_length_a   9.08887732
_cell_length_b   9.12424433
_cell_length_c   9.08208400
_cell_angle_alpha   61.27517331
_cell_angle_beta   61.58064232
_cell_angle_gamma   61.57049160
_symmetry_Int_Tables_number   1
_chemical_formula_structural   TlCr4Tc2S7
_chemical_formula_sum   'Tl2 Cr8 Tc4 S14'
_cell_volume   550.20320319
_cell_formula_units_Z   2
loop_
 _symmetry_equiv_pos_site_id
 _symmetry_equiv_pos_as_xyz
  1  'x, y, z'
loop_
 _atom_site_type_symbol
 _atom_site_label
 _atom_site_symmetry_multiplicity
 _atom_site_fract_x
 _atom_site_fract_y
 _atom_site_fract_z
 _atom_site_occupancy
  Tl  Tl0  1  0.371439  0.371910  0.372612  1
  Tl  Tl1  1  0.625352  0.624615  0.628752  1
  Cr  Cr2  1  0.301304  0.126114  0.993386  1
  Cr  Cr3  1  0.194706  0.890426  0.056506  1
  Cr  Cr4  1  0.885613  0.059184  0.197265  1
  Cr  Cr5  1  0.942085  0.803575  0.113935  1
  Cr  Cr6  1  0.799303  0.113245  0.943124  1
  Cr  Cr7  1  0.110555  0.944494  0.803326  1
  Cr  Cr8  1  0.995030  0.300719  0.126544  1
  Cr  Cr9  1  0.872953  0.007080  0.699392  1
  Tc  Tc10  1  0.126708  0.992508  0.303110  1
  Tc  Tc11  1  0.011925  0.695174  0.873312  1
  Tc  Tc12  1  0.694839  0.871287  0.010293  1
  Tc  Tc13  1  0.055808  0.203181  0.881545  1
  S  S14  1  0.964674  0.234359  0.650804  1
  S  S15  1  0.237863  0.658021  0.973917  1
  S  S16  1  0.654730  0.971242  0.238760  1
  S  S17  1  0.025229  0.764573  0.345300  1
  S  S18  1  0.758271  0.347099  0.032948  1
  S  S19  1  0.349214  0.025570  0.764167  1
  S  S20  1  0.176223  0.410367  0.824269  1
  S  S21  1  0.410338  0.817811  0.164177  1
  S  S22  1  0.822566  0.166598  0.411665  1
  S  S23  1  0.839823  0.581041  0.183867  1
  S  S24  1  0.587335  0.174531  0.833615  1
  S  S25  1  0.181637  0.838577  0.588441  1
  S  S26  1  0.778840  0.780189  0.769562  1
  S  S27  1  0.225634  0.226511  0.215409  1
