# generated using pymatgen
data_Pa2MnRh5
_symmetry_space_group_name_H-M   'P 1'
_cell_length_a   5.73967376
_cell_length_b   5.73967522
_cell_length_c   8.33171200
_cell_angle_alpha   90.00000000
_cell_angle_beta   90.00000000
_cell_angle_gamma   95.66727679
_symmetry_Int_Tables_number   1
_chemical_formula_structural   Pa2MnRh5
_chemical_formula_sum   'Pa4 Mn2 Rh10'
_cell_volume   273.13716442
_cell_formula_units_Z   2
loop_
 _symmetry_equiv_pos_site_id
 _symmetry_equiv_pos_as_xyz
  1  'x, y, z'
loop_
 _atom_site_type_symbol
 _atom_site_label
 _atom_site_symmetry_multiplicity
 _atom_site_fract_x
 _atom_site_fract_y
 _atom_site_fract_z
 _atom_site_occupancy
  Pa  Pa0  1  0.775401  0.224599  0.500000  1
  Pa  Pa1  1  0.224599  0.775401  0.000000  1
  Pa  Pa2  1  0.224599  0.775401  0.500000  1
  Pa  Pa3  1  0.775401  0.224599  0.000000  1
  Mn  Mn4  1  0.503103  0.503103  0.750000  1
  Mn  Mn5  1  0.496897  0.496897  0.250000  1
  Rh  Rh6  1  0.724869  0.724869  0.000827  1
  Rh  Rh7  1  0.724869  0.724869  0.499173  1
  Rh  Rh8  1  0.275131  0.275131  0.999173  1
  Rh  Rh9  1  0.275131  0.275131  0.500827  1
  Rh  Rh10  1  0.498967  0.000458  0.750000  1
  Rh  Rh11  1  0.501033  0.999542  0.250000  1
  Rh  Rh12  1  0.000205  0.000205  0.250000  1
  Rh  Rh13  1  0.999795  0.999795  0.750000  1
  Rh  Rh14  1  0.000458  0.498967  0.750000  1
  Rh  Rh15  1  0.999542  0.501033  0.250000  1
