# generated using pymatgen
data_La16Cd4Tc3Pd
_symmetry_space_group_name_H-M   'P 1'
_cell_length_a   10.04694936
_cell_length_b   10.19335562
_cell_length_c   10.19335600
_cell_angle_alpha   59.99999876
_cell_angle_beta   59.51677169
_cell_angle_gamma   59.51677608
_symmetry_Int_Tables_number   1
_chemical_formula_structural   La16Cd4Tc3Pd
_chemical_formula_sum   'La16 Cd4 Tc3 Pd1'
_cell_volume   732.72766760
_cell_formula_units_Z   1
loop_
 _symmetry_equiv_pos_site_id
 _symmetry_equiv_pos_as_xyz
  1  'x, y, z'
loop_
 _atom_site_type_symbol
 _atom_site_label
 _atom_site_symmetry_multiplicity
 _atom_site_fract_x
 _atom_site_fract_y
 _atom_site_fract_z
 _atom_site_occupancy
  La  La0  1  0.341882  0.350776  0.350776  1
  La  La1  1  0.341882  0.350776  0.956565  1
  La  La2  1  0.341882  0.956565  0.350776  1
  La  La3  1  0.963614  0.345462  0.345462  1
  La  La4  1  0.821125  0.188989  0.188989  1
  La  La5  1  0.189150  0.812478  0.812478  1
  La  La6  1  0.189150  0.812478  0.185894  1
  La  La7  1  0.821125  0.188989  0.800897  1
  La  La8  1  0.189150  0.185894  0.812478  1
  La  La9  1  0.821125  0.800897  0.188989  1
  La  La10  1  0.941616  0.557822  0.557822  1
  La  La11  1  0.555210  0.941146  0.941146  1
  La  La12  1  0.555210  0.941146  0.562497  1
  La  La13  1  0.941616  0.557822  0.942740  1
  La  La14  1  0.555210  0.562497  0.941146  1
  La  La15  1  0.941616  0.942740  0.557822  1
  Cd  Cd16  1  0.579033  0.578850  0.578850  1
  Cd  Cd17  1  0.579033  0.578850  0.263269  1
  Cd  Cd18  1  0.579033  0.263269  0.578850  1
  Cd  Cd19  1  0.262988  0.579004  0.579004  1
  Tc  Tc20  1  0.136045  0.134734  0.134734  1
  Tc  Tc21  1  0.136045  0.134734  0.594487  1
  Tc  Tc22  1  0.136045  0.594487  0.134734  1
  Pd  Pd23  1  0.581216  0.139595  0.139595  1
