# generated using pymatgen
data_LiZr2ZnPt2
_symmetry_space_group_name_H-M   'P 1'
_cell_length_a   5.08401352
_cell_length_b   5.08401355
_cell_length_c   5.28275697
_cell_angle_alpha   89.11799727
_cell_angle_beta   90.88200581
_cell_angle_gamma   129.12145190
_symmetry_Int_Tables_number   1
_chemical_formula_structural   LiZr2ZnPt2
_chemical_formula_sum   'Li1 Zr2 Zn1 Pt2'
_cell_volume   105.91718296
_cell_formula_units_Z   1
loop_
 _symmetry_equiv_pos_site_id
 _symmetry_equiv_pos_as_xyz
  1  'x, y, z'
loop_
 _atom_site_type_symbol
 _atom_site_label
 _atom_site_symmetry_multiplicity
 _atom_site_fract_x
 _atom_site_fract_y
 _atom_site_fract_z
 _atom_site_occupancy
  Li  Li0  1  0.000000  0.000000  0.500000  1
  Zr  Zr1  1  0.706318  0.293682  0.244945  1
  Zr  Zr2  1  0.293682  0.706318  0.755055  1
  Zn  Zn3  1  0.000000  0.000000  0.000000  1
  Pt  Pt4  1  0.393425  0.606575  0.261541  1
  Pt  Pt5  1  0.606575  0.393425  0.738459  1
