# generated using pymatgen
data_HfPa7(ZnRh)8
_symmetry_space_group_name_H-M   'P 1'
_cell_length_a   3.80044400
_cell_length_b   7.32056681
_cell_length_c   16.28867796
_cell_angle_alpha   90.01960435
_cell_angle_beta   90.00000000
_cell_angle_gamma   90.00000000
_symmetry_Int_Tables_number   1
_chemical_formula_structural   HfPa7(ZnRh)8
_chemical_formula_sum   'Hf1 Pa7 Zn8 Rh8'
_cell_volume   453.17386674
_cell_formula_units_Z   1
loop_
 _symmetry_equiv_pos_site_id
 _symmetry_equiv_pos_as_xyz
  1  'x, y, z'
loop_
 _atom_site_type_symbol
 _atom_site_label
 _atom_site_symmetry_multiplicity
 _atom_site_fract_x
 _atom_site_fract_y
 _atom_site_fract_z
 _atom_site_occupancy
  Hf  Hf0  1  0.250000  0.559532  0.787924  1
  Pa  Pa1  1  0.250000  0.168891  0.936827  1
  Pa  Pa2  1  0.250000  0.672444  0.564177  1
  Pa  Pa3  1  0.750000  0.336664  0.441351  1
  Pa  Pa4  1  0.750000  0.941866  0.285217  1
  Pa  Pa5  1  0.750000  0.827865  0.059454  1
  Pa  Pa6  1  0.750000  0.440410  0.214648  1
  Pa  Pa7  1  0.250000  0.056835  0.716697  1
  Zn  Zn8  1  0.750000  0.010739  0.560549  1
  Zn  Zn9  1  0.250000  0.612605  0.344235  1
  Zn  Zn10  1  0.750000  0.396763  0.663667  1
  Zn  Zn11  1  0.250000  0.492093  0.059947  1
  Zn  Zn12  1  0.750000  0.507482  0.931291  1
  Zn  Zn13  1  0.250000  0.996972  0.439864  1
  Zn  Zn14  1  0.250000  0.113387  0.154951  1
  Zn  Zn15  1  0.750000  0.868144  0.841772  1
  Rh  Rh16  1  0.750000  0.736526  0.442268  1
  Rh  Rh17  1  0.250000  0.240463  0.313983  1
  Rh  Rh18  1  0.750000  0.243346  0.814630  1
  Rh  Rh19  1  0.750000  0.765688  0.683521  1
  Rh  Rh20  1  0.250000  0.270395  0.559871  1
  Rh  Rh21  1  0.250000  0.740844  0.185696  1
  Rh  Rh22  1  0.750000  0.234951  0.055195  1
  Rh  Rh23  1  0.250000  0.765096  0.942263  1
