# generated using pymatgen
data_Lu12ReAgTe4
_symmetry_space_group_name_H-M   'P 1'
_cell_length_a   4.03514100
_cell_length_b   11.30485100
_cell_length_c   21.10852900
_cell_angle_alpha   90.00000000
_cell_angle_beta   90.00000000
_cell_angle_gamma   90.00000000
_symmetry_Int_Tables_number   1
_chemical_formula_structural   Lu12ReAgTe4
_chemical_formula_sum   'Lu24 Re2 Ag2 Te8'
_cell_volume   962.90075449
_cell_formula_units_Z   2
loop_
 _symmetry_equiv_pos_site_id
 _symmetry_equiv_pos_as_xyz
  1  'x, y, z'
loop_
 _atom_site_type_symbol
 _atom_site_label
 _atom_site_symmetry_multiplicity
 _atom_site_fract_x
 _atom_site_fract_y
 _atom_site_fract_z
 _atom_site_occupancy
  Lu  Lu0  1  0.750000  0.688713  0.892447  1
  Lu  Lu1  1  0.250000  0.393968  0.466484  1
  Lu  Lu2  1  0.750000  0.893968  0.033516  1
  Lu  Lu3  1  0.750000  0.972328  0.841181  1
  Lu  Lu4  1  0.250000  0.188713  0.607553  1
  Lu  Lu5  1  0.250000  0.729905  0.271536  1
  Lu  Lu6  1  0.750000  0.102504  0.493006  1
  Lu  Lu7  1  0.750000  0.560066  0.141074  1
  Lu  Lu8  1  0.250000  0.314318  0.110171  1
  Lu  Lu9  1  0.250000  0.032425  0.153352  1
  Lu  Lu10  1  0.250000  0.472328  0.658819  1
  Lu  Lu11  1  0.250000  0.760808  0.768465  1
  Lu  Lu12  1  0.750000  0.532425  0.346648  1
  Lu  Lu13  1  0.750000  0.937964  0.638124  1
  Lu  Lu14  1  0.250000  0.602504  0.006994  1
  Lu  Lu15  1  0.750000  0.260808  0.731535  1
  Lu  Lu16  1  0.750000  0.229905  0.228464  1
  Lu  Lu17  1  0.750000  0.626432  0.516046  1
  Lu  Lu18  1  0.750000  0.814318  0.389829  1
  Lu  Lu19  1  0.250000  0.126432  0.983954  1
  Lu  Lu20  1  0.250000  0.874697  0.503373  1
  Lu  Lu21  1  0.750000  0.374697  0.996627  1
  Lu  Lu22  1  0.250000  0.437964  0.861876  1
  Lu  Lu23  1  0.250000  0.060066  0.358926  1
  Re  Re24  1  0.750000  0.148645  0.080935  1
  Re  Re25  1  0.250000  0.648645  0.419065  1
  Ag  Ag26  1  0.250000  0.867173  0.926276  1
  Ag  Ag27  1  0.750000  0.367173  0.573724  1
  Te  Te28  1  0.250000  0.763565  0.127262  1
  Te  Te29  1  0.250000  0.731879  0.626736  1
  Te  Te30  1  0.250000  0.042715  0.735796  1
  Te  Te31  1  0.750000  0.263565  0.372738  1
  Te  Te32  1  0.750000  0.542715  0.764204  1
  Te  Te33  1  0.250000  0.451896  0.238346  1
  Te  Te34  1  0.750000  0.951896  0.261654  1
  Te  Te35  1  0.750000  0.231879  0.873264  1
