# generated using pymatgen
data_Tb5Y5CdIn7Pd4
_symmetry_space_group_name_H-M   'P 1'
_cell_length_a   3.63880600
_cell_length_b   8.16460358
_cell_length_c   18.35883803
_cell_angle_alpha   89.92013020
_cell_angle_beta   90.00000000
_cell_angle_gamma   90.00000000
_symmetry_Int_Tables_number   1
_chemical_formula_structural   Tb5Y5CdIn7Pd4
_chemical_formula_sum   'Tb5 Y5 Cd1 In7 Pd4'
_cell_volume   545.42968840
_cell_formula_units_Z   1
loop_
 _symmetry_equiv_pos_site_id
 _symmetry_equiv_pos_as_xyz
  1  'x, y, z'
loop_
 _atom_site_type_symbol
 _atom_site_label
 _atom_site_symmetry_multiplicity
 _atom_site_fract_x
 _atom_site_fract_y
 _atom_site_fract_z
 _atom_site_occupancy
  Tb  Tb0  1  0.500000  0.242143  0.780602  1
  Tb  Tb1  1  0.500000  0.759233  0.219380  1
  Tb  Tb2  1  0.500000  0.257176  0.279829  1
  Tb  Tb3  1  0.500000  0.740939  0.719255  1
  Tb  Tb4  1  0.500000  0.118827  0.583304  1
  Y  Y5  1  0.500000  0.881910  0.416327  1
  Y  Y6  1  0.500000  0.381634  0.083410  1
  Y  Y7  1  0.500000  0.617690  0.916810  1
  Y  Y8  1  0.500000  0.999325  0.999907  1
  Y  Y9  1  0.500000  0.499867  0.500436  1
  Cd  Cd10  1  0.000000  0.077237  0.149269  1
  In  In11  1  0.000000  0.921729  0.849681  1
  In  In12  1  0.000000  0.421815  0.650312  1
  In  In13  1  0.000000  0.577236  0.350208  1
  In  In14  1  0.000000  0.208548  0.432293  1
  In  In15  1  0.000000  0.791959  0.567827  1
  In  In16  1  0.000000  0.291796  0.932677  1
  In  In17  1  0.000000  0.709765  0.068274  1
  Pd  Pd18  1  0.000000  0.024392  0.695967  1
  Pd  Pd19  1  0.000000  0.975676  0.304109  1
  Pd  Pd20  1  0.000000  0.476793  0.196382  1
  Pd  Pd21  1  0.000000  0.524309  0.803746  1
