# generated using pymatgen
data_Er16MgNi4Hg3
_symmetry_space_group_name_H-M   'P 1'
_cell_length_a   9.48715375
_cell_length_b   9.44781546
_cell_length_c   9.44781500
_cell_angle_alpha   59.99999812
_cell_angle_beta   60.13706804
_cell_angle_gamma   60.13706978
_symmetry_Int_Tables_number   1
_chemical_formula_structural   Er16MgNi4Hg3
_chemical_formula_sum   'Er16 Mg1 Ni4 Hg3'
_cell_volume   600.04025499
_cell_formula_units_Z   1
loop_
 _symmetry_equiv_pos_site_id
 _symmetry_equiv_pos_as_xyz
  1  'x, y, z'
loop_
 _atom_site_type_symbol
 _atom_site_label
 _atom_site_symmetry_multiplicity
 _atom_site_fract_x
 _atom_site_fract_y
 _atom_site_fract_z
 _atom_site_occupancy
  Er  Er0  1  0.183989  0.814905  0.814905  1
  Er  Er1  1  0.812912  0.186285  0.186285  1
  Er  Er2  1  0.812912  0.186285  0.814518  1
  Er  Er3  1  0.183989  0.814905  0.186201  1
  Er  Er4  1  0.812912  0.814518  0.186285  1
  Er  Er5  1  0.183989  0.186201  0.814905  1
  Er  Er6  1  0.598729  0.597189  0.597189  1
  Er  Er7  1  0.598729  0.597189  0.206893  1
  Er  Er8  1  0.598729  0.206893  0.597189  1
  Er  Er9  1  0.198277  0.600574  0.600574  1
  Er  Er10  1  0.059030  0.439591  0.439591  1
  Er  Er11  1  0.434696  0.063856  0.063856  1
  Er  Er12  1  0.434696  0.063856  0.437593  1
  Er  Er13  1  0.059030  0.439591  0.061787  1
  Er  Er14  1  0.434696  0.437593  0.063856  1
  Er  Er15  1  0.059030  0.061787  0.439591  1
  Mg  Mg16  1  0.535633  0.821455  0.821455  1
  Ni  Ni17  1  0.390198  0.393330  0.393330  1
  Ni  Ni18  1  0.390198  0.393330  0.823142  1
  Ni  Ni19  1  0.390198  0.823142  0.393330  1
  Ni  Ni20  1  0.823186  0.392271  0.392271  1
  Hg  Hg21  1  0.834747  0.836157  0.836157  1
  Hg  Hg22  1  0.834747  0.836157  0.492938  1
  Hg  Hg23  1  0.834747  0.492938  0.836157  1
