# generated using pymatgen
data_Y2Co3Cu4
_symmetry_space_group_name_H-M   'P 1'
_cell_length_a   4.88737006
_cell_length_b   4.87175619
_cell_length_c   6.60391600
_cell_angle_alpha   82.40494636
_cell_angle_beta   74.72231652
_cell_angle_gamma   59.89393180
_symmetry_Int_Tables_number   1
_chemical_formula_structural   Y2Co3Cu4
_chemical_formula_sum   'Y2 Co3 Cu4'
_cell_volume   131.22062282
_cell_formula_units_Z   1
loop_
 _symmetry_equiv_pos_site_id
 _symmetry_equiv_pos_as_xyz
  1  'x, y, z'
loop_
 _atom_site_type_symbol
 _atom_site_label
 _atom_site_symmetry_multiplicity
 _atom_site_fract_x
 _atom_site_fract_y
 _atom_site_fract_z
 _atom_site_occupancy
  Y  Y0  1  0.095662  0.000000  0.241126  1
  Y  Y1  1  0.904338  0.000000  0.758874  1
  Co  Co2  1  0.500000  0.500000  0.500000  1
  Co  Co3  1  0.000000  0.500000  0.500000  1
  Co  Co4  1  0.500000  0.000000  0.500000  1
  Cu  Cu5  1  0.554163  0.660472  0.840562  1
  Cu  Cu6  1  0.214635  0.339528  0.840562  1
  Cu  Cu7  1  0.445837  0.339528  0.159438  1
  Cu  Cu8  1  0.785365  0.660472  0.159438  1
