# generated using pymatgen
data_Yb3Y4ErCd8
_symmetry_space_group_name_H-M   'P 1'
_cell_length_a   7.60405617
_cell_length_b   7.59977200
_cell_length_c   7.56799400
_cell_angle_alpha   90.00000000
_cell_angle_beta   89.98789896
_cell_angle_gamma   90.00000000
_symmetry_Int_Tables_number   1
_chemical_formula_structural   Yb3Y4ErCd8
_chemical_formula_sum   'Yb3 Y4 Er1 Cd8'
_cell_volume   437.34750058
_cell_formula_units_Z   1
loop_
 _symmetry_equiv_pos_site_id
 _symmetry_equiv_pos_as_xyz
  1  'x, y, z'
loop_
 _atom_site_type_symbol
 _atom_site_label
 _atom_site_symmetry_multiplicity
 _atom_site_fract_x
 _atom_site_fract_y
 _atom_site_fract_z
 _atom_site_occupancy
  Yb  Yb0  1  0.250002  0.750000  0.000123  1
  Yb  Yb1  1  0.749992  0.250000  0.499917  1
  Yb  Yb2  1  0.250003  0.750000  0.500351  1
  Y  Y3  1  0.249981  0.250000  0.999942  1
  Y  Y4  1  0.750007  0.750000  0.999941  1
  Y  Y5  1  0.749984  0.750000  0.500089  1
  Y  Y6  1  0.250035  0.250000  0.500095  1
  Er  Er7  1  0.750006  0.250000  0.999245  1
  Cd  Cd8  1  0.503065  0.003046  0.245930  1
  Cd  Cd9  1  0.503065  0.496954  0.245930  1
  Cd  Cd10  1  0.997051  0.497036  0.245992  1
  Cd  Cd11  1  0.997051  0.002964  0.245992  1
  Cd  Cd12  1  0.996881  0.003103  0.754107  1
  Cd  Cd13  1  0.996881  0.496897  0.754107  1
  Cd  Cd14  1  0.502998  0.496972  0.754122  1
  Cd  Cd15  1  0.502998  0.003028  0.754122  1
