# generated using pymatgen
data_Tb13Nd(Ho3Pb8)2
_symmetry_space_group_name_H-M   'P 1'
_cell_length_a   8.21119020
_cell_length_b   8.31678639
_cell_length_c   15.68100588
_cell_angle_alpha   90.03454680
_cell_angle_beta   89.84392480
_cell_angle_gamma   89.86616594
_symmetry_Int_Tables_number   1
_chemical_formula_structural   Tb13Nd(Ho3Pb8)2
_chemical_formula_sum   'Tb13 Nd1 Ho6 Pb16'
_cell_volume   1070.86000814
_cell_formula_units_Z   1
loop_
 _symmetry_equiv_pos_site_id
 _symmetry_equiv_pos_as_xyz
  1  'x, y, z'
loop_
 _atom_site_type_symbol
 _atom_site_label
 _atom_site_symmetry_multiplicity
 _atom_site_fract_x
 _atom_site_fract_y
 _atom_site_fract_z
 _atom_site_occupancy
  Tb  Tb0  1  0.372942  0.841787  0.120072  1
  Tb  Tb1  1  0.871819  0.657972  0.379385  1
  Tb  Tb2  1  0.373209  0.840815  0.378741  1
  Tb  Tb3  1  0.874260  0.659283  0.120858  1
  Tb  Tb4  1  0.625285  0.158757  0.879370  1
  Tb  Tb5  1  0.125961  0.341253  0.620915  1
  Tb  Tb6  1  0.468216  0.676054  0.599548  1
  Tb  Tb7  1  0.967619  0.823324  0.900167  1
  Tb  Tb8  1  0.531961  0.323110  0.099036  1
  Tb  Tb9  1  0.031444  0.177659  0.400727  1
  Tb  Tb10  1  0.529267  0.321503  0.401702  1
  Tb  Tb11  1  0.029867  0.178245  0.098207  1
  Tb  Tb12  1  0.469227  0.675448  0.900727  1
  Nd  Nd13  1  0.971470  0.822601  0.598846  1
  Ho  Ho14  1  0.627939  0.158157  0.622574  1
  Ho  Ho15  1  0.127842  0.341770  0.878347  1
  Ho  Ho16  1  0.793990  0.495992  0.750475  1
  Ho  Ho17  1  0.294488  0.004519  0.750599  1
  Ho  Ho18  1  0.205812  0.503953  0.249235  1
  Ho  Ho19  1  0.705620  0.995986  0.250347  1
  Pb  Pb20  1  0.714035  0.968380  0.456634  1
  Pb  Pb21  1  0.216488  0.533398  0.042065  1
  Pb  Pb22  1  0.281468  0.035621  0.956263  1
  Pb  Pb23  1  0.780725  0.462009  0.543370  1
  Pb  Pb24  1  0.289931  0.038312  0.542805  1
  Pb  Pb25  1  0.786419  0.464620  0.956636  1
  Pb  Pb26  1  0.716024  0.965787  0.043503  1
  Pb  Pb27  1  0.215790  0.534514  0.456440  1
  Pb  Pb28  1  0.431664  0.373769  0.749852  1
  Pb  Pb29  1  0.931312  0.127337  0.750563  1
  Pb  Pb30  1  0.568917  0.624934  0.249482  1
  Pb  Pb31  1  0.068801  0.874740  0.250367  1
  Pb  Pb32  1  0.655857  0.846407  0.750505  1
  Pb  Pb33  1  0.159647  0.651971  0.751790  1
  Pb  Pb34  1  0.342327  0.153494  0.249772  1
  Pb  Pb35  1  0.842358  0.346522  0.250076  1
