# generated using pymatgen
data_Th10CuBi6Se
_symmetry_space_group_name_H-M   'P 1'
_cell_length_a   9.63155900
_cell_length_b   9.63156031
_cell_length_c   6.63041800
_cell_angle_alpha   90.00000000
_cell_angle_beta   90.00000000
_cell_angle_gamma   119.99999892
_symmetry_Int_Tables_number   1
_chemical_formula_structural   Th10CuBi6Se
_chemical_formula_sum   'Th10 Cu1 Bi6 Se1'
_cell_volume   532.67802727
_cell_formula_units_Z   1
loop_
 _symmetry_equiv_pos_site_id
 _symmetry_equiv_pos_as_xyz
  1  'x, y, z'
loop_
 _atom_site_type_symbol
 _atom_site_label
 _atom_site_symmetry_multiplicity
 _atom_site_fract_x
 _atom_site_fract_y
 _atom_site_fract_z
 _atom_site_occupancy
  Th  Th0  1  0.666667  0.333333  0.500000  1
  Th  Th1  1  0.333333  0.666667  0.500000  1
  Th  Th2  1  0.333333  0.666667  0.000000  1
  Th  Th3  1  0.666667  0.333333  0.000000  1
  Th  Th4  1  0.740815  0.740815  0.237458  1
  Th  Th5  1  0.259185  0.000000  0.237458  1
  Th  Th6  1  0.000000  0.259185  0.237458  1
  Th  Th7  1  0.259185  0.259185  0.762542  1
  Th  Th8  1  0.740815  0.000000  0.762542  1
  Th  Th9  1  0.000000  0.740815  0.762542  1
  Cu  Cu10  1  0.000000  0.000000  0.000000  1
  Bi  Bi11  1  0.388507  0.388507  0.249644  1
  Bi  Bi12  1  0.611493  0.000000  0.249644  1
  Bi  Bi13  1  0.000000  0.611493  0.249644  1
  Bi  Bi14  1  0.611493  0.611493  0.750356  1
  Bi  Bi15  1  0.388507  0.000000  0.750356  1
  Bi  Bi16  1  0.000000  0.388507  0.750356  1
  Se  Se17  1  0.000000  0.000000  0.500000  1
