# generated using pymatgen
data_Na5Si12Ir10Pt9
_symmetry_space_group_name_H-M   'P 1'
_cell_length_a   12.92476800
_cell_length_b   12.89058910
_cell_length_c   3.97489000
_cell_angle_alpha   90.00000000
_cell_angle_beta   90.00000000
_cell_angle_gamma   120.08775360
_symmetry_Int_Tables_number   1
_chemical_formula_structural   Na5Si12Ir10Pt9
_chemical_formula_sum   'Na5 Si12 Ir10 Pt9'
_cell_volume   573.01574764
_cell_formula_units_Z   1
loop_
 _symmetry_equiv_pos_site_id
 _symmetry_equiv_pos_as_xyz
  1  'x, y, z'
loop_
 _atom_site_type_symbol
 _atom_site_label
 _atom_site_symmetry_multiplicity
 _atom_site_fract_x
 _atom_site_fract_y
 _atom_site_fract_z
 _atom_site_occupancy
  Na  Na0  1  0.000184  0.818696  0.500000  1
  Na  Na1  1  0.181488  0.181304  0.500000  1
  Na  Na2  1  0.818029  0.000000  0.500000  1
  Na  Na3  1  0.333990  0.668239  0.000000  1
  Na  Na4  1  0.665752  0.331761  0.000000  1
  Si  Si5  1  0.000851  0.180911  0.000000  1
  Si  Si6  1  0.819940  0.819089  0.000000  1
  Si  Si7  1  0.179129  0.000000  0.000000  1
  Si  Si8  1  0.516186  0.683885  0.500000  1
  Si  Si9  1  0.319393  0.836104  0.500000  1
  Si  Si10  1  0.168403  0.485014  0.500000  1
  Si  Si11  1  0.483289  0.163896  0.500000  1
  Si  Si12  1  0.683389  0.514986  0.500000  1
  Si  Si13  1  0.832300  0.316115  0.500000  1
  Si  Si14  1  0.000787  0.631722  0.000000  1
  Si  Si15  1  0.369065  0.368278  0.000000  1
  Si  Si16  1  0.627049  0.000000  0.000000  1
  Ir  Ir17  1  0.000204  0.283967  0.500000  1
  Ir  Ir18  1  0.716237  0.716033  0.500000  1
  Ir  Ir19  1  0.281688  0.000000  0.500000  1
  Ir  Ir20  1  0.516250  0.873292  0.500000  1
  Ir  Ir21  1  0.129021  0.643678  0.500000  1
  Ir  Ir22  1  0.357292  0.484509  0.500000  1
  Ir  Ir23  1  0.485342  0.356322  0.500000  1
  Ir  Ir24  1  0.872782  0.515491  0.500000  1
  Ir  Ir25  1  0.642957  0.126708  0.500000  1
  Ir  Ir26  1  0.446712  0.000000  0.000000  1
  Pt  Pt27  1  0.625581  0.809640  0.000000  1
  Pt  Pt28  1  0.192503  0.816042  0.000000  1
  Pt  Pt29  1  0.184400  0.376529  0.000000  1
  Pt  Pt30  1  0.376460  0.183958  0.000000  1
  Pt  Pt31  1  0.807871  0.623471  0.000000  1
  Pt  Pt32  1  0.815942  0.190360  0.000000  1
  Pt  Pt33  1  0.999339  0.000000  0.000000  1
  Pt  Pt34  1  0.000170  0.450147  0.000000  1
  Pt  Pt35  1  0.550023  0.549853  0.000000  1
