# generated using pymatgen
data_Pa2Si4Tc3
_symmetry_space_group_name_H-M   'P 1'
_cell_length_a   8.20576100
_cell_length_b   5.61827046
_cell_length_c   6.78391373
_cell_angle_alpha   76.04532807
_cell_angle_beta   90.00000000
_cell_angle_gamma   90.00000000
_symmetry_Int_Tables_number   1
_chemical_formula_structural   Pa2Si4Tc3
_chemical_formula_sum   'Pa4 Si8 Tc6'
_cell_volume   303.52289841
_cell_formula_units_Z   2
loop_
 _symmetry_equiv_pos_site_id
 _symmetry_equiv_pos_as_xyz
  1  'x, y, z'
loop_
 _atom_site_type_symbol
 _atom_site_label
 _atom_site_symmetry_multiplicity
 _atom_site_fract_x
 _atom_site_fract_y
 _atom_site_fract_z
 _atom_site_occupancy
  Pa  Pa0  1  0.944955  0.569029  0.257285  1
  Pa  Pa1  1  0.444955  0.930971  0.742715  1
  Pa  Pa2  1  0.055045  0.430971  0.742715  1
  Pa  Pa3  1  0.555045  0.069029  0.257285  1
  Si  Si4  1  0.594544  0.615569  0.123773  1
  Si  Si5  1  0.094544  0.884431  0.876227  1
  Si  Si6  1  0.405456  0.384431  0.876227  1
  Si  Si7  1  0.905456  0.115569  0.123773  1
  Si  Si8  1  0.749716  0.722522  0.584535  1
  Si  Si9  1  0.249716  0.777478  0.415465  1
  Si  Si10  1  0.250284  0.277478  0.415465  1
  Si  Si11  1  0.750284  0.222522  0.584535  1
  Tc  Tc12  1  0.296074  0.622670  0.106539  1
  Tc  Tc13  1  0.796074  0.877330  0.893461  1
  Tc  Tc14  1  0.703926  0.377330  0.893461  1
  Tc  Tc15  1  0.203926  0.122670  0.106539  1
  Tc  Tc16  1  0.500000  0.500000  0.500000  1
  Tc  Tc17  1  0.000000  0.000000  0.500000  1
