# generated using pymatgen
data_Yb(GaO2)2
_symmetry_space_group_name_H-M   'P 1'
_cell_length_a   3.01222900
_cell_length_b   9.12580100
_cell_length_c   10.60258400
_cell_angle_alpha   90.00000000
_cell_angle_beta   90.00000000
_cell_angle_gamma   90.00000000
_symmetry_Int_Tables_number   1
_chemical_formula_structural   Yb(GaO2)2
_chemical_formula_sum   'Yb4 Ga8 O16'
_cell_volume   291.45445724
_cell_formula_units_Z   4
loop_
 _symmetry_equiv_pos_site_id
 _symmetry_equiv_pos_as_xyz
  1  'x, y, z'
loop_
 _atom_site_type_symbol
 _atom_site_label
 _atom_site_symmetry_multiplicity
 _atom_site_fract_x
 _atom_site_fract_y
 _atom_site_fract_z
 _atom_site_occupancy
  Yb  Yb0  1  0.750000  0.257506  0.845073  1
  Yb  Yb1  1  0.250000  0.742494  0.154927  1
  Yb  Yb2  1  0.750000  0.757506  0.654927  1
  Yb  Yb3  1  0.250000  0.242494  0.345073  1
  Ga  Ga4  1  0.250000  0.564915  0.388308  1
  Ga  Ga5  1  0.750000  0.435085  0.611692  1
  Ga  Ga6  1  0.250000  0.064915  0.111692  1
  Ga  Ga7  1  0.750000  0.935085  0.888308  1
  Ga  Ga8  1  0.750000  0.917811  0.395649  1
  Ga  Ga9  1  0.250000  0.082189  0.604351  1
  Ga  Ga10  1  0.750000  0.417811  0.104351  1
  Ga  Ga11  1  0.250000  0.582189  0.895649  1
  O  O12  1  0.250000  0.584916  0.572752  1
  O  O13  1  0.750000  0.415084  0.427248  1
  O  O14  1  0.250000  0.084916  0.927248  1
  O  O15  1  0.750000  0.915084  0.072752  1
  O  O16  1  0.250000  0.472868  0.216659  1
  O  O17  1  0.750000  0.527132  0.783341  1
  O  O18  1  0.250000  0.972868  0.283341  1
  O  O19  1  0.750000  0.027132  0.716659  1
  O  O20  1  0.250000  0.879907  0.524419  1
  O  O21  1  0.750000  0.120093  0.475581  1
  O  O22  1  0.250000  0.379907  0.975581  1
  O  O23  1  0.750000  0.620093  0.024419  1
  O  O24  1  0.750000  0.704605  0.335403  1
  O  O25  1  0.250000  0.295395  0.664597  1
  O  O26  1  0.750000  0.204605  0.164597  1
  O  O27  1  0.250000  0.795395  0.835403  1
