# generated using pymatgen
data_Ho2ThZnPd5
_symmetry_space_group_name_H-M   'P 1'
_cell_length_a   8.25250000
_cell_length_b   8.25250063
_cell_length_c   13.19518100
_cell_angle_alpha   90.00000000
_cell_angle_beta   90.00000000
_cell_angle_gamma   127.21973140
_symmetry_Int_Tables_number   1
_chemical_formula_structural   Ho2ThZnPd5
_chemical_formula_sum   'Ho8 Th4 Zn4 Pd20'
_cell_volume   715.60765837
_cell_formula_units_Z   4
loop_
 _symmetry_equiv_pos_site_id
 _symmetry_equiv_pos_as_xyz
  1  'x, y, z'
loop_
 _atom_site_type_symbol
 _atom_site_label
 _atom_site_symmetry_multiplicity
 _atom_site_fract_x
 _atom_site_fract_y
 _atom_site_fract_z
 _atom_site_occupancy
  Ho  Ho0  1  0.629802  0.370198  0.460729  1
  Ho  Ho1  1  0.370198  0.629802  0.539271  1
  Ho  Ho2  1  0.629802  0.370198  0.039271  1
  Ho  Ho3  1  0.370198  0.629802  0.960729  1
  Ho  Ho4  1  0.880979  0.119021  0.948111  1
  Ho  Ho5  1  0.119021  0.880979  0.051889  1
  Ho  Ho6  1  0.880979  0.119021  0.551889  1
  Ho  Ho7  1  0.119021  0.880979  0.448111  1
  Th  Th8  1  0.933565  0.066435  0.250000  1
  Th  Th9  1  0.066435  0.933565  0.750000  1
  Th  Th10  1  0.316717  0.683283  0.250000  1
  Th  Th11  1  0.683283  0.316717  0.750000  1
  Zn  Zn12  1  0.718471  0.281529  0.250000  1
  Zn  Zn13  1  0.281529  0.718471  0.750000  1
  Zn  Zn14  1  0.534648  0.465352  0.250000  1
  Zn  Zn15  1  0.465352  0.534648  0.750000  1
  Pd  Pd16  1  0.318572  0.065342  0.250000  1
  Pd  Pd17  1  0.065342  0.318572  0.750000  1
  Pd  Pd18  1  0.681428  0.934658  0.750000  1
  Pd  Pd19  1  0.934658  0.681428  0.250000  1
  Pd  Pd20  1  0.566132  0.001177  0.396706  1
  Pd  Pd21  1  0.001177  0.566132  0.603294  1
  Pd  Pd22  1  0.566132  0.001177  0.103294  1
  Pd  Pd23  1  0.001177  0.566132  0.896706  1
  Pd  Pd24  1  0.433868  0.998823  0.603294  1
  Pd  Pd25  1  0.998823  0.433868  0.396706  1
  Pd  Pd26  1  0.433868  0.998823  0.896706  1
  Pd  Pd27  1  0.998823  0.433868  0.103294  1
  Pd  Pd28  1  0.688825  0.744460  0.394660  1
  Pd  Pd29  1  0.744460  0.688825  0.605340  1
  Pd  Pd30  1  0.688825  0.744460  0.105340  1
  Pd  Pd31  1  0.744460  0.688825  0.894660  1
  Pd  Pd32  1  0.311175  0.255540  0.605340  1
  Pd  Pd33  1  0.255540  0.311175  0.394660  1
  Pd  Pd34  1  0.311175  0.255540  0.894660  1
  Pd  Pd35  1  0.255540  0.311175  0.105340  1
