# generated using pymatgen
data_Nd10Sn20Ir5Rh3
_symmetry_space_group_name_H-M   'P 1'
_cell_length_a   14.20606827
_cell_length_b   14.20262427
_cell_length_c   4.65193300
_cell_angle_alpha   90.00000000
_cell_angle_beta   90.00000000
_cell_angle_gamma   90.02232642
_symmetry_Int_Tables_number   1
_chemical_formula_structural   Nd10Sn20Ir5Rh3
_chemical_formula_sum   'Nd10 Sn20 Ir5 Rh3'
_cell_volume   938.58997990
_cell_formula_units_Z   1
loop_
 _symmetry_equiv_pos_site_id
 _symmetry_equiv_pos_as_xyz
  1  'x, y, z'
loop_
 _atom_site_type_symbol
 _atom_site_label
 _atom_site_symmetry_multiplicity
 _atom_site_fract_x
 _atom_site_fract_y
 _atom_site_fract_z
 _atom_site_occupancy
  Nd  Nd0  1  0.499803  0.500343  0.000000  1
  Nd  Nd1  1  0.999815  0.000005  0.000000  1
  Nd  Nd2  1  0.678419  0.177370  0.500000  1
  Nd  Nd3  1  0.322284  0.821902  0.500000  1
  Nd  Nd4  1  0.178450  0.322662  0.500000  1
  Nd  Nd5  1  0.821709  0.677516  0.500000  1
  Nd  Nd6  1  0.887893  0.388470  0.500000  1
  Nd  Nd7  1  0.112298  0.611597  0.500000  1
  Nd  Nd8  1  0.387819  0.111530  0.500000  1
  Nd  Nd9  1  0.611945  0.887964  0.500000  1
  Sn  Sn10  1  0.569007  0.069995  0.000000  1
  Sn  Sn11  1  0.430468  0.930590  0.000000  1
  Sn  Sn12  1  0.069011  0.430143  0.000000  1
  Sn  Sn13  1  0.930933  0.569938  0.000000  1
  Sn  Sn14  1  0.654409  0.698801  0.000000  1
  Sn  Sn15  1  0.346459  0.301377  0.000000  1
  Sn  Sn16  1  0.153511  0.801451  0.000000  1
  Sn  Sn17  1  0.846482  0.198584  0.000000  1
  Sn  Sn18  1  0.300785  0.654385  0.000000  1
  Sn  Sn19  1  0.698534  0.345555  0.000000  1
  Sn  Sn20  1  0.198742  0.154499  0.000000  1
  Sn  Sn21  1  0.801579  0.845672  0.000000  1
  Sn  Sn22  1  0.662343  0.505175  0.500000  1
  Sn  Sn23  1  0.337770  0.494936  0.500000  1
  Sn  Sn24  1  0.162438  0.994879  0.500000  1
  Sn  Sn25  1  0.837832  0.005157  0.500000  1
  Sn  Sn26  1  0.495028  0.662259  0.500000  1
  Sn  Sn27  1  0.504923  0.336417  0.500000  1
  Sn  Sn28  1  0.004860  0.163591  0.500000  1
  Sn  Sn29  1  0.995144  0.836557  0.500000  1
  Ir  Ir30  1  0.746672  0.528654  0.000000  1
  Ir  Ir31  1  0.253208  0.471211  0.000000  1
  Ir  Ir32  1  0.246711  0.971230  0.000000  1
  Ir  Ir33  1  0.753028  0.028523  0.000000  1
  Ir  Ir34  1  0.471518  0.746851  0.000000  1
  Rh  Rh35  1  0.528207  0.254195  0.000000  1
  Rh  Rh36  1  0.028252  0.245796  0.000000  1
  Rh  Rh37  1  0.971711  0.754217  0.000000  1
