# generated using pymatgen
data_Dy5Y7(CoRh)2
_symmetry_space_group_name_H-M   'P 1'
_cell_length_a   6.29106298
_cell_length_b   7.08624756
_cell_length_c   9.44824063
_cell_angle_alpha   89.94801073
_cell_angle_beta   89.95768562
_cell_angle_gamma   90.44498922
_symmetry_Int_Tables_number   1
_chemical_formula_structural   Dy5Y7(CoRh)2
_chemical_formula_sum   'Dy5 Y7 Co2 Rh2'
_cell_volume   421.18985410
_cell_formula_units_Z   1
loop_
 _symmetry_equiv_pos_site_id
 _symmetry_equiv_pos_as_xyz
  1  'x, y, z'
loop_
 _atom_site_type_symbol
 _atom_site_label
 _atom_site_symmetry_multiplicity
 _atom_site_fract_x
 _atom_site_fract_y
 _atom_site_fract_z
 _atom_site_occupancy
  Dy  Dy0  1  0.176433  0.179138  0.065036  1
  Dy  Dy1  1  0.823779  0.820542  0.935081  1
  Dy  Dy2  1  0.672767  0.330530  0.933352  1
  Dy  Dy3  1  0.822900  0.820744  0.564736  1
  Dy  Dy4  1  0.327237  0.669314  0.066664  1
  Y  Y5  1  0.627028  0.045080  0.249596  1
  Y  Y6  1  0.373267  0.955048  0.750856  1
  Y  Y7  1  0.141370  0.468608  0.750852  1
  Y  Y8  1  0.858709  0.531620  0.249462  1
  Y  Y9  1  0.176011  0.179586  0.436054  1
  Y  Y10  1  0.327111  0.670346  0.434487  1
  Y  Y11  1  0.673260  0.330221  0.565928  1
  Co  Co12  1  0.446431  0.385556  0.247599  1
  Co  Co13  1  0.554939  0.615354  0.751377  1
  Rh  Rh14  1  0.948264  0.111598  0.751318  1
  Rh  Rh15  1  0.050494  0.886715  0.247602  1
