# generated using pymatgen
data_Pr2CuGePd13
_symmetry_space_group_name_H-M   'P 1'
_cell_length_a   8.96742008
_cell_length_b   8.96527400
_cell_length_c   7.20918248
_cell_angle_alpha   90.00000000
_cell_angle_beta   90.22262067
_cell_angle_gamma   90.00000000
_symmetry_Int_Tables_number   1
_chemical_formula_structural   Pr2CuGePd13
_chemical_formula_sum   'Pr4 Cu2 Ge2 Pd26'
_cell_volume   579.58057613
_cell_formula_units_Z   2
loop_
 _symmetry_equiv_pos_site_id
 _symmetry_equiv_pos_as_xyz
  1  'x, y, z'
loop_
 _atom_site_type_symbol
 _atom_site_label
 _atom_site_symmetry_multiplicity
 _atom_site_fract_x
 _atom_site_fract_y
 _atom_site_fract_z
 _atom_site_occupancy
  Pr  Pr0  1  0.505864  0.000000  0.934936  1
  Pr  Pr1  1  0.994136  0.500000  0.065064  1
  Pr  Pr2  1  0.002485  0.000000  0.499405  1
  Pr  Pr3  1  0.497515  0.500000  0.500595  1
  Cu  Cu4  1  0.250000  0.750000  0.000000  1
  Cu  Cu5  1  0.250000  0.250000  0.000000  1
  Ge  Ge6  1  0.500366  0.000000  0.449212  1
  Ge  Ge7  1  0.999634  0.500000  0.550788  1
  Pd  Pd8  1  0.328975  0.829983  0.623175  1
  Pd  Pd9  1  0.328975  0.170017  0.623175  1
  Pd  Pd10  1  0.669636  0.829260  0.622853  1
  Pd  Pd11  1  0.669636  0.170740  0.622853  1
  Pd  Pd12  1  0.171025  0.670017  0.376825  1
  Pd  Pd13  1  0.171025  0.329983  0.376825  1
  Pd  Pd14  1  0.830364  0.670740  0.377147  1
  Pd  Pd15  1  0.830364  0.329260  0.377147  1
  Pd  Pd16  1  0.495736  0.765910  0.251142  1
  Pd  Pd17  1  0.495736  0.234090  0.251142  1
  Pd  Pd18  1  0.267777  0.000000  0.249908  1
  Pd  Pd19  1  0.735497  0.000000  0.252964  1
  Pd  Pd20  1  0.004264  0.734090  0.748858  1
  Pd  Pd21  1  0.004264  0.265910  0.748858  1
  Pd  Pd22  1  0.232223  0.500000  0.750092  1
  Pd  Pd23  1  0.764503  0.500000  0.747036  1
  Pd  Pd24  1  0.492928  0.345660  0.863056  1
  Pd  Pd25  1  0.492928  0.654340  0.863056  1
  Pd  Pd26  1  0.853933  0.000000  0.856600  1
  Pd  Pd27  1  0.162214  0.000000  0.867362  1
  Pd  Pd28  1  0.007072  0.154340  0.136944  1
  Pd  Pd29  1  0.007072  0.845660  0.136944  1
  Pd  Pd30  1  0.646067  0.500000  0.143400  1
  Pd  Pd31  1  0.337786  0.500000  0.132638  1
  Pd  Pd32  1  0.750000  0.750000  0.000000  1
  Pd  Pd33  1  0.750000  0.250000  0.000000  1
