# generated using pymatgen
data_Sc7Pa(Co4P3)4
_symmetry_space_group_name_H-M   'P 1'
_cell_length_a   12.13955569
_cell_length_b   12.13955532
_cell_length_c   3.65733400
_cell_angle_alpha   90.00000000
_cell_angle_beta   90.00000000
_cell_angle_gamma   120.55818839
_symmetry_Int_Tables_number   1
_chemical_formula_structural   Sc7Pa(Co4P3)4
_chemical_formula_sum   'Sc7 Pa1 Co16 P12'
_cell_volume   464.12020543
_cell_formula_units_Z   1
loop_
 _symmetry_equiv_pos_site_id
 _symmetry_equiv_pos_as_xyz
  1  'x, y, z'
loop_
 _atom_site_type_symbol
 _atom_site_label
 _atom_site_symmetry_multiplicity
 _atom_site_fract_x
 _atom_site_fract_y
 _atom_site_fract_z
 _atom_site_occupancy
  Sc  Sc0  1  0.437370  0.437370  0.000000  1
  Sc  Sc1  1  0.557511  0.998321  0.000000  1
  Sc  Sc2  1  0.998321  0.557511  0.000000  1
  Sc  Sc3  1  0.665642  0.334208  0.000000  1
  Sc  Sc4  1  0.334208  0.665642  0.000000  1
  Sc  Sc5  1  0.189178  0.000406  0.500000  1
  Sc  Sc6  1  0.000406  0.189178  0.500000  1
  Pa  Pa7  1  0.824637  0.824637  0.500000  1
  Co  Co8  1  0.192467  0.370009  0.000000  1
  Co  Co9  1  0.181553  0.805253  0.000000  1
  Co  Co10  1  0.821828  0.628580  0.000000  1
  Co  Co11  1  0.805253  0.181553  0.000000  1
  Co  Co12  1  0.370009  0.192467  0.000000  1
  Co  Co13  1  0.125252  0.478846  0.500000  1
  Co  Co14  1  0.356568  0.873743  0.500000  1
  Co  Co15  1  0.518434  0.644088  0.500000  1
  Co  Co16  1  0.644088  0.518434  0.500000  1
  Co  Co17  1  0.873743  0.356568  0.500000  1
  Co  Co18  1  0.478846  0.125252  0.500000  1
  Co  Co19  1  0.996078  0.996078  0.000000  1
  Co  Co20  1  0.722140  0.003171  0.500000  1
  Co  Co21  1  0.003171  0.722140  0.500000  1
  Co  Co22  1  0.628580  0.821828  0.000000  1
  Co  Co23  1  0.274770  0.274770  0.500000  1
  P  P24  1  0.644076  0.644076  0.000000  1
  P  P25  1  0.352199  0.000385  0.000000  1
  P  P26  1  0.000385  0.352199  0.000000  1
  P  P27  1  0.481721  0.308106  0.500000  1
  P  P28  1  0.688309  0.175108  0.500000  1
  P  P29  1  0.826174  0.516893  0.500000  1
  P  P30  1  0.516893  0.826174  0.500000  1
  P  P31  1  0.175108  0.688309  0.500000  1
  P  P32  1  0.823620  0.009270  0.000000  1
  P  P33  1  0.009270  0.823620  0.000000  1
  P  P34  1  0.308106  0.481721  0.500000  1
  P  P35  1  0.174090  0.174090  0.000000  1
