# generated using pymatgen
data_Co3(SeS2)2
_symmetry_space_group_name_H-M   'P 1'
_cell_length_a   8.76775508
_cell_length_b   8.76775547
_cell_length_c   4.64408193
_cell_angle_alpha   89.28253647
_cell_angle_beta   89.28253657
_cell_angle_gamma   22.67065295
_symmetry_Int_Tables_number   1
_chemical_formula_structural   Co3(SeS2)2
_chemical_formula_sum   'Co3 Se2 S4'
_cell_volume   137.59121724
_cell_formula_units_Z   1
loop_
 _symmetry_equiv_pos_site_id
 _symmetry_equiv_pos_as_xyz
  1  'x, y, z'
loop_
 _atom_site_type_symbol
 _atom_site_label
 _atom_site_symmetry_multiplicity
 _atom_site_fract_x
 _atom_site_fract_y
 _atom_site_fract_z
 _atom_site_occupancy
  Co  Co0  1  0.660456  0.660456  0.031068  1
  Co  Co1  1  0.997404  0.997404  0.491626  1
  Co  Co2  1  0.344358  0.344358  0.984495  1
  Se  Se3  1  0.215801  0.215801  0.751996  1
  Se  Se4  1  0.541426  0.541426  0.799437  1
  S  S5  1  0.455981  0.455981  0.212221  1
  S  S6  1  0.784791  0.784791  0.220148  1
  S  S7  1  0.119902  0.119902  0.301985  1
  S  S8  1  0.879880  0.879880  0.707022  1
