# generated using pymatgen
data_Ba10La9YbSn16
_symmetry_space_group_name_H-M   'P 1'
_cell_length_a   8.51002200
_cell_length_b   9.08176039
_cell_length_c   17.24186600
_cell_angle_alpha   90.00000000
_cell_angle_beta   90.00000000
_cell_angle_gamma   89.84232815
_symmetry_Int_Tables_number   1
_chemical_formula_structural   Ba10La9YbSn16
_chemical_formula_sum   'Ba10 La9 Yb1 Sn16'
_cell_volume   1332.54947721
_cell_formula_units_Z   1
loop_
 _symmetry_equiv_pos_site_id
 _symmetry_equiv_pos_as_xyz
  1  'x, y, z'
loop_
 _atom_site_type_symbol
 _atom_site_label
 _atom_site_symmetry_multiplicity
 _atom_site_fract_x
 _atom_site_fract_y
 _atom_site_fract_z
 _atom_site_occupancy
  Ba  Ba0  1  0.507774  0.678619  0.593191  1
  Ba  Ba1  1  0.006658  0.823299  0.908863  1
  Ba  Ba2  1  0.493657  0.318571  0.094107  1
  Ba  Ba3  1  0.988821  0.179371  0.404843  1
  Ba  Ba4  1  0.493657  0.318571  0.405893  1
  Ba  Ba5  1  0.988821  0.179371  0.095157  1
  Ba  Ba6  1  0.507774  0.678619  0.906809  1
  Ba  Ba7  1  0.006658  0.823299  0.591137  1
  Ba  Ba8  1  0.329955  0.977305  0.750000  1
  Ba  Ba9  1  0.168670  0.479276  0.250000  1
  La  La10  1  0.675436  0.169516  0.621018  1
  La  La11  1  0.176581  0.329174  0.878855  1
  La  La12  1  0.325236  0.830226  0.122055  1
  La  La13  1  0.825281  0.672257  0.378389  1
  La  La14  1  0.325236  0.830226  0.377945  1
  La  La15  1  0.825281  0.672257  0.121611  1
  La  La16  1  0.675436  0.169516  0.878982  1
  La  La17  1  0.176581  0.329174  0.621145  1
  La  La18  1  0.836179  0.514733  0.750000  1
  Yb  Yb19  1  0.660666  0.006197  0.250000  1
  Sn  Sn20  1  0.655579  0.959168  0.458500  1
  Sn  Sn21  1  0.155753  0.542646  0.037012  1
  Sn  Sn22  1  0.346343  0.042939  0.962420  1
  Sn  Sn23  1  0.844181  0.461147  0.543309  1
  Sn  Sn24  1  0.346343  0.042939  0.537580  1
  Sn  Sn25  1  0.844181  0.461147  0.956691  1
  Sn  Sn26  1  0.655579  0.959168  0.041500  1
  Sn  Sn27  1  0.155753  0.542646  0.462988  1
  Sn  Sn28  1  0.473893  0.376984  0.750000  1
  Sn  Sn29  1  0.960779  0.145200  0.750000  1
  Sn  Sn30  1  0.539692  0.638305  0.250000  1
  Sn  Sn31  1  0.025587  0.877172  0.250000  1
  Sn  Sn32  1  0.736998  0.882876  0.750000  1
  Sn  Sn33  1  0.212903  0.601496  0.750000  1
  Sn  Sn34  1  0.285943  0.099951  0.250000  1
  Sn  Sn35  1  0.766138  0.386640  0.250000  1
