# generated using pymatgen
data_TbDy5U4O20
_symmetry_space_group_name_H-M   'P 1'
_cell_length_a   6.65016719
_cell_length_b   7.49691829
_cell_length_c   8.41002664
_cell_angle_alpha   100.88472559
_cell_angle_beta   97.66125233
_cell_angle_gamma   107.24979772
_symmetry_Int_Tables_number   1
_chemical_formula_structural   TbDy5U4O20
_chemical_formula_sum   'Tb1 Dy5 U4 O20'
_cell_volume   385.13022569
_cell_formula_units_Z   1
loop_
 _symmetry_equiv_pos_site_id
 _symmetry_equiv_pos_as_xyz
  1  'x, y, z'
loop_
 _atom_site_type_symbol
 _atom_site_label
 _atom_site_symmetry_multiplicity
 _atom_site_fract_x
 _atom_site_fract_y
 _atom_site_fract_z
 _atom_site_occupancy
  Tb  Tb0  1  0.000000  0.000000  0.500000  1
  Dy  Dy1  1  0.614607  0.703501  0.699464  1
  Dy  Dy2  1  0.385393  0.296499  0.300536  1
  Dy  Dy3  1  0.197457  0.896370  0.891620  1
  Dy  Dy4  1  0.000000  0.500000  0.500000  1
  Dy  Dy5  1  0.802543  0.103630  0.108380  1
  U  U6  1  0.401301  0.804059  0.301761  1
  U  U7  1  0.199149  0.399944  0.899471  1
  U  U8  1  0.800851  0.600056  0.100529  1
  U  U9  1  0.598699  0.195941  0.698239  1
  O  O10  1  0.439357  0.531622  0.137447  1
  O  O11  1  0.555321  0.987164  0.841664  1
  O  O12  1  0.268654  0.144148  0.745149  1
  O  O13  1  0.360323  0.594475  0.442587  1
  O  O14  1  0.054142  0.728472  0.332617  1
  O  O15  1  0.444679  0.012836  0.158336  1
  O  O16  1  0.150299  0.183098  0.032174  1
  O  O17  1  0.560643  0.468378  0.862553  1
  O  O18  1  0.854368  0.336231  0.951257  1
  O  O19  1  0.257901  0.606517  0.758804  1
  O  O20  1  0.953450  0.771131  0.652872  1
  O  O21  1  0.354135  0.062843  0.452776  1
  O  O22  1  0.645865  0.937157  0.547224  1
  O  O23  1  0.046550  0.228869  0.347128  1
  O  O24  1  0.742099  0.393483  0.241196  1
  O  O25  1  0.145632  0.663769  0.048743  1
  O  O26  1  0.849701  0.816902  0.967826  1
  O  O27  1  0.945858  0.271528  0.667383  1
  O  O28  1  0.639677  0.405525  0.557413  1
  O  O29  1  0.731346  0.855852  0.254851  1
