# generated using pymatgen
data_TmTa3Pb4O13
_symmetry_space_group_name_H-M   'P 1'
_cell_length_a   7.64487315
_cell_length_b   7.64487221
_cell_length_c   7.64487200
_cell_angle_alpha   59.74614497
_cell_angle_beta   59.74614909
_cell_angle_gamma   59.74614647
_symmetry_Int_Tables_number   1
_chemical_formula_structural   TmTa3Pb4O13
_chemical_formula_sum   'Tm1 Ta3 Pb4 O13'
_cell_volume   314.11230816
_cell_formula_units_Z   1
loop_
 _symmetry_equiv_pos_site_id
 _symmetry_equiv_pos_as_xyz
  1  'x, y, z'
loop_
 _atom_site_type_symbol
 _atom_site_label
 _atom_site_symmetry_multiplicity
 _atom_site_fract_x
 _atom_site_fract_y
 _atom_site_fract_z
 _atom_site_occupancy
  Tm  Tm0  1  0.501690  0.501690  0.501690  1
  Ta  Ta1  1  0.002694  0.500976  0.500976  1
  Ta  Ta2  1  0.500976  0.500976  0.002694  1
  Ta  Ta3  1  0.500976  0.002694  0.500976  1
  Pb  Pb4  1  0.000262  0.000262  0.000262  1
  Pb  Pb5  1  0.498625  0.008169  0.008169  1
  Pb  Pb6  1  0.008169  0.008169  0.498625  1
  Pb  Pb7  1  0.008169  0.498625  0.008169  1
  O  O8  1  0.857242  0.411584  0.411584  1
  O  O9  1  0.426594  0.806163  0.806163  1
  O  O10  1  0.411584  0.411584  0.857242  1
  O  O11  1  0.806163  0.806163  0.426594  1
  O  O12  1  0.806163  0.426594  0.806163  1
  O  O13  1  0.411584  0.857242  0.411584  1
  O  O14  1  0.155773  0.576824  0.576824  1
  O  O15  1  0.574474  0.189651  0.189651  1
  O  O16  1  0.576824  0.576824  0.155773  1
  O  O17  1  0.189651  0.189651  0.574474  1
  O  O18  1  0.189651  0.574474  0.189651  1
  O  O19  1  0.576824  0.155773  0.576824  1
  O  O20  1  0.120915  0.120915  0.120915  1
