# generated using pymatgen
data_Hf18TiFe2Re7
_symmetry_space_group_name_H-M   'P 1'
_cell_length_a   8.57922100
_cell_length_b   8.57922183
_cell_length_c   8.46353600
_cell_angle_alpha   90.00000000
_cell_angle_beta   90.00000000
_cell_angle_gamma   120.00000066
_symmetry_Int_Tables_number   1
_chemical_formula_structural   Hf18TiFe2Re7
_chemical_formula_sum   'Hf18 Ti1 Fe2 Re7'
_cell_volume   539.48357573
_cell_formula_units_Z   1
loop_
 _symmetry_equiv_pos_site_id
 _symmetry_equiv_pos_as_xyz
  1  'x, y, z'
loop_
 _atom_site_type_symbol
 _atom_site_label
 _atom_site_symmetry_multiplicity
 _atom_site_fract_x
 _atom_site_fract_y
 _atom_site_fract_z
 _atom_site_occupancy
  Hf  Hf0  1  0.200478  0.799522  0.442292  1
  Hf  Hf1  1  0.200478  0.400957  0.442292  1
  Hf  Hf2  1  0.599043  0.799522  0.442292  1
  Hf  Hf3  1  0.799522  0.200478  0.557708  1
  Hf  Hf4  1  0.799522  0.599043  0.557708  1
  Hf  Hf5  1  0.400957  0.200478  0.557708  1
  Hf  Hf6  1  0.799408  0.200592  0.940369  1
  Hf  Hf7  1  0.799408  0.598817  0.940369  1
  Hf  Hf8  1  0.401183  0.200592  0.940369  1
  Hf  Hf9  1  0.200592  0.799408  0.059631  1
  Hf  Hf10  1  0.200592  0.401183  0.059631  1
  Hf  Hf11  1  0.598817  0.799408  0.059631  1
  Hf  Hf12  1  0.540998  0.459002  0.249583  1
  Hf  Hf13  1  0.540998  0.081997  0.249583  1
  Hf  Hf14  1  0.918003  0.459002  0.249583  1
  Hf  Hf15  1  0.459002  0.540998  0.750417  1
  Hf  Hf16  1  0.459002  0.918003  0.750417  1
  Hf  Hf17  1  0.081997  0.540998  0.750417  1
  Ti  Ti18  1  0.000000  0.000000  0.500000  1
  Fe  Fe19  1  0.333333  0.666667  0.249362  1
  Fe  Fe20  1  0.666667  0.333333  0.750638  1
  Re  Re21  1  0.888063  0.111937  0.250524  1
  Re  Re22  1  0.888063  0.776127  0.250524  1
  Re  Re23  1  0.223873  0.111937  0.250524  1
  Re  Re24  1  0.111937  0.888063  0.749476  1
  Re  Re25  1  0.111937  0.223873  0.749476  1
  Re  Re26  1  0.776127  0.888063  0.749476  1
  Re  Re27  1  0.000000  0.000000  0.000000  1
