# generated using pymatgen
data_Y2(ThOs)3
_symmetry_space_group_name_H-M   'P 1'
_cell_length_a   8.37475700
_cell_length_b   8.37475871
_cell_length_c   6.41123800
_cell_angle_alpha   90.00000000
_cell_angle_beta   90.00000000
_cell_angle_gamma   119.99999719
_symmetry_Int_Tables_number   1
_chemical_formula_structural   Y2(ThOs)3
_chemical_formula_sum   'Y4 Th6 Os6'
_cell_volume   389.41893163
_cell_formula_units_Z   2
loop_
 _symmetry_equiv_pos_site_id
 _symmetry_equiv_pos_as_xyz
  1  'x, y, z'
loop_
 _atom_site_type_symbol
 _atom_site_label
 _atom_site_symmetry_multiplicity
 _atom_site_fract_x
 _atom_site_fract_y
 _atom_site_fract_z
 _atom_site_occupancy
  Y  Y0  1  0.333333  0.666667  0.000000  1
  Y  Y1  1  0.666667  0.333333  0.000000  1
  Y  Y2  1  0.666667  0.333333  0.500000  1
  Y  Y3  1  0.333333  0.666667  0.500000  1
  Th  Th4  1  0.254352  0.000000  0.250000  1
  Th  Th5  1  0.745648  0.000000  0.750000  1
  Th  Th6  1  0.000000  0.254352  0.250000  1
  Th  Th7  1  0.000000  0.745648  0.750000  1
  Th  Th8  1  0.745648  0.745648  0.250000  1
  Th  Th9  1  0.254352  0.254352  0.750000  1
  Os  Os10  1  0.620533  0.000000  0.250000  1
  Os  Os11  1  0.379467  0.000000  0.750000  1
  Os  Os12  1  0.000000  0.620533  0.250000  1
  Os  Os13  1  0.000000  0.379467  0.750000  1
  Os  Os14  1  0.379467  0.379467  0.250000  1
  Os  Os15  1  0.620533  0.620533  0.750000  1
