# generated using pymatgen
data_ErTaCoB6
_symmetry_space_group_name_H-M   'P 1'
_cell_length_a   3.34361100
_cell_length_b   8.89201200
_cell_length_c   11.23038900
_cell_angle_alpha   90.00000000
_cell_angle_beta   90.00000000
_cell_angle_gamma   90.00000000
_symmetry_Int_Tables_number   1
_chemical_formula_structural   ErTaCoB6
_chemical_formula_sum   'Er4 Ta4 Co4 B24'
_cell_volume   333.89551472
_cell_formula_units_Z   4
loop_
 _symmetry_equiv_pos_site_id
 _symmetry_equiv_pos_as_xyz
  1  'x, y, z'
loop_
 _atom_site_type_symbol
 _atom_site_label
 _atom_site_symmetry_multiplicity
 _atom_site_fract_x
 _atom_site_fract_y
 _atom_site_fract_z
 _atom_site_occupancy
  Er  Er0  1  0.000000  0.822331  0.087004  1
  Er  Er1  1  0.000000  0.177669  0.912996  1
  Er  Er2  1  0.000000  0.322331  0.412996  1
  Er  Er3  1  0.000000  0.677669  0.587004  1
  Ta  Ta4  1  0.000000  0.445126  0.128431  1
  Ta  Ta5  1  0.000000  0.554874  0.871569  1
  Ta  Ta6  1  0.000000  0.945126  0.371569  1
  Ta  Ta7  1  0.000000  0.054874  0.628431  1
  Co  Co8  1  0.000000  0.142995  0.181532  1
  Co  Co9  1  0.000000  0.857005  0.818468  1
  Co  Co10  1  0.000000  0.642995  0.318468  1
  Co  Co11  1  0.000000  0.357005  0.681532  1
  B  B12  1  0.500000  0.054327  0.066751  1
  B  B13  1  0.500000  0.945673  0.933249  1
  B  B14  1  0.500000  0.554327  0.433249  1
  B  B15  1  0.500000  0.445673  0.566751  1
  B  B16  1  0.500000  0.252342  0.082145  1
  B  B17  1  0.500000  0.747658  0.917855  1
  B  B18  1  0.500000  0.752342  0.417855  1
  B  B19  1  0.500000  0.247658  0.582145  1
  B  B20  1  0.500000  0.297245  0.236359  1
  B  B21  1  0.500000  0.702755  0.763641  1
  B  B22  1  0.500000  0.797245  0.263641  1
  B  B23  1  0.500000  0.202755  0.736359  1
  B  B24  1  0.500000  0.130135  0.317922  1
  B  B25  1  0.500000  0.869865  0.682078  1
  B  B26  1  0.500000  0.630135  0.182078  1
  B  B27  1  0.500000  0.369865  0.817922  1
  B  B28  1  0.500000  0.482229  0.286585  1
  B  B29  1  0.500000  0.517771  0.713415  1
  B  B30  1  0.500000  0.982229  0.213415  1
  B  B31  1  0.500000  0.017771  0.786585  1
  B  B32  1  0.500000  0.100092  0.473597  1
  B  B33  1  0.500000  0.899908  0.526403  1
  B  B34  1  0.500000  0.600092  0.026403  1
  B  B35  1  0.500000  0.399908  0.973597  1
