# generated using pymatgen
data_Li11Co5F24
_symmetry_space_group_name_H-M   'P 1'
_cell_length_a   5.16196116
_cell_length_b   8.76569812
_cell_length_c   9.56350000
_cell_angle_alpha   90.40093720
_cell_angle_beta   90.59588245
_cell_angle_gamma   90.42896256
_symmetry_Int_Tables_number   1
_chemical_formula_structural   Li11Co5F24
_chemical_formula_sum   'Li11 Co5 F24'
_cell_volume   432.68473375
_cell_formula_units_Z   1
loop_
 _symmetry_equiv_pos_site_id
 _symmetry_equiv_pos_as_xyz
  1  'x, y, z'
loop_
 _atom_site_type_symbol
 _atom_site_label
 _atom_site_symmetry_multiplicity
 _atom_site_fract_x
 _atom_site_fract_y
 _atom_site_fract_z
 _atom_site_occupancy
  Li  Li0  1  0.803727  0.151631  0.443846  1
  Li  Li1  1  0.178501  0.157607  0.147705  1
  Li  Li2  1  0.322857  0.359072  0.847616  1
  Li  Li3  1  0.678128  0.335946  0.145962  1
  Li  Li4  1  0.303198  0.346443  0.444616  1
  Li  Li5  1  0.690463  0.651792  0.948190  1
  Li  Li6  1  0.310841  0.671108  0.631574  1
  Li  Li7  1  0.692845  0.654724  0.341820  1
  Li  Li8  1  0.181235  0.846690  0.347649  1
  Li  Li9  1  0.813944  0.841629  0.626290  1
  Li  Li10  1  0.197057  0.838781  0.944316  1
  Co  Co11  1  0.317648  0.013710  0.630623  1
  Co  Co12  1  0.833369  0.159105  0.866086  1
  Co  Co13  1  0.819891  0.491075  0.632060  1
  Co  Co14  1  0.180223  0.505564  0.131007  1
  Co  Co15  1  0.677484  0.980475  0.140068  1
  F  F16  1  0.650024  0.006766  0.741027  1
  F  F17  1  0.994168  0.011753  0.009631  1
  F  F18  1  0.169111  0.171578  0.763850  1
  F  F19  1  0.461085  0.166469  0.505812  1
  F  F20  1  0.544716  0.165460  0.015305  1
  F  F21  1  0.837958  0.157926  0.245197  1
  F  F22  1  0.330780  0.347412  0.240855  1
  F  F23  1  0.032868  0.338527  0.015541  1
  F  F24  1  0.960537  0.337789  0.512010  1
  F  F25  1  0.667940  0.340569  0.765346  1
  F  F26  1  0.474925  0.489787  0.015819  1
  F  F27  1  0.135895  0.500176  0.733342  1
  F  F28  1  0.875739  0.499118  0.233647  1
  F  F29  1  0.513055  0.507268  0.516740  1
  F  F30  1  0.333837  0.650957  0.250270  1
  F  F31  1  0.039816  0.653246  0.011779  1
  F  F32  1  0.957812  0.659546  0.517543  1
  F  F33  1  0.659256  0.649788  0.744989  1
  F  F34  1  0.157980  0.848059  0.746231  1
  F  F35  1  0.460940  0.836614  0.519222  1
  F  F36  1  0.543399  0.834869  0.003502  1
  F  F37  1  0.838518  0.833181  0.262423  1
  F  F38  1  0.004071  0.990305  0.510289  1
  F  F39  1  0.354158  0.997485  0.238202  1
