# generated using pymatgen
data_Dy2Lu2MnRu7
_symmetry_space_group_name_H-M   'P 1'
_cell_length_a   5.31469373
_cell_length_b   5.31873778
_cell_length_c   8.61976701
_cell_angle_alpha   90.00000163
_cell_angle_beta   89.97309137
_cell_angle_gamma   59.97480097
_symmetry_Int_Tables_number   1
_chemical_formula_structural   Dy2Lu2MnRu7
_chemical_formula_sum   'Dy2 Lu2 Mn1 Ru7'
_cell_volume   210.96119842
_cell_formula_units_Z   1
loop_
 _symmetry_equiv_pos_site_id
 _symmetry_equiv_pos_as_xyz
  1  'x, y, z'
loop_
 _atom_site_type_symbol
 _atom_site_label
 _atom_site_symmetry_multiplicity
 _atom_site_fract_x
 _atom_site_fract_y
 _atom_site_fract_z
 _atom_site_occupancy
  Dy  Dy0  1  0.333390  0.333305  0.565214  1
  Dy  Dy1  1  0.666610  0.666695  0.434786  1
  Lu  Lu2  1  0.666546  0.666727  0.066914  1
  Lu  Lu3  1  0.333454  0.333273  0.933086  1
  Mn  Mn4  1  0.000000  0.000000  0.000000  1
  Ru  Ru5  1  0.000000  0.000000  0.500000  1
  Ru  Ru6  1  0.828717  0.342686  0.755690  1
  Ru  Ru7  1  0.342719  0.828640  0.755674  1
  Ru  Ru8  1  0.828717  0.828596  0.755690  1
  Ru  Ru9  1  0.171283  0.657314  0.244310  1
  Ru  Ru10  1  0.657281  0.171360  0.244326  1
  Ru  Ru11  1  0.171283  0.171404  0.244310  1
