# generated using pymatgen
data_Ac3Te4Cl
_symmetry_space_group_name_H-M   'P 1'
_cell_length_a   4.53437100
_cell_length_b   14.68501100
_cell_length_c   16.84159300
_cell_angle_alpha   90.00000000
_cell_angle_beta   90.00000000
_cell_angle_gamma   90.00000000
_symmetry_Int_Tables_number   1
_chemical_formula_structural   Ac3Te4Cl
_chemical_formula_sum   'Ac12 Te16 Cl4'
_cell_volume   1121.43600369
_cell_formula_units_Z   4
loop_
 _symmetry_equiv_pos_site_id
 _symmetry_equiv_pos_as_xyz
  1  'x, y, z'
loop_
 _atom_site_type_symbol
 _atom_site_label
 _atom_site_symmetry_multiplicity
 _atom_site_fract_x
 _atom_site_fract_y
 _atom_site_fract_z
 _atom_site_occupancy
  Ac  Ac0  1  0.250000  0.906972  0.626318  1
  Ac  Ac1  1  0.250000  0.593028  0.126318  1
  Ac  Ac2  1  0.750000  0.093028  0.373682  1
  Ac  Ac3  1  0.750000  0.406972  0.873682  1
  Ac  Ac4  1  0.750000  0.251016  0.616397  1
  Ac  Ac5  1  0.750000  0.248984  0.116397  1
  Ac  Ac6  1  0.250000  0.748984  0.383603  1
  Ac  Ac7  1  0.250000  0.751016  0.883603  1
  Ac  Ac8  1  0.750000  0.579561  0.630629  1
  Ac  Ac9  1  0.750000  0.920439  0.130629  1
  Ac  Ac10  1  0.250000  0.420439  0.369371  1
  Ac  Ac11  1  0.250000  0.079561  0.869371  1
  Te  Te12  1  0.250000  0.419256  0.571988  1
  Te  Te13  1  0.250000  0.080744  0.071988  1
  Te  Te14  1  0.750000  0.580744  0.428012  1
  Te  Te15  1  0.750000  0.919256  0.928012  1
  Te  Te16  1  0.750000  0.048547  0.716704  1
  Te  Te17  1  0.750000  0.451453  0.216704  1
  Te  Te18  1  0.250000  0.951453  0.283296  1
  Te  Te19  1  0.250000  0.548547  0.783296  1
  Te  Te20  1  0.750000  0.777963  0.732423  1
  Te  Te21  1  0.750000  0.722037  0.232423  1
  Te  Te22  1  0.250000  0.222037  0.267577  1
  Te  Te23  1  0.250000  0.277963  0.767577  1
  Te  Te24  1  0.250000  0.113188  0.523771  1
  Te  Te25  1  0.250000  0.386812  0.023771  1
  Te  Te26  1  0.750000  0.886812  0.476229  1
  Te  Te27  1  0.750000  0.613188  0.976229  1
  Cl  Cl28  1  0.250000  0.701501  0.568996  1
  Cl  Cl29  1  0.250000  0.798499  0.068996  1
  Cl  Cl30  1  0.750000  0.298499  0.431004  1
  Cl  Cl31  1  0.750000  0.201501  0.931004  1
