# generated using pymatgen
data_Mn3Nb4FeP4
_symmetry_space_group_name_H-M   'P 1'
_cell_length_a   3.57840100
_cell_length_b   6.19201411
_cell_length_c   7.14291906
_cell_angle_alpha   90.72574969
_cell_angle_beta   90.00000000
_cell_angle_gamma   90.00000000
_symmetry_Int_Tables_number   1
_chemical_formula_structural   Mn3Nb4FeP4
_chemical_formula_sum   'Mn3 Nb4 Fe1 P4'
_cell_volume   158.25659998
_cell_formula_units_Z   1
loop_
 _symmetry_equiv_pos_site_id
 _symmetry_equiv_pos_as_xyz
  1  'x, y, z'
loop_
 _atom_site_type_symbol
 _atom_site_label
 _atom_site_symmetry_multiplicity
 _atom_site_fract_x
 _atom_site_fract_y
 _atom_site_fract_z
 _atom_site_occupancy
  Mn  Mn0  1  0.250000  0.640896  0.562134  1
  Mn  Mn1  1  0.750000  0.358538  0.438202  1
  Mn  Mn2  1  0.750000  0.857614  0.059095  1
  Nb  Nb3  1  0.250000  0.526140  0.170780  1
  Nb  Nb4  1  0.750000  0.476378  0.828888  1
  Nb  Nb5  1  0.750000  0.970430  0.676793  1
  Nb  Nb6  1  0.250000  0.026891  0.323114  1
  Fe  Fe7  1  0.250000  0.144381  0.940194  1
  P  P8  1  0.250000  0.780875  0.883295  1
  P  P9  1  0.750000  0.220286  0.116609  1
  P  P10  1  0.750000  0.727472  0.368100  1
  P  P11  1  0.250000  0.270099  0.632795  1
