# generated using pymatgen
data_BaTa6GaS12
_symmetry_space_group_name_H-M   'P 1'
_cell_length_a   5.81826400
_cell_length_b   5.81826399
_cell_length_c   15.49532200
_cell_angle_alpha   90.00000000
_cell_angle_beta   90.00000000
_cell_angle_gamma   119.99998866
_symmetry_Int_Tables_number   1
_chemical_formula_structural   BaTa6GaS12
_chemical_formula_sum   'Ba1 Ta6 Ga1 S12'
_cell_volume   454.27426327
_cell_formula_units_Z   1
loop_
 _symmetry_equiv_pos_site_id
 _symmetry_equiv_pos_as_xyz
  1  'x, y, z'
loop_
 _atom_site_type_symbol
 _atom_site_label
 _atom_site_symmetry_multiplicity
 _atom_site_fract_x
 _atom_site_fract_y
 _atom_site_fract_z
 _atom_site_occupancy
  Ba  Ba0  1  0.000000  0.000000  0.500000  1
  Ta  Ta1  1  0.000000  0.000000  0.243248  1
  Ta  Ta2  1  0.000000  0.000000  0.756752  1
  Ta  Ta3  1  0.333333  0.666667  0.240917  1
  Ta  Ta4  1  0.666667  0.333333  0.759083  1
  Ta  Ta5  1  0.666667  0.333333  0.240917  1
  Ta  Ta6  1  0.333333  0.666667  0.759083  1
  Ga  Ga7  1  0.000000  0.000000  0.000000  1
  S  S8  1  0.330882  0.000000  0.142080  1
  S  S9  1  0.000000  0.330882  0.142080  1
  S  S10  1  0.669118  0.669118  0.142080  1
  S  S11  1  0.337874  0.337874  0.657227  1
  S  S12  1  0.662126  0.662126  0.342773  1
  S  S13  1  0.662126  0.000000  0.657227  1
  S  S14  1  0.000000  0.662126  0.657227  1
  S  S15  1  0.000000  0.669118  0.857920  1
  S  S16  1  0.330882  0.330882  0.857920  1
  S  S17  1  0.000000  0.337874  0.342773  1
  S  S18  1  0.337874  0.000000  0.342773  1
  S  S19  1  0.669118  0.000000  0.857920  1
