# generated using pymatgen
data_Nd16Cd4Co3Cu
_symmetry_space_group_name_H-M   'P 1'
_cell_length_a   9.86213476
_cell_length_b   9.86504559
_cell_length_c   9.86504600
_cell_angle_alpha   60.00000532
_cell_angle_beta   59.99024130
_cell_angle_gamma   59.99023918
_symmetry_Int_Tables_number   1
_chemical_formula_structural   Nd16Cd4Co3Cu
_chemical_formula_sum   'Nd16 Cd4 Co3 Cu1'
_cell_volume   678.56285293
_cell_formula_units_Z   1
loop_
 _symmetry_equiv_pos_site_id
 _symmetry_equiv_pos_as_xyz
  1  'x, y, z'
loop_
 _atom_site_type_symbol
 _atom_site_label
 _atom_site_symmetry_multiplicity
 _atom_site_fract_x
 _atom_site_fract_y
 _atom_site_fract_z
 _atom_site_occupancy
  Nd  Nd0  1  0.338930  0.351445  0.351445  1
  Nd  Nd1  1  0.338930  0.351445  0.958179  1
  Nd  Nd2  1  0.338930  0.958179  0.351445  1
  Nd  Nd3  1  0.965928  0.344690  0.344690  1
  Nd  Nd4  1  0.820882  0.189593  0.189593  1
  Nd  Nd5  1  0.189445  0.810938  0.810938  1
  Nd  Nd6  1  0.189445  0.810938  0.188678  1
  Nd  Nd7  1  0.820882  0.189593  0.799931  1
  Nd  Nd8  1  0.189445  0.188678  0.810938  1
  Nd  Nd9  1  0.820882  0.799931  0.189593  1
  Nd  Nd10  1  0.933705  0.563818  0.563818  1
  Nd  Nd11  1  0.559845  0.938175  0.938175  1
  Nd  Nd12  1  0.559845  0.938175  0.563803  1
  Nd  Nd13  1  0.933705  0.563818  0.938658  1
  Nd  Nd14  1  0.559845  0.563803  0.938175  1
  Nd  Nd15  1  0.933705  0.938658  0.563818  1
  Cd  Cd16  1  0.579658  0.579064  0.579064  1
  Cd  Cd17  1  0.579658  0.579064  0.262216  1
  Cd  Cd18  1  0.579658  0.262216  0.579064  1
  Cd  Cd19  1  0.260121  0.579960  0.579960  1
  Co  Co20  1  0.143298  0.140212  0.140212  1
  Co  Co21  1  0.143298  0.140212  0.576275  1
  Co  Co22  1  0.143298  0.576275  0.140212  1
  Cu  Cu23  1  0.576662  0.141112  0.141112  1
