# generated using pymatgen
data_Y4NiAg
_symmetry_space_group_name_H-M   'P 1'
_cell_length_a   9.50128596
_cell_length_b   9.50128638
_cell_length_c   9.50128600
_cell_angle_alpha   60.00000131
_cell_angle_beta   59.99999987
_cell_angle_gamma   60.00000136
_symmetry_Int_Tables_number   1
_chemical_formula_structural   Y4NiAg
_chemical_formula_sum   'Y16 Ni4 Ag4'
_cell_volume   606.50194666
_cell_formula_units_Z   4
loop_
 _symmetry_equiv_pos_site_id
 _symmetry_equiv_pos_as_xyz
  1  'x, y, z'
loop_
 _atom_site_type_symbol
 _atom_site_label
 _atom_site_symmetry_multiplicity
 _atom_site_fract_x
 _atom_site_fract_y
 _atom_site_fract_z
 _atom_site_occupancy
  Y  Y0  1  0.600232  0.600232  0.600232  1
  Y  Y1  1  0.600232  0.600232  0.199303  1
  Y  Y2  1  0.600232  0.199303  0.600232  1
  Y  Y3  1  0.199303  0.600232  0.600232  1
  Y  Y4  1  0.060947  0.439053  0.439053  1
  Y  Y5  1  0.439053  0.060947  0.060947  1
  Y  Y6  1  0.439053  0.060947  0.439053  1
  Y  Y7  1  0.060947  0.439053  0.060947  1
  Y  Y8  1  0.439053  0.439053  0.060947  1
  Y  Y9  1  0.060947  0.060947  0.439053  1
  Y  Y10  1  0.185349  0.814651  0.814651  1
  Y  Y11  1  0.814651  0.185349  0.185349  1
  Y  Y12  1  0.814651  0.185349  0.814651  1
  Y  Y13  1  0.185349  0.814651  0.185349  1
  Y  Y14  1  0.814651  0.814651  0.185349  1
  Y  Y15  1  0.185349  0.185349  0.814651  1
  Ni  Ni16  1  0.392820  0.392820  0.392820  1
  Ni  Ni17  1  0.392820  0.392820  0.821540  1
  Ni  Ni18  1  0.392820  0.821540  0.392820  1
  Ni  Ni19  1  0.821540  0.392820  0.392820  1
  Ag  Ag20  1  0.831493  0.831493  0.831493  1
  Ag  Ag21  1  0.831493  0.831493  0.505521  1
  Ag  Ag22  1  0.831493  0.505521  0.831493  1
  Ag  Ag23  1  0.505521  0.831493  0.831493  1
