# generated using pymatgen
data_Tb3Ho2Lu3Au4
_symmetry_space_group_name_H-M   'P 1'
_cell_length_a   4.89735400
_cell_length_b   7.12481951
_cell_length_c   8.87834435
_cell_angle_alpha   90.13163253
_cell_angle_beta   90.00000000
_cell_angle_gamma   90.00000000
_symmetry_Int_Tables_number   1
_chemical_formula_structural   Tb3Ho2Lu3Au4
_chemical_formula_sum   'Tb3 Ho2 Lu3 Au4'
_cell_volume   309.78915066
_cell_formula_units_Z   1
loop_
 _symmetry_equiv_pos_site_id
 _symmetry_equiv_pos_as_xyz
  1  'x, y, z'
loop_
 _atom_site_type_symbol
 _atom_site_label
 _atom_site_symmetry_multiplicity
 _atom_site_fract_x
 _atom_site_fract_y
 _atom_site_fract_z
 _atom_site_occupancy
  Tb  Tb0  1  0.250000  0.484196  0.176535  1
  Tb  Tb1  1  0.250000  0.987375  0.323392  1
  Tb  Tb2  1  0.750000  0.015715  0.678247  1
  Ho  Ho3  1  0.750000  0.647708  0.419571  1
  Ho  Ho4  1  0.750000  0.514996  0.823249  1
  Lu  Lu5  1  0.250000  0.852286  0.921574  1
  Lu  Lu6  1  0.250000  0.352880  0.580929  1
  Lu  Lu7  1  0.750000  0.148053  0.077887  1
  Au  Au8  1  0.250000  0.251792  0.899351  1
  Au  Au9  1  0.250000  0.752711  0.603794  1
  Au  Au10  1  0.750000  0.748498  0.096003  1
  Au  Au11  1  0.750000  0.243791  0.399467  1
