# generated using pymatgen
data_Cs4Dy2(MoH9)3
_symmetry_space_group_name_H-M   'P 1'
_cell_length_a   9.43429200
_cell_length_b   9.02208423
_cell_length_c   5.44666200
_cell_angle_alpha   90.00000000
_cell_angle_beta   90.00000000
_cell_angle_gamma   121.52324818
_symmetry_Int_Tables_number   1
_chemical_formula_structural   Cs4Dy2(MoH9)3
_chemical_formula_sum   'Cs4 Dy2 Mo3 H27'
_cell_volume   395.18856325
_cell_formula_units_Z   1
loop_
 _symmetry_equiv_pos_site_id
 _symmetry_equiv_pos_as_xyz
  1  'x, y, z'
loop_
 _atom_site_type_symbol
 _atom_site_label
 _atom_site_symmetry_multiplicity
 _atom_site_fract_x
 _atom_site_fract_y
 _atom_site_fract_z
 _atom_site_occupancy
  Cs  Cs0  1  0.262531  0.000000  0.500000  1
  Cs  Cs1  1  0.040978  0.634347  0.000000  1
  Cs  Cs2  1  0.406631  0.365653  0.000000  1
  Cs  Cs3  1  0.562827  0.000000  0.000000  1
  Dy  Dy4  1  0.978751  0.255350  0.500000  1
  Dy  Dy5  1  0.723401  0.744650  0.500000  1
  Mo  Mo6  1  0.725637  0.387860  0.500000  1
  Mo  Mo7  1  0.337775  0.612140  0.500000  1
  Mo  Mo8  1  0.943398  0.000000  0.000000  1
  H  H9  1  0.842621  0.350568  0.722894  1
  H  H10  1  0.732809  0.536151  0.723717  1
  H  H11  1  0.592118  0.269144  0.731759  1
  H  H12  1  0.196657  0.463849  0.276283  1
  H  H13  1  0.592118  0.269144  0.268241  1
  H  H14  1  0.842621  0.350568  0.277106  1
  H  H15  1  0.732809  0.536151  0.276283  1
  H  H16  1  0.322973  0.730856  0.731759  1
  H  H17  1  0.492054  0.649432  0.722894  1
  H  H18  1  0.124416  0.000000  0.000000  1
  H  H19  1  0.747118  0.804031  0.000000  1
  H  H20  1  0.943086  0.195969  0.000000  1
  H  H21  1  0.822960  0.000000  0.276050  1
  H  H22  1  0.083695  0.144537  0.775141  1
  H  H23  1  0.939158  0.855463  0.775141  1
  H  H24  1  0.939158  0.855463  0.224859  1
  H  H25  1  0.083695  0.144537  0.224859  1
  H  H26  1  0.822960  0.000000  0.723950  1
  H  H27  1  0.154967  0.610449  0.500000  1
  H  H28  1  0.509635  0.828578  0.500000  1
  H  H29  1  0.342666  0.422143  0.500000  1
  H  H30  1  0.544518  0.389551  0.500000  1
  H  H31  1  0.920523  0.577857  0.500000  1
  H  H32  1  0.681056  0.171422  0.500000  1
  H  H33  1  0.196657  0.463849  0.723717  1
  H  H34  1  0.322973  0.730856  0.268241  1
  H  H35  1  0.492054  0.649432  0.277106  1
