# generated using pymatgen
data_Er3In3Cu2Hg
_symmetry_space_group_name_H-M   'P 1'
_cell_length_a   7.64870000
_cell_length_b   7.64870093
_cell_length_c   3.90875700
_cell_angle_alpha   90.00000000
_cell_angle_beta   90.00000000
_cell_angle_gamma   120.00000464
_symmetry_Int_Tables_number   1
_chemical_formula_structural   Er3In3Cu2Hg
_chemical_formula_sum   'Er3 In3 Cu2 Hg1'
_cell_volume   198.03620282
_cell_formula_units_Z   1
loop_
 _symmetry_equiv_pos_site_id
 _symmetry_equiv_pos_as_xyz
  1  'x, y, z'
loop_
 _atom_site_type_symbol
 _atom_site_label
 _atom_site_symmetry_multiplicity
 _atom_site_fract_x
 _atom_site_fract_y
 _atom_site_fract_z
 _atom_site_occupancy
  Er  Er0  1  0.983803  0.586908  0.500000  1
  Er  Er1  1  0.413092  0.396895  0.500000  1
  Er  Er2  1  0.603105  0.016197  0.500000  1
  In  In3  1  0.754226  0.743792  0.000000  1
  In  In4  1  0.989566  0.245774  0.000000  1
  In  In5  1  0.256208  0.010434  0.000000  1
  Cu  Cu6  1  0.000000  0.000000  0.500000  1
  Cu  Cu7  1  0.666667  0.333333  0.000000  1
  Hg  Hg8  1  0.333333  0.666667  0.000000  1
