# generated using pymatgen
data_Ho4Ni(AsRu)6
_symmetry_space_group_name_H-M   'P 1'
_cell_length_a   7.21644372
_cell_length_b   7.21644410
_cell_length_c   7.21644348
_cell_angle_alpha   109.27965718
_cell_angle_beta   109.85504339
_cell_angle_gamma   109.27964728
_symmetry_Int_Tables_number   1
_chemical_formula_structural   Ho4Ni(AsRu)6
_chemical_formula_sum   'Ho4 Ni1 As6 Ru6'
_cell_volume   289.28982620
_cell_formula_units_Z   1
loop_
 _symmetry_equiv_pos_site_id
 _symmetry_equiv_pos_as_xyz
  1  'x, y, z'
loop_
 _atom_site_type_symbol
 _atom_site_label
 _atom_site_symmetry_multiplicity
 _atom_site_fract_x
 _atom_site_fract_y
 _atom_site_fract_z
 _atom_site_occupancy
  Ho  Ho0  1  0.000308  0.000616  0.500308  1
  Ho  Ho1  1  0.499692  0.999384  0.999692  1
  Ho  Ho2  1  0.000308  0.500000  0.999692  1
  Ho  Ho3  1  0.499692  0.500000  0.500308  1
  Ni  Ni4  1  0.750000  0.500000  0.250000  1
  As  As5  1  0.316772  0.000000  0.316772  1
  As  As6  1  0.998791  0.318660  0.317451  1
  As  As7  1  0.998791  0.681340  0.680131  1
  As  As8  1  0.319869  0.318660  0.001209  1
  As  As9  1  0.682549  0.681340  0.001209  1
  As  As10  1  0.683228  0.000000  0.683228  1
  Ru  Ru11  1  0.500801  0.749014  0.249814  1
  Ru  Ru12  1  0.500801  0.250986  0.751787  1
  Ru  Ru13  1  0.750186  0.250986  0.499199  1
  Ru  Ru14  1  0.248213  0.749014  0.499199  1
  Ru  Ru15  1  0.250000  0.500000  0.750000  1
  Ru  Ru16  1  0.000000  0.000000  0.000000  1
