# generated using pymatgen
data_PrNd3Pd3PtF28
_symmetry_space_group_name_H-M   'P 1'
_cell_length_a   5.65536138
_cell_length_b   9.16322852
_cell_length_c   12.27433817
_cell_angle_alpha   61.94706105
_cell_angle_beta   90.01722787
_cell_angle_gamma   89.99881196
_symmetry_Int_Tables_number   1
_chemical_formula_structural   PrNd3Pd3PtF28
_chemical_formula_sum   'Pr1 Nd3 Pd3 Pt1 F28'
_cell_volume   561.34294246
_cell_formula_units_Z   1
loop_
 _symmetry_equiv_pos_site_id
 _symmetry_equiv_pos_as_xyz
  1  'x, y, z'
loop_
 _atom_site_type_symbol
 _atom_site_label
 _atom_site_symmetry_multiplicity
 _atom_site_fract_x
 _atom_site_fract_y
 _atom_site_fract_z
 _atom_site_occupancy
  Pr  Pr0  1  0.739002  0.811837  0.264044  1
  Nd  Nd1  1  0.761430  0.810666  0.764338  1
  Nd  Nd2  1  0.260872  0.188764  0.736629  1
  Nd  Nd3  1  0.238583  0.190087  0.234677  1
  Pd  Pd4  1  0.756850  0.273943  0.957032  1
  Pd  Pd5  1  0.256945  0.726501  0.543272  1
  Pd  Pd6  1  0.243409  0.726577  0.041834  1
  Pt  Pt7  1  0.743304  0.272423  0.457908  1
  F  F8  1  0.430384  0.706743  0.916286  1
  F  F9  1  0.932222  0.293197  0.584521  1
  F  F10  1  0.569753  0.293413  0.082737  1
  F  F11  1  0.070703  0.706386  0.417540  1
  F  F12  1  0.447867  0.281672  0.539683  1
  F  F13  1  0.950004  0.717898  0.961138  1
  F  F14  1  0.549448  0.717349  0.462437  1
  F  F15  1  0.049579  0.282541  0.038184  1
  F  F16  1  0.766527  0.514347  0.861558  1
  F  F17  1  0.266790  0.485809  0.638989  1
  F  F18  1  0.233529  0.486176  0.137800  1
  F  F19  1  0.733953  0.514899  0.361434  1
  F  F20  1  0.757487  0.033714  0.047233  1
  F  F21  1  0.257579  0.967013  0.451955  1
  F  F22  1  0.242713  0.966988  0.951732  1
  F  F23  1  0.742462  0.029649  0.549357  1
  F  F24  1  0.968680  0.727421  0.629805  1
  F  F25  1  0.468854  0.272401  0.870562  1
  F  F26  1  0.033995  0.271635  0.370189  1
  F  F27  1  0.531471  0.727419  0.128320  1
  F  F28  1  0.061427  0.740834  0.171409  1
  F  F29  1  0.558392  0.257734  0.327448  1
  F  F30  1  0.940323  0.258907  0.828137  1
  F  F31  1  0.439972  0.741247  0.672528  1
  F  F32  1  0.401235  0.967400  0.230144  1
  F  F33  1  0.904326  0.036004  0.269483  1
  F  F34  1  0.595118  0.033434  0.768846  1
  F  F35  1  0.094818  0.966973  0.730813  1
