# generated using pymatgen
data_Tb3Zn3RuAu2
_symmetry_space_group_name_H-M   'P 1'
_cell_length_a   7.45895400
_cell_length_b   7.45895467
_cell_length_c   3.87134200
_cell_angle_alpha   90.00000000
_cell_angle_beta   90.00000000
_cell_angle_gamma   119.99998816
_symmetry_Int_Tables_number   1
_chemical_formula_structural   Tb3Zn3RuAu2
_chemical_formula_sum   'Tb3 Zn3 Ru1 Au2'
_cell_volume   186.52975481
_cell_formula_units_Z   1
loop_
 _symmetry_equiv_pos_site_id
 _symmetry_equiv_pos_as_xyz
  1  'x, y, z'
loop_
 _atom_site_type_symbol
 _atom_site_label
 _atom_site_symmetry_multiplicity
 _atom_site_fract_x
 _atom_site_fract_y
 _atom_site_fract_z
 _atom_site_occupancy
  Tb  Tb0  1  0.021788  0.420105  0.000000  1
  Tb  Tb1  1  0.579895  0.601683  0.000000  1
  Tb  Tb2  1  0.398317  0.978212  0.000000  1
  Zn  Zn3  1  0.014537  0.744763  0.500000  1
  Zn  Zn4  1  0.255237  0.269774  0.500000  1
  Zn  Zn5  1  0.730226  0.985463  0.500000  1
  Ru  Ru6  1  0.333333  0.666667  0.500000  1
  Au  Au7  1  0.000000  0.000000  0.000000  1
  Au  Au8  1  0.666667  0.333333  0.500000  1
