# generated using pymatgen
data_Dy3Y12Er(CdPt)4
_symmetry_space_group_name_H-M   'P 1'
_cell_length_a   9.71545624
_cell_length_b   9.71403385
_cell_length_c   9.71403400
_cell_angle_alpha   60.00000629
_cell_angle_beta   60.00484923
_cell_angle_gamma   60.00485019
_symmetry_Int_Tables_number   1
_chemical_formula_structural   Dy3Y12Er(CdPt)4
_chemical_formula_sum   'Dy3 Y12 Er1 Cd4 Pt4'
_cell_volume   648.30487290
_cell_formula_units_Z   1
loop_
 _symmetry_equiv_pos_site_id
 _symmetry_equiv_pos_as_xyz
  1  'x, y, z'
loop_
 _atom_site_type_symbol
 _atom_site_label
 _atom_site_symmetry_multiplicity
 _atom_site_fract_x
 _atom_site_fract_y
 _atom_site_fract_z
 _atom_site_occupancy
  Dy  Dy0  1  0.352065  0.352094  0.352094  1
  Dy  Dy1  1  0.352065  0.352094  0.943746  1
  Dy  Dy2  1  0.352065  0.943746  0.352094  1
  Y  Y3  1  0.810188  0.189892  0.189892  1
  Y  Y4  1  0.189813  0.810214  0.810214  1
  Y  Y5  1  0.189813  0.810214  0.189758  1
  Y  Y6  1  0.810188  0.189892  0.810027  1
  Y  Y7  1  0.189813  0.189758  0.810214  1
  Y  Y8  1  0.810188  0.810027  0.189892  1
  Y  Y9  1  0.935511  0.564432  0.564432  1
  Y  Y10  1  0.564455  0.935515  0.935515  1
  Y  Y11  1  0.564455  0.935515  0.564515  1
  Y  Y12  1  0.935511  0.564432  0.935625  1
  Y  Y13  1  0.564455  0.564515  0.935515  1
  Y  Y14  1  0.935511  0.935625  0.564432  1
  Er  Er15  1  0.944471  0.351843  0.351843  1
  Cd  Cd16  1  0.582039  0.581740  0.581740  1
  Cd  Cd17  1  0.582039  0.581740  0.254480  1
  Cd  Cd18  1  0.582039  0.254480  0.581740  1
  Cd  Cd19  1  0.254464  0.581845  0.581845  1
  Pt  Pt20  1  0.143641  0.144462  0.144462  1
  Pt  Pt21  1  0.143641  0.144462  0.567434  1
  Pt  Pt22  1  0.143641  0.567434  0.144462  1
  Pt  Pt23  1  0.567923  0.144026  0.144026  1
