# generated using pymatgen
data_Sm2TcB8Os
_symmetry_space_group_name_H-M   'P 1'
_cell_length_a   6.03610505
_cell_length_b   11.68015412
_cell_length_c   3.63179400
_cell_angle_alpha   90.00000000
_cell_angle_beta   90.00000000
_cell_angle_gamma   90.15916038
_symmetry_Int_Tables_number   1
_chemical_formula_structural   Sm2TcB8Os
_chemical_formula_sum   'Sm4 Tc2 B16 Os2'
_cell_volume   256.05006688
_cell_formula_units_Z   2
loop_
 _symmetry_equiv_pos_site_id
 _symmetry_equiv_pos_as_xyz
  1  'x, y, z'
loop_
 _atom_site_type_symbol
 _atom_site_label
 _atom_site_symmetry_multiplicity
 _atom_site_fract_x
 _atom_site_fract_y
 _atom_site_fract_z
 _atom_site_occupancy
  Sm  Sm0  1  0.626694  0.350047  0.000000  1
  Sm  Sm1  1  0.373306  0.649953  0.000000  1
  Sm  Sm2  1  0.126222  0.150780  0.000000  1
  Sm  Sm3  1  0.873778  0.849220  0.000000  1
  Tc  Tc4  1  0.631290  0.087532  0.000000  1
  Tc  Tc5  1  0.368710  0.912468  0.000000  1
  B  B6  1  0.785396  0.184149  0.500000  1
  B  B7  1  0.214604  0.815851  0.500000  1
  B  B8  1  0.286740  0.315625  0.500000  1
  B  B9  1  0.713260  0.684375  0.500000  1
  B  B10  1  0.861996  0.031561  0.500000  1
  B  B11  1  0.138004  0.968439  0.500000  1
  B  B12  1  0.361228  0.469022  0.500000  1
  B  B13  1  0.638772  0.530978  0.500000  1
  B  B14  1  0.888214  0.453945  0.500000  1
  B  B15  1  0.111786  0.546055  0.500000  1
  B  B16  1  0.388330  0.046161  0.500000  1
  B  B17  1  0.611670  0.953839  0.500000  1
  B  B18  1  0.974953  0.309863  0.500000  1
  B  B19  1  0.025047  0.690137  0.500000  1
  B  B20  1  0.477230  0.190778  0.500000  1
  B  B21  1  0.522770  0.809222  0.500000  1
  Os  Os22  1  0.139329  0.408021  0.000000  1
  Os  Os23  1  0.860671  0.591979  0.000000  1
