# generated using pymatgen
data_TbDy2ThS6
_symmetry_space_group_name_H-M   'P 1'
_cell_length_a   3.91825400
_cell_length_b   10.47389636
_cell_length_c   10.71731958
_cell_angle_alpha   89.49431075
_cell_angle_beta   90.00000000
_cell_angle_gamma   90.00000000
_symmetry_Int_Tables_number   1
_chemical_formula_structural   TbDy2ThS6
_chemical_formula_sum   'Tb2 Dy4 Th2 S12'
_cell_volume   439.81508744
_cell_formula_units_Z   2
loop_
 _symmetry_equiv_pos_site_id
 _symmetry_equiv_pos_as_xyz
  1  'x, y, z'
loop_
 _atom_site_type_symbol
 _atom_site_label
 _atom_site_symmetry_multiplicity
 _atom_site_fract_x
 _atom_site_fract_y
 _atom_site_fract_z
 _atom_site_occupancy
  Tb  Tb0  1  0.750000  0.490808  0.690673  1
  Tb  Tb1  1  0.250000  0.509192  0.309327  1
  Dy  Dy2  1  0.250000  0.190835  0.484375  1
  Dy  Dy3  1  0.750000  0.809165  0.515625  1
  Dy  Dy4  1  0.750000  0.682004  0.008803  1
  Dy  Dy5  1  0.250000  0.317996  0.991197  1
  Th  Th6  1  0.250000  0.005431  0.802958  1
  Th  Th7  1  0.750000  0.994569  0.197042  1
  S  S8  1  0.250000  0.294614  0.729461  1
  S  S9  1  0.750000  0.705386  0.270539  1
  S  S10  1  0.750000  0.804033  0.774354  1
  S  S11  1  0.250000  0.195967  0.225646  1
  S  S12  1  0.250000  0.943470  0.387014  1
  S  S13  1  0.750000  0.056530  0.612986  1
  S  S14  1  0.750000  0.446342  0.123343  1
  S  S15  1  0.250000  0.553658  0.876657  1
  S  S16  1  0.250000  0.868383  0.043497  1
  S  S17  1  0.750000  0.131617  0.956503  1
  S  S18  1  0.750000  0.374747  0.451424  1
  S  S19  1  0.250000  0.625253  0.548576  1
