# generated using pymatgen
data_LiPr8ZnPd23
_symmetry_space_group_name_H-M   'P 1'
_cell_length_a   8.50437600
_cell_length_b   8.59047000
_cell_length_c   8.59047000
_cell_angle_alpha   90.00000000
_cell_angle_beta   90.00000000
_cell_angle_gamma   90.00000000
_symmetry_Int_Tables_number   1
_chemical_formula_structural   LiPr8ZnPd23
_chemical_formula_sum   'Li1 Pr8 Zn1 Pd23'
_cell_volume   627.59041804
_cell_formula_units_Z   1
loop_
 _symmetry_equiv_pos_site_id
 _symmetry_equiv_pos_as_xyz
  1  'x, y, z'
loop_
 _atom_site_type_symbol
 _atom_site_label
 _atom_site_symmetry_multiplicity
 _atom_site_fract_x
 _atom_site_fract_y
 _atom_site_fract_z
 _atom_site_occupancy
  Li  Li0  1  0.257743  0.500000  0.500000  1
  Pr  Pr1  1  0.249493  0.244086  0.244086  1
  Pr  Pr2  1  0.749351  0.748645  0.748645  1
  Pr  Pr3  1  0.749351  0.748645  0.251355  1
  Pr  Pr4  1  0.749351  0.251355  0.748645  1
  Pr  Pr5  1  0.249493  0.244086  0.755914  1
  Pr  Pr6  1  0.249493  0.755914  0.244086  1
  Pr  Pr7  1  0.249493  0.755914  0.755914  1
  Pr  Pr8  1  0.749351  0.251355  0.251355  1
  Zn  Zn9  1  0.999688  0.000000  0.000000  1
  Pd  Pd10  1  0.262703  0.500000  0.000000  1
  Pd  Pd11  1  0.736368  0.500000  0.000000  1
  Pd  Pd12  1  0.005336  0.264291  0.500000  1
  Pd  Pd13  1  0.501407  0.264987  0.000000  1
  Pd  Pd14  1  0.005336  0.735709  0.500000  1
  Pd  Pd15  1  0.501407  0.735013  0.000000  1
  Pd  Pd16  1  0.501407  0.000000  0.264987  1
  Pd  Pd17  1  0.262703  0.000000  0.500000  1
  Pd  Pd18  1  0.501407  0.000000  0.735013  1
  Pd  Pd19  1  0.736368  0.000000  0.500000  1
  Pd  Pd20  1  0.005336  0.500000  0.264291  1
  Pd  Pd21  1  0.005336  0.500000  0.735709  1
  Pd  Pd22  1  0.745420  0.500000  0.500000  1
  Pd  Pd23  1  0.495168  0.256160  0.500000  1
  Pd  Pd24  1  0.495168  0.743840  0.500000  1
  Pd  Pd25  1  0.495168  0.500000  0.256160  1
  Pd  Pd26  1  0.495168  0.500000  0.743840  1
  Pd  Pd27  1  0.303612  0.000000  0.000000  1
  Pd  Pd28  1  0.699356  0.000000  0.000000  1
  Pd  Pd29  1  0.998256  0.300022  0.000000  1
  Pd  Pd30  1  0.998256  0.699978  0.000000  1
  Pd  Pd31  1  0.998256  0.000000  0.300022  1
  Pd  Pd32  1  0.998256  0.000000  0.699978  1
