# generated using pymatgen
data_Hf6Ti16Ir2Os5
_symmetry_space_group_name_H-M   'P 1'
_cell_length_a   8.93260265
_cell_length_b   8.94197074
_cell_length_c   8.94197090
_cell_angle_alpha   59.93070407
_cell_angle_beta   60.03465349
_cell_angle_gamma   60.03465553
_symmetry_Int_Tables_number   1
_chemical_formula_structural   Hf6Ti16Ir2Os5
_chemical_formula_sum   'Hf6 Ti16 Ir2 Os5'
_cell_volume   505.04328945
_cell_formula_units_Z   1
loop_
 _symmetry_equiv_pos_site_id
 _symmetry_equiv_pos_as_xyz
  1  'x, y, z'
loop_
 _atom_site_type_symbol
 _atom_site_label
 _atom_site_symmetry_multiplicity
 _atom_site_fract_x
 _atom_site_fract_y
 _atom_site_fract_z
 _atom_site_occupancy
  Hf  Hf0  1  0.682700  0.317300  0.317300  1
  Hf  Hf1  1  0.317300  0.682700  0.682700  1
  Hf  Hf2  1  0.316789  0.683211  0.316789  1
  Hf  Hf3  1  0.683211  0.316789  0.683211  1
  Hf  Hf4  1  0.316789  0.316789  0.683211  1
  Hf  Hf5  1  0.683211  0.683211  0.316789  1
  Ti  Ti6  1  0.332329  0.331175  0.331175  1
  Ti  Ti7  1  0.667671  0.668825  0.668825  1
  Ti  Ti8  1  0.331175  0.332329  0.005322  1
  Ti  Ti9  1  0.331175  0.005322  0.332329  1
  Ti  Ti10  1  0.668825  0.667671  0.994678  1
  Ti  Ti11  1  0.668825  0.994678  0.667671  1
  Ti  Ti12  1  0.005322  0.331175  0.331175  1
  Ti  Ti13  1  0.994678  0.668825  0.668825  1
  Ti  Ti14  1  0.115459  0.118389  0.118389  1
  Ti  Ti15  1  0.884541  0.881611  0.881611  1
  Ti  Ti16  1  0.118389  0.115459  0.647764  1
  Ti  Ti17  1  0.118389  0.647764  0.115459  1
  Ti  Ti18  1  0.881611  0.884541  0.352236  1
  Ti  Ti19  1  0.881611  0.352236  0.884541  1
  Ti  Ti20  1  0.647764  0.118389  0.118389  1
  Ti  Ti21  1  0.352236  0.881611  0.881611  1
  Ir  Ir22  1  0.500000  0.000000  0.000000  1
  Ir  Ir23  1  0.000000  0.500000  0.500000  1
  Os  Os24  1  0.000000  0.500000  0.000000  1
  Os  Os25  1  0.500000  0.000000  0.500000  1
  Os  Os26  1  0.000000  0.000000  0.500000  1
  Os  Os27  1  0.500000  0.500000  0.000000  1
  Os  Os28  1  0.000000  0.000000  0.000000  1
