# generated using pymatgen
data_Er15Lu5Ir12
_symmetry_space_group_name_H-M   'P 1'
_cell_length_a   10.76593704
_cell_length_b   10.76765702
_cell_length_c   6.30385902
_cell_angle_alpha   90.00434686
_cell_angle_beta   89.99132349
_cell_angle_gamma   89.99496600
_symmetry_Int_Tables_number   1
_chemical_formula_structural   Er15Lu5Ir12
_chemical_formula_sum   'Er15 Lu5 Ir12'
_cell_volume   730.76802021
_cell_formula_units_Z   1
loop_
 _symmetry_equiv_pos_site_id
 _symmetry_equiv_pos_as_xyz
  1  'x, y, z'
loop_
 _atom_site_type_symbol
 _atom_site_label
 _atom_site_symmetry_multiplicity
 _atom_site_fract_x
 _atom_site_fract_y
 _atom_site_fract_z
 _atom_site_occupancy
  Er  Er0  1  0.290472  0.912897  0.877366  1
  Er  Er1  1  0.709314  0.087375  0.877255  1
  Er  Er2  1  0.709311  0.912600  0.377178  1
  Er  Er3  1  0.587347  0.790791  0.877327  1
  Er  Er4  1  0.586850  0.209261  0.377346  1
  Er  Er5  1  0.412326  0.791040  0.377255  1
  Er  Er6  1  0.412168  0.209204  0.877349  1
  Er  Er7  1  0.209386  0.412427  0.622602  1
  Er  Er8  1  0.209403  0.587465  0.122768  1
  Er  Er9  1  0.790667  0.412434  0.122775  1
  Er  Er10  1  0.790647  0.587457  0.622870  1
  Er  Er11  1  0.912573  0.709350  0.122700  1
  Er  Er12  1  0.912573  0.290619  0.622885  1
  Er  Er13  1  0.087566  0.709436  0.622599  1
  Er  Er14  1  0.088001  0.290189  0.123133  1
  Lu  Lu15  1  0.291420  0.087320  0.378312  1
  Lu  Lu16  1  0.000513  0.000222  0.499634  1
  Lu  Lu17  1  0.000078  0.000066  0.999826  1
  Lu  Lu18  1  0.499967  0.499923  0.999968  1
  Lu  Lu19  1  0.499894  0.499998  0.499815  1
  Ir  Ir20  1  0.847760  0.152202  0.249953  1
  Ir  Ir21  1  0.847779  0.847767  0.750003  1
  Ir  Ir22  1  0.152752  0.151919  0.748291  1
  Ir  Ir23  1  0.152576  0.848438  0.250410  1
  Ir  Ir24  1  0.652252  0.347720  0.750024  1
  Ir  Ir25  1  0.652304  0.652234  0.249994  1
  Ir  Ir26  1  0.347629  0.346853  0.250529  1
  Ir  Ir27  1  0.347759  0.652239  0.750032  1
  Ir  Ir28  1  0.499300  0.000359  0.122483  1
  Ir  Ir29  1  0.499234  0.000325  0.621095  1
  Ir  Ir30  1  0.000104  0.499962  0.878156  1
  Ir  Ir31  1  0.000075  0.499909  0.378064  1
