# generated using pymatgen
data_Ho2Tm3Lu3Pt4
_symmetry_space_group_name_H-M   'P 1'
_cell_length_a   4.73100000
_cell_length_b   7.07038717
_cell_length_c   8.63924910
_cell_angle_alpha   89.95828976
_cell_angle_beta   90.00000000
_cell_angle_gamma   90.00000000
_symmetry_Int_Tables_number   1
_chemical_formula_structural   Ho2Tm3Lu3Pt4
_chemical_formula_sum   'Ho2 Tm3 Lu3 Pt4'
_cell_volume   288.98282067
_cell_formula_units_Z   1
loop_
 _symmetry_equiv_pos_site_id
 _symmetry_equiv_pos_as_xyz
  1  'x, y, z'
loop_
 _atom_site_type_symbol
 _atom_site_label
 _atom_site_symmetry_multiplicity
 _atom_site_fract_x
 _atom_site_fract_y
 _atom_site_fract_z
 _atom_site_occupancy
  Ho  Ho0  1  0.250000  0.990236  0.330629  1
  Ho  Ho1  1  0.250000  0.488771  0.168609  1
  Tm  Tm2  1  0.750000  0.643824  0.421228  1
  Tm  Tm3  1  0.750000  0.011463  0.670172  1
  Tm  Tm4  1  0.750000  0.510384  0.830666  1
  Lu  Lu5  1  0.250000  0.856761  0.921077  1
  Lu  Lu6  1  0.250000  0.356040  0.579528  1
  Lu  Lu7  1  0.750000  0.143194  0.078219  1
  Pt  Pt8  1  0.250000  0.255515  0.906167  1
  Pt  Pt9  1  0.250000  0.756595  0.595122  1
  Pt  Pt10  1  0.750000  0.744426  0.091217  1
  Pt  Pt11  1  0.750000  0.242791  0.407366  1
