# generated using pymatgen
data_CeSm(Co3Si2)2
_symmetry_space_group_name_H-M   'P 1'
_cell_length_a   6.30092745
_cell_length_b   6.30092681
_cell_length_c   6.30092752
_cell_angle_alpha   130.21468930
_cell_angle_beta   114.27355661
_cell_angle_gamma   86.74687479
_symmetry_Int_Tables_number   1
_chemical_formula_structural   CeSm(Co3Si2)2
_chemical_formula_sum   'Ce1 Sm1 Co6 Si4'
_cell_volume   166.13117910
_cell_formula_units_Z   1
loop_
 _symmetry_equiv_pos_site_id
 _symmetry_equiv_pos_as_xyz
  1  'x, y, z'
loop_
 _atom_site_type_symbol
 _atom_site_label
 _atom_site_symmetry_multiplicity
 _atom_site_fract_x
 _atom_site_fract_y
 _atom_site_fract_z
 _atom_site_occupancy
  Ce  Ce0  1  0.750000  0.457093  0.707093  1
  Sm  Sm1  1  0.250000  0.536597  0.286597  1
  Co  Co2  1  0.997689  0.002252  0.499941  1
  Co  Co3  1  0.502311  0.002252  0.004563  1
  Co  Co4  1  0.720777  0.002588  0.720881  1
  Co  Co5  1  0.218292  0.500103  0.720881  1
  Co  Co6  1  0.281708  0.002588  0.281811  1
  Co  Co7  1  0.779223  0.500103  0.281811  1
  Si  Si8  1  0.082128  0.880757  0.798628  1
  Si  Si9  1  0.921005  0.120589  0.199584  1
  Si  Si10  1  0.578995  0.778580  0.199584  1
  Si  Si11  1  0.417872  0.216498  0.798628  1
