# generated using pymatgen
data_PuTa3O9
_symmetry_space_group_name_H-M   'P 1'
_cell_length_a   7.59021400
_cell_length_b   5.42005688
_cell_length_c   8.33180389
_cell_angle_alpha   87.63484101
_cell_angle_beta   90.00000000
_cell_angle_gamma   90.00000000
_symmetry_Int_Tables_number   1
_chemical_formula_structural   PuTa3O9
_chemical_formula_sum   'Pu2 Ta6 O18'
_cell_volume   342.47334455
_cell_formula_units_Z   2
loop_
 _symmetry_equiv_pos_site_id
 _symmetry_equiv_pos_as_xyz
  1  'x, y, z'
loop_
 _atom_site_type_symbol
 _atom_site_label
 _atom_site_symmetry_multiplicity
 _atom_site_fract_x
 _atom_site_fract_y
 _atom_site_fract_z
 _atom_site_occupancy
  Pu  Pu0  1  0.250000  0.970250  0.444258  1
  Pu  Pu1  1  0.750000  0.029750  0.555742  1
  Ta  Ta2  1  0.000000  0.000000  0.000000  1
  Ta  Ta3  1  0.500000  0.000000  0.000000  1
  Ta  Ta4  1  0.494752  0.526660  0.699493  1
  Ta  Ta5  1  0.005248  0.526660  0.699493  1
  Ta  Ta6  1  0.994752  0.473340  0.300507  1
  Ta  Ta7  1  0.505248  0.473340  0.300507  1
  O  O8  1  0.250000  0.913576  0.981102  1
  O  O9  1  0.942426  0.845147  0.787894  1
  O  O10  1  0.557574  0.845147  0.787894  1
  O  O11  1  0.961815  0.737252  0.467723  1
  O  O12  1  0.538185  0.737252  0.467723  1
  O  O13  1  0.250000  0.649410  0.659063  1
  O  O14  1  0.951298  0.680875  0.122177  1
  O  O15  1  0.548702  0.680875  0.122177  1
  O  O16  1  0.250000  0.561872  0.313467  1
  O  O17  1  0.750000  0.438128  0.686533  1
  O  O18  1  0.048702  0.319125  0.877823  1
  O  O19  1  0.451298  0.319125  0.877823  1
  O  O20  1  0.750000  0.350590  0.340937  1
  O  O21  1  0.038185  0.262748  0.532277  1
  O  O22  1  0.461815  0.262748  0.532277  1
  O  O23  1  0.057574  0.154853  0.212106  1
  O  O24  1  0.442426  0.154853  0.212106  1
  O  O25  1  0.750000  0.086424  0.018898  1
