# generated using pymatgen
data_CaYb2Zn7(Ni3B)2
_symmetry_space_group_name_H-M   'P 1'
_cell_length_a   5.18050303
_cell_length_b   5.17781677
_cell_length_c   11.16301600
_cell_angle_alpha   89.99715613
_cell_angle_beta   90.00570690
_cell_angle_gamma   120.01714412
_symmetry_Int_Tables_number   1
_chemical_formula_structural   CaYb2Zn7(Ni3B)2
_chemical_formula_sum   'Ca1 Yb2 Zn7 Ni6 B2'
_cell_volume   259.27206900
_cell_formula_units_Z   1
loop_
 _symmetry_equiv_pos_site_id
 _symmetry_equiv_pos_as_xyz
  1  'x, y, z'
loop_
 _atom_site_type_symbol
 _atom_site_label
 _atom_site_symmetry_multiplicity
 _atom_site_fract_x
 _atom_site_fract_y
 _atom_site_fract_z
 _atom_site_occupancy
  Ca  Ca0  1  0.999981  0.000000  0.697518  1
  Yb  Yb1  1  0.000045  0.000000  0.999080  1
  Yb  Yb2  1  0.000039  0.000000  0.295944  1
  Zn  Zn3  1  0.499969  0.000000  0.499642  1
  Zn  Zn4  1  0.499974  0.499990  0.499634  1
  Zn  Zn5  1  0.999984  0.500010  0.499634  1
  Zn  Zn6  1  0.333448  0.666878  0.301367  1
  Zn  Zn7  1  0.666569  0.333122  0.301367  1
  Zn  Zn8  1  0.666553  0.333065  0.699800  1
  Zn  Zn9  1  0.333488  0.666935  0.699800  1
  Ni  Ni10  1  0.499923  0.000000  0.119867  1
  Ni  Ni11  1  0.499709  0.499990  0.119917  1
  Ni  Ni12  1  0.999719  0.500010  0.119917  1
  Ni  Ni13  1  0.500150  0.000000  0.881633  1
  Ni  Ni14  1  0.500159  0.499947  0.881641  1
  Ni  Ni15  1  0.000212  0.500053  0.881641  1
  B  B16  1  0.333247  0.666517  0.000797  1
  B  B17  1  0.666731  0.333483  0.000797  1
