# generated using pymatgen
data_Rb3CuSn4
_symmetry_space_group_name_H-M   'P 1'
_cell_length_a   6.53335100
_cell_length_b   7.08757900
_cell_length_c   13.44003000
_cell_angle_alpha   90.00000000
_cell_angle_beta   90.00000000
_cell_angle_gamma   90.00000000
_symmetry_Int_Tables_number   1
_chemical_formula_structural   Rb3CuSn4
_chemical_formula_sum   'Rb6 Cu2 Sn8'
_cell_volume   622.34920888
_cell_formula_units_Z   2
loop_
 _symmetry_equiv_pos_site_id
 _symmetry_equiv_pos_as_xyz
  1  'x, y, z'
loop_
 _atom_site_type_symbol
 _atom_site_label
 _atom_site_symmetry_multiplicity
 _atom_site_fract_x
 _atom_site_fract_y
 _atom_site_fract_z
 _atom_site_occupancy
  Rb  Rb0  1  0.547272  0.000000  0.000000  1
  Rb  Rb1  1  0.452728  0.500000  0.500000  1
  Rb  Rb2  1  0.823713  0.500000  0.745663  1
  Rb  Rb3  1  0.823713  0.500000  0.254337  1
  Rb  Rb4  1  0.176287  0.000000  0.754337  1
  Rb  Rb5  1  0.176287  0.000000  0.245663  1
  Cu  Cu6  1  0.680018  0.500000  0.000000  1
  Cu  Cu7  1  0.319982  0.000000  0.500000  1
  Sn  Sn8  1  0.331640  0.500000  0.886391  1
  Sn  Sn9  1  0.331640  0.500000  0.113609  1
  Sn  Sn10  1  0.025011  0.278983  0.000000  1
  Sn  Sn11  1  0.025011  0.721017  0.000000  1
  Sn  Sn12  1  0.974989  0.778983  0.500000  1
  Sn  Sn13  1  0.974989  0.221017  0.500000  1
  Sn  Sn14  1  0.668360  0.000000  0.386391  1
  Sn  Sn15  1  0.668360  0.000000  0.613609  1
