# generated using pymatgen
data_Fe5Si3Mo4
_symmetry_space_group_name_H-M   'P 1'
_cell_length_a   4.72913923
_cell_length_b   4.74778435
_cell_length_c   7.73259300
_cell_angle_alpha   90.00000000
_cell_angle_beta   90.00000000
_cell_angle_gamma   119.88307121
_symmetry_Int_Tables_number   1
_chemical_formula_structural   Fe5Si3Mo4
_chemical_formula_sum   'Fe5 Si3 Mo4'
_cell_volume   150.53565346
_cell_formula_units_Z   1
loop_
 _symmetry_equiv_pos_site_id
 _symmetry_equiv_pos_as_xyz
  1  'x, y, z'
loop_
 _atom_site_type_symbol
 _atom_site_label
 _atom_site_symmetry_multiplicity
 _atom_site_fract_x
 _atom_site_fract_y
 _atom_site_fract_z
 _atom_site_occupancy
  Fe  Fe0  1  0.826052  0.153510  0.750000  1
  Fe  Fe1  1  0.327238  0.153385  0.750000  1
  Fe  Fe2  1  0.174274  0.348596  0.250000  1
  Fe  Fe3  1  0.172703  0.831746  0.250000  1
  Fe  Fe4  1  0.659358  0.831825  0.250000  1
  Si  Si5  1  0.818808  0.637495  0.750000  1
  Si  Si6  1  0.007413  0.015100  0.497456  1
  Si  Si7  1  0.007413  0.015100  0.002544  1
  Mo  Mo8  1  0.669124  0.338361  0.064302  1
  Mo  Mo9  1  0.334246  0.668260  0.936737  1
  Mo  Mo10  1  0.334246  0.668260  0.563263  1
  Mo  Mo11  1  0.669124  0.338361  0.435698  1
