# generated using pymatgen
data_Hf5Sc3Ti7Si16Mo5
_symmetry_space_group_name_H-M   'P 1'
_cell_length_a   6.56997492
_cell_length_b   6.73752466
_cell_length_c   12.90728470
_cell_angle_alpha   90.01059070
_cell_angle_beta   89.79897379
_cell_angle_gamma   90.00532186
_symmetry_Int_Tables_number   1
_chemical_formula_structural   Hf5Sc3Ti7Si16Mo5
_chemical_formula_sum   'Hf5 Sc3 Ti7 Si16 Mo5'
_cell_volume   571.34217837
_cell_formula_units_Z   1
loop_
 _symmetry_equiv_pos_site_id
 _symmetry_equiv_pos_as_xyz
  1  'x, y, z'
loop_
 _atom_site_type_symbol
 _atom_site_label
 _atom_site_symmetry_multiplicity
 _atom_site_fract_x
 _atom_site_fract_y
 _atom_site_fract_z
 _atom_site_occupancy
  Hf  Hf0  1  0.003674  0.827951  0.593059  1
  Hf  Hf1  1  0.495940  0.327554  0.093595  1
  Hf  Hf2  1  0.994731  0.173623  0.407181  1
  Hf  Hf3  1  0.493897  0.328419  0.407520  1
  Hf  Hf4  1  0.503672  0.672588  0.593329  1
  Sc  Sc5  1  0.998083  0.175721  0.093194  1
  Sc  Sc6  1  0.002344  0.826410  0.906737  1
  Sc  Sc7  1  0.502452  0.672803  0.906181  1
  Ti  Ti8  1  0.335194  0.169299  0.624770  1
  Ti  Ti9  1  0.665798  0.831013  0.374160  1
  Ti  Ti10  1  0.165153  0.669188  0.374584  1
  Ti  Ti11  1  0.663785  0.830699  0.125838  1
  Ti  Ti12  1  0.835356  0.331100  0.625110  1
  Ti  Ti13  1  0.334565  0.168818  0.875288  1
  Ti  Ti14  1  0.833962  0.331962  0.874171  1
  Si  Si15  1  0.036262  0.115512  0.750386  1
  Si  Si16  1  0.966693  0.883214  0.248312  1
  Si  Si17  1  0.463115  0.616487  0.250700  1
  Si  Si18  1  0.535280  0.384402  0.750064  1
  Si  Si19  1  0.297351  0.860105  0.750841  1
  Si  Si20  1  0.703696  0.139974  0.249206  1
  Si  Si21  1  0.200580  0.359855  0.250809  1
  Si  Si22  1  0.797420  0.640735  0.750304  1
  Si  Si23  1  0.171400  0.460739  0.538975  1
  Si  Si24  1  0.828430  0.538795  0.461001  1
  Si  Si25  1  0.328758  0.960791  0.460661  1
  Si  Si26  1  0.833824  0.538063  0.040773  1
  Si  Si27  1  0.670832  0.039212  0.538666  1
  Si  Si28  1  0.170567  0.459922  0.960105  1
  Si  Si29  1  0.667871  0.037244  0.960610  1
  Si  Si30  1  0.330180  0.960019  0.040610  1
  Mo  Mo31  1  0.161886  0.494391  0.747995  1
  Mo  Mo32  1  0.835369  0.506567  0.251374  1
  Mo  Mo33  1  0.340902  0.995888  0.251090  1
  Mo  Mo34  1  0.661623  0.007431  0.748427  1
  Mo  Mo35  1  0.169355  0.663505  0.124374  1
