# generated using pymatgen
data_Ce3Fe(Co4P3)2
_symmetry_space_group_name_H-M   'P 1'
_cell_length_a   3.70192500
_cell_length_b   10.52855900
_cell_length_c   12.19522700
_cell_angle_alpha   90.00000000
_cell_angle_beta   90.00000000
_cell_angle_gamma   90.00000000
_symmetry_Int_Tables_number   1
_chemical_formula_structural   Ce3Fe(Co4P3)2
_chemical_formula_sum   'Ce6 Fe2 Co16 P12'
_cell_volume   475.32038433
_cell_formula_units_Z   2
loop_
 _symmetry_equiv_pos_site_id
 _symmetry_equiv_pos_as_xyz
  1  'x, y, z'
loop_
 _atom_site_type_symbol
 _atom_site_label
 _atom_site_symmetry_multiplicity
 _atom_site_fract_x
 _atom_site_fract_y
 _atom_site_fract_z
 _atom_site_occupancy
  Ce  Ce0  1  0.000000  0.500000  0.523376  1
  Ce  Ce1  1  0.500000  0.000000  0.476624  1
  Ce  Ce2  1  0.500000  0.818263  0.206584  1
  Ce  Ce3  1  0.500000  0.181737  0.206584  1
  Ce  Ce4  1  0.000000  0.681737  0.793416  1
  Ce  Ce5  1  0.000000  0.318263  0.793416  1
  Fe  Fe6  1  0.500000  0.500000  0.155632  1
  Fe  Fe7  1  0.000000  0.000000  0.844368  1
  Co  Co8  1  0.500000  0.500000  0.702680  1
  Co  Co9  1  0.000000  0.000000  0.297320  1
  Co  Co10  1  0.000000  0.500000  0.986410  1
  Co  Co11  1  0.500000  0.000000  0.013590  1
  Co  Co12  1  0.500000  0.332895  0.995671  1
  Co  Co13  1  0.500000  0.667105  0.995671  1
  Co  Co14  1  0.000000  0.167105  0.004329  1
  Co  Co15  1  0.000000  0.832895  0.004329  1
  Co  Co16  1  0.500000  0.300739  0.429432  1
  Co  Co17  1  0.500000  0.699261  0.429432  1
  Co  Co18  1  0.000000  0.199261  0.570568  1
  Co  Co19  1  0.000000  0.800739  0.570568  1
  Co  Co20  1  0.500000  0.879203  0.711569  1
  Co  Co21  1  0.500000  0.120797  0.711569  1
  Co  Co22  1  0.000000  0.620797  0.288431  1
  Co  Co23  1  0.000000  0.379203  0.288431  1
  P  P24  1  0.500000  0.500000  0.885661  1
  P  P25  1  0.000000  0.000000  0.114339  1
  P  P26  1  0.500000  0.500000  0.340280  1
  P  P27  1  0.000000  0.000000  0.659720  1
  P  P28  1  0.500000  0.307030  0.613209  1
  P  P29  1  0.500000  0.692970  0.613209  1
  P  P30  1  0.000000  0.192970  0.386791  1
  P  P31  1  0.000000  0.807030  0.386791  1
  P  P32  1  0.500000  0.848206  0.894428  1
  P  P33  1  0.500000  0.151794  0.894428  1
  P  P34  1  0.000000  0.651794  0.105572  1
  P  P35  1  0.000000  0.348206  0.105572  1
