# generated using pymatgen
data_HoTh3(TlPd2)2
_symmetry_space_group_name_H-M   'P 1'
_cell_length_a   7.93392900
_cell_length_b   7.93392934
_cell_length_c   3.78960600
_cell_angle_alpha   90.00000000
_cell_angle_beta   90.00000000
_cell_angle_gamma   89.47163753
_symmetry_Int_Tables_number   1
_chemical_formula_structural   HoTh3(TlPd2)2
_chemical_formula_sum   'Ho1 Th3 Tl2 Pd4'
_cell_volume   238.53506573
_cell_formula_units_Z   1
loop_
 _symmetry_equiv_pos_site_id
 _symmetry_equiv_pos_as_xyz
  1  'x, y, z'
loop_
 _atom_site_type_symbol
 _atom_site_label
 _atom_site_symmetry_multiplicity
 _atom_site_fract_x
 _atom_site_fract_y
 _atom_site_fract_z
 _atom_site_occupancy
  Ho  Ho0  1  0.675085  0.175085  0.500000  1
  Th  Th1  1  0.329037  0.829037  0.500000  1
  Th  Th2  1  0.824297  0.671591  0.500000  1
  Th  Th3  1  0.171591  0.324297  0.500000  1
  Tl  Tl4  1  0.992708  0.003079  0.000000  1
  Tl  Tl5  1  0.503079  0.492708  0.000000  1
  Pd  Pd6  1  0.372475  0.127019  0.000000  1
  Pd  Pd7  1  0.874802  0.374802  0.000000  1
  Pd  Pd8  1  0.129907  0.629907  0.000000  1
  Pd  Pd9  1  0.627019  0.872475  0.000000  1
