# generated using pymatgen
data_Nd2Tm3Sb3C
_symmetry_space_group_name_H-M   'P 1'
_cell_length_a   9.09116400
_cell_length_b   9.09116539
_cell_length_c   6.45741000
_cell_angle_alpha   90.00000000
_cell_angle_beta   90.00000000
_cell_angle_gamma   120.00000222
_symmetry_Int_Tables_number   1
_chemical_formula_structural   Nd2Tm3Sb3C
_chemical_formula_sum   'Nd4 Tm6 Sb6 C2'
_cell_volume   462.19797116
_cell_formula_units_Z   2
loop_
 _symmetry_equiv_pos_site_id
 _symmetry_equiv_pos_as_xyz
  1  'x, y, z'
loop_
 _atom_site_type_symbol
 _atom_site_label
 _atom_site_symmetry_multiplicity
 _atom_site_fract_x
 _atom_site_fract_y
 _atom_site_fract_z
 _atom_site_occupancy
  Nd  Nd0  1  0.666667  0.333333  0.500000  1
  Nd  Nd1  1  0.333333  0.666667  0.500000  1
  Nd  Nd2  1  0.333333  0.666667  0.000000  1
  Nd  Nd3  1  0.666667  0.333333  0.000000  1
  Tm  Tm4  1  0.794663  0.794663  0.250000  1
  Tm  Tm5  1  0.205337  0.000000  0.250000  1
  Tm  Tm6  1  0.000000  0.205337  0.250000  1
  Tm  Tm7  1  0.205337  0.205337  0.750000  1
  Tm  Tm8  1  0.794663  0.000000  0.750000  1
  Tm  Tm9  1  0.000000  0.794663  0.750000  1
  Sb  Sb10  1  0.392256  0.392256  0.250000  1
  Sb  Sb11  1  0.607744  0.000000  0.250000  1
  Sb  Sb12  1  0.000000  0.607744  0.250000  1
  Sb  Sb13  1  0.607744  0.607744  0.750000  1
  Sb  Sb14  1  0.392256  0.000000  0.750000  1
  Sb  Sb15  1  0.000000  0.392256  0.750000  1
  C  C16  1  0.000000  0.000000  0.500000  1
  C  C17  1  0.000000  0.000000  0.000000  1
