# generated using pymatgen
data_Ti4Be15(NbCu4)2
_symmetry_space_group_name_H-M   'P 1'
_cell_length_a   7.63673513
_cell_length_b   7.62333298
_cell_length_c   7.62287085
_cell_angle_alpha   60.11916282
_cell_angle_beta   59.94422473
_cell_angle_gamma   59.93830010
_symmetry_Int_Tables_number   1
_chemical_formula_structural   Ti4Be15(NbCu4)2
_chemical_formula_sum   'Ti4 Be15 Nb2 Cu8'
_cell_volume   313.80432379
_cell_formula_units_Z   1
loop_
 _symmetry_equiv_pos_site_id
 _symmetry_equiv_pos_as_xyz
  1  'x, y, z'
loop_
 _atom_site_type_symbol
 _atom_site_label
 _atom_site_symmetry_multiplicity
 _atom_site_fract_x
 _atom_site_fract_y
 _atom_site_fract_z
 _atom_site_occupancy
  Ti  Ti0  1  0.302239  0.697760  0.302241  1
  Ti  Ti1  1  0.697761  0.302240  0.697759  1
  Ti  Ti2  1  0.302282  0.302283  0.697717  1
  Ti  Ti3  1  0.697718  0.697717  0.302283  1
  Be  Be4  1  0.326079  0.327366  0.327338  1
  Be  Be5  1  0.673921  0.672634  0.672662  1
  Be  Be6  1  0.327367  0.326081  0.019218  1
  Be  Be7  1  0.327339  0.019215  0.326081  1
  Be  Be8  1  0.672633  0.673919  0.980782  1
  Be  Be9  1  0.672661  0.980785  0.673919  1
  Be  Be10  1  0.019221  0.327336  0.327366  1
  Be  Be11  1  0.980779  0.672664  0.672634  1
  Be  Be12  1  0.500000  0.000000  0.000000  1
  Be  Be13  1  0.000000  0.500000  0.500000  1
  Be  Be14  1  0.000000  0.500000  0.000000  1
  Be  Be15  1  0.500000  0.000000  0.500000  1
  Be  Be16  1  0.000000  0.000000  0.500000  1
  Be  Be17  1  0.500000  0.500000  0.000000  1
  Be  Be18  1  0.000000  0.000000  0.000000  1
  Nb  Nb19  1  0.691637  0.308364  0.308365  1
  Nb  Nb20  1  0.308363  0.691636  0.691635  1
  Cu  Cu21  1  0.122904  0.121758  0.121900  1
  Cu  Cu22  1  0.877096  0.878242  0.878100  1
  Cu  Cu23  1  0.121761  0.122893  0.633446  1
  Cu  Cu24  1  0.121896  0.633445  0.122894  1
  Cu  Cu25  1  0.878239  0.877107  0.366554  1
  Cu  Cu26  1  0.878104  0.366555  0.877106  1
  Cu  Cu27  1  0.633445  0.121897  0.121758  1
  Cu  Cu28  1  0.366555  0.878103  0.878242  1
