# generated using pymatgen
data_Tb6Tm4Si5Sn
_symmetry_space_group_name_H-M   'P 1'
_cell_length_a   8.53733000
_cell_length_b   8.53732819
_cell_length_c   6.35307300
_cell_angle_alpha   90.00000000
_cell_angle_beta   90.00000000
_cell_angle_gamma   120.18052750
_symmetry_Int_Tables_number   1
_chemical_formula_structural   Tb6Tm4Si5Sn
_chemical_formula_sum   'Tb6 Tm4 Si5 Sn1'
_cell_volume   400.28158756
_cell_formula_units_Z   1
loop_
 _symmetry_equiv_pos_site_id
 _symmetry_equiv_pos_as_xyz
  1  'x, y, z'
loop_
 _atom_site_type_symbol
 _atom_site_label
 _atom_site_symmetry_multiplicity
 _atom_site_fract_x
 _atom_site_fract_y
 _atom_site_fract_z
 _atom_site_occupancy
  Tb  Tb0  1  0.764717  0.764717  0.250000  1
  Tb  Tb1  1  0.241213  0.989483  0.250000  1
  Tb  Tb2  1  0.989483  0.241213  0.250000  1
  Tb  Tb3  1  0.241669  0.241669  0.750000  1
  Tb  Tb4  1  0.755364  0.998678  0.750000  1
  Tb  Tb5  1  0.998678  0.755364  0.750000  1
  Tm  Tm6  1  0.673711  0.331478  0.502908  1
  Tm  Tm7  1  0.331478  0.673711  0.502908  1
  Tm  Tm8  1  0.331478  0.673711  0.997092  1
  Tm  Tm9  1  0.673711  0.331478  0.997092  1
  Si  Si10  1  0.603186  0.998525  0.250000  1
  Si  Si11  1  0.998525  0.603186  0.250000  1
  Si  Si12  1  0.604661  0.604661  0.750000  1
  Si  Si13  1  0.394689  0.001445  0.750000  1
  Si  Si14  1  0.001445  0.394689  0.750000  1
  Sn  Sn15  1  0.395992  0.395992  0.250000  1
