# generated using pymatgen
data_Tm6NpO12
_symmetry_space_group_name_H-M   'P 1'
_cell_length_a   6.47335986
_cell_length_b   6.47335869
_cell_length_c   6.47335974
_cell_angle_alpha   98.94336144
_cell_angle_beta   98.94336027
_cell_angle_gamma   98.94334924
_symmetry_Int_Tables_number   1
_chemical_formula_structural   Tm6NpO12
_chemical_formula_sum   'Tm6 Np1 O12'
_cell_volume   260.18330408
_cell_formula_units_Z   1
loop_
 _symmetry_equiv_pos_site_id
 _symmetry_equiv_pos_as_xyz
  1  'x, y, z'
loop_
 _atom_site_type_symbol
 _atom_site_label
 _atom_site_symmetry_multiplicity
 _atom_site_fract_x
 _atom_site_fract_y
 _atom_site_fract_z
 _atom_site_occupancy
  Tm  Tm0  1  0.854289  0.388839  0.676598  1
  Tm  Tm1  1  0.611161  0.323402  0.145711  1
  Tm  Tm2  1  0.323402  0.145711  0.611161  1
  Tm  Tm3  1  0.676598  0.854289  0.388839  1
  Tm  Tm4  1  0.388839  0.676598  0.854289  1
  Tm  Tm5  1  0.145711  0.611161  0.323402  1
  Np  Np6  1  0.000000  0.000000  0.000000  1
  O  O7  1  0.919896  0.045605  0.688643  1
  O  O8  1  0.954395  0.311357  0.080104  1
  O  O9  1  0.588551  0.177711  0.427481  1
  O  O10  1  0.822289  0.572519  0.411449  1
  O  O11  1  0.311357  0.080104  0.954395  1
  O  O12  1  0.572519  0.411449  0.822289  1
  O  O13  1  0.427481  0.588551  0.177711  1
  O  O14  1  0.688643  0.919896  0.045605  1
  O  O15  1  0.177711  0.427481  0.588551  1
  O  O16  1  0.411449  0.822289  0.572519  1
  O  O17  1  0.045605  0.688643  0.919896  1
  O  O18  1  0.080104  0.954395  0.311357  1
