# generated using pymatgen
data_La11In(NiHg2)4
_symmetry_space_group_name_H-M   'P 1'
_cell_length_a   3.81190500
_cell_length_b   13.52276369
_cell_length_c   13.52276300
_cell_angle_alpha   112.22329182
_cell_angle_beta   90.00000000
_cell_angle_gamma   90.00000000
_symmetry_Int_Tables_number   1
_chemical_formula_structural   La11In(NiHg2)4
_chemical_formula_sum   'La11 In1 Ni4 Hg8'
_cell_volume   645.28439187
_cell_formula_units_Z   1
loop_
 _symmetry_equiv_pos_site_id
 _symmetry_equiv_pos_as_xyz
  1  'x, y, z'
loop_
 _atom_site_type_symbol
 _atom_site_label
 _atom_site_symmetry_multiplicity
 _atom_site_fract_x
 _atom_site_fract_y
 _atom_site_fract_z
 _atom_site_occupancy
  La  La0  1  0.000000  0.916624  0.580782  1
  La  La1  1  0.000000  0.083376  0.419218  1
  La  La2  1  0.000000  0.580782  0.916624  1
  La  La3  1  0.000000  0.419218  0.083376  1
  La  La4  1  0.000000  0.165786  0.834214  1
  La  La5  1  0.000000  0.834214  0.165786  1
  La  La6  1  0.000000  0.372087  0.627913  1
  La  La7  1  0.000000  0.627913  0.372087  1
  La  La8  1  0.000000  0.691216  0.691216  1
  La  La9  1  0.000000  0.308784  0.308784  1
  La  La10  1  0.000000  0.000000  0.000000  1
  In  In11  1  0.500000  0.500000  0.500000  1
  Ni  Ni12  1  0.500000  0.747122  0.549195  1
  Ni  Ni13  1  0.500000  0.252878  0.450805  1
  Ni  Ni14  1  0.500000  0.549195  0.747122  1
  Ni  Ni15  1  0.500000  0.450805  0.252878  1
  Hg  Hg16  1  0.500000  0.159748  0.632082  1
  Hg  Hg17  1  0.500000  0.840252  0.367918  1
  Hg  Hg18  1  0.500000  0.632082  0.159748  1
  Hg  Hg19  1  0.500000  0.367918  0.840252  1
  Hg  Hg20  1  0.500000  0.927755  0.782186  1
  Hg  Hg21  1  0.500000  0.072245  0.217814  1
  Hg  Hg22  1  0.500000  0.782186  0.927755  1
  Hg  Hg23  1  0.500000  0.217814  0.072245  1
