# generated using pymatgen
data_TbErPa2(Al8Pt3)3
_symmetry_space_group_name_H-M   'P 1'
_cell_length_a   7.56819794
_cell_length_b   7.57492190
_cell_length_c   13.11290339
_cell_angle_alpha   84.49438910
_cell_angle_beta   78.91049228
_cell_angle_gamma   59.92288983
_symmetry_Int_Tables_number   1
_chemical_formula_structural   TbErPa2(Al8Pt3)3
_chemical_formula_sum   'Tb1 Er1 Pa2 Al24 Pt9'
_cell_volume   638.37554903
_cell_formula_units_Z   1
loop_
 _symmetry_equiv_pos_site_id
 _symmetry_equiv_pos_as_xyz
  1  'x, y, z'
loop_
 _atom_site_type_symbol
 _atom_site_label
 _atom_site_symmetry_multiplicity
 _atom_site_fract_x
 _atom_site_fract_y
 _atom_site_fract_z
 _atom_site_occupancy
  Tb  Tb0  1  0.266516  0.501404  0.191525  1
  Er  Er1  1  0.734005  0.498672  0.807305  1
  Pa  Pa2  1  0.395696  0.167812  0.804340  1
  Pa  Pa3  1  0.604469  0.832023  0.195650  1
  Al  Al4  1  0.684052  0.833141  0.944118  1
  Al  Al5  1  0.316344  0.166126  0.054666  1
  Al  Al6  1  0.145541  0.832745  0.561460  1
  Al  Al7  1  0.854432  0.167291  0.438912  1
  Al  Al8  1  0.480573  0.168009  0.557941  1
  Al  Al9  1  0.519271  0.832097  0.442574  1
  Al  Al10  1  0.213738  0.168344  0.331671  1
  Al  Al11  1  0.785969  0.831617  0.668986  1
  Al  Al12  1  0.437296  0.509701  0.670323  1
  Al  Al13  1  0.562495  0.490225  0.330512  1
  Al  Al14  1  0.107408  0.159736  0.668271  1
  Al  Al15  1  0.892232  0.840316  0.332554  1
  Al  Al16  1  0.354362  0.499249  0.942258  1
  Al  Al17  1  0.647040  0.500703  0.056272  1
  Al  Al18  1  0.015621  0.168486  0.951471  1
  Al  Al19  1  0.984017  0.832248  0.047618  1
  Al  Al20  1  0.185581  0.500249  0.441352  1
  Al  Al21  1  0.814221  0.499621  0.559106  1
  Al  Al22  1  0.737009  0.162002  0.182885  1
  Al  Al23  1  0.263244  0.837790  0.817203  1
  Al  Al24  1  0.061725  0.631009  0.815919  1
  Al  Al25  1  0.937545  0.368877  0.184137  1
  Al  Al26  1  0.854709  0.040839  0.816882  1
  Al  Al27  1  0.145261  0.960027  0.183066  1
  Pt  Pt28  1  0.120162  0.490519  0.639943  1
  Pt  Pt29  1  0.878949  0.509221  0.360664  1
  Pt  Pt30  1  0.657115  0.172923  0.999751  1
  Pt  Pt31  1  0.343242  0.827219  0.999736  1
  Pt  Pt32  1  0.537323  0.165515  0.360563  1
  Pt  Pt33  1  0.463130  0.833764  0.640160  1
  Pt  Pt34  1  0.777298  0.175933  0.638768  1
  Pt  Pt35  1  0.222349  0.824872  0.361705  1
  Pt  Pt36  1  0.000058  0.499673  0.999737  1
