# generated using pymatgen
data_Ce12Fe5Si6Ru
_symmetry_space_group_name_H-M   'P 1'
_cell_length_a   7.46844229
_cell_length_b   7.46844026
_cell_length_c   9.56923014
_cell_angle_alpha   89.86913256
_cell_angle_beta   89.86913458
_cell_angle_gamma   119.92293303
_symmetry_Int_Tables_number   1
_chemical_formula_structural   Ce12Fe5Si6Ru
_chemical_formula_sum   'Ce12 Fe5 Si6 Ru1'
_cell_volume   462.59378207
_cell_formula_units_Z   1
loop_
 _symmetry_equiv_pos_site_id
 _symmetry_equiv_pos_as_xyz
  1  'x, y, z'
loop_
 _atom_site_type_symbol
 _atom_site_label
 _atom_site_symmetry_multiplicity
 _atom_site_fract_x
 _atom_site_fract_y
 _atom_site_fract_z
 _atom_site_occupancy
  Ce  Ce0  1  0.998774  0.575369  0.499537  1
  Ce  Ce1  1  0.575369  0.998774  0.499537  1
  Ce  Ce2  1  0.422951  0.422951  0.498924  1
  Ce  Ce3  1  0.997790  0.425642  0.000843  1
  Ce  Ce4  1  0.425642  0.997790  0.000843  1
  Ce  Ce5  1  0.593282  0.593282  0.012035  1
  Ce  Ce6  1  0.003328  0.745886  0.174119  1
  Ce  Ce7  1  0.745886  0.003328  0.174119  1
  Ce  Ce8  1  0.257979  0.257979  0.173807  1
  Ce  Ce9  1  0.993032  0.254271  0.670199  1
  Ce  Ce10  1  0.254271  0.993032  0.670199  1
  Ce  Ce11  1  0.741638  0.741638  0.672310  1
  Fe  Fe12  1  0.999904  0.351817  0.342301  1
  Fe  Fe13  1  0.351817  0.999904  0.342301  1
  Fe  Fe14  1  0.649643  0.649643  0.343878  1
  Fe  Fe15  1  0.000005  0.649560  0.843295  1
  Fe  Fe16  1  0.649560  0.000005  0.843295  1
  Si  Si17  1  0.667378  0.334656  0.272492  1
  Si  Si18  1  0.334656  0.667378  0.272492  1
  Si  Si19  1  0.332667  0.666938  0.772981  1
  Si  Si20  1  0.666938  0.332667  0.772981  1
  Si  Si21  1  0.999460  0.999460  0.417765  1
  Si  Si22  1  0.997804  0.997804  0.917551  1
  Ru  Ru23  1  0.340226  0.340226  0.841445  1
