# generated using pymatgen
data_Dy6Er10Cd4TcNi3
_symmetry_space_group_name_H-M   'P 1'
_cell_length_a   9.53143173
_cell_length_b   9.53143190
_cell_length_c   9.53143160
_cell_angle_alpha   59.42511148
_cell_angle_beta   59.42510960
_cell_angle_gamma   59.42510325
_symmetry_Int_Tables_number   1
_chemical_formula_structural   Dy6Er10Cd4TcNi3
_chemical_formula_sum   'Dy6 Er10 Cd4 Tc1 Ni3'
_cell_volume   604.28408290
_cell_formula_units_Z   1
loop_
 _symmetry_equiv_pos_site_id
 _symmetry_equiv_pos_as_xyz
  1  'x, y, z'
loop_
 _atom_site_type_symbol
 _atom_site_label
 _atom_site_symmetry_multiplicity
 _atom_site_fract_x
 _atom_site_fract_y
 _atom_site_fract_z
 _atom_site_occupancy
  Dy  Dy0  1  0.186120  0.814891  0.814891  1
  Dy  Dy1  1  0.804391  0.190239  0.190239  1
  Dy  Dy2  1  0.814891  0.186120  0.814891  1
  Dy  Dy3  1  0.190239  0.804391  0.190239  1
  Dy  Dy4  1  0.814891  0.814891  0.186120  1
  Dy  Dy5  1  0.190239  0.190239  0.804391  1
  Er  Er6  1  0.596797  0.596797  0.596797  1
  Er  Er7  1  0.602245  0.602245  0.204562  1
  Er  Er8  1  0.602245  0.204562  0.602245  1
  Er  Er9  1  0.204562  0.602245  0.602245  1
  Er  Er10  1  0.061413  0.436899  0.436899  1
  Er  Er11  1  0.435906  0.061627  0.061627  1
  Er  Er12  1  0.436899  0.061413  0.436899  1
  Er  Er13  1  0.061627  0.435906  0.061627  1
  Er  Er14  1  0.436899  0.436899  0.061413  1
  Er  Er15  1  0.061627  0.061627  0.435906  1
  Cd  Cd16  1  0.829163  0.829163  0.829163  1
  Cd  Cd17  1  0.829239  0.829239  0.505901  1
  Cd  Cd18  1  0.829239  0.505901  0.829239  1
  Cd  Cd19  1  0.505901  0.829239  0.829239  1
  Tc  Tc20  1  0.394301  0.394301  0.394301  1
  Ni  Ni21  1  0.392380  0.392380  0.826407  1
  Ni  Ni22  1  0.392380  0.826407  0.392380  1
  Ni  Ni23  1  0.826407  0.392380  0.392380  1
