# generated using pymatgen
data_Tb4Gd8Fe2Cl17
_symmetry_space_group_name_H-M   'P 1'
_cell_length_a   8.99158583
_cell_length_b   10.84096099
_cell_length_c   10.87615900
_cell_angle_alpha   93.46423385
_cell_angle_beta   104.75979673
_cell_angle_gamma   113.97943350
_symmetry_Int_Tables_number   1
_chemical_formula_structural   Tb4Gd8Fe2Cl17
_chemical_formula_sum   'Tb4 Gd8 Fe2 Cl17'
_cell_volume   920.44236458
_cell_formula_units_Z   1
loop_
 _symmetry_equiv_pos_site_id
 _symmetry_equiv_pos_as_xyz
  1  'x, y, z'
loop_
 _atom_site_type_symbol
 _atom_site_label
 _atom_site_symmetry_multiplicity
 _atom_site_fract_x
 _atom_site_fract_y
 _atom_site_fract_z
 _atom_site_occupancy
  Tb  Tb0  1  0.056995  0.517327  0.320162  1
  Tb  Tb1  1  0.975924  0.808082  0.570914  1
  Tb  Tb2  1  0.638082  0.237072  0.289451  1
  Tb  Tb3  1  0.023258  0.193803  0.425153  1
  Gd  Gd4  1  0.235442  0.672018  0.001715  1
  Gd  Gd5  1  0.255982  0.992403  0.889136  1
  Gd  Gd6  1  0.367074  0.764003  0.708154  1
  Gd  Gd7  1  0.941735  0.483125  0.679278  1
  Gd  Gd8  1  0.741793  0.003112  0.110261  1
  Gd  Gd9  1  0.160146  0.287723  0.146079  1
  Gd  Gd10  1  0.765073  0.326303  0.001182  1
  Gd  Gd11  1  0.836871  0.712215  0.856870  1
  Fe  Fe12  1  0.103485  0.739327  0.785300  1
  Fe  Fe13  1  0.896393  0.259679  0.212613  1
  Cl  Cl14  1  0.801089  0.527426  0.427340  1
  Cl  Cl15  1  0.658297  0.431196  0.763954  1
  Cl  Cl16  1  0.857261  0.912157  0.336467  1
  Cl  Cl17  1  0.318791  0.214843  0.361782  1
  Cl  Cl18  1  0.141160  0.085272  0.666422  1
  Cl  Cl19  1  0.578479  0.045183  0.852822  1
  Cl  Cl20  1  0.770612  0.196789  0.532438  1
  Cl  Cl21  1  0.546750  0.712842  0.946630  1
  Cl  Cl22  1  0.340792  0.572928  0.240184  1
  Cl  Cl23  1  0.202204  0.478604  0.573278  1
  Cl  Cl24  1  0.055240  0.381211  0.905436  1
  Cl  Cl25  1  0.453479  0.281910  0.053867  1
  Cl  Cl26  1  0.000718  0.999496  0.997114  1
  Cl  Cl27  1  0.225779  0.805541  0.464404  1
  Cl  Cl28  1  0.421771  0.952227  0.145078  1
  Cl  Cl29  1  0.682457  0.784617  0.638921  1
  Cl  Cl30  1  0.946867  0.621564  0.097597  1
