# generated using pymatgen
data_Ho3MgCd2IrAu2
_symmetry_space_group_name_H-M   'P 1'
_cell_length_a   7.78318947
_cell_length_b   7.84559269
_cell_length_c   3.79862400
_cell_angle_alpha   90.00000000
_cell_angle_beta   90.00000000
_cell_angle_gamma   119.94377950
_symmetry_Int_Tables_number   1
_chemical_formula_structural   Ho3MgCd2IrAu2
_chemical_formula_sum   'Ho3 Mg1 Cd2 Ir1 Au2'
_cell_volume   200.99537089
_cell_formula_units_Z   1
loop_
 _symmetry_equiv_pos_site_id
 _symmetry_equiv_pos_as_xyz
  1  'x, y, z'
loop_
 _atom_site_type_symbol
 _atom_site_label
 _atom_site_symmetry_multiplicity
 _atom_site_fract_x
 _atom_site_fract_y
 _atom_site_fract_z
 _atom_site_occupancy
  Ho  Ho0  1  0.589063  0.972792  0.000000  1
  Ho  Ho1  1  0.021775  0.603326  0.000000  1
  Ho  Ho2  1  0.392146  0.427268  0.000000  1
  Mg  Mg3  1  0.264006  0.001496  0.500000  1
  Cd  Cd4  1  0.995662  0.264371  0.500000  1
  Cd  Cd5  1  0.737881  0.731200  0.500000  1
  Ir  Ir6  1  0.331136  0.675444  0.500000  1
  Au  Au7  1  0.653038  0.322492  0.500000  1
  Au  Au8  1  0.015294  0.001610  0.000000  1
