# generated using pymatgen
data_Ho20Si12O
_symmetry_space_group_name_H-M   'P 1'
_cell_length_a   6.27850000
_cell_length_b   8.37521845
_cell_length_c   14.59099500
_cell_angle_alpha   90.00000684
_cell_angle_beta   90.00000000
_cell_angle_gamma   89.94124870
_symmetry_Int_Tables_number   1
_chemical_formula_structural   Ho20Si12O
_chemical_formula_sum   'Ho20 Si12 O1'
_cell_volume   767.24969163
_cell_formula_units_Z   1
loop_
 _symmetry_equiv_pos_site_id
 _symmetry_equiv_pos_as_xyz
  1  'x, y, z'
loop_
 _atom_site_type_symbol
 _atom_site_label
 _atom_site_symmetry_multiplicity
 _atom_site_fract_x
 _atom_site_fract_y
 _atom_site_fract_z
 _atom_site_occupancy
  Ho  Ho0  1  0.499993  0.000009  0.334094  1
  Ho  Ho1  1  0.500002  0.499993  0.831122  1
  Ho  Ho2  1  0.500002  0.499993  0.168878  1
  Ho  Ho3  1  0.499993  0.000009  0.665906  1
  Ho  Ho4  1  0.000008  0.499998  0.163145  1
  Ho  Ho5  1  0.000006  0.999998  0.669284  1
  Ho  Ho6  1  0.000006  0.999998  0.330716  1
  Ho  Ho7  1  0.000008  0.499998  0.836855  1
  Ho  Ho8  1  0.736091  0.235321  0.000000  1
  Ho  Ho9  1  0.750410  0.744266  0.500000  1
  Ho  Ho10  1  0.751457  0.378203  0.378801  1
  Ho  Ho11  1  0.740391  0.880763  0.882155  1
  Ho  Ho12  1  0.740391  0.880763  0.117845  1
  Ho  Ho13  1  0.751457  0.378203  0.621199  1
  Ho  Ho14  1  0.263902  0.764651  0.000000  1
  Ho  Ho15  1  0.249552  0.255739  0.500000  1
  Ho  Ho16  1  0.259603  0.119232  0.117844  1
  Ho  Ho17  1  0.248550  0.621810  0.621202  1
  Ho  Ho18  1  0.248550  0.621810  0.378798  1
  Ho  Ho19  1  0.259603  0.119232  0.882156  1
  Si  Si20  1  0.742742  0.602273  0.000000  1
  Si  Si21  1  0.752606  0.105724  0.500000  1
  Si  Si22  1  0.748752  0.197141  0.197576  1
  Si  Si23  1  0.751998  0.697090  0.698078  1
  Si  Si24  1  0.751998  0.697090  0.301922  1
  Si  Si25  1  0.748752  0.197141  0.802424  1
  Si  Si26  1  0.257257  0.397718  0.000000  1
  Si  Si27  1  0.247412  0.894283  0.500000  1
  Si  Si28  1  0.248007  0.302915  0.301921  1
  Si  Si29  1  0.251248  0.802857  0.802426  1
  Si  Si30  1  0.251248  0.802857  0.197574  1
  Si  Si31  1  0.248007  0.302915  0.698079  1
  O  O32  1  0.499998  0.000000  0.000000  1
