# generated using pymatgen
data_Tb3DyTm4(ReC2)4
_symmetry_space_group_name_H-M   'P 1'
_cell_length_a   5.08886600
_cell_length_b   6.57168149
_cell_length_c   9.80860373
_cell_angle_alpha   89.95586156
_cell_angle_beta   90.00000000
_cell_angle_gamma   90.00000000
_symmetry_Int_Tables_number   1
_chemical_formula_structural   Tb3DyTm4(ReC2)4
_chemical_formula_sum   'Tb3 Dy1 Tm4 Re4 C8'
_cell_volume   328.02321557
_cell_formula_units_Z   1
loop_
 _symmetry_equiv_pos_site_id
 _symmetry_equiv_pos_as_xyz
  1  'x, y, z'
loop_
 _atom_site_type_symbol
 _atom_site_label
 _atom_site_symmetry_multiplicity
 _atom_site_fract_x
 _atom_site_fract_y
 _atom_site_fract_z
 _atom_site_occupancy
  Tb  Tb0  1  0.250000  0.466928  0.215414  1
  Tb  Tb1  1  0.250000  0.966942  0.284539  1
  Tb  Tb2  1  0.750000  0.533139  0.784544  1
  Dy  Dy3  1  0.750000  0.033244  0.715604  1
  Tm  Tm4  1  0.250000  0.823332  0.942323  1
  Tm  Tm5  1  0.250000  0.323158  0.557698  1
  Tm  Tm6  1  0.750000  0.176730  0.057547  1
  Tm  Tm7  1  0.750000  0.676741  0.442466  1
  Re  Re8  1  0.250000  0.278430  0.866803  1
  Re  Re9  1  0.250000  0.778774  0.633130  1
  Re  Re10  1  0.750000  0.721542  0.133039  1
  Re  Re11  1  0.750000  0.221343  0.366941  1
  C  C12  1  0.250000  0.046524  0.740299  1
  C  C13  1  0.250000  0.546583  0.759571  1
  C  C14  1  0.750000  0.953483  0.259557  1
  C  C15  1  0.750000  0.453512  0.240437  1
  C  C16  1  0.250000  0.672727  0.450098  1
  C  C17  1  0.250000  0.172656  0.049959  1
  C  C18  1  0.750000  0.326683  0.550207  1
  C  C19  1  0.750000  0.827528  0.949821  1
