# generated using pymatgen
data_Tm20Ir8Os3Ru
_symmetry_space_group_name_H-M   'P 1'
_cell_length_a   10.69218900
_cell_length_b   10.69218900
_cell_length_c   6.33603800
_cell_angle_alpha   90.00000000
_cell_angle_beta   90.00000000
_cell_angle_gamma   90.00000000
_symmetry_Int_Tables_number   1
_chemical_formula_structural   Tm20Ir8Os3Ru
_chemical_formula_sum   'Tm20 Ir8 Os3 Ru1'
_cell_volume   724.35427423
_cell_formula_units_Z   1
loop_
 _symmetry_equiv_pos_site_id
 _symmetry_equiv_pos_as_xyz
  1  'x, y, z'
loop_
 _atom_site_type_symbol
 _atom_site_label
 _atom_site_symmetry_multiplicity
 _atom_site_fract_x
 _atom_site_fract_y
 _atom_site_fract_z
 _atom_site_occupancy
  Tm  Tm0  1  0.293611  0.086208  0.376579  1
  Tm  Tm1  1  0.293622  0.913747  0.876307  1
  Tm  Tm2  1  0.706378  0.086253  0.876307  1
  Tm  Tm3  1  0.706389  0.913792  0.376579  1
  Tm  Tm4  1  0.586253  0.793622  0.876307  1
  Tm  Tm5  1  0.586208  0.206389  0.376579  1
  Tm  Tm6  1  0.413792  0.793611  0.376579  1
  Tm  Tm7  1  0.413747  0.206378  0.876307  1
  Tm  Tm8  1  0.206569  0.413827  0.623636  1
  Tm  Tm9  1  0.206449  0.586282  0.123094  1
  Tm  Tm10  1  0.793551  0.413718  0.123094  1
  Tm  Tm11  1  0.793431  0.586173  0.623636  1
  Tm  Tm12  1  0.913718  0.706449  0.123094  1
  Tm  Tm13  1  0.913827  0.293431  0.623636  1
  Tm  Tm14  1  0.086173  0.706569  0.623636  1
  Tm  Tm15  1  0.086282  0.293551  0.123094  1
  Tm  Tm16  1  0.000000  0.000000  0.499954  1
  Tm  Tm17  1  0.000000  0.000000  0.000064  1
  Tm  Tm18  1  0.500000  0.500000  0.000064  1
  Tm  Tm19  1  0.500000  0.500000  0.499954  1
  Ir  Ir20  1  0.847698  0.152860  0.250220  1
  Ir  Ir21  1  0.847702  0.847206  0.750072  1
  Ir  Ir22  1  0.152298  0.152794  0.750072  1
  Ir  Ir23  1  0.152302  0.847140  0.250220  1
  Ir  Ir24  1  0.652794  0.347702  0.750072  1
  Ir  Ir25  1  0.652860  0.652302  0.250220  1
  Ir  Ir26  1  0.347140  0.347698  0.250220  1
  Ir  Ir27  1  0.347206  0.652298  0.750072  1
  Os  Os28  1  0.500000  0.000000  0.122930  1
  Os  Os29  1  0.500000  0.000000  0.622679  1
  Os  Os30  1  0.000000  0.500000  0.876810  1
  Ru  Ru31  1  0.000000  0.500000  0.377911  1
