# generated using pymatgen
data_LiSmSiO4
_symmetry_space_group_name_H-M   'P 1'
_cell_length_a   6.33545300
_cell_length_b   5.52509004
_cell_length_c   11.11532833
_cell_angle_alpha   66.70456356
_cell_angle_beta   90.00000000
_cell_angle_gamma   90.00000000
_symmetry_Int_Tables_number   1
_chemical_formula_structural   LiSmSiO4
_chemical_formula_sum   'Li4 Sm4 Si4 O16'
_cell_volume   357.36172207
_cell_formula_units_Z   4
loop_
 _symmetry_equiv_pos_site_id
 _symmetry_equiv_pos_as_xyz
  1  'x, y, z'
loop_
 _atom_site_type_symbol
 _atom_site_label
 _atom_site_symmetry_multiplicity
 _atom_site_fract_x
 _atom_site_fract_y
 _atom_site_fract_z
 _atom_site_occupancy
  Li  Li0  1  0.632674  0.924668  0.928287  1
  Li  Li1  1  0.132674  0.075332  0.571713  1
  Li  Li2  1  0.867326  0.924668  0.428287  1
  Li  Li3  1  0.367326  0.075332  0.071713  1
  Sm  Sm4  1  0.617858  0.443729  0.349021  1
  Sm  Sm5  1  0.117858  0.556271  0.150979  1
  Sm  Sm6  1  0.882142  0.443729  0.849021  1
  Sm  Sm7  1  0.382142  0.556271  0.650979  1
  Si  Si8  1  0.651201  0.091894  0.642137  1
  Si  Si9  1  0.151201  0.908106  0.857863  1
  Si  Si10  1  0.848799  0.091894  0.142137  1
  Si  Si11  1  0.348799  0.908106  0.357863  1
  O  O12  1  0.661768  0.236301  0.747271  1
  O  O13  1  0.140531  0.229313  0.776678  1
  O  O14  1  0.431040  0.219194  0.557916  1
  O  O15  1  0.835972  0.176681  0.528688  1
  O  O16  1  0.335972  0.823319  0.971312  1
  O  O17  1  0.931040  0.780806  0.942084  1
  O  O18  1  0.838232  0.236301  0.247271  1
  O  O19  1  0.359469  0.229313  0.276678  1
  O  O20  1  0.640531  0.770687  0.723322  1
  O  O21  1  0.161768  0.763699  0.752729  1
  O  O22  1  0.068960  0.219194  0.057916  1
  O  O23  1  0.664028  0.176681  0.028688  1
  O  O24  1  0.164028  0.823319  0.471312  1
  O  O25  1  0.568960  0.780806  0.442084  1
  O  O26  1  0.859469  0.770687  0.223322  1
  O  O27  1  0.338232  0.763699  0.252729  1
