# generated using pymatgen
data_Ti8Al14GaPt3Rh4
_symmetry_space_group_name_H-M   'P 1'
_cell_length_a   8.67580816
_cell_length_b   8.66821940
_cell_length_c   8.67614321
_cell_angle_alpha   120.05685139
_cell_angle_beta   119.89801730
_cell_angle_gamma   90.05702358
_symmetry_Int_Tables_number   1
_chemical_formula_structural   Ti8Al14GaPt3Rh4
_chemical_formula_sum   'Ti8 Al14 Ga1 Pt3 Rh4'
_cell_volume   461.45636493
_cell_formula_units_Z   1
loop_
 _symmetry_equiv_pos_site_id
 _symmetry_equiv_pos_as_xyz
  1  'x, y, z'
loop_
 _atom_site_type_symbol
 _atom_site_label
 _atom_site_symmetry_multiplicity
 _atom_site_fract_x
 _atom_site_fract_y
 _atom_site_fract_z
 _atom_site_occupancy
  Ti  Ti0  1  0.790072  0.291552  0.077193  1
  Ti  Ti1  1  0.214234  0.291523  0.501415  1
  Ti  Ti2  1  0.208654  0.709593  0.500866  1
  Ti  Ti3  1  0.212715  0.713264  0.920136  1
  Ti  Ti4  1  0.793215  0.713272  0.500576  1
  Ti  Ti5  1  0.786253  0.286273  0.500109  1
  Ti  Ti6  1  0.380200  0.121956  0.741741  1
  Ti  Ti7  1  0.377156  0.636932  0.259750  1
  Al  Al8  1  0.155441  0.342937  0.187482  1
  Al  Al9  1  0.155956  0.973067  0.817134  1
  Al  Al10  1  0.152309  0.345173  0.811983  1
  Al  Al11  1  0.533269  0.345221  0.192950  1
  Al  Al12  1  0.843940  0.654511  0.810587  1
  Al  Al13  1  0.846782  0.034219  0.187404  1
  Al  Al14  1  0.844709  0.654082  0.183513  1
  Al  Al15  1  0.470502  0.654109  0.809385  1
  Al  Al16  1  0.376738  0.123268  0.262281  1
  Al  Al17  1  0.860991  0.123262  0.746531  1
  Al  Al18  1  0.619838  0.878909  0.259084  1
  Al  Al19  1  0.622720  0.362629  0.739887  1
  Al  Al20  1  0.624085  0.876454  0.739947  1
  Al  Al21  1  0.136503  0.876499  0.252396  1
  Ga  Ga22  1  0.997293  0.496030  0.498741  1
  Pt  Pt23  1  0.998897  0.998828  0.498822  1
  Pt  Pt24  1  0.500038  0.998894  0.999950  1
  Pt  Pt25  1  0.499247  0.500248  0.001034  1
  Rh  Rh26  1  0.498965  0.499611  0.498905  1
  Rh  Rh27  1  0.000772  0.499644  0.000665  1
  Rh  Rh28  1  0.000411  0.999833  0.999438  1
  Rh  Rh29  1  0.498094  0.998206  0.500094  1
