# generated using pymatgen
data_Lu6ZrCr(Co4P3)4
_symmetry_space_group_name_H-M   'P 1'
_cell_length_a   3.67170600
_cell_length_b   10.53407200
_cell_length_c   12.20957600
_cell_angle_alpha   90.00000000
_cell_angle_beta   90.00000000
_cell_angle_gamma   90.00000000
_symmetry_Int_Tables_number   1
_chemical_formula_structural   Lu6ZrCr(Co4P3)4
_chemical_formula_sum   'Lu6 Zr1 Cr1 Co16 P12'
_cell_volume   472.24216815
_cell_formula_units_Z   1
loop_
 _symmetry_equiv_pos_site_id
 _symmetry_equiv_pos_as_xyz
  1  'x, y, z'
loop_
 _atom_site_type_symbol
 _atom_site_label
 _atom_site_symmetry_multiplicity
 _atom_site_fract_x
 _atom_site_fract_y
 _atom_site_fract_z
 _atom_site_occupancy
  Lu  Lu0  1  0.000000  0.500000  0.529908  1
  Lu  Lu1  1  0.500000  0.000000  0.476633  1
  Lu  Lu2  1  0.500000  0.822591  0.206550  1
  Lu  Lu3  1  0.500000  0.177409  0.206550  1
  Lu  Lu4  1  0.000000  0.682037  0.795753  1
  Lu  Lu5  1  0.000000  0.317963  0.795753  1
  Zr  Zr6  1  0.500000  0.500000  0.155742  1
  Cr  Cr7  1  0.000000  0.000000  0.839350  1
  Co  Co8  1  0.500000  0.500000  0.702287  1
  Co  Co9  1  0.000000  0.000000  0.297342  1
  Co  Co10  1  0.000000  0.500000  0.982770  1
  Co  Co11  1  0.500000  0.000000  0.011844  1
  Co  Co12  1  0.500000  0.326399  0.987273  1
  Co  Co13  1  0.500000  0.673601  0.987273  1
  Co  Co14  1  0.000000  0.161994  0.001956  1
  Co  Co15  1  0.000000  0.838006  0.001956  1
  Co  Co16  1  0.500000  0.293972  0.435178  1
  Co  Co17  1  0.500000  0.706028  0.435178  1
  Co  Co18  1  0.000000  0.201808  0.570236  1
  Co  Co19  1  0.000000  0.798192  0.570236  1
  Co  Co20  1  0.500000  0.879245  0.706554  1
  Co  Co21  1  0.500000  0.120755  0.706554  1
  Co  Co22  1  0.000000  0.624586  0.297622  1
  Co  Co23  1  0.000000  0.375414  0.297622  1
  P  P24  1  0.500000  0.500000  0.880308  1
  P  P25  1  0.000000  0.000000  0.118331  1
  P  P26  1  0.500000  0.500000  0.364432  1
  P  P27  1  0.000000  0.000000  0.652230  1
  P  P28  1  0.500000  0.311385  0.618726  1
  P  P29  1  0.500000  0.688615  0.618726  1
  P  P30  1  0.000000  0.185960  0.385590  1
  P  P31  1  0.000000  0.814040  0.385590  1
  P  P32  1  0.500000  0.850409  0.886386  1
  P  P33  1  0.500000  0.149591  0.886386  1
  P  P34  1  0.000000  0.666135  0.102587  1
  P  P35  1  0.000000  0.333865  0.102587  1
