# generated using pymatgen
data_NdHo3(Rh2O7)2
_symmetry_space_group_name_H-M   'P 1'
_cell_length_a   7.26289414
_cell_length_b   7.26289416
_cell_length_c   7.26289402
_cell_angle_alpha   59.74921525
_cell_angle_beta   59.74921088
_cell_angle_gamma   59.74921752
_symmetry_Int_Tables_number   1
_chemical_formula_structural   NdHo3(Rh2O7)2
_chemical_formula_sum   'Nd1 Ho3 Rh4 O14'
_cell_volume   269.36045331
_cell_formula_units_Z   1
loop_
 _symmetry_equiv_pos_site_id
 _symmetry_equiv_pos_as_xyz
  1  'x, y, z'
loop_
 _atom_site_type_symbol
 _atom_site_label
 _atom_site_symmetry_multiplicity
 _atom_site_fract_x
 _atom_site_fract_y
 _atom_site_fract_z
 _atom_site_occupancy
  Nd  Nd0  1  0.125000  0.125000  0.125000  1
  Ho  Ho1  1  0.125000  0.625000  0.125000  1
  Ho  Ho2  1  0.625000  0.125000  0.125000  1
  Ho  Ho3  1  0.125000  0.125000  0.625000  1
  Rh  Rh4  1  0.625000  0.625000  0.625000  1
  Rh  Rh5  1  0.625000  0.625000  0.125000  1
  Rh  Rh6  1  0.125000  0.625000  0.625000  1
  Rh  Rh7  1  0.625000  0.125000  0.625000  1
  O  O8  1  0.253933  0.253933  0.253933  1
  O  O9  1  0.289174  0.704245  0.289174  1
  O  O10  1  0.960826  0.960826  0.545755  1
  O  O11  1  0.538480  0.961181  0.538480  1
  O  O12  1  0.711520  0.711520  0.288819  1
  O  O13  1  0.961181  0.538480  0.538480  1
  O  O14  1  0.711520  0.288819  0.711520  1
  O  O15  1  0.289174  0.289174  0.704245  1
  O  O16  1  0.704245  0.289174  0.289174  1
  O  O17  1  0.288819  0.711520  0.711520  1
  O  O18  1  0.960826  0.545755  0.960826  1
  O  O19  1  0.538480  0.538480  0.961181  1
  O  O20  1  0.996067  0.996067  0.996067  1
  O  O21  1  0.545755  0.960826  0.960826  1
