# generated using pymatgen
data_Sc(AsO3)3
_symmetry_space_group_name_H-M   'P 1'
_cell_length_a   6.81866793
_cell_length_b   6.81866889
_cell_length_c   6.81866847
_cell_angle_alpha   106.20360051
_cell_angle_beta   106.20360937
_cell_angle_gamma   106.20359884
_symmetry_Int_Tables_number   1
_chemical_formula_structural   Sc(AsO3)3
_chemical_formula_sum   'Sc1 As3 O9'
_cell_volume   269.55493144
_cell_formula_units_Z   1
loop_
 _symmetry_equiv_pos_site_id
 _symmetry_equiv_pos_as_xyz
  1  'x, y, z'
loop_
 _atom_site_type_symbol
 _atom_site_label
 _atom_site_symmetry_multiplicity
 _atom_site_fract_x
 _atom_site_fract_y
 _atom_site_fract_z
 _atom_site_occupancy
  Sc  Sc0  1  0.007089  0.007089  0.007089  1
  As  As1  1  0.897731  0.485167  0.043405  1
  As  As2  1  0.485167  0.043405  0.897731  1
  As  As3  1  0.043405  0.897731  0.485167  1
  O  O4  1  0.057798  0.340602  0.074809  1
  O  O5  1  0.612792  0.308260  0.889623  1
  O  O6  1  0.074809  0.057798  0.340602  1
  O  O7  1  0.340602  0.074809  0.057798  1
  O  O8  1  0.954151  0.668046  0.927174  1
  O  O9  1  0.927174  0.954151  0.668046  1
  O  O10  1  0.889623  0.612792  0.308260  1
  O  O11  1  0.668046  0.927174  0.954151  1
  O  O12  1  0.308260  0.889623  0.612792  1
