# generated using pymatgen
data_LiYHo3Sc5Si8
_symmetry_space_group_name_H-M   'P 1'
_cell_length_a   6.99701001
_cell_length_b   7.39616839
_cell_length_c   13.99889159
_cell_angle_alpha   90.03288526
_cell_angle_beta   90.00427757
_cell_angle_gamma   89.95781684
_symmetry_Int_Tables_number   1
_chemical_formula_structural   LiYHo3Sc5Si8
_chemical_formula_sum   'Li2 Y2 Ho6 Sc10 Si16'
_cell_volume   724.45721977
_cell_formula_units_Z   2
loop_
 _symmetry_equiv_pos_site_id
 _symmetry_equiv_pos_as_xyz
  1  'x, y, z'
loop_
 _atom_site_type_symbol
 _atom_site_label
 _atom_site_symmetry_multiplicity
 _atom_site_fract_x
 _atom_site_fract_y
 _atom_site_fract_z
 _atom_site_occupancy
  Li  Li0  1  0.159873  0.506575  0.749984  1
  Li  Li1  1  0.840127  0.493425  0.250016  1
  Y  Y2  1  0.010094  0.183815  0.098320  1
  Y  Y3  1  0.989906  0.816185  0.901680  1
  Ho  Ho4  1  0.484774  0.674215  0.902452  1
  Ho  Ho5  1  0.989571  0.815911  0.598386  1
  Ho  Ho6  1  0.515226  0.325785  0.097548  1
  Ho  Ho7  1  0.010429  0.184089  0.401614  1
  Ho  Ho8  1  0.515318  0.325767  0.402565  1
  Ho  Ho9  1  0.484682  0.674233  0.597435  1
  Sc  Sc10  1  0.341908  0.002985  0.250114  1
  Sc  Sc11  1  0.658092  0.997015  0.749886  1
  Sc  Sc12  1  0.325811  0.181783  0.626022  1
  Sc  Sc13  1  0.674189  0.818217  0.373978  1
  Sc  Sc14  1  0.165268  0.675139  0.373085  1
  Sc  Sc15  1  0.674023  0.818123  0.126159  1
  Sc  Sc16  1  0.834732  0.324861  0.626915  1
  Sc  Sc17  1  0.325977  0.181877  0.873841  1
  Sc  Sc18  1  0.834568  0.324972  0.872941  1
  Sc  Sc19  1  0.165432  0.675028  0.127059  1
  Si  Si20  1  0.029186  0.101541  0.749773  1
  Si  Si21  1  0.970814  0.898459  0.250227  1
  Si  Si22  1  0.465347  0.613369  0.250022  1
  Si  Si23  1  0.534653  0.386631  0.749978  1
  Si  Si24  1  0.287651  0.879693  0.749795  1
  Si  Si25  1  0.712349  0.120307  0.250205  1
  Si  Si26  1  0.221255  0.373109  0.250293  1
  Si  Si27  1  0.778745  0.626891  0.749707  1
  Si  Si28  1  0.160193  0.461459  0.533178  1
  Si  Si29  1  0.839807  0.538541  0.466822  1
  Si  Si30  1  0.343237  0.966832  0.461195  1
  Si  Si31  1  0.839525  0.538624  0.033197  1
  Si  Si32  1  0.656763  0.033168  0.538805  1
  Si  Si33  1  0.160475  0.461376  0.966803  1
  Si  Si34  1  0.656044  0.033498  0.961226  1
  Si  Si35  1  0.343956  0.966502  0.038774  1
