# generated using pymatgen
data_Lu3Np(NiAs)4
_symmetry_space_group_name_H-M   'P 1'
_cell_length_a   4.03035400
_cell_length_b   4.03035491
_cell_length_c   15.00315000
_cell_angle_alpha   90.00000000
_cell_angle_beta   90.00000000
_cell_angle_gamma   119.99999254
_symmetry_Int_Tables_number   1
_chemical_formula_structural   Lu3Np(NiAs)4
_chemical_formula_sum   'Lu3 Np1 Ni4 As4'
_cell_volume   211.05692212
_cell_formula_units_Z   1
loop_
 _symmetry_equiv_pos_site_id
 _symmetry_equiv_pos_as_xyz
  1  'x, y, z'
loop_
 _atom_site_type_symbol
 _atom_site_label
 _atom_site_symmetry_multiplicity
 _atom_site_fract_x
 _atom_site_fract_y
 _atom_site_fract_z
 _atom_site_occupancy
  Lu  Lu0  1  0.000000  0.000000  0.252634  1
  Lu  Lu1  1  0.000000  0.000000  0.500000  1
  Lu  Lu2  1  0.000000  0.000000  0.747366  1
  Np  Np3  1  0.000000  0.000000  0.000000  1
  Ni  Ni4  1  0.666667  0.333334  0.141019  1
  Ni  Ni5  1  0.666667  0.333334  0.361606  1
  Ni  Ni6  1  0.333334  0.666667  0.638393  1
  Ni  Ni7  1  0.333334  0.666667  0.858981  1
  As  As8  1  0.333334  0.666667  0.120880  1
  As  As9  1  0.333334  0.666667  0.381618  1
  As  As10  1  0.666667  0.333334  0.618382  1
  As  As11  1  0.666667  0.333334  0.879121  1
