# generated using pymatgen
data_Ho6PdRh
_symmetry_space_group_name_H-M   'P 1'
_cell_length_a   6.38582800
_cell_length_b   7.09302900
_cell_length_c   9.46606900
_cell_angle_alpha   90.00000000
_cell_angle_beta   90.00000000
_cell_angle_gamma   90.00000000
_symmetry_Int_Tables_number   1
_chemical_formula_structural   Ho6PdRh
_chemical_formula_sum   'Ho12 Pd2 Rh2'
_cell_volume   428.76430033
_cell_formula_units_Z   2
loop_
 _symmetry_equiv_pos_site_id
 _symmetry_equiv_pos_as_xyz
  1  'x, y, z'
loop_
 _atom_site_type_symbol
 _atom_site_label
 _atom_site_symmetry_multiplicity
 _atom_site_fract_x
 _atom_site_fract_y
 _atom_site_fract_z
 _atom_site_occupancy
  Ho  Ho0  1  0.675555  0.185011  0.060022  1
  Ho  Ho1  1  0.175555  0.314989  0.939978  1
  Ho  Ho2  1  0.829332  0.677217  0.438119  1
  Ho  Ho3  1  0.329332  0.822783  0.561881  1
  Ho  Ho4  1  0.329332  0.822783  0.938119  1
  Ho  Ho5  1  0.829332  0.677217  0.061881  1
  Ho  Ho6  1  0.175555  0.314989  0.560022  1
  Ho  Ho7  1  0.675555  0.185011  0.439978  1
  Ho  Ho8  1  0.862057  0.974194  0.750000  1
  Ho  Ho9  1  0.362057  0.525806  0.250000  1
  Ho  Ho10  1  0.627462  0.466294  0.750000  1
  Ho  Ho11  1  0.127462  0.033706  0.250000  1
  Pd  Pd12  1  0.054079  0.611789  0.750000  1
  Pd  Pd13  1  0.554079  0.888211  0.250000  1
  Rh  Rh14  1  0.446627  0.114163  0.750000  1
  Rh  Rh15  1  0.946627  0.385837  0.250000  1
