# generated using pymatgen
data_Hf18Re8PRu
_symmetry_space_group_name_H-M   'P 1'
_cell_length_a   8.57649000
_cell_length_b   8.57648981
_cell_length_c   8.60236600
_cell_angle_alpha   90.00000000
_cell_angle_beta   90.00000000
_cell_angle_gamma   120.00000072
_symmetry_Int_Tables_number   1
_chemical_formula_structural   Hf18Re8PRu
_chemical_formula_sum   'Hf18 Re8 P1 Ru1'
_cell_volume   547.98378345
_cell_formula_units_Z   1
loop_
 _symmetry_equiv_pos_site_id
 _symmetry_equiv_pos_as_xyz
  1  'x, y, z'
loop_
 _atom_site_type_symbol
 _atom_site_label
 _atom_site_symmetry_multiplicity
 _atom_site_fract_x
 _atom_site_fract_y
 _atom_site_fract_z
 _atom_site_occupancy
  Hf  Hf0  1  0.197289  0.802711  0.446821  1
  Hf  Hf1  1  0.197289  0.394576  0.446821  1
  Hf  Hf2  1  0.605424  0.802711  0.446821  1
  Hf  Hf3  1  0.805053  0.194947  0.549775  1
  Hf  Hf4  1  0.805053  0.610107  0.549775  1
  Hf  Hf5  1  0.389893  0.194947  0.549775  1
  Hf  Hf6  1  0.805053  0.194947  0.950225  1
  Hf  Hf7  1  0.805053  0.610107  0.950225  1
  Hf  Hf8  1  0.389893  0.194947  0.950225  1
  Hf  Hf9  1  0.197289  0.802711  0.053179  1
  Hf  Hf10  1  0.197289  0.394576  0.053179  1
  Hf  Hf11  1  0.605424  0.802711  0.053179  1
  Hf  Hf12  1  0.541995  0.458005  0.250000  1
  Hf  Hf13  1  0.541995  0.083991  0.250000  1
  Hf  Hf14  1  0.916009  0.458005  0.250000  1
  Hf  Hf15  1  0.459451  0.540549  0.750000  1
  Hf  Hf16  1  0.459451  0.918901  0.750000  1
  Hf  Hf17  1  0.081099  0.540549  0.750000  1
  Re  Re18  1  0.889079  0.110921  0.250000  1
  Re  Re19  1  0.889079  0.778158  0.250000  1
  Re  Re20  1  0.221842  0.110921  0.250000  1
  Re  Re21  1  0.110087  0.889913  0.750000  1
  Re  Re22  1  0.110087  0.220174  0.750000  1
  Re  Re23  1  0.779826  0.889913  0.750000  1
  Re  Re24  1  0.000000  0.000000  0.498978  1
  Re  Re25  1  0.000000  0.000000  0.001022  1
  P  P26  1  0.666667  0.333333  0.750000  1
  Ru  Ru27  1  0.333333  0.666667  0.250000  1
