# generated using pymatgen
data_Ho8Hg3Ir
_symmetry_space_group_name_H-M   'P 1'
_cell_length_a   10.11764700
_cell_length_b   10.11764647
_cell_length_c   7.20256600
_cell_angle_alpha   90.00000000
_cell_angle_beta   90.00000000
_cell_angle_gamma   119.99999848
_symmetry_Int_Tables_number   1
_chemical_formula_structural   Ho8Hg3Ir
_chemical_formula_sum   'Ho16 Hg6 Ir2'
_cell_volume   638.52353306
_cell_formula_units_Z   2
loop_
 _symmetry_equiv_pos_site_id
 _symmetry_equiv_pos_as_xyz
  1  'x, y, z'
loop_
 _atom_site_type_symbol
 _atom_site_label
 _atom_site_symmetry_multiplicity
 _atom_site_fract_x
 _atom_site_fract_y
 _atom_site_fract_z
 _atom_site_occupancy
  Ho  Ho0  1  0.172927  0.827073  0.515205  1
  Ho  Ho1  1  0.654145  0.827073  0.515205  1
  Ho  Ho2  1  0.172927  0.345855  0.515205  1
  Ho  Ho3  1  0.827073  0.172927  0.015205  1
  Ho  Ho4  1  0.345855  0.172927  0.015205  1
  Ho  Ho5  1  0.827073  0.654145  0.015205  1
  Ho  Ho6  1  0.333333  0.666667  0.829060  1
  Ho  Ho7  1  0.666667  0.333333  0.329060  1
  Ho  Ho8  1  0.463170  0.536830  0.207618  1
  Ho  Ho9  1  0.073660  0.536830  0.207618  1
  Ho  Ho10  1  0.463170  0.926340  0.207618  1
  Ho  Ho11  1  0.536830  0.463170  0.707618  1
  Ho  Ho12  1  0.926340  0.463170  0.707618  1
  Ho  Ho13  1  0.536830  0.073660  0.707618  1
  Ho  Ho14  1  0.000000  0.000000  0.231694  1
  Ho  Ho15  1  0.000000  0.000000  0.731694  1
  Hg  Hg16  1  0.166354  0.833646  0.954260  1
  Hg  Hg17  1  0.667290  0.833646  0.954260  1
  Hg  Hg18  1  0.166354  0.332710  0.954260  1
  Hg  Hg19  1  0.833646  0.166354  0.454260  1
  Hg  Hg20  1  0.332710  0.166354  0.454260  1
  Hg  Hg21  1  0.833646  0.667290  0.454260  1
  Ir  Ir22  1  0.333333  0.666667  0.445020  1
  Ir  Ir23  1  0.666667  0.333333  0.945020  1
