# generated using pymatgen
data_Hf18Co3CuP8
_symmetry_space_group_name_H-M   'P 1'
_cell_length_a   12.02269700
_cell_length_b   12.02269700
_cell_length_c   3.59891800
_cell_angle_alpha   90.00000000
_cell_angle_beta   90.00000000
_cell_angle_gamma   89.99988562
_symmetry_Int_Tables_number   1
_chemical_formula_structural   Hf18Co3CuP8
_chemical_formula_sum   'Hf18 Co3 Cu1 P8'
_cell_volume   520.20647740
_cell_formula_units_Z   1
loop_
 _symmetry_equiv_pos_site_id
 _symmetry_equiv_pos_as_xyz
  1  'x, y, z'
loop_
 _atom_site_type_symbol
 _atom_site_label
 _atom_site_symmetry_multiplicity
 _atom_site_fract_x
 _atom_site_fract_y
 _atom_site_fract_z
 _atom_site_occupancy
  Hf  Hf0  1  0.182525  0.105928  0.500000  1
  Hf  Hf1  1  0.816678  0.893911  0.500000  1
  Hf  Hf2  1  0.104709  0.818116  0.500000  1
  Hf  Hf3  1  0.682870  0.401447  0.500000  1
  Hf  Hf4  1  0.901447  0.182870  0.500000  1
  Hf  Hf5  1  0.318116  0.604709  0.500000  1
  Hf  Hf6  1  0.605928  0.682525  0.500000  1
  Hf  Hf7  1  0.393911  0.316678  0.500000  1
  Hf  Hf8  1  0.618537  0.118537  0.500000  1
  Hf  Hf9  1  0.378723  0.878723  0.500000  1
  Hf  Hf10  1  0.121052  0.379975  0.500000  1
  Hf  Hf11  1  0.879975  0.621052  0.500000  1
  Hf  Hf12  1  0.999270  0.999749  0.000000  1
  Hf  Hf13  1  0.499749  0.499270  0.000000  1
  Hf  Hf14  1  0.094924  0.594924  0.000000  1
  Hf  Hf15  1  0.907638  0.407638  0.000000  1
  Hf  Hf16  1  0.594288  0.904616  0.000000  1
  Hf  Hf17  1  0.404616  0.094288  0.000000  1
  Co  Co18  1  0.249628  0.749628  0.000000  1
  Co  Co19  1  0.248755  0.250364  0.000000  1
  Co  Co20  1  0.750364  0.748755  0.000000  1
  Cu  Cu21  1  0.746310  0.246310  0.000000  1
  P  P22  1  0.056514  0.224359  0.000000  1
  P  P23  1  0.943033  0.776611  0.000000  1
  P  P24  1  0.223451  0.943110  0.000000  1
  P  P25  1  0.555298  0.277608  0.000000  1
  P  P26  1  0.777608  0.055298  0.000000  1
  P  P27  1  0.443110  0.723451  0.000000  1
  P  P28  1  0.724359  0.556514  0.000000  1
  P  P29  1  0.276611  0.443033  0.000000  1
