# generated using pymatgen
data_SrGd3(Al8Pt3)3
_symmetry_space_group_name_H-M   'P 1'
_cell_length_a   7.57023292
_cell_length_b   7.59061801
_cell_length_c   13.38474400
_cell_angle_alpha   84.85168426
_cell_angle_beta   100.60105051
_cell_angle_gamma   119.65055063
_symmetry_Int_Tables_number   1
_chemical_formula_structural   SrGd3(Al8Pt3)3
_chemical_formula_sum   'Sr1 Gd3 Al24 Pt9'
_cell_volume   657.00486702
_cell_formula_units_Z   1
loop_
 _symmetry_equiv_pos_site_id
 _symmetry_equiv_pos_as_xyz
  1  'x, y, z'
loop_
 _atom_site_type_symbol
 _atom_site_label
 _atom_site_symmetry_multiplicity
 _atom_site_fract_x
 _atom_site_fract_y
 _atom_site_fract_z
 _atom_site_occupancy
  Sr  Sr0  1  0.231600  0.497222  0.190998  1
  Gd  Gd1  1  0.436219  0.830706  0.806897  1
  Gd  Gd2  1  0.564045  0.169335  0.192814  1
  Gd  Gd3  1  0.767848  0.502210  0.807248  1
  Al  Al4  1  0.481352  0.166181  0.943346  1
  Al  Al5  1  0.520033  0.835370  0.051367  1
  Al  Al6  1  0.022537  0.168098  0.561640  1
  Al  Al7  1  0.978583  0.832045  0.441292  1
  Al  Al8  1  0.354995  0.833988  0.559454  1
  Al  Al9  1  0.645883  0.165945  0.443013  1
  Al  Al10  1  0.619446  0.834638  0.333922  1
  Al  Al11  1  0.382602  0.165501  0.670641  1
  Al  Al12  1  0.056406  0.493662  0.669914  1
  Al  Al13  1  0.945109  0.507133  0.334736  1
  Al  Al14  1  0.730931  0.840461  0.668248  1
  Al  Al15  1  0.270138  0.159152  0.336306  1
  Al  Al16  1  0.146262  0.499886  0.943316  1
  Al  Al17  1  0.849462  0.501058  0.050632  1
  Al  Al18  1  0.815495  0.832563  0.951791  1
  Al  Al19  1  0.180542  0.164554  0.040518  1
  Al  Al20  1  0.314509  0.500609  0.442932  1
  Al  Al21  1  0.686858  0.499588  0.559780  1
  Al  Al22  1  0.104532  0.844235  0.183239  1
  Al  Al23  1  0.897324  0.164279  0.815963  1
  Al  Al24  1  0.306349  0.368176  0.814749  1
  Al  Al25  1  0.699859  0.629039  0.184367  1
  Al  Al26  1  0.102623  0.960619  0.815409  1
  Al  Al27  1  0.887557  0.032782  0.184044  1
  Pt  Pt28  1  0.387503  0.507081  0.638080  1
  Pt  Pt29  1  0.615270  0.493637  0.364492  1
  Pt  Pt30  1  0.170581  0.829890  0.997706  1
  Pt  Pt31  1  0.827731  0.169970  0.998811  1
  Pt  Pt32  1  0.293602  0.833859  0.364137  1
  Pt  Pt33  1  0.706572  0.167421  0.638262  1
  Pt  Pt34  1  0.047815  0.826776  0.637235  1
  Pt  Pt35  1  0.951927  0.172008  0.365065  1
  Pt  Pt36  1  0.499902  0.500323  0.997632  1
