# generated using pymatgen
data_YHo3Tm4(B6Rh)4
_symmetry_space_group_name_H-M   'P 1'
_cell_length_a   3.63500100
_cell_length_b   9.13729800
_cell_length_c   11.47513200
_cell_angle_alpha   89.99791555
_cell_angle_beta   90.00000000
_cell_angle_gamma   90.00000000
_symmetry_Int_Tables_number   1
_chemical_formula_structural   YHo3Tm4(B6Rh)4
_chemical_formula_sum   'Y1 Ho3 Tm4 B24 Rh4'
_cell_volume   381.13603667
_cell_formula_units_Z   1
loop_
 _symmetry_equiv_pos_site_id
 _symmetry_equiv_pos_as_xyz
  1  'x, y, z'
loop_
 _atom_site_type_symbol
 _atom_site_label
 _atom_site_symmetry_multiplicity
 _atom_site_fract_x
 _atom_site_fract_y
 _atom_site_fract_z
 _atom_site_occupancy
  Y  Y0  1  0.500000  0.321954  0.413752  1
  Ho  Ho1  1  0.500000  0.678058  0.586265  1
  Ho  Ho2  1  0.500000  0.178078  0.913735  1
  Ho  Ho3  1  0.500000  0.821912  0.086246  1
  Tm  Tm4  1  0.500000  0.444359  0.126790  1
  Tm  Tm5  1  0.500000  0.555721  0.873129  1
  Tm  Tm6  1  0.500000  0.055569  0.627039  1
  Tm  Tm7  1  0.500000  0.944213  0.373078  1
  B  B8  1  0.000000  0.107582  0.470916  1
  B  B9  1  0.000000  0.891941  0.529250  1
  B  B10  1  0.000000  0.391816  0.970697  1
  B  B11  1  0.000000  0.608266  0.029234  1
  B  B12  1  0.000000  0.132349  0.316247  1
  B  B13  1  0.000000  0.867255  0.683552  1
  B  B14  1  0.000000  0.367298  0.816539  1
  B  B15  1  0.000000  0.632793  0.183402  1
  B  B16  1  0.000000  0.054092  0.065320  1
  B  B17  1  0.000000  0.945863  0.934594  1
  B  B18  1  0.000000  0.446143  0.565727  1
  B  B19  1  0.000000  0.554532  0.434657  1
  B  B20  1  0.000000  0.483020  0.286006  1
  B  B21  1  0.000000  0.517465  0.713749  1
  B  B22  1  0.000000  0.017307  0.786372  1
  B  B23  1  0.000000  0.982515  0.213640  1
  B  B24  1  0.000000  0.250052  0.079470  1
  B  B25  1  0.000000  0.749968  0.920404  1
  B  B26  1  0.000000  0.249780  0.580038  1
  B  B27  1  0.000000  0.750132  0.420450  1
  B  B28  1  0.000000  0.294497  0.235511  1
  B  B29  1  0.000000  0.705391  0.764124  1
  B  B30  1  0.000000  0.205295  0.736059  1
  B  B31  1  0.000000  0.794662  0.264025  1
  Rh  Rh32  1  0.500000  0.139621  0.179073  1
  Rh  Rh33  1  0.500000  0.860116  0.820676  1
  Rh  Rh34  1  0.500000  0.360065  0.679794  1
  Rh  Rh35  1  0.500000  0.640317  0.320439  1
