# generated using pymatgen
data_Lu3AlGa2Ge2Rh
_symmetry_space_group_name_H-M   'P 1'
_cell_length_a   6.90072479
_cell_length_b   6.83570459
_cell_length_c   4.16582600
_cell_angle_alpha   90.00000000
_cell_angle_beta   90.00000000
_cell_angle_gamma   119.68879596
_symmetry_Int_Tables_number   1
_chemical_formula_structural   Lu3AlGa2Ge2Rh
_chemical_formula_sum   'Lu3 Al1 Ga2 Ge2 Rh1'
_cell_volume   170.71163862
_cell_formula_units_Z   1
loop_
 _symmetry_equiv_pos_site_id
 _symmetry_equiv_pos_as_xyz
  1  'x, y, z'
loop_
 _atom_site_type_symbol
 _atom_site_label
 _atom_site_symmetry_multiplicity
 _atom_site_fract_x
 _atom_site_fract_y
 _atom_site_fract_z
 _atom_site_occupancy
  Lu  Lu0  1  0.412878  0.001601  0.000000  1
  Lu  Lu1  1  0.000000  0.411360  0.000000  1
  Lu  Lu2  1  0.587123  0.588724  0.000000  1
  Al  Al3  1  0.000000  0.768473  0.500000  1
  Ga  Ga4  1  0.764430  0.998297  0.500000  1
  Ga  Ga5  1  0.235570  0.233867  0.500000  1
  Ge  Ge6  1  0.669534  0.336154  0.500000  1
  Ge  Ge7  1  0.330466  0.666618  0.500000  1
  Rh  Rh8  1  0.000000  0.994907  0.000000  1
