# generated using pymatgen
data_DyHo4P12Ru16Pt3
_symmetry_space_group_name_H-M   'P 1'
_cell_length_a   12.60995700
_cell_length_b   12.60995716
_cell_length_c   3.96483700
_cell_angle_alpha   90.00000000
_cell_angle_beta   90.00000000
_cell_angle_gamma   120.00000220
_symmetry_Int_Tables_number   1
_chemical_formula_structural   DyHo4P12Ru16Pt3
_chemical_formula_sum   'Dy1 Ho4 P12 Ru16 Pt3'
_cell_volume   545.98809903
_cell_formula_units_Z   1
loop_
 _symmetry_equiv_pos_site_id
 _symmetry_equiv_pos_as_xyz
  1  'x, y, z'
loop_
 _atom_site_type_symbol
 _atom_site_label
 _atom_site_symmetry_multiplicity
 _atom_site_fract_x
 _atom_site_fract_y
 _atom_site_fract_z
 _atom_site_occupancy
  Dy  Dy0  1  0.333333  0.666667  0.000000  1
  Ho  Ho1  1  0.666667  0.333333  0.000000  1
  Ho  Ho2  1  0.816288  0.999260  0.500000  1
  Ho  Ho3  1  0.182971  0.183712  0.500000  1
  Ho  Ho4  1  0.000740  0.817029  0.500000  1
  P  P5  1  0.628097  0.987204  0.000000  1
  P  P6  1  0.359108  0.371903  0.000000  1
  P  P7  1  0.012796  0.640892  0.000000  1
  P  P8  1  0.695804  0.528408  0.500000  1
  P  P9  1  0.832605  0.304196  0.500000  1
  P  P10  1  0.308528  0.829443  0.500000  1
  P  P11  1  0.520915  0.691472  0.500000  1
  P  P12  1  0.183128  0.000991  0.000000  1
  P  P13  1  0.817864  0.816872  0.000000  1
  P  P14  1  0.999009  0.182136  0.000000  1
  P  P15  1  0.471592  0.167395  0.500000  1
  P  P16  1  0.170557  0.479085  0.500000  1
  Ru  Ru17  1  0.621188  0.799849  0.000000  1
  Ru  Ru18  1  0.178660  0.378812  0.000000  1
  Ru  Ru19  1  0.378266  0.188076  0.000000  1
  Ru  Ru20  1  0.200151  0.821340  0.000000  1
  Ru  Ru21  1  0.809810  0.621734  0.000000  1
  Ru  Ru22  1  0.126529  0.636215  0.500000  1
  Ru  Ru23  1  0.363785  0.490314  0.500000  1
  Ru  Ru24  1  0.509686  0.873471  0.500000  1
  Ru  Ru25  1  0.000000  0.000000  0.000000  1
  Ru  Ru26  1  0.717426  0.716020  0.500000  1
  Ru  Ru27  1  0.998594  0.282574  0.500000  1
  Ru  Ru28  1  0.453290  0.005644  0.000000  1
  Ru  Ru29  1  0.552355  0.546710  0.000000  1
  Ru  Ru30  1  0.994356  0.447645  0.000000  1
  Ru  Ru31  1  0.811924  0.190190  0.000000  1
  Ru  Ru32  1  0.283980  0.001406  0.500000  1
  Pt  Pt33  1  0.867990  0.501752  0.500000  1
  Pt  Pt34  1  0.498248  0.366238  0.500000  1
  Pt  Pt35  1  0.633762  0.132010  0.500000  1
