# generated using pymatgen
data_Y4Lu6AlSb5
_symmetry_space_group_name_H-M   'P 1'
_cell_length_a   6.28209400
_cell_length_b   8.84707696
_cell_length_c   8.82389980
_cell_angle_alpha   120.08692837
_cell_angle_beta   89.99884296
_cell_angle_gamma   90.00233511
_symmetry_Int_Tables_number   1
_chemical_formula_structural   Y4Lu6AlSb5
_chemical_formula_sum   'Y4 Lu6 Al1 Sb5'
_cell_volume   424.34036782
_cell_formula_units_Z   1
loop_
 _symmetry_equiv_pos_site_id
 _symmetry_equiv_pos_as_xyz
  1  'x, y, z'
loop_
 _atom_site_type_symbol
 _atom_site_label
 _atom_site_symmetry_multiplicity
 _atom_site_fract_x
 _atom_site_fract_y
 _atom_site_fract_z
 _atom_site_occupancy
  Y  Y0  1  0.750018  0.752562  0.762835  1
  Y  Y1  1  0.750018  0.989728  0.237165  1
  Y  Y2  1  0.250004  0.245975  0.243982  1
  Y  Y3  1  0.250004  0.001993  0.756018  1
  Lu  Lu4  1  0.501813  0.338548  0.673104  1
  Lu  Lu5  1  0.501813  0.665444  0.326896  1
  Lu  Lu6  1  0.998171  0.665452  0.326921  1
  Lu  Lu7  1  0.998171  0.338532  0.673079  1
  Lu  Lu8  1  0.749962  0.249462  0.000000  1
  Lu  Lu9  1  0.250014  0.755343  0.000000  1
  Al  Al10  1  0.750010  0.600352  0.000000  1
  Sb  Sb11  1  0.749996  0.388566  0.388805  1
  Sb  Sb12  1  0.749996  0.999759  0.611195  1
  Sb  Sb13  1  0.249984  0.396547  0.000000  1
  Sb  Sb14  1  0.250014  0.610340  0.608940  1
  Sb  Sb15  1  0.250014  0.001401  0.391060  1
