# generated using pymatgen
data_Tb8Er11TmSn16
_symmetry_space_group_name_H-M   'P 1'
_cell_length_a   8.00952302
_cell_length_b   8.15061902
_cell_length_c   15.39839100
_cell_angle_alpha   90.00000000
_cell_angle_beta   90.00000000
_cell_angle_gamma   90.00728245
_symmetry_Int_Tables_number   1
_chemical_formula_structural   Tb8Er11TmSn16
_chemical_formula_sum   'Tb8 Er11 Tm1 Sn16'
_cell_volume   1005.24653959
_cell_formula_units_Z   1
loop_
 _symmetry_equiv_pos_site_id
 _symmetry_equiv_pos_as_xyz
  1  'x, y, z'
loop_
 _atom_site_type_symbol
 _atom_site_label
 _atom_site_symmetry_multiplicity
 _atom_site_fract_x
 _atom_site_fract_y
 _atom_site_fract_z
 _atom_site_occupancy
  Tb  Tb0  1  0.520738  0.320462  0.902711  1
  Tb  Tb1  1  0.020728  0.179545  0.597282  1
  Tb  Tb2  1  0.479242  0.679570  0.402714  1
  Tb  Tb3  1  0.979307  0.820489  0.097293  1
  Tb  Tb4  1  0.479242  0.679570  0.097286  1
  Tb  Tb5  1  0.979307  0.820489  0.402707  1
  Tb  Tb6  1  0.520738  0.320462  0.597289  1
  Tb  Tb7  1  0.020728  0.179545  0.902718  1
  Er  Er8  1  0.367019  0.836460  0.877462  1
  Er  Er9  1  0.867000  0.663527  0.622547  1
  Er  Er10  1  0.632960  0.163520  0.377464  1
  Er  Er11  1  0.133032  0.336427  0.122560  1
  Er  Er12  1  0.632960  0.163520  0.122536  1
  Er  Er13  1  0.133032  0.336427  0.377440  1
  Er  Er14  1  0.367019  0.836460  0.622538  1
  Er  Er15  1  0.867000  0.663527  0.877453  1
  Er  Er16  1  0.198052  0.503826  0.750000  1
  Er  Er17  1  0.698049  0.996195  0.750000  1
  Er  Er18  1  0.801949  0.496174  0.250000  1
  Tm  Tm19  1  0.301880  0.003813  0.250000  1
  Sn  Sn20  1  0.294506  0.037186  0.041800  1
  Sn  Sn21  1  0.794515  0.462812  0.458272  1
  Sn  Sn22  1  0.705471  0.962794  0.541720  1
  Sn  Sn23  1  0.205481  0.537194  0.958279  1
  Sn  Sn24  1  0.705471  0.962794  0.958280  1
  Sn  Sn25  1  0.205481  0.537194  0.541721  1
  Sn  Sn26  1  0.294506  0.037186  0.458200  1
  Sn  Sn27  1  0.794515  0.462812  0.041728  1
  Sn  Sn28  1  0.564404  0.620902  0.750000  1
  Sn  Sn29  1  0.064429  0.879113  0.750000  1
  Sn  Sn30  1  0.435548  0.378993  0.250000  1
  Sn  Sn31  1  0.935779  0.120849  0.250000  1
  Sn  Sn32  1  0.329433  0.146786  0.750000  1
  Sn  Sn33  1  0.829482  0.353171  0.750000  1
  Sn  Sn34  1  0.670459  0.853209  0.250000  1
  Sn  Sn35  1  0.170537  0.646998  0.250000  1
