# generated using pymatgen
data_Nd6Ho10Cd4Ir3Pd
_symmetry_space_group_name_H-M   'P 1'
_cell_length_a   9.72364874
_cell_length_b   9.72364814
_cell_length_c   9.72364915
_cell_angle_alpha   60.13292345
_cell_angle_beta   60.13291453
_cell_angle_gamma   60.13293046
_symmetry_Int_Tables_number   1
_chemical_formula_structural   Nd6Ho10Cd4Ir3Pd
_chemical_formula_sum   'Nd6 Ho10 Cd4 Ir3 Pd1'
_cell_volume   652.04646308
_cell_formula_units_Z   1
loop_
 _symmetry_equiv_pos_site_id
 _symmetry_equiv_pos_as_xyz
  1  'x, y, z'
loop_
 _atom_site_type_symbol
 _atom_site_label
 _atom_site_symmetry_multiplicity
 _atom_site_fract_x
 _atom_site_fract_y
 _atom_site_fract_z
 _atom_site_occupancy
  Nd  Nd0  1  0.940793  0.560298  0.560298  1
  Nd  Nd1  1  0.561702  0.940158  0.940158  1
  Nd  Nd2  1  0.560298  0.940793  0.560298  1
  Nd  Nd3  1  0.940158  0.561702  0.940158  1
  Nd  Nd4  1  0.560298  0.560298  0.940793  1
  Nd  Nd5  1  0.940158  0.940158  0.561702  1
  Ho  Ho6  1  0.346336  0.346336  0.346336  1
  Ho  Ho7  1  0.352102  0.352102  0.952388  1
  Ho  Ho8  1  0.352102  0.952388  0.352102  1
  Ho  Ho9  1  0.952388  0.352102  0.352102  1
  Ho  Ho10  1  0.806590  0.187859  0.187859  1
  Ho  Ho11  1  0.185576  0.812847  0.812847  1
  Ho  Ho12  1  0.187859  0.806590  0.187859  1
  Ho  Ho13  1  0.812847  0.185576  0.812847  1
  Ho  Ho14  1  0.187859  0.187859  0.806590  1
  Ho  Ho15  1  0.812847  0.812847  0.185576  1
  Cd  Cd16  1  0.579741  0.579741  0.579741  1
  Cd  Cd17  1  0.579244  0.579244  0.261545  1
  Cd  Cd18  1  0.579244  0.261545  0.579244  1
  Cd  Cd19  1  0.261545  0.579244  0.579244  1
  Ir  Ir20  1  0.141514  0.141514  0.574595  1
  Ir  Ir21  1  0.141514  0.574595  0.141514  1
  Ir  Ir22  1  0.574595  0.141514  0.141514  1
  Pd  Pd23  1  0.142686  0.142686  0.142686  1
