# generated using pymatgen
data_Sr7La(FeO3)8
_symmetry_space_group_name_H-M   'P 1'
_cell_length_a   7.82212318
_cell_length_b   7.82212335
_cell_length_c   7.82212201
_cell_angle_alpha   90.01462718
_cell_angle_beta   90.01462759
_cell_angle_gamma   90.01462512
_symmetry_Int_Tables_number   1
_chemical_formula_structural   Sr7La(FeO3)8
_chemical_formula_sum   'Sr7 La1 Fe8 O24'
_cell_volume   478.60127904
_cell_formula_units_Z   1
loop_
 _symmetry_equiv_pos_site_id
 _symmetry_equiv_pos_as_xyz
  1  'x, y, z'
loop_
 _atom_site_type_symbol
 _atom_site_label
 _atom_site_symmetry_multiplicity
 _atom_site_fract_x
 _atom_site_fract_y
 _atom_site_fract_z
 _atom_site_occupancy
  Sr  Sr0  1  0.749892  0.250113  0.749892  1
  Sr  Sr1  1  0.749821  0.250136  0.250136  1
  Sr  Sr2  1  0.749892  0.749892  0.250113  1
  Sr  Sr3  1  0.250136  0.250136  0.749821  1
  Sr  Sr4  1  0.250087  0.250087  0.250087  1
  Sr  Sr5  1  0.250113  0.749892  0.749892  1
  Sr  Sr6  1  0.250136  0.749821  0.250136  1
  La  La7  1  0.749903  0.749903  0.749903  1
  Fe  Fe8  1  0.499038  0.000848  0.000848  1
  Fe  Fe9  1  0.499196  0.000887  0.499196  1
  Fe  Fe10  1  0.499196  0.499196  0.000887  1
  Fe  Fe11  1  0.000710  0.000710  0.000710  1
  Fe  Fe12  1  0.000848  0.000848  0.499038  1
  Fe  Fe13  1  0.000848  0.499038  0.000848  1
  Fe  Fe14  1  0.000887  0.499196  0.499196  1
  Fe  Fe15  1  0.499269  0.499269  0.499269  1
  O  O16  1  0.750406  0.994884  0.994884  1
  O  O17  1  0.749922  0.994923  0.505072  1
  O  O18  1  0.749922  0.505072  0.994923  1
  O  O19  1  0.749461  0.505155  0.505155  1
  O  O20  1  0.249466  0.999146  0.999146  1
  O  O21  1  0.250101  0.999111  0.500877  1
  O  O22  1  0.250101  0.500877  0.999111  1
  O  O23  1  0.250610  0.500852  0.500852  1
  O  O24  1  0.500877  0.250101  0.999111  1
  O  O25  1  0.500852  0.250610  0.500852  1
  O  O26  1  0.505072  0.749922  0.994923  1
  O  O27  1  0.505155  0.749461  0.505155  1
  O  O28  1  0.999146  0.249466  0.999146  1
  O  O29  1  0.999111  0.250101  0.500877  1
  O  O30  1  0.994884  0.750406  0.994884  1
  O  O31  1  0.994923  0.749922  0.505072  1
  O  O32  1  0.505072  0.994923  0.749922  1
  O  O33  1  0.500877  0.999111  0.250101  1
  O  O34  1  0.505155  0.505155  0.749461  1
  O  O35  1  0.500852  0.500852  0.250610  1
  O  O36  1  0.994884  0.994884  0.750406  1
  O  O37  1  0.999146  0.999146  0.249466  1
  O  O38  1  0.994923  0.505072  0.749922  1
  O  O39  1  0.999111  0.500877  0.250101  1
