# generated using pymatgen
data_Tm8Ga(Si5Mo4)3
_symmetry_space_group_name_H-M   'P 1'
_cell_length_a   6.72457008
_cell_length_b   6.90898863
_cell_length_c   12.91250907
_cell_angle_alpha   90.13728657
_cell_angle_beta   89.96309149
_cell_angle_gamma   90.05965739
_symmetry_Int_Tables_number   1
_chemical_formula_structural   Tm8Ga(Si5Mo4)3
_chemical_formula_sum   'Tm8 Ga1 Si15 Mo12'
_cell_volume   599.91271893
_cell_formula_units_Z   1
loop_
 _symmetry_equiv_pos_site_id
 _symmetry_equiv_pos_as_xyz
  1  'x, y, z'
loop_
 _atom_site_type_symbol
 _atom_site_label
 _atom_site_symmetry_multiplicity
 _atom_site_fract_x
 _atom_site_fract_y
 _atom_site_fract_z
 _atom_site_occupancy
  Tm  Tm0  1  0.996453  0.169055  0.093946  1
  Tm  Tm1  1  0.003654  0.831717  0.906605  1
  Tm  Tm2  1  0.502756  0.668190  0.906372  1
  Tm  Tm3  1  0.004936  0.832005  0.593569  1
  Tm  Tm4  1  0.495989  0.331772  0.093713  1
  Tm  Tm5  1  0.995196  0.167676  0.405516  1
  Tm  Tm6  1  0.498005  0.331973  0.405143  1
  Tm  Tm7  1  0.507349  0.668794  0.594382  1
  Ga  Ga8  1  0.167362  0.457940  0.545132  1
  Si  Si9  1  0.034669  0.132859  0.749134  1
  Si  Si10  1  0.964207  0.869723  0.248352  1
  Si  Si11  1  0.465317  0.632962  0.249481  1
  Si  Si12  1  0.532272  0.367877  0.750658  1
  Si  Si13  1  0.302812  0.865496  0.750511  1
  Si  Si14  1  0.696759  0.132261  0.249634  1
  Si  Si15  1  0.196858  0.368902  0.250246  1
  Si  Si16  1  0.804818  0.632305  0.750132  1
  Si  Si17  1  0.838561  0.542640  0.453523  1
  Si  Si18  1  0.338759  0.958751  0.453974  1
  Si  Si19  1  0.837929  0.541719  0.046046  1
  Si  Si20  1  0.662136  0.040950  0.546226  1
  Si  Si21  1  0.161365  0.457493  0.954555  1
  Si  Si22  1  0.660863  0.040574  0.953617  1
  Si  Si23  1  0.337889  0.958623  0.046591  1
  Mo  Mo24  1  0.165571  0.499446  0.753278  1
  Mo  Mo25  1  0.833430  0.499625  0.249487  1
  Mo  Mo26  1  0.332254  0.003427  0.249379  1
  Mo  Mo27  1  0.668580  0.997093  0.750696  1
  Mo  Mo28  1  0.334852  0.157627  0.627699  1
  Mo  Mo29  1  0.670177  0.836070  0.374643  1
  Mo  Mo30  1  0.167771  0.670471  0.370546  1
  Mo  Mo31  1  0.668634  0.835921  0.125034  1
  Mo  Mo32  1  0.823515  0.336012  0.626452  1
  Mo  Mo33  1  0.329793  0.163022  0.876257  1
  Mo  Mo34  1  0.828424  0.335691  0.875601  1
  Mo  Mo35  1  0.170090  0.663335  0.123869  1
