# generated using pymatgen
data_La16Ho4Ir11Os
_symmetry_space_group_name_H-M   'P 1'
_cell_length_a   11.35640100
_cell_length_b   11.35640100
_cell_length_c   6.54260300
_cell_angle_alpha   90.00000000
_cell_angle_beta   90.00000000
_cell_angle_gamma   90.00000000
_symmetry_Int_Tables_number   1
_chemical_formula_structural   La16Ho4Ir11Os
_chemical_formula_sum   'La16 Ho4 Ir11 Os1'
_cell_volume   843.78540092
_cell_formula_units_Z   1
loop_
 _symmetry_equiv_pos_site_id
 _symmetry_equiv_pos_as_xyz
  1  'x, y, z'
loop_
 _atom_site_type_symbol
 _atom_site_label
 _atom_site_symmetry_multiplicity
 _atom_site_fract_x
 _atom_site_fract_y
 _atom_site_fract_z
 _atom_site_occupancy
  La  La0  1  0.289168  0.087187  0.389129  1
  La  La1  1  0.289224  0.913048  0.893097  1
  La  La2  1  0.710776  0.086952  0.893097  1
  La  La3  1  0.710832  0.912813  0.389129  1
  La  La4  1  0.586952  0.789224  0.893097  1
  La  La5  1  0.587187  0.210832  0.389129  1
  La  La6  1  0.412813  0.789168  0.389129  1
  La  La7  1  0.413048  0.210776  0.893097  1
  La  La8  1  0.212728  0.412196  0.609344  1
  La  La9  1  0.212459  0.587574  0.109157  1
  La  La10  1  0.787541  0.412426  0.109157  1
  La  La11  1  0.787272  0.587804  0.609344  1
  La  La12  1  0.912426  0.712459  0.109157  1
  La  La13  1  0.912196  0.287272  0.609344  1
  La  La14  1  0.087804  0.712728  0.609344  1
  La  La15  1  0.087574  0.287541  0.109157  1
  Ho  Ho16  1  0.000000  0.000000  0.499005  1
  Ho  Ho17  1  0.000000  0.000000  0.998983  1
  Ho  Ho18  1  0.500000  0.500000  0.998983  1
  Ho  Ho19  1  0.500000  0.500000  0.499005  1
  Ir  Ir20  1  0.852749  0.148825  0.250217  1
  Ir  Ir21  1  0.852565  0.851527  0.750055  1
  Ir  Ir22  1  0.147435  0.148473  0.750055  1
  Ir  Ir23  1  0.147251  0.851175  0.250217  1
  Ir  Ir24  1  0.648473  0.352565  0.750055  1
  Ir  Ir25  1  0.648825  0.647251  0.250217  1
  Ir  Ir26  1  0.351175  0.352749  0.250217  1
  Ir  Ir27  1  0.351527  0.647435  0.750055  1
  Ir  Ir28  1  0.500000  0.000000  0.621841  1
  Ir  Ir29  1  0.000000  0.500000  0.878088  1
  Ir  Ir30  1  0.000000  0.500000  0.378338  1
  Os  Os31  1  0.500000  0.000000  0.121765  1
