# generated using pymatgen
data_La5Nd(GePd)6
_symmetry_space_group_name_H-M   'P 1'
_cell_length_a   4.56385000
_cell_length_b   7.75379523
_cell_length_c   22.34956709
_cell_angle_alpha   90.01893272
_cell_angle_beta   90.00000000
_cell_angle_gamma   90.00000000
_symmetry_Int_Tables_number   1
_chemical_formula_structural   La5Nd(GePd)6
_chemical_formula_sum   'La10 Nd2 Ge12 Pd12'
_cell_volume   790.88762635
_cell_formula_units_Z   2
loop_
 _symmetry_equiv_pos_site_id
 _symmetry_equiv_pos_as_xyz
  1  'x, y, z'
loop_
 _atom_site_type_symbol
 _atom_site_label
 _atom_site_symmetry_multiplicity
 _atom_site_fract_x
 _atom_site_fract_y
 _atom_site_fract_z
 _atom_site_occupancy
  La  La0  1  0.250000  0.709874  0.333186  1
  La  La1  1  0.750000  0.290126  0.666814  1
  La  La2  1  0.750000  0.209853  0.166851  1
  La  La3  1  0.250000  0.790147  0.833149  1
  La  La4  1  0.250000  0.790765  0.166142  1
  La  La5  1  0.750000  0.209235  0.833858  1
  La  La6  1  0.750000  0.290691  0.333972  1
  La  La7  1  0.250000  0.709309  0.666028  1
  La  La8  1  0.250000  0.716474  0.002015  1
  La  La9  1  0.750000  0.283526  0.997985  1
  Nd  Nd10  1  0.750000  0.217062  0.498223  1
  Nd  Nd11  1  0.250000  0.782938  0.501777  1
  Ge  Ge12  1  0.250000  0.088560  0.071016  1
  Ge  Ge13  1  0.750000  0.911440  0.928984  1
  Ge  Ge14  1  0.750000  0.588875  0.429888  1
  Ge  Ge15  1  0.250000  0.411125  0.570112  1
  Ge  Ge16  1  0.250000  0.082988  0.270511  1
  Ge  Ge17  1  0.750000  0.917012  0.729489  1
  Ge  Ge18  1  0.750000  0.583162  0.229601  1
  Ge  Ge19  1  0.250000  0.416838  0.770399  1
  Ge  Ge20  1  0.250000  0.084557  0.397644  1
  Ge  Ge21  1  0.750000  0.915443  0.602356  1
  Ge  Ge22  1  0.750000  0.584310  0.103846  1
  Ge  Ge23  1  0.250000  0.415690  0.896154  1
  Pd  Pd24  1  0.250000  0.416704  0.238163  1
  Pd  Pd25  1  0.750000  0.583296  0.761837  1
  Pd  Pd26  1  0.750000  0.916994  0.262189  1
  Pd  Pd27  1  0.250000  0.083006  0.737811  1
  Pd  Pd28  1  0.250000  0.416965  0.435269  1
  Pd  Pd29  1  0.750000  0.583035  0.564731  1
  Pd  Pd30  1  0.750000  0.916631  0.065614  1
  Pd  Pd31  1  0.250000  0.083369  0.934386  1
  Pd  Pd32  1  0.250000  0.420034  0.093245  1
  Pd  Pd33  1  0.750000  0.579966  0.906755  1
  Pd  Pd34  1  0.750000  0.920126  0.407539  1
  Pd  Pd35  1  0.250000  0.079874  0.592461  1
