# generated using pymatgen
data_Li12Pr11Sc(WO6)8
_symmetry_space_group_name_H-M   'P 1'
_cell_length_a   10.97665835
_cell_length_b   10.92018219
_cell_length_c   10.92018334
_cell_angle_alpha   109.15975314
_cell_angle_beta   109.52208804
_cell_angle_gamma   109.52207720
_symmetry_Int_Tables_number   1
_chemical_formula_structural   Li12Pr11Sc(WO6)8
_chemical_formula_sum   'Li12 Pr11 Sc1 W8 O48'
_cell_volume   1010.23598845
_cell_formula_units_Z   1
loop_
 _symmetry_equiv_pos_site_id
 _symmetry_equiv_pos_as_xyz
  1  'x, y, z'
loop_
 _atom_site_type_symbol
 _atom_site_label
 _atom_site_symmetry_multiplicity
 _atom_site_fract_x
 _atom_site_fract_y
 _atom_site_fract_z
 _atom_site_occupancy
  Li  Li0  1  0.250000  0.875544  0.125544  1
  Li  Li1  1  0.374394  0.249502  0.124698  1
  Li  Li2  1  0.125607  0.375303  0.250499  1
  Li  Li3  1  0.625305  0.875524  0.249101  1
  Li  Li4  1  0.125606  0.750304  0.375107  1
  Li  Li5  1  0.750001  0.620159  0.370159  1
  Li  Li6  1  0.250000  0.374456  0.624456  1
  Li  Li7  1  0.874697  0.250900  0.624478  1
  Li  Li8  1  0.374394  0.124893  0.749696  1
  Li  Li9  1  0.874696  0.623796  0.750220  1
  Li  Li10  1  0.625303  0.749780  0.876204  1
  Li  Li11  1  0.749999  0.129842  0.879842  1
  Pr  Pr12  1  0.873852  0.746755  0.126047  1
  Pr  Pr13  1  0.376142  0.625161  0.250735  1
  Pr  Pr14  1  0.873852  0.127097  0.247805  1
  Pr  Pr15  1  0.250000  0.125000  0.375000  1
  Pr  Pr16  1  0.626148  0.252195  0.372903  1
  Pr  Pr17  1  0.750000  0.875000  0.625000  1
  Pr  Pr18  1  0.376143  0.750981  0.625409  1
  Pr  Pr19  1  0.123858  0.874591  0.749019  1
  Pr  Pr20  1  0.626149  0.373953  0.753246  1
  Pr  Pr21  1  0.250000  0.625000  0.875000  1
  Pr  Pr22  1  0.123858  0.249266  0.874840  1
  Sc  Sc23  1  0.750000  0.374999  0.124999  1
  W  W24  1  0.999303  0.999458  0.000273  1
  W  W25  1  0.500754  0.006449  0.000489  1
  W  W26  1  0.500754  0.494305  0.000266  1
  W  W27  1  0.999245  0.499734  0.005694  1
  W  W28  1  0.999303  0.999845  0.499030  1
  W  W29  1  0.500696  0.000970  0.500155  1
  W  W30  1  0.999245  0.499512  0.493552  1
  W  W31  1  0.500698  0.499728  0.500543  1
  O  O32  1  0.827197  0.908409  0.022981  1
  O  O33  1  0.698358  0.136182  0.032634  1
  O  O34  1  0.192868  0.671255  0.080255  1
  O  O35  1  0.384408  0.406685  0.080744  1
  O  O36  1  0.482979  0.670414  0.094723  1
  O  O37  1  0.115592  0.419256  0.093314  1
  O  O38  1  0.523087  0.200219  0.113518  1
  O  O39  1  0.091034  0.918579  0.114958  1
  O  O40  1  0.976914  0.590433  0.177132  1
  O  O41  1  0.698358  0.562176  0.165725  1
  O  O42  1  0.080118  0.172113  0.194752  1
  O  O43  1  0.614501  0.024316  0.193721  1
  O  O44  1  0.827199  0.918790  0.304217  1
  O  O45  1  0.976913  0.386480  0.299780  1
  O  O46  1  0.408967  0.023923  0.327545  1
  O  O47  1  0.419882  0.305248  0.327887  1
  O  O48  1  0.080119  0.908006  0.385366  1
  O  O49  1  0.801642  0.467366  0.363819  1
  O  O50  1  0.328594  0.522697  0.408508  1
  O  O51  1  0.580164  0.885780  0.407799  1
  O  O52  1  0.592758  0.614392  0.419309  1
  O  O53  1  0.328595  0.805899  0.420087  1
  O  O54  1  0.091032  0.172454  0.476076  1
  O  O55  1  0.885499  0.306277  0.475684  1
  O  O56  1  0.115592  0.696337  0.522278  1
  O  O57  1  0.907242  0.826551  0.521633  1
  O  O58  1  0.408966  0.385042  0.581421  1
  O  O59  1  0.672802  0.195783  0.581212  1
  O  O60  1  0.672801  0.477019  0.591590  1
  O  O61  1  0.419881  0.114634  0.591995  1
  O  O62  1  0.192869  0.521614  0.612613  1
  O  O63  1  0.919836  0.092201  0.614221  1
  O  O64  1  0.580164  0.694384  0.672363  1
  O  O65  1  0.592759  0.978367  0.673450  1
  O  O66  1  0.171404  0.079912  0.694101  1
  O  O67  1  0.017021  0.611744  0.687437  1
  O  O68  1  0.384407  0.977722  0.803663  1
  O  O69  1  0.919836  0.827636  0.805615  1
  O  O70  1  0.307132  0.419745  0.828745  1
  O  O71  1  0.017022  0.405277  0.829586  1
  O  O72  1  0.482978  0.812563  0.888255  1
  O  O73  1  0.907241  0.080692  0.885609  1
  O  O74  1  0.523086  0.322867  0.909567  1
  O  O75  1  0.885499  0.579221  0.909815  1
  O  O76  1  0.614502  0.590187  0.920779  1
  O  O77  1  0.801642  0.334276  0.937824  1
  O  O78  1  0.307131  0.887387  0.978385  1
  O  O79  1  0.171404  0.091490  0.977303  1
