# generated using pymatgen
data_Sc2Tc2OsRu
_symmetry_space_group_name_H-M   'P 1'
_cell_length_a   5.21438000
_cell_length_b   5.14551507
_cell_length_c   8.76056400
_cell_angle_alpha   90.00000000
_cell_angle_beta   90.00000000
_cell_angle_gamma   120.44371858
_symmetry_Int_Tables_number   1
_chemical_formula_structural   Sc2Tc2OsRu
_chemical_formula_sum   'Sc4 Tc4 Os2 Ru2'
_cell_volume   202.64458108
_cell_formula_units_Z   2
loop_
 _symmetry_equiv_pos_site_id
 _symmetry_equiv_pos_as_xyz
  1  'x, y, z'
loop_
 _atom_site_type_symbol
 _atom_site_label
 _atom_site_symmetry_multiplicity
 _atom_site_fract_x
 _atom_site_fract_y
 _atom_site_fract_z
 _atom_site_occupancy
  Sc  Sc0  1  0.332695  0.664741  0.434289  1
  Sc  Sc1  1  0.667954  0.335259  0.565711  1
  Sc  Sc2  1  0.667954  0.335259  0.934289  1
  Sc  Sc3  1  0.332695  0.664741  0.065711  1
  Tc  Tc4  1  0.168127  0.342325  0.750000  1
  Tc  Tc5  1  0.170484  0.825879  0.750000  1
  Tc  Tc6  1  0.344606  0.174121  0.250000  1
  Tc  Tc7  1  0.825803  0.657675  0.250000  1
  Os  Os8  1  0.653819  0.827823  0.750000  1
  Os  Os9  1  0.825997  0.172177  0.250000  1
  Ru  Ru10  1  0.004934  0.000000  0.000000  1
  Ru  Ru11  1  0.004934  0.000000  0.500000  1
