# generated using pymatgen
data_La4LuIr2Ru
_symmetry_space_group_name_H-M   'P 1'
_cell_length_a   11.24858000
_cell_length_b   11.24858000
_cell_length_c   6.61820400
_cell_angle_alpha   90.00000000
_cell_angle_beta   90.00000000
_cell_angle_gamma   90.00000000
_symmetry_Int_Tables_number   1
_chemical_formula_structural   La4LuIr2Ru
_chemical_formula_sum   'La16 Lu4 Ir8 Ru4'
_cell_volume   837.40500548
_cell_formula_units_Z   4
loop_
 _symmetry_equiv_pos_site_id
 _symmetry_equiv_pos_as_xyz
  1  'x, y, z'
loop_
 _atom_site_type_symbol
 _atom_site_label
 _atom_site_symmetry_multiplicity
 _atom_site_fract_x
 _atom_site_fract_y
 _atom_site_fract_z
 _atom_site_occupancy
  La  La0  1  0.290603  0.086732  0.382178  1
  La  La1  1  0.290603  0.913268  0.882178  1
  La  La2  1  0.709397  0.086732  0.882178  1
  La  La3  1  0.709397  0.913268  0.382178  1
  La  La4  1  0.586732  0.790603  0.882178  1
  La  La5  1  0.586732  0.209397  0.382178  1
  La  La6  1  0.413268  0.790603  0.382178  1
  La  La7  1  0.413268  0.209397  0.882178  1
  La  La8  1  0.209397  0.413268  0.617822  1
  La  La9  1  0.209397  0.586732  0.117822  1
  La  La10  1  0.790603  0.413268  0.117822  1
  La  La11  1  0.790603  0.586732  0.617822  1
  La  La12  1  0.913268  0.709397  0.117822  1
  La  La13  1  0.913268  0.290603  0.617822  1
  La  La14  1  0.086732  0.709397  0.617822  1
  La  La15  1  0.086732  0.290603  0.117822  1
  Lu  Lu16  1  0.000000  0.000000  0.500000  1
  Lu  Lu17  1  0.000000  0.000000  0.000000  1
  Lu  Lu18  1  0.500000  0.500000  0.000000  1
  Lu  Lu19  1  0.500000  0.500000  0.500000  1
  Ir  Ir20  1  0.854258  0.145742  0.250000  1
  Ir  Ir21  1  0.854258  0.854258  0.750000  1
  Ir  Ir22  1  0.145742  0.145742  0.750000  1
  Ir  Ir23  1  0.145742  0.854258  0.250000  1
  Ir  Ir24  1  0.645742  0.354258  0.750000  1
  Ir  Ir25  1  0.645742  0.645742  0.250000  1
  Ir  Ir26  1  0.354258  0.354258  0.250000  1
  Ir  Ir27  1  0.354258  0.645742  0.750000  1
  Ru  Ru28  1  0.500000  0.000000  0.117574  1
  Ru  Ru29  1  0.500000  0.000000  0.617574  1
  Ru  Ru30  1  0.000000  0.500000  0.882426  1
  Ru  Ru31  1  0.000000  0.500000  0.382426  1
