# generated using pymatgen
data_Ti8Al15Ir4Rh2Au
_symmetry_space_group_name_H-M   'P 1'
_cell_length_a   8.68604742
_cell_length_b   8.65779489
_cell_length_c   8.68449840
_cell_angle_alpha   119.87350555
_cell_angle_beta   119.84788285
_cell_angle_gamma   90.18895900
_symmetry_Int_Tables_number   1
_chemical_formula_structural   Ti8Al15Ir4Rh2Au
_chemical_formula_sum   'Ti8 Al15 Ir4 Rh2 Au1'
_cell_volume   462.98600563
_cell_formula_units_Z   1
loop_
 _symmetry_equiv_pos_site_id
 _symmetry_equiv_pos_as_xyz
  1  'x, y, z'
loop_
 _atom_site_type_symbol
 _atom_site_label
 _atom_site_symmetry_multiplicity
 _atom_site_fract_x
 _atom_site_fract_y
 _atom_site_fract_z
 _atom_site_occupancy
  Ti  Ti0  1  0.789864  0.292941  0.077337  1
  Ti  Ti1  1  0.218040  0.292488  0.502116  1
  Ti  Ti2  1  0.211089  0.708048  0.501022  1
  Ti  Ti3  1  0.213960  0.713171  0.920434  1
  Ti  Ti4  1  0.788786  0.711849  0.498835  1
  Ti  Ti5  1  0.782071  0.286038  0.499463  1
  Ti  Ti6  1  0.389874  0.127067  0.752445  1
  Ti  Ti7  1  0.379117  0.634225  0.257318  1
  Al  Al8  1  0.997436  0.496215  0.499254  1
  Al  Al9  1  0.153340  0.342663  0.190523  1
  Al  Al10  1  0.156359  0.964284  0.815770  1
  Al  Al11  1  0.152744  0.352062  0.808289  1
  Al  Al12  1  0.539978  0.345628  0.195432  1
  Al  Al13  1  0.845489  0.654574  0.808994  1
  Al  Al14  1  0.843660  0.039916  0.185176  1
  Al  Al15  1  0.840297  0.648516  0.181957  1
  Al  Al16  1  0.469689  0.655440  0.813053  1
  Al  Al17  1  0.378760  0.121907  0.258359  1
  Al  Al18  1  0.859819  0.125341  0.751610  1
  Al  Al19  1  0.610409  0.874590  0.248996  1
  Al  Al20  1  0.620666  0.364925  0.742026  1
  Al  Al21  1  0.620652  0.876712  0.741465  1
  Al  Al22  1  0.139601  0.875379  0.249405  1
  Ir  Ir23  1  0.498817  0.999778  0.999237  1
  Ir  Ir24  1  0.497780  0.498272  0.001529  1
  Ir  Ir25  1  0.498065  0.499951  0.498172  1
  Ir  Ir26  1  0.001998  0.499368  0.001742  1
  Rh  Rh27  1  0.999963  0.999636  0.999169  1
  Rh  Rh28  1  0.500195  0.999672  0.501163  1
  Au  Au29  1  0.001477  0.999347  0.499710  1
