# generated using pymatgen
data_Ba4MnNbO8
_symmetry_space_group_name_H-M   'P 1'
_cell_length_a   7.28843299
_cell_length_b   7.28843192
_cell_length_c   5.88543400
_cell_angle_alpha   90.00000000
_cell_angle_beta   90.00000000
_cell_angle_gamma   132.25367509
_symmetry_Int_Tables_number   1
_chemical_formula_structural   Ba4MnNbO8
_chemical_formula_sum   'Ba4 Mn1 Nb1 O8'
_cell_volume   231.40949388
_cell_formula_units_Z   1
loop_
 _symmetry_equiv_pos_site_id
 _symmetry_equiv_pos_as_xyz
  1  'x, y, z'
loop_
 _atom_site_type_symbol
 _atom_site_label
 _atom_site_symmetry_multiplicity
 _atom_site_fract_x
 _atom_site_fract_y
 _atom_site_fract_z
 _atom_site_occupancy
  Ba  Ba0  1  0.642436  0.357564  0.000000  1
  Ba  Ba1  1  0.145344  0.854656  0.500000  1
  Ba  Ba2  1  0.854656  0.145344  0.500000  1
  Ba  Ba3  1  0.357564  0.642436  0.000000  1
  Mn  Mn4  1  0.500000  0.500000  0.500000  1
  Nb  Nb5  1  0.000000  0.000000  0.000000  1
  O  O6  1  0.758409  0.758409  0.757463  1
  O  O7  1  0.241591  0.241591  0.242537  1
  O  O8  1  0.241591  0.241591  0.757463  1
  O  O9  1  0.758409  0.758409  0.242537  1
  O  O10  1  0.845434  0.154566  0.000000  1
  O  O11  1  0.351613  0.648387  0.500000  1
  O  O12  1  0.648387  0.351613  0.500000  1
  O  O13  1  0.154566  0.845434  0.000000  1
