# generated using pymatgen
data_Ta2(IrRu)3
_symmetry_space_group_name_H-M   'P 1'
_cell_length_a   3.91315500
_cell_length_b   3.91536700
_cell_length_c   7.84205000
_cell_angle_alpha   90.00000000
_cell_angle_beta   90.00000000
_cell_angle_gamma   90.00000000
_symmetry_Int_Tables_number   1
_chemical_formula_structural   Ta2(IrRu)3
_chemical_formula_sum   'Ta2 Ir3 Ru3'
_cell_volume   120.15148250
_cell_formula_units_Z   1
loop_
 _symmetry_equiv_pos_site_id
 _symmetry_equiv_pos_as_xyz
  1  'x, y, z'
loop_
 _atom_site_type_symbol
 _atom_site_label
 _atom_site_symmetry_multiplicity
 _atom_site_fract_x
 _atom_site_fract_y
 _atom_site_fract_z
 _atom_site_occupancy
  Ta  Ta0  1  0.000000  0.000000  0.248631  1
  Ta  Ta1  1  0.000000  0.000000  0.751369  1
  Ir  Ir2  1  0.500000  0.500000  0.250180  1
  Ir  Ir3  1  0.500000  0.500000  0.749820  1
  Ir  Ir4  1  0.000000  0.500000  0.500000  1
  Ru  Ru5  1  0.000000  0.500000  0.000000  1
  Ru  Ru6  1  0.500000  0.000000  0.500000  1
  Ru  Ru7  1  0.500000  0.000000  0.000000  1
