# generated using pymatgen
data_Hf9TaMo2AsW
_symmetry_space_group_name_H-M   'P 1'
_cell_length_a   8.67130305
_cell_length_b   8.74719573
_cell_length_c   8.76380000
_cell_angle_alpha   90.00000000
_cell_angle_beta   90.00000000
_cell_angle_gamma   119.72644373
_symmetry_Int_Tables_number   1
_chemical_formula_structural   Hf9TaMo2AsW
_chemical_formula_sum   'Hf18 Ta2 Mo4 As2 W2'
_cell_volume   577.25387746
_cell_formula_units_Z   2
loop_
 _symmetry_equiv_pos_site_id
 _symmetry_equiv_pos_as_xyz
  1  'x, y, z'
loop_
 _atom_site_type_symbol
 _atom_site_label
 _atom_site_symmetry_multiplicity
 _atom_site_fract_x
 _atom_site_fract_y
 _atom_site_fract_z
 _atom_site_occupancy
  Hf  Hf0  1  0.196721  0.393476  0.047319  1
  Hf  Hf1  1  0.803279  0.606524  0.547319  1
  Hf  Hf2  1  0.608470  0.804336  0.043760  1
  Hf  Hf3  1  0.195855  0.804332  0.043781  1
  Hf  Hf4  1  0.804145  0.195668  0.543781  1
  Hf  Hf5  1  0.391530  0.195664  0.543760  1
  Hf  Hf6  1  0.803279  0.606524  0.952681  1
  Hf  Hf7  1  0.804145  0.195668  0.956219  1
  Hf  Hf8  1  0.391530  0.195664  0.956240  1
  Hf  Hf9  1  0.608470  0.804336  0.456240  1
  Hf  Hf10  1  0.195855  0.804332  0.456219  1
  Hf  Hf11  1  0.196721  0.393476  0.452681  1
  Hf  Hf12  1  0.540177  0.080399  0.250000  1
  Hf  Hf13  1  0.459823  0.919601  0.750000  1
  Hf  Hf14  1  0.918797  0.458263  0.250000  1
  Hf  Hf15  1  0.539464  0.458247  0.250000  1
  Hf  Hf16  1  0.460536  0.541753  0.750000  1
  Hf  Hf17  1  0.081203  0.541737  0.750000  1
  Ta  Ta18  1  0.889748  0.779534  0.250000  1
  Ta  Ta19  1  0.110252  0.220466  0.750000  1
  Mo  Mo20  1  0.220729  0.111706  0.250000  1
  Mo  Mo21  1  0.890955  0.111684  0.250000  1
  Mo  Mo22  1  0.109045  0.888316  0.750000  1
  Mo  Mo23  1  0.779271  0.888294  0.750000  1
  As  As24  1  0.333997  0.667903  0.250000  1
  As  As25  1  0.666003  0.332097  0.750000  1
  W  W26  1  0.000000  0.000000  0.000000  1
  W  W27  1  0.000000  0.000000  0.500000  1
