# generated using pymatgen
data_NaHo3(Ga2Ag)4
_symmetry_space_group_name_H-M   'P 1'
_cell_length_a   4.33096000
_cell_length_b   6.95902916
_cell_length_c   10.36150254
_cell_angle_alpha   90.29593874
_cell_angle_beta   90.00000000
_cell_angle_gamma   90.00000000
_symmetry_Int_Tables_number   1
_chemical_formula_structural   NaHo3(Ga2Ag)4
_chemical_formula_sum   'Na1 Ho3 Ga8 Ag4'
_cell_volume   312.28402872
_cell_formula_units_Z   1
loop_
 _symmetry_equiv_pos_site_id
 _symmetry_equiv_pos_as_xyz
  1  'x, y, z'
loop_
 _atom_site_type_symbol
 _atom_site_label
 _atom_site_symmetry_multiplicity
 _atom_site_fract_x
 _atom_site_fract_y
 _atom_site_fract_z
 _atom_site_occupancy
  Na  Na0  1  0.250000  0.270150  0.675198  1
  Ho  Ho1  1  0.250000  0.778628  0.825332  1
  Ho  Ho2  1  0.750000  0.224875  0.172299  1
  Ho  Ho3  1  0.750000  0.720472  0.328880  1
  Ga  Ga4  1  0.250000  0.703228  0.534111  1
  Ga  Ga5  1  0.750000  0.302263  0.466832  1
  Ga  Ga6  1  0.750000  0.792905  0.036828  1
  Ga  Ga7  1  0.250000  0.201447  0.964378  1
  Ga  Ga8  1  0.250000  0.926730  0.154534  1
  Ga  Ga9  1  0.750000  0.071224  0.849352  1
  Ga  Ga10  1  0.750000  0.570533  0.651286  1
  Ga  Ga11  1  0.250000  0.428828  0.342268  1
  Ag  Ag12  1  0.250000  0.545055  0.096759  1
  Ag  Ag13  1  0.750000  0.456177  0.901847  1
  Ag  Ag14  1  0.750000  0.960681  0.598021  1
  Ag  Ag15  1  0.250000  0.046803  0.402077  1
