# generated using pymatgen
data_Hf2Co2SiAs
_symmetry_space_group_name_H-M   'P 1'
_cell_length_a   3.83079300
_cell_length_b   6.44162437
_cell_length_c   7.20541986
_cell_angle_alpha   89.34457518
_cell_angle_beta   90.00000000
_cell_angle_gamma   90.00000000
_symmetry_Int_Tables_number   1
_chemical_formula_structural   Hf2Co2SiAs
_chemical_formula_sum   'Hf4 Co4 Si2 As2'
_cell_volume   177.79312253
_cell_formula_units_Z   2
loop_
 _symmetry_equiv_pos_site_id
 _symmetry_equiv_pos_as_xyz
  1  'x, y, z'
loop_
 _atom_site_type_symbol
 _atom_site_label
 _atom_site_symmetry_multiplicity
 _atom_site_fract_x
 _atom_site_fract_y
 _atom_site_fract_z
 _atom_site_occupancy
  Hf  Hf0  1  0.250000  0.519718  0.193096  1
  Hf  Hf1  1  0.750000  0.480282  0.806904  1
  Hf  Hf2  1  0.250000  0.012590  0.315224  1
  Hf  Hf3  1  0.750000  0.987410  0.684776  1
  Co  Co4  1  0.250000  0.640350  0.557477  1
  Co  Co5  1  0.750000  0.359650  0.442523  1
  Co  Co6  1  0.250000  0.147047  0.928543  1
  Co  Co7  1  0.750000  0.852953  0.071457  1
  Si  Si8  1  0.750000  0.723086  0.391333  1
  Si  Si9  1  0.250000  0.276914  0.608667  1
  As  As10  1  0.750000  0.229238  0.116446  1
  As  As11  1  0.250000  0.770762  0.883554  1
