# generated using pymatgen
data_Nb6Ru3Pt8Rh7
_symmetry_space_group_name_H-M   'P 1'
_cell_length_a   5.61560096
_cell_length_b   5.61560061
_cell_length_c   13.59186119
_cell_angle_alpha   90.14053495
_cell_angle_beta   89.85946495
_cell_angle_gamma   120.09963844
_symmetry_Int_Tables_number   1
_chemical_formula_structural   Nb6Ru3Pt8Rh7
_chemical_formula_sum   'Nb6 Ru3 Pt8 Rh7'
_cell_volume   370.82017669
_cell_formula_units_Z   1
loop_
 _symmetry_equiv_pos_site_id
 _symmetry_equiv_pos_as_xyz
  1  'x, y, z'
loop_
 _atom_site_type_symbol
 _atom_site_label
 _atom_site_symmetry_multiplicity
 _atom_site_fract_x
 _atom_site_fract_y
 _atom_site_fract_z
 _atom_site_occupancy
  Nb  Nb0  1  0.995812  0.004188  0.253901  1
  Nb  Nb1  1  0.000544  0.999456  0.741463  1
  Nb  Nb2  1  0.333388  0.666612  0.407042  1
  Nb  Nb3  1  0.669121  0.330879  0.592369  1
  Nb  Nb4  1  0.666479  0.333521  0.902151  1
  Nb  Nb5  1  0.333139  0.666861  0.100810  1
  Ru  Ru6  1  0.502901  0.497099  0.251473  1
  Ru  Ru7  1  0.503490  0.008578  0.251594  1
  Ru  Ru8  1  0.991422  0.496510  0.251594  1
  Pt  Pt9  1  0.166183  0.332518  0.915760  1
  Pt  Pt10  1  0.667482  0.833817  0.915760  1
  Pt  Pt11  1  0.166036  0.833964  0.915639  1
  Pt  Pt12  1  0.833957  0.668966  0.084479  1
  Pt  Pt13  1  0.331034  0.166043  0.084479  1
  Pt  Pt14  1  0.833039  0.166961  0.084281  1
  Pt  Pt15  1  0.835001  0.669023  0.417570  1
  Pt  Pt16  1  0.330977  0.164999  0.417570  1
  Rh  Rh17  1  0.498803  0.501197  0.748586  1
  Rh  Rh18  1  0.498130  0.993828  0.748488  1
  Rh  Rh19  1  0.006172  0.501870  0.748488  1
  Rh  Rh20  1  0.835710  0.164290  0.416579  1
  Rh  Rh21  1  0.165541  0.330965  0.583149  1
  Rh  Rh22  1  0.669035  0.834459  0.583149  1
  Rh  Rh23  1  0.166602  0.833398  0.583624  1
