# generated using pymatgen
data_Tb16MgIn2AgRu4
_symmetry_space_group_name_H-M   'P 1'
_cell_length_a   9.68129972
_cell_length_b   9.68032878
_cell_length_c   9.68032892
_cell_angle_alpha   59.69998658
_cell_angle_beta   59.70818408
_cell_angle_gamma   59.70818551
_symmetry_Int_Tables_number   1
_chemical_formula_structural   Tb16MgIn2AgRu4
_chemical_formula_sum   'Tb16 Mg1 In2 Ag1 Ru4'
_cell_volume   637.21136940
_cell_formula_units_Z   1
loop_
 _symmetry_equiv_pos_site_id
 _symmetry_equiv_pos_as_xyz
  1  'x, y, z'
loop_
 _atom_site_type_symbol
 _atom_site_label
 _atom_site_symmetry_multiplicity
 _atom_site_fract_x
 _atom_site_fract_y
 _atom_site_fract_z
 _atom_site_occupancy
  Tb  Tb0  1  0.598293  0.596772  0.596772  1
  Tb  Tb1  1  0.596758  0.595307  0.211222  1
  Tb  Tb2  1  0.596758  0.211222  0.595307  1
  Tb  Tb3  1  0.206159  0.597125  0.597125  1
  Tb  Tb4  1  0.057463  0.441990  0.441990  1
  Tb  Tb5  1  0.436735  0.062825  0.062825  1
  Tb  Tb6  1  0.439441  0.060455  0.439024  1
  Tb  Tb7  1  0.058699  0.440103  0.059092  1
  Tb  Tb8  1  0.439441  0.439024  0.060455  1
  Tb  Tb9  1  0.058699  0.059092  0.440103  1
  Tb  Tb10  1  0.186885  0.809989  0.809989  1
  Tb  Tb11  1  0.811689  0.188564  0.188564  1
  Tb  Tb12  1  0.811176  0.185338  0.810243  1
  Tb  Tb13  1  0.189208  0.810763  0.188846  1
  Tb  Tb14  1  0.811176  0.810243  0.185338  1
  Tb  Tb15  1  0.189208  0.188846  0.810763  1
  Mg  Mg16  1  0.525126  0.826498  0.826498  1
  In  In17  1  0.831094  0.832399  0.506223  1
  In  In18  1  0.831094  0.506223  0.832399  1
  Ag  Ag19  1  0.830059  0.833743  0.833743  1
  Ru  Ru20  1  0.386620  0.389912  0.389912  1
  Ru  Ru21  1  0.388194  0.390751  0.832552  1
  Ru  Ru22  1  0.388194  0.832552  0.390751  1
  Ru  Ru23  1  0.831829  0.390263  0.390263  1
