# generated using pymatgen
data_Hf(Mn3P2)2
_symmetry_space_group_name_H-M   'P 1'
_cell_length_a   6.78866600
_cell_length_b   6.78866668
_cell_length_c   3.36350600
_cell_angle_alpha   90.00000000
_cell_angle_beta   90.00000000
_cell_angle_gamma   119.99999668
_symmetry_Int_Tables_number   1
_chemical_formula_structural   Hf(Mn3P2)2
_chemical_formula_sum   'Hf1 Mn6 P4'
_cell_volume   134.24304069
_cell_formula_units_Z   1
loop_
 _symmetry_equiv_pos_site_id
 _symmetry_equiv_pos_as_xyz
  1  'x, y, z'
loop_
 _atom_site_type_symbol
 _atom_site_label
 _atom_site_symmetry_multiplicity
 _atom_site_fract_x
 _atom_site_fract_y
 _atom_site_fract_z
 _atom_site_occupancy
  Hf  Hf0  1  0.000000  0.000000  0.000000  1
  Mn  Mn1  1  0.799219  0.598438  0.500000  1
  Mn  Mn2  1  0.401562  0.200781  0.500000  1
  Mn  Mn3  1  0.799219  0.200781  0.500000  1
  Mn  Mn4  1  0.464043  0.928085  0.000000  1
  Mn  Mn5  1  0.071915  0.535957  0.000000  1
  Mn  Mn6  1  0.464043  0.535957  0.000000  1
  P  P7  1  0.184087  0.368173  0.500000  1
  P  P8  1  0.631827  0.815913  0.500000  1
  P  P9  1  0.184087  0.815913  0.500000  1
  P  P10  1  0.666667  0.333333  0.000000  1
