# generated using pymatgen
data_Sc4Fe2Si3Ge
_symmetry_space_group_name_H-M   'P 1'
_cell_length_a   5.33702723
_cell_length_b   5.33702738
_cell_length_c   9.47876553
_cell_angle_alpha   63.76201318
_cell_angle_beta   63.76201458
_cell_angle_gamma   43.81207380
_symmetry_Int_Tables_number   1
_chemical_formula_structural   Sc4Fe2Si3Ge
_chemical_formula_sum   'Sc4 Fe2 Si3 Ge1'
_cell_volume   164.32948762
_cell_formula_units_Z   1
loop_
 _symmetry_equiv_pos_site_id
 _symmetry_equiv_pos_as_xyz
  1  'x, y, z'
loop_
 _atom_site_type_symbol
 _atom_site_label
 _atom_site_symmetry_multiplicity
 _atom_site_fract_x
 _atom_site_fract_y
 _atom_site_fract_z
 _atom_site_occupancy
  Sc  Sc0  1  0.813570  0.813570  0.111757  1
  Sc  Sc1  1  0.000685  0.000685  0.328627  1
  Sc  Sc2  1  0.184772  0.184772  0.891466  1
  Sc  Sc3  1  0.000341  0.000341  0.668444  1
  Fe  Fe4  1  0.732669  0.732669  0.622803  1
  Fe  Fe5  1  0.271275  0.271275  0.373200  1
  Si  Si6  1  0.354187  0.354187  0.565144  1
  Si  Si7  1  0.508073  0.508073  0.129115  1
  Si  Si8  1  0.646778  0.646778  0.434712  1
  Ge  Ge9  1  0.487651  0.487651  0.874732  1
