# generated using pymatgen
data_CaTbLu2(Ga2Ag)4
_symmetry_space_group_name_H-M   'P 1'
_cell_length_a   4.34698800
_cell_length_b   6.96168591
_cell_length_c   10.30773897
_cell_angle_alpha   89.66540039
_cell_angle_beta   90.00000000
_cell_angle_gamma   90.00000000
_symmetry_Int_Tables_number   1
_chemical_formula_structural   CaTbLu2(Ga2Ag)4
_chemical_formula_sum   'Ca1 Tb1 Lu2 Ga8 Ag4'
_cell_volume   311.93124131
_cell_formula_units_Z   1
loop_
 _symmetry_equiv_pos_site_id
 _symmetry_equiv_pos_as_xyz
  1  'x, y, z'
loop_
 _atom_site_type_symbol
 _atom_site_label
 _atom_site_symmetry_multiplicity
 _atom_site_fract_x
 _atom_site_fract_y
 _atom_site_fract_z
 _atom_site_occupancy
  Ca  Ca0  1  0.750000  0.224924  0.175670  1
  Tb  Tb1  1  0.250000  0.276469  0.675785  1
  Lu  Lu2  1  0.250000  0.776116  0.826585  1
  Lu  Lu3  1  0.750000  0.723271  0.325021  1
  Ga  Ga4  1  0.250000  0.924755  0.154153  1
  Ga  Ga5  1  0.750000  0.066204  0.842301  1
  Ga  Ga6  1  0.750000  0.575255  0.657394  1
  Ga  Ga7  1  0.250000  0.434775  0.347635  1
  Ga  Ga8  1  0.250000  0.705374  0.536496  1
  Ga  Ga9  1  0.750000  0.304966  0.466411  1
  Ga  Ga10  1  0.750000  0.796051  0.034831  1
  Ga  Ga11  1  0.250000  0.194384  0.964568  1
  Ag  Ag12  1  0.250000  0.545067  0.094211  1
  Ag  Ag13  1  0.750000  0.453868  0.902617  1
  Ag  Ag14  1  0.750000  0.953542  0.593531  1
  Ag  Ag15  1  0.250000  0.044978  0.402792  1
