# generated using pymatgen
data_BaTiPdS4
_symmetry_space_group_name_H-M   'P 1'
_cell_length_a   8.22810885
_cell_length_b   8.22810893
_cell_length_c   8.22810850
_cell_angle_alpha   121.70492520
_cell_angle_beta   121.70492317
_cell_angle_gamma   87.07150336
_symmetry_Int_Tables_number   1
_chemical_formula_structural   BaTiPdS4
_chemical_formula_sum   'Ba2 Ti2 Pd2 S8'
_cell_volume   383.20413579
_cell_formula_units_Z   2
loop_
 _symmetry_equiv_pos_site_id
 _symmetry_equiv_pos_as_xyz
  1  'x, y, z'
loop_
 _atom_site_type_symbol
 _atom_site_label
 _atom_site_symmetry_multiplicity
 _atom_site_fract_x
 _atom_site_fract_y
 _atom_site_fract_z
 _atom_site_occupancy
  Ba  Ba0  1  0.250000  0.250000  0.000000  1
  Ba  Ba1  1  0.750000  0.750000  0.000000  1
  Ti  Ti2  1  0.750000  0.250000  0.500000  1
  Ti  Ti3  1  0.250000  0.750000  0.500000  1
  Pd  Pd4  1  0.500000  0.000000  0.500000  1
  Pd  Pd5  1  0.000000  0.500000  0.500000  1
  S  S6  1  0.210751  0.710750  0.186645  1
  S  S7  1  0.475894  0.975894  0.186645  1
  S  S8  1  0.024105  0.210750  0.500000  1
  S  S9  1  0.289249  0.475895  0.500000  1
  S  S10  1  0.710750  0.524105  0.500000  1
  S  S11  1  0.975894  0.789249  0.500000  1
  S  S12  1  0.524105  0.024105  0.813354  1
  S  S13  1  0.789249  0.289249  0.813354  1
