# generated using pymatgen
data_DyYNb4C5
_symmetry_space_group_name_H-M   'P 1'
_cell_length_a   5.75536921
_cell_length_b   5.75536917
_cell_length_c   5.62762950
_cell_angle_alpha   81.89023415
_cell_angle_beta   81.89023620
_cell_angle_gamma   121.54448426
_symmetry_Int_Tables_number   1
_chemical_formula_structural   DyYNb4C5
_chemical_formula_sum   'Dy1 Y1 Nb4 C5'
_cell_volume   152.09129644
_cell_formula_units_Z   1
loop_
 _symmetry_equiv_pos_site_id
 _symmetry_equiv_pos_as_xyz
  1  'x, y, z'
loop_
 _atom_site_type_symbol
 _atom_site_label
 _atom_site_symmetry_multiplicity
 _atom_site_fract_x
 _atom_site_fract_y
 _atom_site_fract_z
 _atom_site_occupancy
  Dy  Dy0  1  0.761446  0.761446  0.758216  1
  Y  Y1  1  0.238647  0.238647  0.241712  1
  Nb  Nb2  1  0.101364  0.454670  0.740500  1
  Nb  Nb3  1  0.545115  0.898609  0.259406  1
  Nb  Nb4  1  0.898609  0.545115  0.259406  1
  Nb  Nb5  1  0.454670  0.101364  0.740500  1
  C  C6  1  0.500346  0.500346  0.500693  1
  C  C7  1  0.680895  0.319775  0.999689  1
  C  C8  1  0.319775  0.680895  0.999689  1
  C  C9  1  0.819212  0.179922  0.500094  1
  C  C10  1  0.179922  0.819212  0.500094  1
