# generated using pymatgen
data_TbHo2Cd3Sn2Pd
_symmetry_space_group_name_H-M   'P 1'
_cell_length_a   7.45931813
_cell_length_b   7.45931804
_cell_length_c   4.49668600
_cell_angle_alpha   90.00000000
_cell_angle_beta   90.00000000
_cell_angle_gamma   120.02115844
_symmetry_Int_Tables_number   1
_chemical_formula_structural   TbHo2Cd3Sn2Pd
_chemical_formula_sum   'Tb1 Ho2 Cd3 Sn2 Pd1'
_cell_volume   216.63509489
_cell_formula_units_Z   1
loop_
 _symmetry_equiv_pos_site_id
 _symmetry_equiv_pos_as_xyz
  1  'x, y, z'
loop_
 _atom_site_type_symbol
 _atom_site_label
 _atom_site_symmetry_multiplicity
 _atom_site_fract_x
 _atom_site_fract_y
 _atom_site_fract_z
 _atom_site_occupancy
  Tb  Tb0  1  0.401101  0.401101  0.000000  1
  Ho  Ho1  1  0.599161  0.000055  0.000000  1
  Ho  Ho2  1  0.000055  0.599161  0.000000  1
  Cd  Cd3  1  0.237027  0.999806  0.500000  1
  Cd  Cd4  1  0.999806  0.237027  0.500000  1
  Cd  Cd5  1  0.762960  0.762960  0.500000  1
  Sn  Sn6  1  0.333284  0.666873  0.500000  1
  Sn  Sn7  1  0.666873  0.333284  0.500000  1
  Pd  Pd8  1  0.999733  0.999733  0.000000  1
