# generated using pymatgen
data_Tm4MnCoB12
_symmetry_space_group_name_H-M   'P 1'
_cell_length_a   3.52705900
_cell_length_b   9.03100567
_cell_length_c   11.40998893
_cell_angle_alpha   90.34706217
_cell_angle_beta   90.00000000
_cell_angle_gamma   90.00000000
_symmetry_Int_Tables_number   1
_chemical_formula_structural   Tm4MnCoB12
_chemical_formula_sum   'Tm8 Mn2 Co2 B24'
_cell_volume   363.43445257
_cell_formula_units_Z   2
loop_
 _symmetry_equiv_pos_site_id
 _symmetry_equiv_pos_as_xyz
  1  'x, y, z'
loop_
 _atom_site_type_symbol
 _atom_site_label
 _atom_site_symmetry_multiplicity
 _atom_site_fract_x
 _atom_site_fract_y
 _atom_site_fract_z
 _atom_site_occupancy
  Tm  Tm0  1  0.000000  0.320845  0.412559  1
  Tm  Tm1  1  0.000000  0.679155  0.587441  1
  Tm  Tm2  1  0.000000  0.827089  0.082644  1
  Tm  Tm3  1  0.000000  0.172911  0.917356  1
  Tm  Tm4  1  0.000000  0.944312  0.369547  1
  Tm  Tm5  1  0.000000  0.055688  0.630453  1
  Tm  Tm6  1  0.000000  0.441521  0.129689  1
  Tm  Tm7  1  0.000000  0.558479  0.870311  1
  Mn  Mn8  1  0.000000  0.139918  0.180362  1
  Mn  Mn9  1  0.000000  0.860082  0.819638  1
  Co  Co10  1  0.000000  0.638359  0.320764  1
  Co  Co11  1  0.000000  0.361641  0.679236  1
  B  B12  1  0.500000  0.554142  0.433508  1
  B  B13  1  0.500000  0.445858  0.566492  1
  B  B14  1  0.500000  0.053646  0.067921  1
  B  B15  1  0.500000  0.946354  0.932079  1
  B  B16  1  0.500000  0.747125  0.418896  1
  B  B17  1  0.500000  0.252875  0.581104  1
  B  B18  1  0.500000  0.246484  0.082343  1
  B  B19  1  0.500000  0.753516  0.917657  1
  B  B20  1  0.500000  0.790620  0.264566  1
  B  B21  1  0.500000  0.209380  0.735434  1
  B  B22  1  0.500000  0.291261  0.234771  1
  B  B23  1  0.500000  0.708739  0.765229  1
  B  B24  1  0.500000  0.632583  0.184111  1
  B  B25  1  0.500000  0.367417  0.815889  1
  B  B26  1  0.500000  0.132276  0.314321  1
  B  B27  1  0.500000  0.867724  0.685679  1
  B  B28  1  0.500000  0.984898  0.211541  1
  B  B29  1  0.500000  0.015102  0.788459  1
  B  B30  1  0.500000  0.485584  0.288804  1
  B  B31  1  0.500000  0.514416  0.711196  1
  B  B32  1  0.500000  0.605599  0.029175  1
  B  B33  1  0.500000  0.394401  0.970825  1
  B  B34  1  0.500000  0.107076  0.471264  1
  B  B35  1  0.500000  0.892924  0.528736  1
