# generated using pymatgen
data_LuMn4ReP3
_symmetry_space_group_name_H-M   'P 1'
_cell_length_a   3.70168400
_cell_length_b   10.58290900
_cell_length_c   12.03967200
_cell_angle_alpha   90.00000000
_cell_angle_beta   90.00000000
_cell_angle_gamma   90.00000000
_symmetry_Int_Tables_number   1
_chemical_formula_structural   LuMn4ReP3
_chemical_formula_sum   'Lu4 Mn16 Re4 P12'
_cell_volume   471.64915316
_cell_formula_units_Z   4
loop_
 _symmetry_equiv_pos_site_id
 _symmetry_equiv_pos_as_xyz
  1  'x, y, z'
loop_
 _atom_site_type_symbol
 _atom_site_label
 _atom_site_symmetry_multiplicity
 _atom_site_fract_x
 _atom_site_fract_y
 _atom_site_fract_z
 _atom_site_occupancy
  Lu  Lu0  1  0.250000  0.586761  0.705507  1
  Lu  Lu1  1  0.250000  0.913239  0.205507  1
  Lu  Lu2  1  0.750000  0.413239  0.294493  1
  Lu  Lu3  1  0.750000  0.086761  0.794493  1
  Mn  Mn4  1  0.250000  0.412167  0.494773  1
  Mn  Mn5  1  0.250000  0.087833  0.994773  1
  Mn  Mn6  1  0.750000  0.587833  0.505227  1
  Mn  Mn7  1  0.750000  0.912167  0.005227  1
  Mn  Mn8  1  0.250000  0.210122  0.184192  1
  Mn  Mn9  1  0.250000  0.289878  0.684192  1
  Mn  Mn10  1  0.750000  0.789878  0.815808  1
  Mn  Mn11  1  0.750000  0.710122  0.315808  1
  Mn  Mn12  1  0.250000  0.884429  0.692319  1
  Mn  Mn13  1  0.250000  0.615571  0.192319  1
  Mn  Mn14  1  0.750000  0.115571  0.307681  1
  Mn  Mn15  1  0.750000  0.384429  0.807681  1
  Mn  Mn16  1  0.250000  0.465856  0.934780  1
  Mn  Mn17  1  0.250000  0.034144  0.434780  1
  Mn  Mn18  1  0.750000  0.534144  0.065220  1
  Mn  Mn19  1  0.750000  0.965856  0.565220  1
  Re  Re20  1  0.250000  0.711174  0.983689  1
  Re  Re21  1  0.250000  0.788826  0.483689  1
  Re  Re22  1  0.750000  0.288826  0.016311  1
  Re  Re23  1  0.750000  0.211174  0.516311  1
  P  P24  1  0.250000  0.410601  0.117997  1
  P  P25  1  0.250000  0.089399  0.617997  1
  P  P26  1  0.750000  0.589399  0.882003  1
  P  P27  1  0.750000  0.910601  0.382003  1
  P  P28  1  0.250000  0.261112  0.875640  1
  P  P29  1  0.250000  0.238888  0.375640  1
  P  P30  1  0.750000  0.738888  0.124360  1
  P  P31  1  0.750000  0.761112  0.624360  1
  P  P32  1  0.250000  0.591025  0.383698  1
  P  P33  1  0.250000  0.908975  0.883698  1
  P  P34  1  0.750000  0.408975  0.616302  1
  P  P35  1  0.750000  0.091025  0.116302  1
