# generated using pymatgen
data_TbTm7Hf12Si15P
_symmetry_space_group_name_H-M   'P 1'
_cell_length_a   7.23252917
_cell_length_b   7.23313585
_cell_length_c   13.29092093
_cell_angle_alpha   89.84350729
_cell_angle_beta   89.87317359
_cell_angle_gamma   90.01075137
_symmetry_Int_Tables_number   1
_chemical_formula_structural   TbTm7Hf12Si15P
_chemical_formula_sum   'Tb1 Tm7 Hf12 Si15 P1'
_cell_volume   695.29514685
_cell_formula_units_Z   1
loop_
 _symmetry_equiv_pos_site_id
 _symmetry_equiv_pos_as_xyz
  1  'x, y, z'
loop_
 _atom_site_type_symbol
 _atom_site_label
 _atom_site_symmetry_multiplicity
 _atom_site_fract_x
 _atom_site_fract_y
 _atom_site_fract_z
 _atom_site_occupancy
  Tb  Tb0  1  0.652537  0.007572  0.284912  1
  Tm  Tm1  1  0.998992  0.345354  0.215792  1
  Tm  Tm2  1  0.004536  0.655480  0.715071  1
  Tm  Tm3  1  0.155909  0.495528  0.464813  1
  Tm  Tm4  1  0.505471  0.843321  0.033991  1
  Tm  Tm5  1  0.844476  0.503714  0.965309  1
  Tm  Tm6  1  0.496146  0.154378  0.535309  1
  Tm  Tm7  1  0.345308  0.995851  0.784904  1
  Hf  Hf8  1  0.174795  0.175253  0.000090  1
  Hf  Hf9  1  0.826217  0.825402  0.500001  1
  Hf  Hf10  1  0.324151  0.674868  0.250500  1
  Hf  Hf11  1  0.675172  0.325269  0.750001  1
  Hf  Hf12  1  0.151594  0.999955  0.373594  1
  Hf  Hf13  1  0.852190  0.003051  0.875089  1
  Hf  Hf14  1  0.502891  0.647689  0.625224  1
  Hf  Hf15  1  0.352699  0.497408  0.875043  1
  Hf  Hf16  1  0.493902  0.349888  0.127087  1
  Hf  Hf17  1  0.646266  0.501344  0.375165  1
  Hf  Hf18  1  0.997957  0.148307  0.625310  1
  Hf  Hf19  1  0.000650  0.850292  0.124489  1
  Si  Si20  1  0.639833  0.705292  0.817764  1
  Si  Si21  1  0.204202  0.860418  0.567057  1
  Si  Si22  1  0.139312  0.794478  0.931528  1
  Si  Si23  1  0.794898  0.140847  0.068123  1
  Si  Si24  1  0.862082  0.205741  0.433005  1
  Si  Si25  1  0.295499  0.359845  0.681885  1
  Si  Si26  1  0.704389  0.637043  0.182315  1
  Si  Si27  1  0.294337  0.041931  0.181345  1
  Si  Si28  1  0.703563  0.951284  0.685654  1
  Si  Si29  1  0.450941  0.795941  0.436598  1
  Si  Si30  1  0.202896  0.548432  0.064156  1
  Si  Si31  1  0.548796  0.203283  0.936177  1
  Si  Si32  1  0.797331  0.451844  0.564252  1
  Si  Si33  1  0.048809  0.297282  0.814225  1
  Si  Si34  1  0.951984  0.703362  0.315175  1
  P  P35  1  0.359273  0.303056  0.319051  1
