# generated using pymatgen
data_Tb3P2Se
_symmetry_space_group_name_H-M   'P 1'
_cell_length_a   7.03128976
_cell_length_b   7.03128896
_cell_length_c   7.03128878
_cell_angle_alpha   146.59880000
_cell_angle_beta   131.93321075
_cell_angle_gamma   59.79468005
_symmetry_Int_Tables_number   1
_chemical_formula_structural   Tb3P2Se
_chemical_formula_sum   'Tb3 P2 Se1'
_cell_volume   141.08065964
_cell_formula_units_Z   1
loop_
 _symmetry_equiv_pos_site_id
 _symmetry_equiv_pos_as_xyz
  1  'x, y, z'
loop_
 _atom_site_type_symbol
 _atom_site_label
 _atom_site_symmetry_multiplicity
 _atom_site_fract_x
 _atom_site_fract_y
 _atom_site_fract_z
 _atom_site_occupancy
  Tb  Tb0  1  0.500000  0.000000  0.500000  1
  Tb  Tb1  1  0.177291  0.677291  0.500000  1
  Tb  Tb2  1  0.822709  0.322709  0.500000  1
  P  P3  1  0.664702  0.664702  0.000000  1
  P  P4  1  0.335298  0.335298  0.000000  1
  Se  Se5  1  0.000000  0.000000  0.000000  1
