# generated using pymatgen
data_K4Al11InTe20
_symmetry_space_group_name_H-M   'P 1'
_cell_length_a   10.92052317
_cell_length_b   10.91367449
_cell_length_c   10.98223562
_cell_angle_alpha   91.17893441
_cell_angle_beta   90.95501758
_cell_angle_gamma   90.44406168
_symmetry_Int_Tables_number   1
_chemical_formula_structural   K4Al11InTe20
_chemical_formula_sum   'K4 Al11 In1 Te20'
_cell_volume   1308.39443662
_cell_formula_units_Z   1
loop_
 _symmetry_equiv_pos_site_id
 _symmetry_equiv_pos_as_xyz
  1  'x, y, z'
loop_
 _atom_site_type_symbol
 _atom_site_label
 _atom_site_symmetry_multiplicity
 _atom_site_fract_x
 _atom_site_fract_y
 _atom_site_fract_z
 _atom_site_occupancy
  K  K0  1  0.254286  0.001977  0.748532  1
  K  K1  1  0.747720  0.251052  0.999317  1
  K  K2  1  0.999016  0.746979  0.248476  1
  K  K3  1  0.497606  0.499206  0.501484  1
  Al  Al4  1  0.571807  0.831849  0.890103  1
  Al  Al5  1  0.886853  0.573640  0.838987  1
  Al  Al6  1  0.167769  0.426626  0.112654  1
  Al  Al7  1  0.117348  0.168321  0.423693  1
  Al  Al8  1  0.426585  0.113932  0.166589  1
  Al  Al9  1  0.739044  0.160103  0.353798  1
  Al  Al10  1  0.351039  0.742739  0.157781  1
  Al  Al11  1  0.156328  0.353266  0.741955  1
  Al  Al12  1  0.258083  0.647523  0.843128  1
  Al  Al13  1  0.840407  0.260939  0.645841  1
  Al  Al14  1  0.645610  0.839441  0.256042  1
  In  In15  1  0.839838  0.882807  0.574207  1
  Te  Te16  1  0.186665  0.813592  0.999926  1
  Te  Te17  1  0.810262  0.999067  0.191688  1
  Te  Te18  1  0.183599  0.184212  0.181527  1
  Te  Te19  1  0.816966  0.816038  0.832826  1
  Te  Te20  1  0.998900  0.187360  0.808357  1
  Te  Te21  1  0.938816  0.496586  0.063112  1
  Te  Te22  1  0.080671  0.937846  0.490616  1
  Te  Te23  1  0.500065  0.060815  0.940542  1
  Te  Te24  1  0.735456  0.696519  0.422168  1
  Te  Te25  1  0.434474  0.736738  0.711561  1
  Te  Te26  1  0.710030  0.438504  0.738600  1
  Te  Te27  1  0.262993  0.566346  0.289240  1
  Te  Te28  1  0.290822  0.265723  0.566141  1
  Te  Te29  1  0.564076  0.293010  0.260534  1
  Te  Te30  1  0.675112  0.086292  0.577327  1
  Te  Te31  1  0.574687  0.679157  0.076412  1
  Te  Te32  1  0.074907  0.579414  0.685629  1
  Te  Te33  1  0.317371  0.421422  0.922111  1
  Te  Te34  1  0.922976  0.316996  0.422013  1
  Te  Te35  1  0.421809  0.923961  0.317086  1
