# generated using pymatgen
data_LiZn5(SnPt)4
_symmetry_space_group_name_H-M   'P 1'
_cell_length_a   4.38969900
_cell_length_b   4.38969838
_cell_length_c   15.68165700
_cell_angle_alpha   90.00000000
_cell_angle_beta   90.00000000
_cell_angle_gamma   119.99998206
_symmetry_Int_Tables_number   1
_chemical_formula_structural   LiZn5(SnPt)4
_chemical_formula_sum   'Li1 Zn5 Sn4 Pt4'
_cell_volume   261.69298626
_cell_formula_units_Z   1
loop_
 _symmetry_equiv_pos_site_id
 _symmetry_equiv_pos_as_xyz
  1  'x, y, z'
loop_
 _atom_site_type_symbol
 _atom_site_label
 _atom_site_symmetry_multiplicity
 _atom_site_fract_x
 _atom_site_fract_y
 _atom_site_fract_z
 _atom_site_occupancy
  Li  Li0  1  0.000000  0.000000  0.166853  1
  Zn  Zn1  1  0.000000  0.000000  0.831009  1
  Zn  Zn2  1  0.000000  0.000000  0.669404  1
  Zn  Zn3  1  0.000000  0.000000  0.326968  1
  Zn  Zn4  1  0.333333  0.666667  0.750447  1
  Zn  Zn5  1  0.666667  0.333333  0.248074  1
  Sn  Sn6  1  0.333333  0.666667  0.074119  1
  Sn  Sn7  1  0.666667  0.333333  0.930973  1
  Sn  Sn8  1  0.666667  0.333333  0.570571  1
  Sn  Sn9  1  0.333333  0.666667  0.429724  1
  Pt  Pt10  1  0.000000  0.000000  0.998559  1
  Pt  Pt11  1  0.000000  0.000000  0.499926  1
  Pt  Pt12  1  0.333333  0.666667  0.253872  1
  Pt  Pt13  1  0.666667  0.333333  0.749502  1
