# generated using pymatgen
data_Nd16Ni3Hg4Os
_symmetry_space_group_name_H-M   'P 1'
_cell_length_a   9.87662830
_cell_length_b   9.87662763
_cell_length_c   9.87662907
_cell_angle_alpha   59.60699076
_cell_angle_beta   59.60699352
_cell_angle_gamma   59.60699411
_symmetry_Int_Tables_number   1
_chemical_formula_structural   Nd16Ni3Hg4Os
_chemical_formula_sum   'Nd16 Ni3 Hg4 Os1'
_cell_volume   675.17211206
_cell_formula_units_Z   1
loop_
 _symmetry_equiv_pos_site_id
 _symmetry_equiv_pos_as_xyz
  1  'x, y, z'
loop_
 _atom_site_type_symbol
 _atom_site_label
 _atom_site_symmetry_multiplicity
 _atom_site_fract_x
 _atom_site_fract_y
 _atom_site_fract_z
 _atom_site_occupancy
  Nd  Nd0  1  0.598885  0.598885  0.598885  1
  Nd  Nd1  1  0.601066  0.601066  0.201878  1
  Nd  Nd2  1  0.601066  0.201878  0.601066  1
  Nd  Nd3  1  0.201878  0.601066  0.601066  1
  Nd  Nd4  1  0.061095  0.438474  0.438474  1
  Nd  Nd5  1  0.437913  0.058405  0.058405  1
  Nd  Nd6  1  0.438474  0.061095  0.438474  1
  Nd  Nd7  1  0.058405  0.437913  0.058405  1
  Nd  Nd8  1  0.438474  0.438474  0.061095  1
  Nd  Nd9  1  0.058405  0.058405  0.437913  1
  Nd  Nd10  1  0.188590  0.814483  0.814483  1
  Nd  Nd11  1  0.803079  0.190557  0.190557  1
  Nd  Nd12  1  0.814483  0.188590  0.814483  1
  Nd  Nd13  1  0.190557  0.803079  0.190557  1
  Nd  Nd14  1  0.814483  0.814483  0.188590  1
  Nd  Nd15  1  0.190557  0.190557  0.803079  1
  Ni  Ni16  1  0.393230  0.393230  0.824833  1
  Ni  Ni17  1  0.393230  0.824833  0.393230  1
  Ni  Ni18  1  0.824833  0.393230  0.393230  1
  Hg  Hg19  1  0.833656  0.833656  0.833656  1
  Hg  Hg20  1  0.832772  0.832772  0.499310  1
  Hg  Hg21  1  0.832772  0.499310  0.832772  1
  Hg  Hg22  1  0.499310  0.832772  0.832772  1
  Os  Os23  1  0.392786  0.392786  0.392786  1
