# generated using pymatgen
data_Lu7Zr4Sc5(CdIr)4
_symmetry_space_group_name_H-M   'P 1'
_cell_length_a   9.20468009
_cell_length_b   9.20468041
_cell_length_c   9.20736700
_cell_angle_alpha   59.99034808
_cell_angle_beta   59.99034693
_cell_angle_gamma   60.24273064
_symmetry_Int_Tables_number   1
_chemical_formula_structural   Lu7Zr4Sc5(CdIr)4
_chemical_formula_sum   'Lu7 Zr4 Sc5 Cd4 Ir4'
_cell_volume   552.54113519
_cell_formula_units_Z   1
loop_
 _symmetry_equiv_pos_site_id
 _symmetry_equiv_pos_as_xyz
  1  'x, y, z'
loop_
 _atom_site_type_symbol
 _atom_site_label
 _atom_site_symmetry_multiplicity
 _atom_site_fract_x
 _atom_site_fract_y
 _atom_site_fract_z
 _atom_site_occupancy
  Lu  Lu0  1  0.812284  0.812284  0.187716  1
  Lu  Lu1  1  0.943006  0.556394  0.559781  1
  Lu  Lu2  1  0.556394  0.943006  0.940819  1
  Lu  Lu3  1  0.556394  0.943006  0.559781  1
  Lu  Lu4  1  0.943006  0.556394  0.940819  1
  Lu  Lu5  1  0.557843  0.557843  0.942157  1
  Lu  Lu6  1  0.941385  0.941385  0.558615  1
  Zr  Zr7  1  0.351289  0.351289  0.352696  1
  Zr  Zr8  1  0.351289  0.351289  0.944725  1
  Zr  Zr9  1  0.349306  0.947533  0.351580  1
  Zr  Zr10  1  0.947533  0.349306  0.351580  1
  Sc  Sc11  1  0.811009  0.190025  0.188572  1
  Sc  Sc12  1  0.190025  0.811009  0.810395  1
  Sc  Sc13  1  0.190025  0.811009  0.188572  1
  Sc  Sc14  1  0.811009  0.190025  0.810395  1
  Sc  Sc15  1  0.187877  0.187877  0.812123  1
  Cd  Cd16  1  0.581041  0.581041  0.582751  1
  Cd  Cd17  1  0.581041  0.581041  0.255167  1
  Cd  Cd18  1  0.581702  0.255191  0.581553  1
  Cd  Cd19  1  0.255191  0.581702  0.581553  1
  Ir  Ir20  1  0.142989  0.142989  0.143358  1
  Ir  Ir21  1  0.142989  0.142989  0.570664  1
  Ir  Ir22  1  0.148315  0.567059  0.142313  1
  Ir  Ir23  1  0.567059  0.148315  0.142313  1
