# generated using pymatgen
data_Zr6Zn2Ir3RhN2
_symmetry_space_group_name_H-M   'P 1'
_cell_length_a   8.57013195
_cell_length_b   8.57013251
_cell_length_c   8.57143500
_cell_angle_alpha   59.99497628
_cell_angle_beta   59.99497409
_cell_angle_gamma   59.98373018
_symmetry_Int_Tables_number   1
_chemical_formula_structural   Zr6Zn2Ir3RhN2
_chemical_formula_sum   'Zr12 Zn4 Ir6 Rh2 N4'
_cell_volume   445.06882411
_cell_formula_units_Z   2
loop_
 _symmetry_equiv_pos_site_id
 _symmetry_equiv_pos_as_xyz
  1  'x, y, z'
loop_
 _atom_site_type_symbol
 _atom_site_label
 _atom_site_symmetry_multiplicity
 _atom_site_fract_x
 _atom_site_fract_y
 _atom_site_fract_z
 _atom_site_occupancy
  Zr  Zr0  1  0.808379  0.192108  0.192136  1
  Zr  Zr1  1  0.192108  0.808379  0.192136  1
  Zr  Zr2  1  0.807633  0.807633  0.192367  1
  Zr  Zr3  1  0.192108  0.808379  0.807377  1
  Zr  Zr4  1  0.808379  0.192108  0.807377  1
  Zr  Zr5  1  0.191825  0.191825  0.808175  1
  Zr  Zr6  1  0.442419  0.056434  0.058577  1
  Zr  Zr7  1  0.056434  0.442419  0.058577  1
  Zr  Zr8  1  0.442442  0.442442  0.057558  1
  Zr  Zr9  1  0.056434  0.442419  0.442571  1
  Zr  Zr10  1  0.442419  0.056434  0.442571  1
  Zr  Zr11  1  0.057417  0.057417  0.442583  1
  Zn  Zn12  1  0.624725  0.624725  0.125409  1
  Zn  Zn13  1  0.624725  0.624725  0.625141  1
  Zn  Zn14  1  0.126102  0.624405  0.624746  1
  Zn  Zn15  1  0.624405  0.126102  0.624746  1
  Ir  Ir16  1  0.755769  0.415180  0.414525  1
  Ir  Ir17  1  0.415180  0.755769  0.414525  1
  Ir  Ir18  1  0.835144  0.835144  0.494625  1
  Ir  Ir19  1  0.835144  0.835144  0.835088  1
  Ir  Ir20  1  0.494687  0.835137  0.835089  1
  Ir  Ir21  1  0.835137  0.494687  0.835089  1
  Rh  Rh22  1  0.415037  0.415037  0.755431  1
  Rh  Rh23  1  0.415037  0.415037  0.414493  1
  N  N24  1  0.125329  0.125329  0.624713  1
  N  N25  1  0.125329  0.125329  0.124630  1
  N  N26  1  0.624693  0.125562  0.124872  1
  N  N27  1  0.125562  0.624693  0.124872  1
