# generated using pymatgen
data_Ho2(LuTl)3
_symmetry_space_group_name_H-M   'P 1'
_cell_length_a   8.90561788
_cell_length_b   8.98636610
_cell_length_c   6.47792100
_cell_angle_alpha   90.00000000
_cell_angle_beta   90.00000000
_cell_angle_gamma   120.30038258
_symmetry_Int_Tables_number   1
_chemical_formula_structural   Ho2(LuTl)3
_chemical_formula_sum   'Ho4 Lu6 Tl6'
_cell_volume   447.60190168
_cell_formula_units_Z   2
loop_
 _symmetry_equiv_pos_site_id
 _symmetry_equiv_pos_as_xyz
  1  'x, y, z'
loop_
 _atom_site_type_symbol
 _atom_site_label
 _atom_site_symmetry_multiplicity
 _atom_site_fract_x
 _atom_site_fract_y
 _atom_site_fract_z
 _atom_site_occupancy
  Ho  Ho0  1  0.765625  0.765856  0.250000  1
  Ho  Ho1  1  0.765625  0.999769  0.750000  1
  Ho  Ho2  1  0.234375  0.234144  0.750000  1
  Ho  Ho3  1  0.234375  0.000231  0.250000  1
  Lu  Lu4  1  0.000000  0.763067  0.750000  1
  Lu  Lu5  1  0.000000  0.236933  0.250000  1
  Lu  Lu6  1  0.333341  0.666671  0.500000  1
  Lu  Lu7  1  0.666659  0.333329  0.000000  1
  Lu  Lu8  1  0.666659  0.333329  0.500000  1
  Lu  Lu9  1  0.333341  0.666671  0.000000  1
  Tl  Tl10  1  0.402076  0.998260  0.750000  1
  Tl  Tl11  1  0.402076  0.403816  0.250000  1
  Tl  Tl12  1  0.000000  0.599558  0.250000  1
  Tl  Tl13  1  0.000000  0.400442  0.750000  1
  Tl  Tl14  1  0.597924  0.596184  0.750000  1
  Tl  Tl15  1  0.597924  0.001740  0.250000  1
