# generated using pymatgen
data_Y3Tm9Co5Sn
_symmetry_space_group_name_H-M   'P 1'
_cell_length_a   8.21872672
_cell_length_b   8.21872633
_cell_length_c   8.20352304
_cell_angle_alpha   110.87489407
_cell_angle_beta   110.60106941
_cell_angle_gamma   107.04497851
_symmetry_Int_Tables_number   1
_chemical_formula_structural   Y3Tm9Co5Sn
_chemical_formula_sum   'Y3 Tm9 Co5 Sn1'
_cell_volume   425.56192660
_cell_formula_units_Z   1
loop_
 _symmetry_equiv_pos_site_id
 _symmetry_equiv_pos_as_xyz
  1  'x, y, z'
loop_
 _atom_site_type_symbol
 _atom_site_label
 _atom_site_symmetry_multiplicity
 _atom_site_fract_x
 _atom_site_fract_y
 _atom_site_fract_z
 _atom_site_occupancy
  Y  Y0  1  0.288828  0.187117  0.475945  1
  Y  Y1  1  0.711951  0.813739  0.525690  1
  Y  Y2  1  0.288670  0.812771  0.101441  1
  Tm  Tm3  1  0.711417  0.185916  0.897333  1
  Tm  Tm4  1  0.621293  0.313559  0.306165  1
  Tm  Tm5  1  0.379365  0.686890  0.693147  1
  Tm  Tm6  1  0.006257  0.313784  0.693147  1
  Tm  Tm7  1  0.992606  0.684872  0.306165  1
  Tm  Tm8  1  0.209640  0.403199  0.192014  1
  Tm  Tm9  1  0.788717  0.594788  0.806943  1
  Tm  Tm10  1  0.212156  0.018226  0.806943  1
  Tm  Tm11  1  0.788815  0.982375  0.192014  1
  Co  Co12  1  0.999315  0.375879  0.375194  1
  Co  Co13  1  0.999816  0.623803  0.623619  1
  Co  Co14  1  0.388193  0.888645  0.502677  1
  Co  Co15  1  0.614032  0.114484  0.502677  1
  Co  Co16  1  0.998907  0.999946  0.998853  1
  Sn  Sn17  1  0.500022  0.500007  0.000029  1
