# generated using pymatgen
data_Ho12Co4SnRu
_symmetry_space_group_name_H-M   'P 1'
_cell_length_a   8.26148081
_cell_length_b   8.26148158
_cell_length_c   8.26148068
_cell_angle_alpha   111.09629572
_cell_angle_beta   110.61190597
_cell_angle_gamma   106.73989649
_symmetry_Int_Tables_number   1
_chemical_formula_structural   Ho12Co4SnRu
_chemical_formula_sum   'Ho12 Co4 Sn1 Ru1'
_cell_volume   433.31855601
_cell_formula_units_Z   1
loop_
 _symmetry_equiv_pos_site_id
 _symmetry_equiv_pos_as_xyz
  1  'x, y, z'
loop_
 _atom_site_type_symbol
 _atom_site_label
 _atom_site_symmetry_multiplicity
 _atom_site_fract_x
 _atom_site_fract_y
 _atom_site_fract_z
 _atom_site_occupancy
  Ho  Ho0  1  0.410108  0.218133  0.191975  1
  Ho  Ho1  1  0.589892  0.781867  0.808025  1
  Ho  Ho2  1  0.026158  0.218133  0.808025  1
  Ho  Ho3  1  0.973842  0.781867  0.191975  1
  Ho  Ho4  1  0.182451  0.284192  0.466643  1
  Ho  Ho5  1  0.817549  0.715808  0.533357  1
  Ho  Ho6  1  0.182451  0.715808  0.898259  1
  Ho  Ho7  1  0.817549  0.284192  0.101741  1
  Ho  Ho8  1  0.316797  0.625792  0.308996  1
  Ho  Ho9  1  0.683203  0.374208  0.691004  1
  Ho  Ho10  1  0.316797  0.007801  0.691004  1
  Ho  Ho11  1  0.683203  0.992199  0.308996  1
  Co  Co12  1  0.368654  0.000000  0.368654  1
  Co  Co13  1  0.631346  0.000000  0.631346  1
  Co  Co14  1  0.112279  0.612279  0.500000  1
  Co  Co15  1  0.887721  0.387721  0.500000  1
  Sn  Sn16  1  0.500000  0.500000  0.000000  1
  Ru  Ru17  1  0.000000  0.000000  0.000000  1
