# generated using pymatgen
data_YLu3(MoOs3)2
_symmetry_space_group_name_H-M   'P 1'
_cell_length_a   5.43123500
_cell_length_b   5.43123433
_cell_length_c   8.55000700
_cell_angle_alpha   90.00000000
_cell_angle_beta   90.00000000
_cell_angle_gamma   119.99999798
_symmetry_Int_Tables_number   1
_chemical_formula_structural   YLu3(MoOs3)2
_chemical_formula_sum   'Y1 Lu3 Mo2 Os6'
_cell_volume   218.42092703
_cell_formula_units_Z   1
loop_
 _symmetry_equiv_pos_site_id
 _symmetry_equiv_pos_as_xyz
  1  'x, y, z'
loop_
 _atom_site_type_symbol
 _atom_site_label
 _atom_site_symmetry_multiplicity
 _atom_site_fract_x
 _atom_site_fract_y
 _atom_site_fract_z
 _atom_site_occupancy
  Y  Y0  1  0.333333  0.666667  0.065601  1
  Lu  Lu1  1  0.333333  0.666667  0.436330  1
  Lu  Lu2  1  0.666667  0.333333  0.564731  1
  Lu  Lu3  1  0.666667  0.333333  0.934635  1
  Mo  Mo4  1  0.000000  0.000000  0.499675  1
  Mo  Mo5  1  0.000000  0.000000  0.999606  1
  Os  Os6  1  0.826551  0.173449  0.251251  1
  Os  Os7  1  0.826551  0.653101  0.251251  1
  Os  Os8  1  0.346899  0.173449  0.251251  1
  Os  Os9  1  0.173134  0.826866  0.748557  1
  Os  Os10  1  0.173134  0.346268  0.748557  1
  Os  Os11  1  0.653732  0.826866  0.748557  1
