# generated using pymatgen
data_Cs2CrSn11O24
_symmetry_space_group_name_H-M   'P 1'
_cell_length_a   7.77158541
_cell_length_b   7.84768100
_cell_length_c   9.65689400
_cell_angle_alpha   101.98859044
_cell_angle_beta   102.08627333
_cell_angle_gamma   87.43811511
_symmetry_Int_Tables_number   1
_chemical_formula_structural   Cs2CrSn11O24
_chemical_formula_sum   'Cs2 Cr1 Sn11 O24'
_cell_volume   563.34667038
_cell_formula_units_Z   1
loop_
 _symmetry_equiv_pos_site_id
 _symmetry_equiv_pos_as_xyz
  1  'x, y, z'
loop_
 _atom_site_type_symbol
 _atom_site_label
 _atom_site_symmetry_multiplicity
 _atom_site_fract_x
 _atom_site_fract_y
 _atom_site_fract_z
 _atom_site_occupancy
  Cs  Cs0  1  0.000586  0.997946  0.208515  1
  Cs  Cs1  1  0.007742  0.002433  0.797035  1
  Cr  Cr2  1  0.487874  0.179610  0.944657  1
  Sn  Sn3  1  0.485111  0.185199  0.615360  1
  Sn  Sn4  1  0.487648  0.185462  0.275020  1
  Sn  Sn5  1  0.187883  0.507878  0.113383  1
  Sn  Sn6  1  0.183893  0.518824  0.450291  1
  Sn  Sn7  1  0.187336  0.507818  0.784883  1
  Sn  Sn8  1  0.810987  0.482105  0.213691  1
  Sn  Sn9  1  0.814456  0.483753  0.549795  1
  Sn  Sn10  1  0.809633  0.483460  0.882851  1
  Sn  Sn11  1  0.514252  0.821877  0.724625  1
  Sn  Sn12  1  0.510484  0.821205  0.053259  1
  Sn  Sn13  1  0.517084  0.817984  0.389197  1
  O  O14  1  0.362845  0.055766  0.064985  1
  O  O15  1  0.365466  0.053031  0.402511  1
  O  O16  1  0.366464  0.055810  0.741820  1
  O  O17  1  0.294032  0.376120  0.279353  1
  O  O18  1  0.300495  0.372269  0.945071  1
  O  O19  1  0.295767  0.379088  0.611260  1
  O  O20  1  0.050513  0.633314  0.277805  1
  O  O21  1  0.051104  0.634588  0.616804  1
  O  O22  1  0.050555  0.634549  0.947878  1
  O  O23  1  0.619969  0.296138  0.486377  1
  O  O24  1  0.620158  0.292755  0.822827  1
  O  O25  1  0.621446  0.291277  0.148230  1
  O  O26  1  0.375411  0.707594  0.180058  1
  O  O27  1  0.379273  0.707108  0.514742  1
  O  O28  1  0.373467  0.707162  0.845924  1
  O  O29  1  0.947910  0.359394  0.049867  1
  O  O30  1  0.948100  0.363660  0.384435  1
  O  O31  1  0.946346  0.361703  0.718804  1
  O  O32  1  0.703710  0.624338  0.721755  1
  O  O33  1  0.703592  0.626056  0.054726  1
  O  O34  1  0.703283  0.620601  0.386602  1
  O  O35  1  0.637153  0.953822  0.933057  1
  O  O36  1  0.638341  0.948663  0.263786  1
  O  O37  1  0.639630  0.949641  0.598765  1
