# generated using pymatgen
data_CaMnZn4(AsO4)4
_symmetry_space_group_name_H-M   'P 1'
_cell_length_a   8.99541493
_cell_length_b   5.36398596
_cell_length_c   9.18532151
_cell_angle_alpha   60.28176672
_cell_angle_beta   89.92992868
_cell_angle_gamma   90.09181839
_symmetry_Int_Tables_number   1
_chemical_formula_structural   CaMnZn4(AsO4)4
_chemical_formula_sum   'Ca1 Mn1 Zn4 As4 O16'
_cell_volume   384.90910747
_cell_formula_units_Z   1
loop_
 _symmetry_equiv_pos_site_id
 _symmetry_equiv_pos_as_xyz
  1  'x, y, z'
loop_
 _atom_site_type_symbol
 _atom_site_label
 _atom_site_symmetry_multiplicity
 _atom_site_fract_x
 _atom_site_fract_y
 _atom_site_fract_z
 _atom_site_occupancy
  Ca  Ca0  1  0.000000  0.500000  0.500000  1
  Mn  Mn1  1  0.500000  0.500000  0.000000  1
  Zn  Zn2  1  0.133324  0.456904  0.115365  1
  Zn  Zn3  1  0.632379  0.513202  0.389708  1
  Zn  Zn4  1  0.866676  0.543096  0.884635  1
  Zn  Zn5  1  0.367621  0.486798  0.610292  1
  As  As6  1  0.309812  0.841351  0.191377  1
  As  As7  1  0.794258  0.155414  0.295036  1
  As  As8  1  0.690188  0.158649  0.808623  1
  As  As9  1  0.205742  0.844586  0.704964  1
  O  O10  1  0.077511  0.687978  0.868361  1
  O  O11  1  0.571780  0.311382  0.636498  1
  O  O12  1  0.922489  0.312022  0.131639  1
  O  O13  1  0.428220  0.688618  0.363502  1
  O  O14  1  0.209442  0.202434  0.644901  1
  O  O15  1  0.702465  0.798524  0.870901  1
  O  O16  1  0.790558  0.797566  0.355099  1
  O  O17  1  0.297535  0.201476  0.129099  1
  O  O18  1  0.153452  0.797371  0.541970  1
  O  O19  1  0.630917  0.207492  0.968493  1
  O  O20  1  0.140284  0.659876  0.248586  1
  O  O21  1  0.625270  0.335434  0.239257  1
  O  O22  1  0.859716  0.340124  0.751414  1
  O  O23  1  0.374730  0.664566  0.760743  1
  O  O24  1  0.369083  0.792508  0.031507  1
  O  O25  1  0.846548  0.202629  0.458030  1
