# generated using pymatgen
data_TmLu2Ni9
_symmetry_space_group_name_H-M   'P 1'
_cell_length_a   4.92070237
_cell_length_b   4.92070182
_cell_length_c   8.51542259
_cell_angle_alpha   73.20615598
_cell_angle_beta   73.20615520
_cell_angle_gamma   60.00000039
_symmetry_Int_Tables_number   1
_chemical_formula_structural   TmLu2Ni9
_chemical_formula_sum   'Tm1 Lu2 Ni9'
_cell_volume   168.33210976
_cell_formula_units_Z   1
loop_
 _symmetry_equiv_pos_site_id
 _symmetry_equiv_pos_as_xyz
  1  'x, y, z'
loop_
 _atom_site_type_symbol
 _atom_site_label
 _atom_site_symmetry_multiplicity
 _atom_site_fract_x
 _atom_site_fract_y
 _atom_site_fract_z
 _atom_site_occupancy
  Tm  Tm0  1  0.000000  0.000000  0.000000  1
  Lu  Lu1  1  0.139280  0.139280  0.582161  1
  Lu  Lu2  1  0.860720  0.860720  0.417839  1
  Ni  Ni3  1  0.080501  0.583641  0.752217  1
  Ni  Ni4  1  0.583641  0.583641  0.752217  1
  Ni  Ni5  1  0.583641  0.080501  0.752217  1
  Ni  Ni6  1  0.919499  0.416359  0.247783  1
  Ni  Ni7  1  0.416359  0.416359  0.247783  1
  Ni  Ni8  1  0.416359  0.919499  0.247783  1
  Ni  Ni9  1  0.333281  0.333281  0.000157  1
  Ni  Ni10  1  0.666719  0.666719  0.999843  1
  Ni  Ni11  1  0.500000  0.500000  0.500000  1
