# generated using pymatgen
data_Er8Tl2PdRu
_symmetry_space_group_name_H-M   'P 1'
_cell_length_a   9.66990032
_cell_length_b   9.70169386
_cell_length_c   9.70169500
_cell_angle_alpha   60.34245922
_cell_angle_beta   60.10834341
_cell_angle_gamma   60.10834164
_symmetry_Int_Tables_number   1
_chemical_formula_structural   Er8Tl2PdRu
_chemical_formula_sum   'Er16 Tl4 Pd2 Ru2'
_cell_volume   646.28868866
_cell_formula_units_Z   2
loop_
 _symmetry_equiv_pos_site_id
 _symmetry_equiv_pos_as_xyz
  1  'x, y, z'
loop_
 _atom_site_type_symbol
 _atom_site_label
 _atom_site_symmetry_multiplicity
 _atom_site_fract_x
 _atom_site_fract_y
 _atom_site_fract_z
 _atom_site_occupancy
  Er  Er0  1  0.061775  0.059067  0.434561  1
  Er  Er1  1  0.651698  0.056675  0.639930  1
  Er  Er2  1  0.181206  0.810626  0.195545  1
  Er  Er3  1  0.444596  0.059067  0.434561  1
  Er  Er4  1  0.181206  0.195545  0.810626  1
  Er  Er5  1  0.657441  0.648621  0.648621  1
  Er  Er6  1  0.045318  0.648621  0.648621  1
  Er  Er7  1  0.438877  0.061123  0.061123  1
  Er  Er8  1  0.651698  0.639930  0.056675  1
  Er  Er9  1  0.188946  0.811054  0.811054  1
  Er  Er10  1  0.812624  0.195545  0.810626  1
  Er  Er11  1  0.812676  0.187324  0.187324  1
  Er  Er12  1  0.812624  0.810626  0.195545  1
  Er  Er13  1  0.061134  0.438866  0.438866  1
  Er  Er14  1  0.444596  0.434561  0.059067  1
  Er  Er15  1  0.061775  0.434561  0.059067  1
  Tl  Tl16  1  0.759304  0.414004  0.414004  1
  Tl  Tl17  1  0.413063  0.415567  0.758309  1
  Tl  Tl18  1  0.413063  0.758309  0.415567  1
  Tl  Tl19  1  0.412688  0.414004  0.414004  1
  Pd  Pd20  1  0.852786  0.858752  0.858752  1
  Pd  Pd21  1  0.429710  0.858752  0.858752  1
  Ru  Ru22  1  0.855599  0.861001  0.427802  1
  Ru  Ru23  1  0.855599  0.427802  0.861001  1
