# generated using pymatgen
data_Cr(GaO2)3
_symmetry_space_group_name_H-M   'P 1'
_cell_length_a   6.43240132
_cell_length_b   6.43240171
_cell_length_c   5.87382095
_cell_angle_alpha   77.03505193
_cell_angle_beta   77.03505021
_cell_angle_gamma   27.77687554
_symmetry_Int_Tables_number   1
_chemical_formula_structural   Cr(GaO2)3
_chemical_formula_sum   'Cr1 Ga3 O6'
_cell_volume   110.19473972
_cell_formula_units_Z   1
loop_
 _symmetry_equiv_pos_site_id
 _symmetry_equiv_pos_as_xyz
  1  'x, y, z'
loop_
 _atom_site_type_symbol
 _atom_site_label
 _atom_site_symmetry_multiplicity
 _atom_site_fract_x
 _atom_site_fract_y
 _atom_site_fract_z
 _atom_site_occupancy
  Cr  Cr0  1  0.659469  0.659469  0.678685  1
  Ga  Ga1  1  0.342553  0.342553  0.312828  1
  Ga  Ga2  1  0.089525  0.089525  0.204278  1
  Ga  Ga3  1  0.909633  0.909633  0.796340  1
  O  O4  1  0.494364  0.494364  0.746729  1
  O  O5  1  0.504134  0.504134  0.257641  1
  O  O6  1  0.173555  0.173555  0.435908  1
  O  O7  1  0.826973  0.826973  0.564019  1
  O  O8  1  0.836040  0.836040  0.110388  1
  O  O9  1  0.163754  0.163754  0.893184  1
