# generated using pymatgen
data_Ta12Ir3Os
_symmetry_space_group_name_H-M   'P 1'
_cell_length_a   5.17802700
_cell_length_b   5.18067800
_cell_length_c   10.35636800
_cell_angle_alpha   90.00000000
_cell_angle_beta   90.00000000
_cell_angle_gamma   90.00000000
_symmetry_Int_Tables_number   1
_chemical_formula_structural   Ta12Ir3Os
_chemical_formula_sum   'Ta12 Ir3 Os1'
_cell_volume   277.81672332
_cell_formula_units_Z   1
loop_
 _symmetry_equiv_pos_site_id
 _symmetry_equiv_pos_as_xyz
  1  'x, y, z'
loop_
 _atom_site_type_symbol
 _atom_site_label
 _atom_site_symmetry_multiplicity
 _atom_site_fract_x
 _atom_site_fract_y
 _atom_site_fract_z
 _atom_site_occupancy
  Ta  Ta0  1  0.000000  0.500000  0.374977  1
  Ta  Ta1  1  0.000000  0.500000  0.875511  1
  Ta  Ta2  1  0.500000  0.250068  0.000000  1
  Ta  Ta3  1  0.500000  0.248820  0.500000  1
  Ta  Ta4  1  0.750611  0.000000  0.251472  1
  Ta  Ta5  1  0.750611  0.000000  0.748528  1
  Ta  Ta6  1  0.000000  0.500000  0.124489  1
  Ta  Ta7  1  0.000000  0.500000  0.625023  1
  Ta  Ta8  1  0.500000  0.749932  0.000000  1
  Ta  Ta9  1  0.500000  0.751180  0.500000  1
  Ta  Ta10  1  0.249389  0.000000  0.251472  1
  Ta  Ta11  1  0.249389  0.000000  0.748528  1
  Ir  Ir12  1  0.500000  0.500000  0.248739  1
  Ir  Ir13  1  0.500000  0.500000  0.751261  1
  Ir  Ir14  1  0.000000  0.000000  0.000000  1
  Os  Os15  1  0.000000  0.000000  0.500000  1
