# generated using pymatgen
data_Tb12In2CoCuTc2
_symmetry_space_group_name_H-M   'P 1'
_cell_length_a   8.50927020
_cell_length_b   8.50926933
_cell_length_c   8.50926960
_cell_angle_alpha   113.62458880
_cell_angle_beta   110.74153796
_cell_angle_gamma   104.18803472
_symmetry_Int_Tables_number   1
_chemical_formula_structural   Tb12In2CoCuTc2
_chemical_formula_sum   'Tb12 In2 Co1 Cu1 Tc2'
_cell_volume   470.98474043
_cell_formula_units_Z   1
loop_
 _symmetry_equiv_pos_site_id
 _symmetry_equiv_pos_as_xyz
  1  'x, y, z'
loop_
 _atom_site_type_symbol
 _atom_site_label
 _atom_site_symmetry_multiplicity
 _atom_site_fract_x
 _atom_site_fract_y
 _atom_site_fract_z
 _atom_site_occupancy
  Tb  Tb0  1  0.438844  0.240419  0.198425  1
  Tb  Tb1  1  0.562166  0.758642  0.803524  1
  Tb  Tb2  1  0.041993  0.240419  0.801575  1
  Tb  Tb3  1  0.955118  0.758642  0.196476  1
  Tb  Tb4  1  0.180487  0.280303  0.468859  1
  Tb  Tb5  1  0.811445  0.711629  0.531141  1
  Tb  Tb6  1  0.180487  0.711629  0.900184  1
  Tb  Tb7  1  0.811445  0.280303  0.099816  1
  Tb  Tb8  1  0.337085  0.651542  0.314457  1
  Tb  Tb9  1  0.674823  0.356900  0.682077  1
  Tb  Tb10  1  0.337085  0.022628  0.685543  1
  Tb  Tb11  1  0.674823  0.992745  0.317923  1
  In  In12  1  0.498454  0.498454  0.000000  1
  In  In13  1  0.000834  0.000834  0.000000  1
  Co  Co14  1  0.885157  0.385157  0.500000  1
  Cu  Cu15  1  0.115648  0.615648  0.500000  1
  Tc  Tc16  1  0.321482  0.997054  0.324429  1
  Tc  Tc17  1  0.672625  0.997054  0.675571  1
