# generated using pymatgen
data_Ce8Si13Ge
_symmetry_space_group_name_H-M   'P 1'
_cell_length_a   7.92984521
_cell_length_b   7.90619540
_cell_length_c   8.50492900
_cell_angle_alpha   90.00000000
_cell_angle_beta   90.00000000
_cell_angle_gamma   119.94449784
_symmetry_Int_Tables_number   1
_chemical_formula_structural   Ce8Si13Ge
_chemical_formula_sum   'Ce8 Si13 Ge1'
_cell_volume   462.03640586
_cell_formula_units_Z   1
loop_
 _symmetry_equiv_pos_site_id
 _symmetry_equiv_pos_as_xyz
  1  'x, y, z'
loop_
 _atom_site_type_symbol
 _atom_site_label
 _atom_site_symmetry_multiplicity
 _atom_site_fract_x
 _atom_site_fract_y
 _atom_site_fract_z
 _atom_site_occupancy
  Ce  Ce0  1  0.258922  0.256703  0.997753  1
  Ce  Ce1  1  0.743612  0.744277  0.999997  1
  Ce  Ce2  1  0.743612  0.744277  0.500003  1
  Ce  Ce3  1  0.258922  0.256703  0.502247  1
  Ce  Ce4  1  0.251951  0.749023  0.496919  1
  Ce  Ce5  1  0.746294  0.251705  0.505817  1
  Ce  Ce6  1  0.746294  0.251705  0.994183  1
  Ce  Ce7  1  0.251951  0.749023  0.003081  1
  Si  Si8  1  0.936284  0.621190  0.750000  1
  Si  Si9  1  0.584432  0.416371  0.250000  1
  Si  Si10  1  0.415484  0.584257  0.750000  1
  Si  Si11  1  0.413710  0.591165  0.250000  1
  Si  Si12  1  0.589575  0.412918  0.750000  1
  Si  Si13  1  0.064946  0.937800  0.250000  1
  Si  Si14  1  0.935087  0.065489  0.750000  1
  Si  Si15  1  0.623103  0.938632  0.250000  1
  Si  Si16  1  0.381330  0.064833  0.750000  1
  Si  Si17  1  0.927307  0.591461  0.250000  1
  Si  Si18  1  0.072284  0.411409  0.750000  1
  Si  Si19  1  0.411131  0.072643  0.250000  1
  Si  Si20  1  0.589359  0.927518  0.750000  1
  Ge  Ge21  1  0.054408  0.360898  0.250000  1
