# generated using pymatgen
data_Ce2Er(HgPd)3
_symmetry_space_group_name_H-M   'P 1'
_cell_length_a   7.81215658
_cell_length_b   7.81215607
_cell_length_c   3.81827100
_cell_angle_alpha   90.00000000
_cell_angle_beta   90.00000000
_cell_angle_gamma   119.73508291
_symmetry_Int_Tables_number   1
_chemical_formula_structural   Ce2Er(HgPd)3
_chemical_formula_sum   'Ce2 Er1 Hg3 Pd3'
_cell_volume   202.34496080
_cell_formula_units_Z   1
loop_
 _symmetry_equiv_pos_site_id
 _symmetry_equiv_pos_as_xyz
  1  'x, y, z'
loop_
 _atom_site_type_symbol
 _atom_site_label
 _atom_site_symmetry_multiplicity
 _atom_site_fract_x
 _atom_site_fract_y
 _atom_site_fract_z
 _atom_site_occupancy
  Ce  Ce0  1  0.602271  0.001445  0.500000  1
  Ce  Ce1  1  0.001445  0.602271  0.500000  1
  Er  Er2  1  0.396038  0.396038  0.500000  1
  Hg  Hg3  1  0.725101  0.725101  0.000000  1
  Hg  Hg4  1  0.268704  0.008696  0.000000  1
  Hg  Hg5  1  0.008696  0.268704  0.000000  1
  Pd  Pd6  1  0.670082  0.332593  0.000000  1
  Pd  Pd7  1  0.332593  0.670082  0.000000  1
  Pd  Pd8  1  0.995069  0.995069  0.500000  1
