# generated using pymatgen
data_Zr9In14Co6Os
_symmetry_space_group_name_H-M   'P 1'
_cell_length_a   9.44024030
_cell_length_b   9.44024120
_cell_length_c   9.44024100
_cell_angle_alpha   60.00000422
_cell_angle_beta   60.00000104
_cell_angle_gamma   60.00000185
_symmetry_Int_Tables_number   1
_chemical_formula_structural   Zr9In14Co6Os
_chemical_formula_sum   'Zr9 In14 Co6 Os1'
_cell_volume   594.88668322
_cell_formula_units_Z   1
loop_
 _symmetry_equiv_pos_site_id
 _symmetry_equiv_pos_as_xyz
  1  'x, y, z'
loop_
 _atom_site_type_symbol
 _atom_site_label
 _atom_site_symmetry_multiplicity
 _atom_site_fract_x
 _atom_site_fract_y
 _atom_site_fract_z
 _atom_site_occupancy
  Zr  Zr0  1  0.122440  0.632682  0.122440  1
  Zr  Zr1  1  0.367318  0.877560  0.877560  1
  Zr  Zr2  1  0.877560  0.877560  0.877560  1
  Zr  Zr3  1  0.632682  0.122440  0.122440  1
  Zr  Zr4  1  0.500000  0.500000  0.500000  1
  Zr  Zr5  1  0.877560  0.877560  0.367318  1
  Zr  Zr6  1  0.122440  0.122440  0.122440  1
  Zr  Zr7  1  0.877560  0.367318  0.877560  1
  Zr  Zr8  1  0.122440  0.122440  0.632682  1
  In  In9  1  0.500000  0.841634  0.158366  1
  In  In10  1  0.500000  0.841634  0.500000  1
  In  In11  1  0.500000  0.158366  0.500000  1
  In  In12  1  0.500000  0.500000  0.841634  1
  In  In13  1  0.158366  0.500000  0.500000  1
  In  In14  1  0.841634  0.158366  0.500000  1
  In  In15  1  0.158366  0.841634  0.500000  1
  In  In16  1  0.500000  0.158366  0.841634  1
  In  In17  1  0.158366  0.500000  0.841634  1
  In  In18  1  0.500000  0.500000  0.158366  1
  In  In19  1  0.841634  0.500000  0.500000  1
  In  In20  1  0.841634  0.500000  0.158366  1
  In  In21  1  0.250000  0.250000  0.250000  1
  In  In22  1  0.750000  0.750000  0.750000  1
  Co  Co23  1  0.778482  0.778482  0.221518  1
  Co  Co24  1  0.221518  0.778482  0.221518  1
  Co  Co25  1  0.221518  0.778482  0.778482  1
  Co  Co26  1  0.221518  0.221518  0.778482  1
  Co  Co27  1  0.778482  0.221518  0.778482  1
  Co  Co28  1  0.778482  0.221518  0.221518  1
  Os  Os29  1  0.000000  0.000000  0.000000  1
