# generated using pymatgen
data_YbCo2(Sb6Ru)2
_symmetry_space_group_name_H-M   'P 1'
_cell_length_a   8.05471788
_cell_length_b   8.05471789
_cell_length_c   7.99129404
_cell_angle_alpha   109.52331396
_cell_angle_beta   109.46607000
_cell_angle_gamma   109.74391458
_symmetry_Int_Tables_number   1
_chemical_formula_structural   YbCo2(Sb6Ru)2
_chemical_formula_sum   'Yb1 Co2 Sb12 Ru2'
_cell_volume   397.52886774
_cell_formula_units_Z   1
loop_
 _symmetry_equiv_pos_site_id
 _symmetry_equiv_pos_as_xyz
  1  'x, y, z'
loop_
 _atom_site_type_symbol
 _atom_site_label
 _atom_site_symmetry_multiplicity
 _atom_site_fract_x
 _atom_site_fract_y
 _atom_site_fract_z
 _atom_site_occupancy
  Yb  Yb0  1  0.000000  0.000000  0.000000  1
  Co  Co1  1  0.500000  0.000000  0.000000  1
  Co  Co2  1  0.000000  0.500000  0.000000  1
  Sb  Sb3  1  0.842590  0.660283  0.502873  1
  Sb  Sb4  1  0.157410  0.339717  0.497127  1
  Sb  Sb5  1  0.160250  0.665580  0.825831  1
  Sb  Sb6  1  0.839750  0.334420  0.174169  1
  Sb  Sb7  1  0.667875  0.503806  0.845986  1
  Sb  Sb8  1  0.332125  0.496194  0.154014  1
  Sb  Sb9  1  0.657819  0.821889  0.154014  1
  Sb  Sb10  1  0.342181  0.178111  0.845986  1
  Sb  Sb11  1  0.504111  0.845048  0.667113  1
  Sb  Sb12  1  0.495889  0.154952  0.332887  1
  Sb  Sb13  1  0.177934  0.836999  0.332887  1
  Sb  Sb14  1  0.822066  0.163001  0.667113  1
  Ru  Ru15  1  0.500000  0.500000  0.500000  1
  Ru  Ru16  1  0.000000  0.000000  0.500000  1
