# generated using pymatgen
data_Ho2TmAl12AgOs3
_symmetry_space_group_name_H-M   'P 1'
_cell_length_a   8.87525252
_cell_length_b   8.87525388
_cell_length_c   9.52815200
_cell_angle_alpha   90.00000000
_cell_angle_beta   90.00000000
_cell_angle_gamma   119.61684051
_symmetry_Int_Tables_number   1
_chemical_formula_structural   Ho2TmAl12AgOs3
_chemical_formula_sum   'Ho4 Tm2 Al24 Ag2 Os6'
_cell_volume   652.47622909
_cell_formula_units_Z   2
loop_
 _symmetry_equiv_pos_site_id
 _symmetry_equiv_pos_as_xyz
  1  'x, y, z'
loop_
 _atom_site_type_symbol
 _atom_site_label
 _atom_site_symmetry_multiplicity
 _atom_site_fract_x
 _atom_site_fract_y
 _atom_site_fract_z
 _atom_site_occupancy
  Ho  Ho0  1  0.183534  0.384968  0.250000  1
  Ho  Ho1  1  0.816466  0.615032  0.750000  1
  Ho  Ho2  1  0.615032  0.816466  0.250000  1
  Ho  Ho3  1  0.384968  0.183534  0.750000  1
  Tm  Tm4  1  0.194562  0.805438  0.250000  1
  Tm  Tm5  1  0.805438  0.194562  0.750000  1
  Al  Al6  1  0.328429  0.671571  0.026235  1
  Al  Al7  1  0.671571  0.328429  0.973765  1
  Al  Al8  1  0.671571  0.328429  0.526235  1
  Al  Al9  1  0.328429  0.671571  0.473765  1
  Al  Al10  1  0.150773  0.321721  0.578715  1
  Al  Al11  1  0.849227  0.678279  0.421285  1
  Al  Al12  1  0.678279  0.849227  0.578715  1
  Al  Al13  1  0.849227  0.678279  0.078715  1
  Al  Al14  1  0.321721  0.150773  0.421285  1
  Al  Al15  1  0.150773  0.321721  0.921285  1
  Al  Al16  1  0.164303  0.835697  0.575584  1
  Al  Al17  1  0.321721  0.150773  0.078715  1
  Al  Al18  1  0.835697  0.164303  0.424416  1
  Al  Al19  1  0.678279  0.849227  0.921285  1
  Al  Al20  1  0.835697  0.164303  0.075584  1
  Al  Al21  1  0.164303  0.835697  0.924416  1
  Al  Al22  1  0.560177  0.123359  0.250000  1
  Al  Al23  1  0.439823  0.876641  0.750000  1
  Al  Al24  1  0.876641  0.439823  0.250000  1
  Al  Al25  1  0.123359  0.560177  0.750000  1
  Al  Al26  1  0.564259  0.435741  0.250000  1
  Al  Al27  1  0.435741  0.564259  0.750000  1
  Al  Al28  1  0.998530  0.001470  0.250000  1
  Al  Al29  1  0.001470  0.998530  0.750000  1
  Ag  Ag30  1  0.500000  0.500000  0.000000  1
  Ag  Ag31  1  0.500000  0.500000  0.500000  1
  Os  Os32  1  0.500000  0.000000  0.000000  1
  Os  Os33  1  0.000000  0.500000  0.000000  1
  Os  Os34  1  0.500000  0.000000  0.500000  1
  Os  Os35  1  0.000000  0.500000  0.500000  1
  Os  Os36  1  0.000000  0.000000  0.000000  1
  Os  Os37  1  0.000000  0.000000  0.500000  1
