# generated using pymatgen
data_Hf6Zn15Cu8Si
_symmetry_space_group_name_H-M   'P 1'
_cell_length_a   8.57809509
_cell_length_b   8.57809513
_cell_length_c   8.57809500
_cell_angle_alpha   59.99999666
_cell_angle_beta   59.99999649
_cell_angle_gamma   59.99999560
_symmetry_Int_Tables_number   1
_chemical_formula_structural   Hf6Zn15Cu8Si
_chemical_formula_sum   'Hf6 Zn15 Cu8 Si1'
_cell_volume   446.33149277
_cell_formula_units_Z   1
loop_
 _symmetry_equiv_pos_site_id
 _symmetry_equiv_pos_as_xyz
  1  'x, y, z'
loop_
 _atom_site_type_symbol
 _atom_site_label
 _atom_site_symmetry_multiplicity
 _atom_site_fract_x
 _atom_site_fract_y
 _atom_site_fract_z
 _atom_site_occupancy
  Hf  Hf0  1  0.717656  0.282344  0.282344  1
  Hf  Hf1  1  0.282344  0.717656  0.717656  1
  Hf  Hf2  1  0.282344  0.717656  0.282344  1
  Hf  Hf3  1  0.717656  0.282344  0.717656  1
  Hf  Hf4  1  0.282344  0.282344  0.717656  1
  Hf  Hf5  1  0.717656  0.717656  0.282344  1
  Zn  Zn6  1  0.500000  0.000000  0.000000  1
  Zn  Zn7  1  0.000000  0.500000  0.500000  1
  Zn  Zn8  1  0.000000  0.500000  0.000000  1
  Zn  Zn9  1  0.500000  0.000000  0.500000  1
  Zn  Zn10  1  0.000000  0.000000  0.500000  1
  Zn  Zn11  1  0.500000  0.500000  0.000000  1
  Zn  Zn12  1  0.332972  0.332972  0.332972  1
  Zn  Zn13  1  0.667028  0.667028  0.667028  1
  Zn  Zn14  1  0.332972  0.332972  0.001085  1
  Zn  Zn15  1  0.332972  0.001085  0.332972  1
  Zn  Zn16  1  0.667028  0.667028  0.998915  1
  Zn  Zn17  1  0.667028  0.998915  0.667028  1
  Zn  Zn18  1  0.001085  0.332972  0.332972  1
  Zn  Zn19  1  0.998915  0.667028  0.667028  1
  Zn  Zn20  1  0.000000  0.000000  0.000000  1
  Cu  Cu21  1  0.119713  0.119713  0.119713  1
  Cu  Cu22  1  0.880287  0.880287  0.880287  1
  Cu  Cu23  1  0.119713  0.119713  0.640863  1
  Cu  Cu24  1  0.119713  0.640863  0.119713  1
  Cu  Cu25  1  0.880287  0.880287  0.359137  1
  Cu  Cu26  1  0.880287  0.359137  0.880287  1
  Cu  Cu27  1  0.640863  0.119713  0.119713  1
  Cu  Cu28  1  0.359137  0.880287  0.880287  1
  Si  Si29  1  0.500000  0.500000  0.500000  1
