# generated using pymatgen
data_Sc4Zn2AgIr
_symmetry_space_group_name_H-M   'P 1'
_cell_length_a   6.74642860
_cell_length_b   6.62288400
_cell_length_c   6.74505560
_cell_angle_alpha   90.00000000
_cell_angle_beta   89.89934208
_cell_angle_gamma   90.00000000
_symmetry_Int_Tables_number   1
_chemical_formula_structural   Sc4Zn2AgIr
_chemical_formula_sum   'Sc8 Zn4 Ag2 Ir2'
_cell_volume   301.37411004
_cell_formula_units_Z   2
loop_
 _symmetry_equiv_pos_site_id
 _symmetry_equiv_pos_as_xyz
  1  'x, y, z'
loop_
 _atom_site_type_symbol
 _atom_site_label
 _atom_site_symmetry_multiplicity
 _atom_site_fract_x
 _atom_site_fract_y
 _atom_site_fract_z
 _atom_site_occupancy
  Sc  Sc0  1  0.236800  0.000241  0.263200  1
  Sc  Sc1  1  0.236800  0.499757  0.263200  1
  Sc  Sc2  1  0.763233  0.500242  0.263235  1
  Sc  Sc3  1  0.763233  0.999757  0.263235  1
  Sc  Sc4  1  0.236767  0.000242  0.736764  1
  Sc  Sc5  1  0.236767  0.499756  0.736764  1
  Sc  Sc6  1  0.763200  0.500241  0.736801  1
  Sc  Sc7  1  0.763200  0.999758  0.736801  1
  Zn  Zn8  1  0.999466  0.249999  0.000001  1
  Zn  Zn9  1  0.000534  0.750000  0.999999  1
  Zn  Zn10  1  0.499422  0.750000  0.499996  1
  Zn  Zn11  1  0.500578  0.249999  0.500003  1
  Ag  Ag12  1  0.500328  0.249999  0.000001  1
  Ag  Ag13  1  0.499672  0.750000  0.999999  1
  Ir  Ir14  1  0.999616  0.249999  0.500003  1
  Ir  Ir15  1  0.000384  0.750000  0.499997  1
