# generated using pymatgen
data_LiErH6PtRh
_symmetry_space_group_name_H-M   'P 1'
_cell_length_a   5.09032259
_cell_length_b   5.09031056
_cell_length_c   5.09031200
_cell_angle_alpha   120.00136615
_cell_angle_beta   120.00000393
_cell_angle_gamma   90.00127533
_symmetry_Int_Tables_number   1
_chemical_formula_structural   LiErH6PtRh
_chemical_formula_sum   'Li1 Er1 H6 Pt1 Rh1'
_cell_volume   93.26209377
_cell_formula_units_Z   1
loop_
 _symmetry_equiv_pos_site_id
 _symmetry_equiv_pos_as_xyz
  1  'x, y, z'
loop_
 _atom_site_type_symbol
 _atom_site_label
 _atom_site_symmetry_multiplicity
 _atom_site_fract_x
 _atom_site_fract_y
 _atom_site_fract_z
 _atom_site_occupancy
  Li  Li0  1  0.250025  0.750019  0.500014  1
  Er  Er1  1  0.749873  0.249936  0.499861  1
  H  H2  1  0.245751  0.245741  0.000016  1
  H  H3  1  0.754277  0.245753  0.000026  1
  H  H4  1  0.754271  0.754266  0.000017  1
  H  H5  1  0.245754  0.754273  0.000027  1
  H  H6  1  0.245746  0.245746  0.491495  1
  H  H7  1  0.754282  0.754278  0.508554  1
  Pt  Pt8  1  0.499999  0.499985  0.999999  1
  Rh  Rh9  1  0.000016  0.999998  0.999986  1
