# generated using pymatgen
data_TbNdReB6
_symmetry_space_group_name_H-M   'P 1'
_cell_length_a   3.74517100
_cell_length_b   9.27239600
_cell_length_c   11.72710700
_cell_angle_alpha   90.00000000
_cell_angle_beta   90.00000000
_cell_angle_gamma   90.00000000
_symmetry_Int_Tables_number   1
_chemical_formula_structural   TbNdReB6
_chemical_formula_sum   'Tb4 Nd4 Re4 B24'
_cell_volume   407.24382751
_cell_formula_units_Z   4
loop_
 _symmetry_equiv_pos_site_id
 _symmetry_equiv_pos_as_xyz
  1  'x, y, z'
loop_
 _atom_site_type_symbol
 _atom_site_label
 _atom_site_symmetry_multiplicity
 _atom_site_fract_x
 _atom_site_fract_y
 _atom_site_fract_z
 _atom_site_occupancy
  Tb  Tb0  1  0.000000  0.942956  0.369253  1
  Tb  Tb1  1  0.000000  0.057044  0.630747  1
  Tb  Tb2  1  0.000000  0.442956  0.130747  1
  Tb  Tb3  1  0.000000  0.557044  0.869253  1
  Nd  Nd4  1  0.000000  0.322847  0.414087  1
  Nd  Nd5  1  0.000000  0.677153  0.585913  1
  Nd  Nd6  1  0.000000  0.822847  0.085913  1
  Nd  Nd7  1  0.000000  0.177153  0.914087  1
  Re  Re8  1  0.000000  0.639294  0.319885  1
  Re  Re9  1  0.000000  0.360706  0.680115  1
  Re  Re10  1  0.000000  0.139294  0.180115  1
  Re  Re11  1  0.000000  0.860706  0.819885  1
  B  B12  1  0.500000  0.554841  0.430833  1
  B  B13  1  0.500000  0.445159  0.569167  1
  B  B14  1  0.500000  0.054841  0.069167  1
  B  B15  1  0.500000  0.945159  0.930833  1
  B  B16  1  0.500000  0.748971  0.416117  1
  B  B17  1  0.500000  0.251029  0.583883  1
  B  B18  1  0.500000  0.248971  0.083883  1
  B  B19  1  0.500000  0.751029  0.916117  1
  B  B20  1  0.500000  0.791126  0.266207  1
  B  B21  1  0.500000  0.208874  0.733793  1
  B  B22  1  0.500000  0.291126  0.233793  1
  B  B23  1  0.500000  0.708874  0.766207  1
  B  B24  1  0.500000  0.630194  0.186866  1
  B  B25  1  0.500000  0.369806  0.813134  1
  B  B26  1  0.500000  0.130194  0.313134  1
  B  B27  1  0.500000  0.869806  0.686866  1
  B  B28  1  0.500000  0.984692  0.212573  1
  B  B29  1  0.500000  0.015308  0.787427  1
  B  B30  1  0.500000  0.484692  0.287427  1
  B  B31  1  0.500000  0.515308  0.712573  1
  B  B32  1  0.500000  0.597034  0.026937  1
  B  B33  1  0.500000  0.402966  0.973063  1
  B  B34  1  0.500000  0.097034  0.473063  1
  B  B35  1  0.500000  0.902966  0.526937  1
