# generated using pymatgen
data_DyHo7Si12IrRh3
_symmetry_space_group_name_H-M   'P 1'
_cell_length_a   8.16752900
_cell_length_b   8.16752960
_cell_length_c   7.86721400
_cell_angle_alpha   90.00000000
_cell_angle_beta   90.00000000
_cell_angle_gamma   120.00000164
_symmetry_Int_Tables_number   1
_chemical_formula_structural   DyHo7Si12IrRh3
_chemical_formula_sum   'Dy1 Ho7 Si12 Ir1 Rh3'
_cell_volume   454.49906109
_cell_formula_units_Z   1
loop_
 _symmetry_equiv_pos_site_id
 _symmetry_equiv_pos_as_xyz
  1  'x, y, z'
loop_
 _atom_site_type_symbol
 _atom_site_label
 _atom_site_symmetry_multiplicity
 _atom_site_fract_x
 _atom_site_fract_y
 _atom_site_fract_z
 _atom_site_occupancy
  Dy  Dy0  1  0.000000  0.000000  0.248878  1
  Ho  Ho1  1  0.000000  0.000000  0.750419  1
  Ho  Ho2  1  0.508777  0.491223  0.250197  1
  Ho  Ho3  1  0.508777  0.017555  0.250197  1
  Ho  Ho4  1  0.982445  0.491223  0.250197  1
  Ho  Ho5  1  0.490510  0.509490  0.749877  1
  Ho  Ho6  1  0.490510  0.981021  0.749877  1
  Ho  Ho7  1  0.018979  0.509490  0.749877  1
  Si  Si8  1  0.166426  0.833574  0.499258  1
  Si  Si9  1  0.166426  0.332851  0.499258  1
  Si  Si10  1  0.667149  0.833574  0.499258  1
  Si  Si11  1  0.832817  0.167183  0.500278  1
  Si  Si12  1  0.832817  0.665635  0.500278  1
  Si  Si13  1  0.334365  0.167183  0.500278  1
  Si  Si14  1  0.832991  0.167009  0.999790  1
  Si  Si15  1  0.832991  0.665983  0.999790  1
  Si  Si16  1  0.334017  0.167009  0.999790  1
  Si  Si17  1  0.166911  0.833089  0.999610  1
  Si  Si18  1  0.166911  0.333821  0.999610  1
  Si  Si19  1  0.666179  0.833089  0.999610  1
  Ir  Ir20  1  0.333333  0.666667  0.467802  1
  Rh  Rh21  1  0.666667  0.333333  0.534032  1
  Rh  Rh22  1  0.666667  0.333333  0.965276  1
  Rh  Rh23  1  0.333333  0.666667  0.036560  1
