# generated using pymatgen
data_Ag2PdPtO4
_symmetry_space_group_name_H-M   'P 1'
_cell_length_a   3.10619700
_cell_length_b   6.36320029
_cell_length_c   6.39705625
_cell_angle_alpha   62.68314250
_cell_angle_beta   90.00000000
_cell_angle_gamma   90.00000000
_symmetry_Int_Tables_number   1
_chemical_formula_structural   Ag2PdPtO4
_chemical_formula_sum   'Ag2 Pd1 Pt1 O4'
_cell_volume   112.33976613
_cell_formula_units_Z   1
loop_
 _symmetry_equiv_pos_site_id
 _symmetry_equiv_pos_as_xyz
  1  'x, y, z'
loop_
 _atom_site_type_symbol
 _atom_site_label
 _atom_site_symmetry_multiplicity
 _atom_site_fract_x
 _atom_site_fract_y
 _atom_site_fract_z
 _atom_site_occupancy
  Ag  Ag0  1  0.000000  0.500000  0.000000  1
  Ag  Ag1  1  0.000000  0.500000  0.500000  1
  Pd  Pd2  1  0.000000  0.000000  0.000000  1
  Pt  Pt3  1  0.500000  0.000000  0.500000  1
  O  O4  1  0.500000  0.095037  0.763995  1
  O  O5  1  0.000000  0.766900  0.637418  1
  O  O6  1  0.000000  0.233100  0.362582  1
  O  O7  1  0.500000  0.904963  0.236005  1
