# generated using pymatgen
data_Y3Th2(In2Pt)2
_symmetry_space_group_name_H-M   'P 1'
_cell_length_a   3.79738700
_cell_length_b   8.14792400
_cell_length_c   18.30839200
_cell_angle_alpha   90.00000000
_cell_angle_beta   90.00000000
_cell_angle_gamma   90.00000000
_symmetry_Int_Tables_number   1
_chemical_formula_structural   Y3Th2(In2Pt)2
_chemical_formula_sum   'Y6 Th4 In8 Pt4'
_cell_volume   566.47667371
_cell_formula_units_Z   2
loop_
 _symmetry_equiv_pos_site_id
 _symmetry_equiv_pos_as_xyz
  1  'x, y, z'
loop_
 _atom_site_type_symbol
 _atom_site_label
 _atom_site_symmetry_multiplicity
 _atom_site_fract_x
 _atom_site_fract_y
 _atom_site_fract_z
 _atom_site_occupancy
  Y  Y0  1  0.500000  0.113988  0.583501  1
  Y  Y1  1  0.500000  0.886012  0.416499  1
  Y  Y2  1  0.500000  0.386012  0.083501  1
  Y  Y3  1  0.500000  0.613988  0.916499  1
  Y  Y4  1  0.500000  0.000000  0.000000  1
  Y  Y5  1  0.500000  0.500000  0.500000  1
  Th  Th6  1  0.500000  0.237232  0.782307  1
  Th  Th7  1  0.500000  0.762768  0.217693  1
  Th  Th8  1  0.500000  0.262768  0.282307  1
  Th  Th9  1  0.500000  0.737232  0.717693  1
  In  In10  1  0.000000  0.083848  0.144832  1
  In  In11  1  0.000000  0.916152  0.855168  1
  In  In12  1  0.000000  0.416152  0.644832  1
  In  In13  1  0.000000  0.583848  0.355168  1
  In  In14  1  0.000000  0.206664  0.437652  1
  In  In15  1  0.000000  0.793336  0.562348  1
  In  In16  1  0.000000  0.293336  0.937652  1
  In  In17  1  0.000000  0.706664  0.062348  1
  Pt  Pt18  1  0.000000  0.025161  0.698140  1
  Pt  Pt19  1  0.000000  0.974839  0.301860  1
  Pt  Pt20  1  0.000000  0.474839  0.198140  1
  Pt  Pt21  1  0.000000  0.525161  0.801860  1
