# generated using pymatgen
data_HoBi3Pt3RhO14
_symmetry_space_group_name_H-M   'P 1'
_cell_length_a   7.39497935
_cell_length_b   7.35313320
_cell_length_c   7.35313300
_cell_angle_alpha   59.99999641
_cell_angle_beta   60.18700964
_cell_angle_gamma   60.18701169
_symmetry_Int_Tables_number   1
_chemical_formula_structural   HoBi3Pt3RhO14
_chemical_formula_sum   'Ho1 Bi3 Pt3 Rh1 O14'
_cell_volume   283.52323109
_cell_formula_units_Z   1
loop_
 _symmetry_equiv_pos_site_id
 _symmetry_equiv_pos_as_xyz
  1  'x, y, z'
loop_
 _atom_site_type_symbol
 _atom_site_label
 _atom_site_symmetry_multiplicity
 _atom_site_fract_x
 _atom_site_fract_y
 _atom_site_fract_z
 _atom_site_occupancy
  Ho  Ho0  1  0.625000  0.125000  0.125000  1
  Bi  Bi1  1  0.125000  0.125000  0.125000  1
  Bi  Bi2  1  0.125000  0.625000  0.125000  1
  Bi  Bi3  1  0.125000  0.125000  0.625000  1
  Pt  Pt4  1  0.625000  0.625000  0.625000  1
  Pt  Pt5  1  0.625000  0.625000  0.125000  1
  Pt  Pt6  1  0.625000  0.125000  0.625000  1
  Rh  Rh7  1  0.125000  0.625000  0.625000  1
  O  O8  1  0.265460  0.244847  0.244847  1
  O  O9  1  0.292574  0.708550  0.290327  1
  O  O10  1  0.957426  0.959673  0.541450  1
  O  O11  1  0.546202  0.961422  0.530956  1
  O  O12  1  0.703798  0.719044  0.288578  1
  O  O13  1  0.957426  0.541450  0.541450  1
  O  O14  1  0.703798  0.288578  0.719044  1
  O  O15  1  0.292574  0.290327  0.708550  1
  O  O16  1  0.703798  0.288578  0.288578  1
  O  O17  1  0.292574  0.708550  0.708550  1
  O  O18  1  0.957426  0.541450  0.959673  1
  O  O19  1  0.546202  0.530956  0.961422  1
  O  O20  1  0.984540  0.005153  0.005153  1
  O  O21  1  0.546202  0.961422  0.961422  1
