# generated using pymatgen
data_La2Pr2DySi4
_symmetry_space_group_name_H-M   'P 1'
_cell_length_a   7.87474700
_cell_length_b   7.87474700
_cell_length_c   15.42094200
_cell_angle_alpha   90.00000000
_cell_angle_beta   90.00000000
_cell_angle_gamma   90.00000000
_symmetry_Int_Tables_number   1
_chemical_formula_structural   La2Pr2DySi4
_chemical_formula_sum   'La8 Pr8 Dy4 Si16'
_cell_volume   956.27790861
_cell_formula_units_Z   4
loop_
 _symmetry_equiv_pos_site_id
 _symmetry_equiv_pos_as_xyz
  1  'x, y, z'
loop_
 _atom_site_type_symbol
 _atom_site_label
 _atom_site_symmetry_multiplicity
 _atom_site_fract_x
 _atom_site_fract_y
 _atom_site_fract_z
 _atom_site_occupancy
  La  La0  1  0.377860  0.013627  0.445475  1
  La  La1  1  0.486373  0.877860  0.695475  1
  La  La2  1  0.513627  0.122140  0.195475  1
  La  La3  1  0.877860  0.486373  0.304525  1
  La  La4  1  0.122140  0.513627  0.804525  1
  La  La5  1  0.622140  0.986373  0.945475  1
  La  La6  1  0.013627  0.377860  0.554525  1
  La  La7  1  0.986373  0.622140  0.054525  1
  Pr  Pr8  1  0.125313  0.976012  0.878856  1
  Pr  Pr9  1  0.523988  0.625313  0.128856  1
  Pr  Pr10  1  0.476012  0.374687  0.628856  1
  Pr  Pr11  1  0.625313  0.523988  0.871144  1
  Pr  Pr12  1  0.374687  0.476012  0.371144  1
  Pr  Pr13  1  0.874687  0.023988  0.378856  1
  Pr  Pr14  1  0.976012  0.125313  0.121144  1
  Pr  Pr15  1  0.023988  0.874687  0.621144  1
  Dy  Dy16  1  0.309932  0.309932  0.000000  1
  Dy  Dy17  1  0.190068  0.809932  0.250000  1
  Dy  Dy18  1  0.809932  0.190068  0.750000  1
  Dy  Dy19  1  0.690068  0.690068  0.500000  1
  Si  Si20  1  0.187656  0.171710  0.709160  1
  Si  Si21  1  0.328290  0.687656  0.959160  1
  Si  Si22  1  0.671710  0.312344  0.459160  1
  Si  Si23  1  0.687656  0.328290  0.040840  1
  Si  Si24  1  0.312344  0.671710  0.540840  1
  Si  Si25  1  0.812344  0.828290  0.209160  1
  Si  Si26  1  0.171710  0.187656  0.290840  1
  Si  Si27  1  0.828290  0.812344  0.790840  1
  Si  Si28  1  0.286769  0.920898  0.063671  1
  Si  Si29  1  0.579102  0.786769  0.313671  1
  Si  Si30  1  0.420898  0.213231  0.813671  1
  Si  Si31  1  0.786769  0.579102  0.686329  1
  Si  Si32  1  0.213231  0.420898  0.186329  1
  Si  Si33  1  0.713231  0.079102  0.563671  1
  Si  Si34  1  0.920898  0.286769  0.936329  1
  Si  Si35  1  0.079102  0.713231  0.436329  1
