# generated using pymatgen
data_Hf7ZrTi11NbGe16
_symmetry_space_group_name_H-M   'P 1'
_cell_length_a   6.79936221
_cell_length_b   6.90785943
_cell_length_c   13.10573638
_cell_angle_alpha   90.00114513
_cell_angle_beta   89.97244253
_cell_angle_gamma   90.03375909
_symmetry_Int_Tables_number   1
_chemical_formula_structural   Hf7ZrTi11NbGe16
_chemical_formula_sum   'Hf7 Zr1 Ti11 Nb1 Ge16'
_cell_volume   615.56365619
_cell_formula_units_Z   1
loop_
 _symmetry_equiv_pos_site_id
 _symmetry_equiv_pos_as_xyz
  1  'x, y, z'
loop_
 _atom_site_type_symbol
 _atom_site_label
 _atom_site_symmetry_multiplicity
 _atom_site_fract_x
 _atom_site_fract_y
 _atom_site_fract_z
 _atom_site_occupancy
  Hf  Hf0  1  0.990339  0.823842  0.906455  1
  Hf  Hf1  1  0.511307  0.323430  0.094206  1
  Hf  Hf2  1  0.009877  0.174344  0.405612  1
  Hf  Hf3  1  0.511152  0.323320  0.405551  1
  Hf  Hf4  1  0.009844  0.174777  0.094366  1
  Hf  Hf5  1  0.489723  0.675318  0.906195  1
  Hf  Hf6  1  0.990055  0.824200  0.593648  1
  Zr  Zr7  1  0.489912  0.675055  0.593656  1
  Ti  Ti8  1  0.657259  0.166992  0.626527  1
  Ti  Ti9  1  0.156805  0.333225  0.874331  1
  Ti  Ti10  1  0.343501  0.833278  0.125036  1
  Ti  Ti11  1  0.841507  0.668127  0.374775  1
  Ti  Ti12  1  0.343081  0.833684  0.374668  1
  Ti  Ti13  1  0.841388  0.668202  0.125127  1
  Ti  Ti14  1  0.657121  0.167615  0.873627  1
  Ti  Ti15  1  0.156742  0.333331  0.625914  1
  Ti  Ti16  1  0.829746  0.494719  0.750153  1
  Ti  Ti17  1  0.329984  0.004284  0.750185  1
  Ti  Ti18  1  0.170338  0.505943  0.249795  1
  Nb  Nb19  1  0.670425  0.995505  0.249856  1
  Ge  Ge20  1  0.684671  0.960076  0.461350  1
  Ge  Ge21  1  0.183906  0.539601  0.040685  1
  Ge  Ge22  1  0.316014  0.040507  0.959140  1
  Ge  Ge23  1  0.817683  0.458368  0.540430  1
  Ge  Ge24  1  0.315403  0.041530  0.540692  1
  Ge  Ge25  1  0.816202  0.459237  0.959347  1
  Ge  Ge26  1  0.684394  0.959583  0.038326  1
  Ge  Ge27  1  0.183160  0.539375  0.458923  1
  Ge  Ge28  1  0.458568  0.378867  0.750316  1
  Ge  Ge29  1  0.959750  0.120244  0.750079  1
  Ge  Ge30  1  0.539074  0.618028  0.250011  1
  Ge  Ge31  1  0.043700  0.877411  0.249954  1
  Ge  Ge32  1  0.690419  0.855355  0.750743  1
  Ge  Ge33  1  0.188344  0.644939  0.750399  1
  Ge  Ge34  1  0.305580  0.147440  0.249934  1
  Ge  Ge35  1  0.813027  0.360252  0.249987  1
