# generated using pymatgen
data_YGaCu3Ag
_symmetry_space_group_name_H-M   'P 1'
_cell_length_a   5.12547749
_cell_length_b   5.12547587
_cell_length_c   5.12547721
_cell_angle_alpha   60.70843776
_cell_angle_beta   60.70843758
_cell_angle_gamma   60.70844030
_symmetry_Int_Tables_number   1
_chemical_formula_structural   YGaCu3Ag
_chemical_formula_sum   'Y1 Ga1 Cu3 Ag1'
_cell_volume   96.73345630
_cell_formula_units_Z   1
loop_
 _symmetry_equiv_pos_site_id
 _symmetry_equiv_pos_as_xyz
  1  'x, y, z'
loop_
 _atom_site_type_symbol
 _atom_site_label
 _atom_site_symmetry_multiplicity
 _atom_site_fract_x
 _atom_site_fract_y
 _atom_site_fract_z
 _atom_site_occupancy
  Y  Y0  1  0.248242  0.248242  0.248242  1
  Ga  Ga1  1  0.627596  0.627596  0.627596  1
  Cu  Cu2  1  0.626671  0.626671  0.122999  1
  Cu  Cu3  1  0.626671  0.122999  0.626671  1
  Cu  Cu4  1  0.122999  0.626671  0.626671  1
  Ag  Ag5  1  0.997823  0.997823  0.997823  1
