# generated using pymatgen
data_Li2CeUN4
_symmetry_space_group_name_H-M   'P 1'
_cell_length_a   4.38861450
_cell_length_b   4.38861470
_cell_length_c   6.47040355
_cell_angle_alpha   109.82386945
_cell_angle_beta   109.82387175
_cell_angle_gamma   89.99999408
_symmetry_Int_Tables_number   1
_chemical_formula_structural   Li2CeUN4
_chemical_formula_sum   'Li2 Ce1 U1 N4'
_cell_volume   109.35194317
_cell_formula_units_Z   1
loop_
 _symmetry_equiv_pos_site_id
 _symmetry_equiv_pos_as_xyz
  1  'x, y, z'
loop_
 _atom_site_type_symbol
 _atom_site_label
 _atom_site_symmetry_multiplicity
 _atom_site_fract_x
 _atom_site_fract_y
 _atom_site_fract_z
 _atom_site_occupancy
  Li  Li0  1  0.624999  0.375001  0.250001  1
  Li  Li1  1  0.375000  0.625001  0.750000  1
  Ce  Ce2  1  0.125000  0.875000  0.250001  1
  U  U3  1  0.874999  0.124999  0.750000  1
  N  N4  1  0.066817  0.316818  0.133635  1
  N  N5  1  0.683181  0.933182  0.366364  1
  N  N6  1  0.345926  0.095925  0.691852  1
  N  N7  1  0.904073  0.654074  0.808148  1
