# generated using pymatgen
data_Pa2Br2Cl3O2
_symmetry_space_group_name_H-M   'P 1'
_cell_length_a   8.25225169
_cell_length_b   8.41926136
_cell_length_c   4.18496900
_cell_angle_alpha   90.00000000
_cell_angle_beta   90.00000000
_cell_angle_gamma   116.27000074
_symmetry_Int_Tables_number   1
_chemical_formula_structural   Pa2Br2Cl3O2
_chemical_formula_sum   'Pa2 Br2 Cl3 O2'
_cell_volume   260.73223757
_cell_formula_units_Z   1
loop_
 _symmetry_equiv_pos_site_id
 _symmetry_equiv_pos_as_xyz
  1  'x, y, z'
loop_
 _atom_site_type_symbol
 _atom_site_label
 _atom_site_symmetry_multiplicity
 _atom_site_fract_x
 _atom_site_fract_y
 _atom_site_fract_z
 _atom_site_occupancy
  Pa  Pa0  1  0.203088  0.807377  0.000000  1
  Pa  Pa1  1  0.796912  0.192623  0.000000  1
  Br  Br2  1  0.818299  0.551547  0.000000  1
  Br  Br3  1  0.181701  0.448453  0.000000  1
  Cl  Cl4  1  0.000000  0.000000  0.000000  1
  Cl  Cl5  1  0.551467  0.835825  0.000000  1
  Cl  Cl6  1  0.448533  0.164175  0.000000  1
  O  O7  1  0.203443  0.806374  0.500000  1
  O  O8  1  0.796557  0.193626  0.500000  1
