# generated using pymatgen
data_LiTa5(ReSi)6
_symmetry_space_group_name_H-M   'P 1'
_cell_length_a   7.64676197
_cell_length_b   7.56870623
_cell_length_c   7.64676310
_cell_angle_alpha   125.96873540
_cell_angle_beta   129.49961384
_cell_angle_gamma   77.31072488
_symmetry_Int_Tables_number   1
_chemical_formula_structural   LiTa5(ReSi)6
_chemical_formula_sum   'Li1 Ta5 Re6 Si6'
_cell_volume   267.85816987
_cell_formula_units_Z   1
loop_
 _symmetry_equiv_pos_site_id
 _symmetry_equiv_pos_as_xyz
  1  'x, y, z'
loop_
 _atom_site_type_symbol
 _atom_site_label
 _atom_site_symmetry_multiplicity
 _atom_site_fract_x
 _atom_site_fract_y
 _atom_site_fract_z
 _atom_site_occupancy
  Li  Li0  1  0.556213  0.107974  0.051763  1
  Ta  Ta1  1  0.447552  0.491605  0.544053  1
  Ta  Ta2  1  0.949267  0.491213  0.041946  1
  Ta  Ta3  1  0.048782  0.093574  0.544793  1
  Ta  Ta4  1  0.753931  0.904655  0.650724  1
  Ta  Ta5  1  0.242182  0.887706  0.145524  1
  Re  Re6  1  0.500902  0.238613  0.735459  1
  Re  Re7  1  0.003153  0.238613  0.237711  1
  Re  Re8  1  0.123972  0.753923  0.620964  1
  Re  Re9  1  0.873978  0.500256  0.633373  1
  Re  Re10  1  0.632959  0.753923  0.129952  1
  Re  Re11  1  0.366882  0.500256  0.126278  1
  Si  Si12  1  0.745755  0.490166  0.244411  1
  Si  Si13  1  0.250415  0.497183  0.746768  1
  Si  Si14  1  0.344960  0.836675  0.518263  1
  Si  Si15  1  0.656200  0.159593  0.475109  1
  Si  Si16  1  0.818412  0.836675  0.991715  1
  Si  Si17  1  0.184484  0.159593  0.003393  1
