# generated using pymatgen
data_Sc3Ti3Re5Si6Ru
_symmetry_space_group_name_H-M   'P 1'
_cell_length_a   7.64661874
_cell_length_b   7.64559495
_cell_length_c   7.65023083
_cell_angle_alpha   126.59030084
_cell_angle_beta   128.36682679
_cell_angle_gamma   77.53463597
_symmetry_Int_Tables_number   1
_chemical_formula_structural   Sc3Ti3Re5Si6Ru
_chemical_formula_sum   'Sc3 Ti3 Re5 Si6 Ru1'
_cell_volume   272.99041485
_cell_formula_units_Z   1
loop_
 _symmetry_equiv_pos_site_id
 _symmetry_equiv_pos_as_xyz
  1  'x, y, z'
loop_
 _atom_site_type_symbol
 _atom_site_label
 _atom_site_symmetry_multiplicity
 _atom_site_fract_x
 _atom_site_fract_y
 _atom_site_fract_z
 _atom_site_occupancy
  Sc  Sc0  1  0.245631  0.890665  0.145621  1
  Sc  Sc1  1  0.951220  0.499590  0.046637  1
  Sc  Sc2  1  0.050528  0.095213  0.544124  1
  Ti  Ti3  1  0.446156  0.485104  0.540238  1
  Ti  Ti4  1  0.749095  0.902332  0.648831  1
  Ti  Ti5  1  0.554287  0.109673  0.058672  1
  Re  Re6  1  0.506679  0.235059  0.742469  1
  Re  Re7  1  0.993386  0.236085  0.229068  1
  Re  Re8  1  0.859253  0.496079  0.615492  1
  Re  Re9  1  0.623496  0.757805  0.119340  1
  Re  Re10  1  0.379601  0.494950  0.135183  1
  Si  Si11  1  0.756103  0.507650  0.254297  1
  Si  Si12  1  0.175273  0.162022  0.004229  1
  Si  Si13  1  0.657381  0.162214  0.486895  1
  Si  Si14  1  0.360258  0.828701  0.524733  1
  Si  Si15  1  0.247775  0.492916  0.742554  1
  Si  Si16  1  0.804715  0.828887  0.968517  1
  Ru  Ru17  1  0.139165  0.757265  0.635313  1
