# generated using pymatgen
data_Gd5Au3
_symmetry_space_group_name_H-M   'P 1'
_cell_length_a   7.86828800
_cell_length_b   7.86828800
_cell_length_c   14.68616000
_cell_angle_alpha   90.00000000
_cell_angle_beta   90.00000000
_cell_angle_gamma   90.00000000
_symmetry_Int_Tables_number   1
_chemical_formula_structural   Gd5Au3
_chemical_formula_sum   'Gd20 Au12'
_cell_volume   909.21952016
_cell_formula_units_Z   4
loop_
 _symmetry_equiv_pos_site_id
 _symmetry_equiv_pos_as_xyz
  1  'x, y, z'
loop_
 _atom_site_type_symbol
 _atom_site_label
 _atom_site_symmetry_multiplicity
 _atom_site_fract_x
 _atom_site_fract_y
 _atom_site_fract_z
 _atom_site_occupancy
  Gd  Gd0  1  0.148733  0.180474  0.101759  1
  Gd  Gd1  1  0.680474  0.351267  0.101759  1
  Gd  Gd2  1  0.319526  0.648733  0.101759  1
  Gd  Gd3  1  0.851267  0.819526  0.101759  1
  Gd  Gd4  1  0.500000  0.000000  0.226492  1
  Gd  Gd5  1  0.000000  0.500000  0.273508  1
  Gd  Gd6  1  0.180474  0.148733  0.398241  1
  Gd  Gd7  1  0.648733  0.319526  0.398241  1
  Gd  Gd8  1  0.351267  0.680474  0.398241  1
  Gd  Gd9  1  0.819526  0.851267  0.398241  1
  Gd  Gd10  1  0.851267  0.180474  0.601759  1
  Gd  Gd11  1  0.319526  0.351267  0.601759  1
  Gd  Gd12  1  0.680474  0.648733  0.601759  1
  Gd  Gd13  1  0.148733  0.819526  0.601759  1
  Gd  Gd14  1  0.500000  0.000000  0.726492  1
  Gd  Gd15  1  0.000000  0.500000  0.773508  1
  Gd  Gd16  1  0.819526  0.148733  0.898241  1
  Gd  Gd17  1  0.351267  0.319526  0.898241  1
  Gd  Gd18  1  0.648733  0.680474  0.898241  1
  Gd  Gd19  1  0.180474  0.851267  0.898241  1
  Au  Au20  1  0.500000  0.000000  0.006414  1
  Au  Au21  1  0.865154  0.134846  0.250000  1
  Au  Au22  1  0.365154  0.365154  0.250000  1
  Au  Au23  1  0.634846  0.634846  0.250000  1
  Au  Au24  1  0.134846  0.865154  0.250000  1
  Au  Au25  1  0.000000  0.500000  0.493586  1
  Au  Au26  1  0.500000  0.000000  0.506414  1
  Au  Au27  1  0.134846  0.134846  0.750000  1
  Au  Au28  1  0.634846  0.365154  0.750000  1
  Au  Au29  1  0.365154  0.634846  0.750000  1
  Au  Au30  1  0.865154  0.865154  0.750000  1
  Au  Au31  1  0.000000  0.500000  0.993586  1
