# generated using pymatgen
data_U2AgS5
_symmetry_space_group_name_H-M   'P 1'
_cell_length_a   7.33524000
_cell_length_b   8.42564797
_cell_length_c   11.43245046
_cell_angle_alpha   87.61705679
_cell_angle_beta   90.00000000
_cell_angle_gamma   90.00000000
_symmetry_Int_Tables_number   1
_chemical_formula_structural   U2AgS5
_chemical_formula_sum   'U8 Ag4 S20'
_cell_volume   705.96187613
_cell_formula_units_Z   4
loop_
 _symmetry_equiv_pos_site_id
 _symmetry_equiv_pos_as_xyz
  1  'x, y, z'
loop_
 _atom_site_type_symbol
 _atom_site_label
 _atom_site_symmetry_multiplicity
 _atom_site_fract_x
 _atom_site_fract_y
 _atom_site_fract_z
 _atom_site_occupancy
  U  U0  1  0.005656  0.502403  0.320205  1
  U  U1  1  0.505656  0.497597  0.179795  1
  U  U2  1  0.994344  0.497597  0.679795  1
  U  U3  1  0.494344  0.502403  0.820205  1
  U  U4  1  0.088183  0.747291  0.007552  1
  U  U5  1  0.588183  0.252709  0.492448  1
  U  U6  1  0.911817  0.252709  0.992448  1
  U  U7  1  0.411817  0.747291  0.507552  1
  Ag  Ag8  1  0.876458  0.968339  0.234916  1
  Ag  Ag9  1  0.376458  0.031661  0.265084  1
  Ag  Ag10  1  0.123542  0.031661  0.765084  1
  Ag  Ag11  1  0.623542  0.968339  0.734916  1
  S  S12  1  0.152508  0.447028  0.100325  1
  S  S13  1  0.652508  0.552972  0.399675  1
  S  S14  1  0.847492  0.552972  0.899675  1
  S  S15  1  0.347492  0.447028  0.600325  1
  S  S16  1  0.456905  0.704593  0.996874  1
  S  S17  1  0.956905  0.295407  0.503126  1
  S  S18  1  0.543095  0.295407  0.003126  1
  S  S19  1  0.043095  0.704593  0.496874  1
  S  S20  1  0.318484  0.307208  0.335570  1
  S  S21  1  0.818484  0.692792  0.164430  1
  S  S22  1  0.681516  0.692792  0.664430  1
  S  S23  1  0.181516  0.307208  0.835570  1
  S  S24  1  0.646836  0.963527  0.400786  1
  S  S25  1  0.146836  0.036473  0.099214  1
  S  S26  1  0.353164  0.036473  0.599214  1
  S  S27  1  0.853164  0.963527  0.900786  1
  S  S28  1  0.287089  0.716171  0.273615  1
  S  S29  1  0.787089  0.283829  0.226385  1
  S  S30  1  0.712911  0.283829  0.726385  1
  S  S31  1  0.212911  0.716171  0.773615  1
