# generated using pymatgen
data_CeLu7(Si4W3)4
_symmetry_space_group_name_H-M   'P 1'
_cell_length_a   6.71240600
_cell_length_b   6.90066930
_cell_length_c   12.86078575
_cell_angle_alpha   89.87760373
_cell_angle_beta   90.02105018
_cell_angle_gamma   90.01478710
_symmetry_Int_Tables_number   1
_chemical_formula_structural   CeLu7(Si4W3)4
_chemical_formula_sum   'Ce1 Lu7 Si16 W12'
_cell_volume   595.71138603
_cell_formula_units_Z   1
loop_
 _symmetry_equiv_pos_site_id
 _symmetry_equiv_pos_as_xyz
  1  'x, y, z'
loop_
 _atom_site_type_symbol
 _atom_site_label
 _atom_site_symmetry_multiplicity
 _atom_site_fract_x
 _atom_site_fract_y
 _atom_site_fract_z
 _atom_site_occupancy
  Ce  Ce0  1  0.998073  0.830254  0.594134  1
  Lu  Lu1  1  0.494765  0.668981  0.592689  1
  Lu  Lu2  1  0.994668  0.832311  0.907245  1
  Lu  Lu3  1  0.504488  0.331909  0.093203  1
  Lu  Lu4  1  0.005768  0.167023  0.405520  1
  Lu  Lu5  1  0.504977  0.331413  0.405294  1
  Lu  Lu6  1  0.004549  0.168401  0.093325  1
  Lu  Lu7  1  0.495811  0.668289  0.908692  1
  Si  Si8  1  0.662306  0.960132  0.452466  1
  Si  Si9  1  0.162579  0.539847  0.046248  1
  Si  Si10  1  0.336657  0.039453  0.954459  1
  Si  Si11  1  0.834451  0.455108  0.544607  1
  Si  Si12  1  0.340385  0.043404  0.544809  1
  Si  Si13  1  0.838054  0.460914  0.954273  1
  Si  Si14  1  0.662595  0.960861  0.046243  1
  Si  Si15  1  0.164426  0.537946  0.452802  1
  Si  Si16  1  0.464600  0.374366  0.750025  1
  Si  Si17  1  0.962799  0.129424  0.751857  1
  Si  Si18  1  0.535282  0.626101  0.249269  1
  Si  Si19  1  0.035978  0.872483  0.249396  1
  Si  Si20  1  0.693957  0.865672  0.752060  1
  Si  Si21  1  0.200628  0.633515  0.752827  1
  Si  Si22  1  0.302918  0.135628  0.249228  1
  Si  Si23  1  0.802172  0.363035  0.249159  1
  W  W24  1  0.666605  0.164620  0.625805  1
  W  W25  1  0.168803  0.335074  0.876345  1
  W  W26  1  0.331614  0.834942  0.124275  1
  W  W27  1  0.831674  0.663388  0.374334  1
  W  W28  1  0.333180  0.835848  0.374330  1
  W  W29  1  0.831898  0.664475  0.124175  1
  W  W30  1  0.666379  0.166961  0.876380  1
  W  W31  1  0.167619  0.337091  0.625573  1
  W  W32  1  0.833259  0.504016  0.749612  1
  W  W33  1  0.333034  0.998974  0.750093  1
  W  W34  1  0.166120  0.496642  0.249978  1
  W  W35  1  0.666931  0.001503  0.249271  1
