# generated using pymatgen
data_Er2Nb3Sn(B2Ru5)2
_symmetry_space_group_name_H-M   'P 1'
_cell_length_a   9.53219520
_cell_length_b   9.62678405
_cell_length_c   3.10286200
_cell_angle_alpha   90.00000000
_cell_angle_beta   90.00000000
_cell_angle_gamma   88.88616998
_symmetry_Int_Tables_number   1
_chemical_formula_structural   Er2Nb3Sn(B2Ru5)2
_chemical_formula_sum   'Er2 Nb3 Sn1 B4 Ru10'
_cell_volume   284.67842168
_cell_formula_units_Z   1
loop_
 _symmetry_equiv_pos_site_id
 _symmetry_equiv_pos_as_xyz
  1  'x, y, z'
loop_
 _atom_site_type_symbol
 _atom_site_label
 _atom_site_symmetry_multiplicity
 _atom_site_fract_x
 _atom_site_fract_y
 _atom_site_fract_z
 _atom_site_occupancy
  Er  Er0  1  0.180496  0.172536  0.000000  1
  Er  Er1  1  0.819504  0.827464  0.000000  1
  Nb  Nb2  1  0.000000  0.500000  0.000000  1
  Nb  Nb3  1  0.678347  0.327868  0.000000  1
  Nb  Nb4  1  0.321653  0.672132  0.000000  1
  Sn  Sn5  1  0.500000  0.000000  0.000000  1
  B  B6  1  0.380874  0.379281  0.000000  1
  B  B7  1  0.619126  0.620719  0.000000  1
  B  B8  1  0.880123  0.123262  0.000000  1
  B  B9  1  0.119877  0.876738  0.000000  1
  Ru  Ru10  1  0.500000  0.500000  0.500000  1
  Ru  Ru11  1  0.000000  0.000000  0.500000  1
  Ru  Ru12  1  0.443818  0.229012  0.500000  1
  Ru  Ru13  1  0.556182  0.770988  0.500000  1
  Ru  Ru14  1  0.923113  0.285773  0.500000  1
  Ru  Ru15  1  0.076887  0.714227  0.500000  1
  Ru  Ru16  1  0.718460  0.091016  0.500000  1
  Ru  Ru17  1  0.281540  0.908984  0.500000  1
  Ru  Ru18  1  0.777625  0.561099  0.500000  1
  Ru  Ru19  1  0.222375  0.438901  0.500000  1
