# generated using pymatgen
data_Nd2Si3(AsPd7)3
_symmetry_space_group_name_H-M   'P 1'
_cell_length_a   8.78538957
_cell_length_b   8.78538887
_cell_length_c   8.78206132
_cell_angle_alpha   59.98746456
_cell_angle_beta   59.98746682
_cell_angle_gamma   59.99999914
_symmetry_Int_Tables_number   1
_chemical_formula_structural   Nd2Si3(AsPd7)3
_chemical_formula_sum   'Nd2 Si3 As3 Pd21'
_cell_volume   479.20481401
_cell_formula_units_Z   1
loop_
 _symmetry_equiv_pos_site_id
 _symmetry_equiv_pos_as_xyz
  1  'x, y, z'
loop_
 _atom_site_type_symbol
 _atom_site_label
 _atom_site_symmetry_multiplicity
 _atom_site_fract_x
 _atom_site_fract_y
 _atom_site_fract_z
 _atom_site_occupancy
  Nd  Nd0  1  0.750459  0.750459  0.748623  1
  Nd  Nd1  1  0.250258  0.250258  0.249226  1
  Si  Si2  1  0.262452  0.262452  0.737043  1
  Si  Si3  1  0.738052  0.262452  0.737043  1
  Si  Si4  1  0.262452  0.738052  0.737043  1
  As  As5  1  0.737906  0.737906  0.261694  1
  As  As6  1  0.262495  0.737906  0.261694  1
  As  As7  1  0.737906  0.262495  0.261694  1
  Pd  Pd8  1  0.001177  0.001177  0.996468  1
  Pd  Pd9  1  0.615403  0.615403  0.153792  1
  Pd  Pd10  1  0.611615  0.155733  0.621038  1
  Pd  Pd11  1  0.155733  0.611615  0.621038  1
  Pd  Pd12  1  0.611615  0.611615  0.621038  1
  Pd  Pd13  1  0.385261  0.385261  0.844216  1
  Pd  Pd14  1  0.381351  0.844907  0.392390  1
  Pd  Pd15  1  0.844907  0.381351  0.392390  1
  Pd  Pd16  1  0.381351  0.381351  0.392390  1
  Pd  Pd17  1  0.001366  0.001366  0.347862  1
  Pd  Pd18  1  0.649405  0.001366  0.347862  1
  Pd  Pd19  1  0.001366  0.649405  0.347862  1
  Pd  Pd20  1  0.654696  0.347361  0.993489  1
  Pd  Pd21  1  0.004454  0.347361  0.993489  1
  Pd  Pd22  1  0.000798  0.342851  0.655554  1
  Pd  Pd23  1  0.347361  0.654696  0.993489  1
  Pd  Pd24  1  0.342851  0.000798  0.655554  1
  Pd  Pd25  1  0.347361  0.004454  0.993489  1
  Pd  Pd26  1  0.000798  0.000798  0.655554  1
  Pd  Pd27  1  0.004454  0.654696  0.993489  1
  Pd  Pd28  1  0.654696  0.004454  0.993489  1
