# generated using pymatgen
data_DyZr(SiTc2)4
_symmetry_space_group_name_H-M   'P 1'
_cell_length_a   7.33083515
_cell_length_b   7.33083515
_cell_length_c   4.10864000
_cell_angle_alpha   90.00000000
_cell_angle_beta   90.00000000
_cell_angle_gamma   88.83453050
_symmetry_Int_Tables_number   1
_chemical_formula_structural   DyZr(SiTc2)4
_chemical_formula_sum   'Dy1 Zr1 Si4 Tc8'
_cell_volume   220.75733514
_cell_formula_units_Z   1
loop_
 _symmetry_equiv_pos_site_id
 _symmetry_equiv_pos_as_xyz
  1  'x, y, z'
loop_
 _atom_site_type_symbol
 _atom_site_label
 _atom_site_symmetry_multiplicity
 _atom_site_fract_x
 _atom_site_fract_y
 _atom_site_fract_z
 _atom_site_occupancy
  Dy  Dy0  1  0.500000  0.500000  0.000000  1
  Zr  Zr1  1  0.000000  0.000000  0.500000  1
  Si  Si2  1  0.202140  0.797860  0.000000  1
  Si  Si3  1  0.286583  0.286583  0.500000  1
  Si  Si4  1  0.713417  0.713417  0.500000  1
  Si  Si5  1  0.797860  0.202140  0.000000  1
  Tc  Tc6  1  0.600425  0.151403  0.500000  1
  Tc  Tc7  1  0.399575  0.848597  0.500000  1
  Tc  Tc8  1  0.151403  0.600425  0.500000  1
  Tc  Tc9  1  0.848597  0.399575  0.500000  1
  Tc  Tc10  1  0.087204  0.341772  0.000000  1
  Tc  Tc11  1  0.912796  0.658228  0.000000  1
  Tc  Tc12  1  0.658228  0.912796  0.000000  1
  Tc  Tc13  1  0.341772  0.087204  0.000000  1
