# generated using pymatgen
data_ErPa2(Si3Pd10)2
_symmetry_space_group_name_H-M   'P 1'
_cell_length_a   8.71331463
_cell_length_b   8.71331472
_cell_length_c   8.71331500
_cell_angle_alpha   60.00000272
_cell_angle_beta   60.00000238
_cell_angle_gamma   60.00000412
_symmetry_Int_Tables_number   1
_chemical_formula_structural   ErPa2(Si3Pd10)2
_chemical_formula_sum   'Er1 Pa2 Si6 Pd20'
_cell_volume   467.77310063
_cell_formula_units_Z   1
loop_
 _symmetry_equiv_pos_site_id
 _symmetry_equiv_pos_as_xyz
  1  'x, y, z'
loop_
 _atom_site_type_symbol
 _atom_site_label
 _atom_site_symmetry_multiplicity
 _atom_site_fract_x
 _atom_site_fract_y
 _atom_site_fract_z
 _atom_site_occupancy
  Er  Er0  1  0.000000  0.000000  0.000000  1
  Pa  Pa1  1  0.250000  0.250000  0.250000  1
  Pa  Pa2  1  0.750000  0.750000  0.750000  1
  Si  Si3  1  0.735278  0.264722  0.264722  1
  Si  Si4  1  0.264722  0.735278  0.735278  1
  Si  Si5  1  0.264722  0.735278  0.264722  1
  Si  Si6  1  0.735278  0.264722  0.735278  1
  Si  Si7  1  0.264722  0.264722  0.735278  1
  Si  Si8  1  0.735278  0.735278  0.264722  1
  Pd  Pd9  1  0.346762  0.000000  0.000000  1
  Pd  Pd10  1  0.653238  0.000000  0.000000  1
  Pd  Pd11  1  0.000000  0.346762  0.653238  1
  Pd  Pd12  1  0.000000  0.653238  0.346762  1
  Pd  Pd13  1  0.000000  0.346762  0.000000  1
  Pd  Pd14  1  0.653238  0.000000  0.346762  1
  Pd  Pd15  1  0.000000  0.653238  0.000000  1
  Pd  Pd16  1  0.346762  0.000000  0.653238  1
  Pd  Pd17  1  0.000000  0.000000  0.346762  1
  Pd  Pd18  1  0.000000  0.000000  0.653238  1
  Pd  Pd19  1  0.653238  0.346762  0.000000  1
  Pd  Pd20  1  0.346762  0.653238  0.000000  1
  Pd  Pd21  1  0.382377  0.382377  0.382377  1
  Pd  Pd22  1  0.617623  0.617623  0.617623  1
  Pd  Pd23  1  0.382377  0.382377  0.852871  1
  Pd  Pd24  1  0.382377  0.852871  0.382377  1
  Pd  Pd25  1  0.617623  0.617623  0.147129  1
  Pd  Pd26  1  0.617623  0.147129  0.617623  1
  Pd  Pd27  1  0.852871  0.382377  0.382377  1
  Pd  Pd28  1  0.147129  0.617623  0.617623  1
