# generated using pymatgen
data_Cs3Ho(VSe4)2
_symmetry_space_group_name_H-M   'P 1'
_cell_length_a   10.56395374
_cell_length_b   7.39970100
_cell_length_c   12.63759100
_cell_angle_alpha   90.00000000
_cell_angle_beta   89.23820177
_cell_angle_gamma   90.00000000
_symmetry_Int_Tables_number   1
_chemical_formula_structural   Cs3Ho(VSe4)2
_chemical_formula_sum   'Cs6 Ho2 V4 Se16'
_cell_volume   987.79442214
_cell_formula_units_Z   2
loop_
 _symmetry_equiv_pos_site_id
 _symmetry_equiv_pos_as_xyz
  1  'x, y, z'
loop_
 _atom_site_type_symbol
 _atom_site_label
 _atom_site_symmetry_multiplicity
 _atom_site_fract_x
 _atom_site_fract_y
 _atom_site_fract_z
 _atom_site_occupancy
  Cs  Cs0  1  0.368965  0.803403  0.084078  1
  Cs  Cs1  1  0.401267  0.307848  0.342589  1
  Cs  Cs2  1  0.846883  0.308447  0.435647  1
  Cs  Cs3  1  0.153117  0.808447  0.564354  1
  Cs  Cs4  1  0.598733  0.807848  0.657411  1
  Cs  Cs5  1  0.631036  0.303403  0.915922  1
  Ho  Ho6  1  0.889743  0.779848  0.142394  1
  Ho  Ho7  1  0.110257  0.279848  0.857606  1
  V  V8  1  0.082215  0.336622  0.144654  1
  V  V9  1  0.646412  0.805975  0.308033  1
  V  V10  1  0.353588  0.305974  0.691967  1
  V  V11  1  0.917785  0.836622  0.855346  1
  Se  Se12  1  0.930034  0.403584  0.025382  1
  Se  Se13  1  0.268528  0.305273  0.049459  1
  Se  Se14  1  0.681550  0.043173  0.194453  1
  Se  Se15  1  0.670251  0.553732  0.201258  1
  Se  Se16  1  0.043089  0.075053  0.238802  1
  Se  Se17  1  0.087536  0.580699  0.257113  1
  Se  Se18  1  0.454007  0.813744  0.389505  1
  Se  Se19  1  0.817015  0.804880  0.416888  1
  Se  Se20  1  0.182986  0.304879  0.583112  1
  Se  Se21  1  0.545992  0.313743  0.610495  1
  Se  Se22  1  0.912464  0.080698  0.742887  1
  Se  Se23  1  0.956911  0.575053  0.761198  1
  Se  Se24  1  0.329749  0.053733  0.798742  1
  Se  Se25  1  0.318450  0.543171  0.805547  1
  Se  Se26  1  0.731471  0.805274  0.950541  1
  Se  Se27  1  0.069966  0.903584  0.974617  1
