# generated using pymatgen
data_LaTh2(Al2Ag)3
_symmetry_space_group_name_H-M   'P 1'
_cell_length_a   9.47647798
_cell_length_b   9.47647785
_cell_length_c   9.47647800
_cell_angle_alpha   35.15989732
_cell_angle_beta   35.15989846
_cell_angle_gamma   35.15989569
_symmetry_Int_Tables_number   1
_chemical_formula_structural   LaTh2(Al2Ag)3
_chemical_formula_sum   'La1 Th2 Al6 Ag3'
_cell_volume   252.05038588
_cell_formula_units_Z   1
loop_
 _symmetry_equiv_pos_site_id
 _symmetry_equiv_pos_as_xyz
  1  'x, y, z'
loop_
 _atom_site_type_symbol
 _atom_site_label
 _atom_site_symmetry_multiplicity
 _atom_site_fract_x
 _atom_site_fract_y
 _atom_site_fract_z
 _atom_site_occupancy
  La  La0  1  0.000000  0.000000  0.000000  1
  Th  Th1  1  0.857963  0.857963  0.857963  1
  Th  Th2  1  0.142037  0.142037  0.142037  1
  Al  Al3  1  0.412612  0.925066  0.412612  1
  Al  Al4  1  0.412612  0.412612  0.925066  1
  Al  Al5  1  0.925066  0.412612  0.412612  1
  Al  Al6  1  0.587388  0.074934  0.587388  1
  Al  Al7  1  0.587388  0.587388  0.074934  1
  Al  Al8  1  0.074934  0.587388  0.587388  1
  Ag  Ag9  1  0.664137  0.664137  0.664137  1
  Ag  Ag10  1  0.335863  0.335863  0.335863  1
  Ag  Ag11  1  0.500000  0.500000  0.500000  1
