# generated using pymatgen
data_Tb2Dy9HoNi4
_symmetry_space_group_name_H-M   'P 1'
_cell_length_a   6.34390400
_cell_length_b   6.83950200
_cell_length_c   9.57563000
_cell_angle_alpha   89.99905818
_cell_angle_beta   89.99866151
_cell_angle_gamma   90.00018246
_symmetry_Int_Tables_number   1
_chemical_formula_structural   Tb2Dy9HoNi4
_chemical_formula_sum   'Tb2 Dy9 Ho1 Ni4'
_cell_volume   415.47838979
_cell_formula_units_Z   1
loop_
 _symmetry_equiv_pos_site_id
 _symmetry_equiv_pos_as_xyz
  1  'x, y, z'
loop_
 _atom_site_type_symbol
 _atom_site_label
 _atom_site_symmetry_multiplicity
 _atom_site_fract_x
 _atom_site_fract_y
 _atom_site_fract_z
 _atom_site_occupancy
  Tb  Tb0  1  0.141565  0.464549  0.750008  1
  Tb  Tb1  1  0.358426  0.964545  0.750004  1
  Dy  Dy2  1  0.176790  0.178049  0.433513  1
  Dy  Dy3  1  0.676703  0.321956  0.566080  1
  Dy  Dy4  1  0.823291  0.821941  0.933937  1
  Dy  Dy5  1  0.676692  0.321950  0.933929  1
  Dy  Dy6  1  0.823299  0.821954  0.566081  1
  Dy  Dy7  1  0.323215  0.678048  0.433496  1
  Dy  Dy8  1  0.176802  0.178040  0.066494  1
  Dy  Dy9  1  0.858049  0.535634  0.249984  1
  Dy  Dy10  1  0.641933  0.035620  0.249993  1
  Ho  Ho11  1  0.323219  0.678041  0.066510  1
  Ni  Ni12  1  0.056832  0.890706  0.249981  1
  Ni  Ni13  1  0.443190  0.390759  0.249980  1
  Ni  Ni14  1  0.942032  0.109106  0.750000  1
  Ni  Ni15  1  0.557963  0.609103  0.750012  1
