# generated using pymatgen
data_Er2LuHg5
_symmetry_space_group_name_H-M   'P 1'
_cell_length_a   6.32449818
_cell_length_b   6.32449802
_cell_length_c   10.08251800
_cell_angle_alpha   90.00000000
_cell_angle_beta   90.00000000
_cell_angle_gamma   105.09426729
_symmetry_Int_Tables_number   1
_chemical_formula_structural   Er2LuHg5
_chemical_formula_sum   'Er4 Lu2 Hg10'
_cell_volume   389.37927135
_cell_formula_units_Z   2
loop_
 _symmetry_equiv_pos_site_id
 _symmetry_equiv_pos_as_xyz
  1  'x, y, z'
loop_
 _atom_site_type_symbol
 _atom_site_label
 _atom_site_symmetry_multiplicity
 _atom_site_fract_x
 _atom_site_fract_y
 _atom_site_fract_z
 _atom_site_occupancy
  Er  Er0  1  0.216921  0.783079  0.500000  1
  Er  Er1  1  0.216921  0.783079  0.000000  1
  Er  Er2  1  0.783079  0.216921  0.500000  1
  Er  Er3  1  0.783079  0.216921  0.000000  1
  Lu  Lu4  1  0.568244  0.568244  0.250000  1
  Lu  Lu5  1  0.431756  0.431756  0.750000  1
  Hg  Hg6  1  0.968065  0.968065  0.250000  1
  Hg  Hg7  1  0.031935  0.031935  0.750000  1
  Hg  Hg8  1  0.292860  0.292860  0.029387  1
  Hg  Hg9  1  0.707140  0.707140  0.970613  1
  Hg  Hg10  1  0.292860  0.292860  0.470613  1
  Hg  Hg11  1  0.707140  0.707140  0.529387  1
  Hg  Hg12  1  0.480306  0.037145  0.250000  1
  Hg  Hg13  1  0.962855  0.519694  0.750000  1
  Hg  Hg14  1  0.519694  0.962855  0.750000  1
  Hg  Hg15  1  0.037145  0.480306  0.250000  1
