# generated using pymatgen
data_Ce2Nd5Sm(GaRh)8
_symmetry_space_group_name_H-M   'P 1'
_cell_length_a   4.18133000
_cell_length_b   7.17396456
_cell_length_c   16.15780158
_cell_angle_alpha   91.32939744
_cell_angle_beta   90.00000000
_cell_angle_gamma   90.00000000
_symmetry_Int_Tables_number   1
_chemical_formula_structural   Ce2Nd5Sm(GaRh)8
_chemical_formula_sum   'Ce2 Nd5 Sm1 Ga8 Rh8'
_cell_volume   484.55048263
_cell_formula_units_Z   1
loop_
 _symmetry_equiv_pos_site_id
 _symmetry_equiv_pos_as_xyz
  1  'x, y, z'
loop_
 _atom_site_type_symbol
 _atom_site_label
 _atom_site_symmetry_multiplicity
 _atom_site_fract_x
 _atom_site_fract_y
 _atom_site_fract_z
 _atom_site_occupancy
  Ce  Ce0  1  0.250000  0.542088  0.718419  1
  Ce  Ce1  1  0.750000  0.458044  0.281442  1
  Nd  Nd2  1  0.750000  0.833120  0.441015  1
  Nd  Nd3  1  0.250000  0.663727  0.939862  1
  Nd  Nd4  1  0.750000  0.335837  0.059844  1
  Nd  Nd5  1  0.250000  0.041038  0.779558  1
  Nd  Nd6  1  0.750000  0.958612  0.220215  1
  Sm  Sm7  1  0.250000  0.168683  0.559669  1
  Ga  Ga8  1  0.250000  0.123688  0.350058  1
  Ga  Ga9  1  0.750000  0.879399  0.649976  1
  Ga  Ga10  1  0.250000  0.633776  0.149147  1
  Ga  Ga11  1  0.750000  0.365562  0.850033  1
  Ga  Ga12  1  0.250000  0.003811  0.066046  1
  Ga  Ga13  1  0.750000  0.996388  0.933650  1
  Ga  Ga14  1  0.250000  0.501378  0.439200  1
  Ga  Ga15  1  0.750000  0.497310  0.561597  1
  Rh  Rh16  1  0.750000  0.266253  0.425763  1
  Rh  Rh17  1  0.250000  0.734489  0.575832  1
  Rh  Rh18  1  0.750000  0.771331  0.066736  1
  Rh  Rh19  1  0.250000  0.228686  0.933134  1
  Rh  Rh20  1  0.750000  0.729110  0.809453  1
  Rh  Rh21  1  0.250000  0.270385  0.190537  1
  Rh  Rh22  1  0.750000  0.267578  0.683809  1
  Rh  Rh23  1  0.250000  0.729709  0.315005  1
