# generated using pymatgen
data_Zr12Si3Te
_symmetry_space_group_name_H-M   'P 1'
_cell_length_a   11.10646831
_cell_length_b   11.13394343
_cell_length_c   5.52412100
_cell_angle_alpha   90.00000000
_cell_angle_beta   90.00000000
_cell_angle_gamma   89.85122995
_symmetry_Int_Tables_number   1
_chemical_formula_structural   Zr12Si3Te
_chemical_formula_sum   'Zr24 Si6 Te2'
_cell_volume   683.10381542
_cell_formula_units_Z   2
loop_
 _symmetry_equiv_pos_site_id
 _symmetry_equiv_pos_as_xyz
  1  'x, y, z'
loop_
 _atom_site_type_symbol
 _atom_site_label
 _atom_site_symmetry_multiplicity
 _atom_site_fract_x
 _atom_site_fract_y
 _atom_site_fract_z
 _atom_site_occupancy
  Zr  Zr0  1  0.917347  0.605179  0.536902  1
  Zr  Zr1  1  0.082653  0.394821  0.536902  1
  Zr  Zr2  1  0.890698  0.417258  0.034108  1
  Zr  Zr3  1  0.109302  0.582742  0.034108  1
  Zr  Zr4  1  0.575478  0.887853  0.951987  1
  Zr  Zr5  1  0.424522  0.112147  0.951987  1
  Zr  Zr6  1  0.600340  0.089087  0.479265  1
  Zr  Zr7  1  0.399660  0.910913  0.479265  1
  Zr  Zr8  1  0.866855  0.975938  0.718878  1
  Zr  Zr9  1  0.133145  0.024062  0.718878  1
  Zr  Zr10  1  0.525793  0.362369  0.219540  1
  Zr  Zr11  1  0.474207  0.637631  0.219540  1
  Zr  Zr12  1  0.639617  0.524845  0.780690  1
  Zr  Zr13  1  0.360383  0.475155  0.780690  1
  Zr  Zr14  1  0.972529  0.148391  0.281400  1
  Zr  Zr15  1  0.027471  0.851609  0.281400  1
  Zr  Zr16  1  0.817934  0.710407  0.003020  1
  Zr  Zr17  1  0.182066  0.289593  0.003020  1
  Zr  Zr18  1  0.783755  0.321895  0.510979  1
  Zr  Zr19  1  0.216245  0.678105  0.510979  1
  Zr  Zr20  1  0.679621  0.776662  0.501659  1
  Zr  Zr21  1  0.320379  0.223338  0.501659  1
  Zr  Zr22  1  0.712866  0.187078  0.982070  1
  Zr  Zr23  1  0.287134  0.812922  0.982070  1
  Si  Si24  1  0.540923  0.300022  0.711239  1
  Si  Si25  1  0.459077  0.699978  0.711239  1
  Si  Si26  1  0.705665  0.541020  0.287757  1
  Si  Si27  1  0.294335  0.458980  0.287757  1
  Si  Si28  1  0.958984  0.208018  0.786316  1
  Si  Si29  1  0.041016  0.791982  0.786316  1
  Te  Te30  1  0.790194  0.960323  0.214190  1
  Te  Te31  1  0.209806  0.039677  0.214190  1
