# generated using pymatgen
data_Lu10Cd2InNi
_symmetry_space_group_name_H-M   'P 1'
_cell_length_a   9.48199778
_cell_length_b   9.52381275
_cell_length_c   9.40748800
_cell_angle_alpha   90.00000000
_cell_angle_beta   90.00000000
_cell_angle_gamma   120.14598641
_symmetry_Int_Tables_number   1
_chemical_formula_structural   Lu10Cd2InNi
_chemical_formula_sum   'Lu20 Cd4 In2 Ni2'
_cell_volume   734.63945508
_cell_formula_units_Z   2
loop_
 _symmetry_equiv_pos_site_id
 _symmetry_equiv_pos_as_xyz
  1  'x, y, z'
loop_
 _atom_site_type_symbol
 _atom_site_label
 _atom_site_symmetry_multiplicity
 _atom_site_fract_x
 _atom_site_fract_y
 _atom_site_fract_z
 _atom_site_occupancy
  Lu  Lu0  1  0.002824  0.001412  0.504420  1
  Lu  Lu1  1  0.002824  0.001412  0.995580  1
  Lu  Lu2  1  0.540525  0.454650  0.250000  1
  Lu  Lu3  1  0.540525  0.085874  0.250000  1
  Lu  Lu4  1  0.913952  0.456976  0.250000  1
  Lu  Lu5  1  0.456800  0.543254  0.750000  1
  Lu  Lu6  1  0.456800  0.913547  0.750000  1
  Lu  Lu7  1  0.086673  0.543337  0.750000  1
  Lu  Lu8  1  0.211389  0.788883  0.438629  1
  Lu  Lu9  1  0.211389  0.422507  0.438629  1
  Lu  Lu10  1  0.577722  0.788861  0.437839  1
  Lu  Lu11  1  0.788504  0.211319  0.562524  1
  Lu  Lu12  1  0.788504  0.577185  0.562524  1
  Lu  Lu13  1  0.422375  0.211187  0.563649  1
  Lu  Lu14  1  0.788504  0.211319  0.937476  1
  Lu  Lu15  1  0.788504  0.577185  0.937476  1
  Lu  Lu16  1  0.422375  0.211187  0.936351  1
  Lu  Lu17  1  0.211389  0.788883  0.061371  1
  Lu  Lu18  1  0.211389  0.422507  0.061371  1
  Lu  Lu19  1  0.577722  0.788861  0.062161  1
  Cd  Cd20  1  0.231673  0.115837  0.250000  1
  Cd  Cd21  1  0.115940  0.883044  0.750000  1
  Cd  Cd22  1  0.115940  0.232896  0.750000  1
  Cd  Cd23  1  0.767577  0.883788  0.750000  1
  In  In24  1  0.884521  0.117783  0.250000  1
  In  In25  1  0.884521  0.766737  0.250000  1
  Ni  Ni26  1  0.333176  0.666589  0.250000  1
  Ni  Ni27  1  0.665965  0.332982  0.750000  1
