# generated using pymatgen
data_Ta3NbVSiB2
_symmetry_space_group_name_H-M   'P 1'
_cell_length_a   7.22961400
_cell_length_b   7.22961468
_cell_length_c   7.22832143
_cell_angle_alpha   129.81299114
_cell_angle_beta   129.81299259
_cell_angle_gamma   73.71957998
_symmetry_Int_Tables_number   1
_chemical_formula_structural   Ta3NbVSiB2
_chemical_formula_sum   'Ta6 Nb2 V2 Si2 B4'
_cell_volume   217.47282828
_cell_formula_units_Z   2
loop_
 _symmetry_equiv_pos_site_id
 _symmetry_equiv_pos_as_xyz
  1  'x, y, z'
loop_
 _atom_site_type_symbol
 _atom_site_label
 _atom_site_symmetry_multiplicity
 _atom_site_fract_x
 _atom_site_fract_y
 _atom_site_fract_z
 _atom_site_occupancy
  Ta  Ta0  1  0.805616  0.305819  0.839691  1
  Ta  Ta1  1  0.194181  0.694384  0.160309  1
  Ta  Ta2  1  0.465925  0.966129  0.160309  1
  Ta  Ta3  1  0.305734  0.466433  0.500000  1
  Ta  Ta4  1  0.033567  0.194266  0.500000  1
  Ta  Ta5  1  0.533871  0.034075  0.839691  1
  Nb  Nb6  1  0.694013  0.533488  0.500000  1
  Nb  Nb7  1  0.966512  0.805987  0.500000  1
  V  V8  1  0.999892  0.999384  0.999275  1
  V  V9  1  0.500616  0.500108  0.000725  1
  Si  Si10  1  0.249960  0.250040  0.000000  1
  Si  Si11  1  0.749960  0.750040  0.000000  1
  B  B12  1  0.121348  0.618814  0.740161  1
  B  B13  1  0.881186  0.378652  0.259839  1
  B  B14  1  0.617354  0.882646  0.500000  1
  B  B15  1  0.380264  0.119736  0.500000  1
