# generated using pymatgen
data_Tb16MgZn(Co2Hg)2
_symmetry_space_group_name_H-M   'P 1'
_cell_length_a   9.53487864
_cell_length_b   9.50329180
_cell_length_c   9.51351800
_cell_angle_alpha   59.96439752
_cell_angle_beta   60.07407968
_cell_angle_gamma   60.08799708
_symmetry_Int_Tables_number   1
_chemical_formula_structural   Tb16MgZn(Co2Hg)2
_chemical_formula_sum   'Tb16 Mg1 Zn1 Co4 Hg2'
_cell_volume   610.13926260
_cell_formula_units_Z   1
loop_
 _symmetry_equiv_pos_site_id
 _symmetry_equiv_pos_as_xyz
  1  'x, y, z'
loop_
 _atom_site_type_symbol
 _atom_site_label
 _atom_site_symmetry_multiplicity
 _atom_site_fract_x
 _atom_site_fract_y
 _atom_site_fract_z
 _atom_site_occupancy
  Tb  Tb0  1  0.807888  0.188889  0.192218  1
  Tb  Tb1  1  0.185068  0.812245  0.813479  1
  Tb  Tb2  1  0.185068  0.812245  0.189207  1
  Tb  Tb3  1  0.807888  0.188889  0.811005  1
  Tb  Tb4  1  0.187391  0.187826  0.812391  1
  Tb  Tb5  1  0.806976  0.809272  0.191876  1
  Tb  Tb6  1  0.938176  0.561079  0.561740  1
  Tb  Tb7  1  0.560170  0.943124  0.933828  1
  Tb  Tb8  1  0.560171  0.943124  0.562878  1
  Tb  Tb9  1  0.938176  0.561079  0.939006  1
  Tb  Tb10  1  0.561293  0.564051  0.937329  1
  Tb  Tb11  1  0.933526  0.942821  0.561826  1
  Tb  Tb12  1  0.347922  0.346104  0.343832  1
  Tb  Tb13  1  0.347922  0.346104  0.962141  1
  Tb  Tb14  1  0.348172  0.961023  0.345402  1
  Tb  Tb15  1  0.951590  0.349263  0.349572  1
  Mg  Mg16  1  0.285487  0.568020  0.573246  1
  Zn  Zn17  1  0.585496  0.248880  0.582812  1
  Co  Co18  1  0.139811  0.143356  0.139567  1
  Co  Co19  1  0.139811  0.143356  0.577268  1
  Co  Co20  1  0.139136  0.577119  0.141873  1
  Co  Co21  1  0.577734  0.142059  0.140104  1
  Hg  Hg22  1  0.582563  0.580034  0.587247  1
  Hg  Hg23  1  0.582563  0.580034  0.250156  1
