# generated using pymatgen
data_Y2Er(P3Pd10)2
_symmetry_space_group_name_H-M   'P 1'
_cell_length_a   8.68249951
_cell_length_b   8.68249929
_cell_length_c   8.68250000
_cell_angle_alpha   59.99999730
_cell_angle_beta   59.99999812
_cell_angle_gamma   60.00000233
_symmetry_Int_Tables_number   1
_chemical_formula_structural   Y2Er(P3Pd10)2
_chemical_formula_sum   'Y2 Er1 P6 Pd20'
_cell_volume   462.82766524
_cell_formula_units_Z   1
loop_
 _symmetry_equiv_pos_site_id
 _symmetry_equiv_pos_as_xyz
  1  'x, y, z'
loop_
 _atom_site_type_symbol
 _atom_site_label
 _atom_site_symmetry_multiplicity
 _atom_site_fract_x
 _atom_site_fract_y
 _atom_site_fract_z
 _atom_site_occupancy
  Y  Y0  1  0.750000  0.750000  0.750000  1
  Y  Y1  1  0.250000  0.250000  0.250000  1
  Er  Er2  1  0.000000  0.000000  0.000000  1
  P  P3  1  0.736783  0.263217  0.263217  1
  P  P4  1  0.736783  0.736783  0.263217  1
  P  P5  1  0.736783  0.263217  0.736783  1
  P  P6  1  0.263217  0.736783  0.263217  1
  P  P7  1  0.263217  0.736783  0.736783  1
  P  P8  1  0.263217  0.263217  0.736783  1
  Pd  Pd9  1  0.345028  0.000000  0.000000  1
  Pd  Pd10  1  0.000000  0.654972  0.345028  1
  Pd  Pd11  1  0.345028  0.000000  0.654972  1
  Pd  Pd12  1  0.000000  0.654972  0.000000  1
  Pd  Pd13  1  0.654972  0.345028  0.000000  1
  Pd  Pd14  1  0.615539  0.615539  0.153381  1
  Pd  Pd15  1  0.384461  0.846619  0.384461  1
  Pd  Pd16  1  0.153381  0.615539  0.615539  1
  Pd  Pd17  1  0.654972  0.000000  0.345028  1
  Pd  Pd18  1  0.000000  0.345028  0.654972  1
  Pd  Pd19  1  0.654972  0.000000  0.000000  1
  Pd  Pd20  1  0.000000  0.000000  0.345028  1
  Pd  Pd21  1  0.615539  0.153381  0.615539  1
  Pd  Pd22  1  0.345028  0.654972  0.000000  1
  Pd  Pd23  1  0.384461  0.384461  0.384461  1
  Pd  Pd24  1  0.615539  0.615539  0.615539  1
  Pd  Pd25  1  0.384461  0.384461  0.846619  1
  Pd  Pd26  1  0.000000  0.000000  0.654972  1
  Pd  Pd27  1  0.846619  0.384461  0.384461  1
  Pd  Pd28  1  0.000000  0.345028  0.000000  1
