# generated using pymatgen
data_Pr5Sm7(GaRh)8
_symmetry_space_group_name_H-M   'P 1'
_cell_length_a   5.67023002
_cell_length_b   8.16861465
_cell_length_c   13.65874331
_cell_angle_alpha   90.07929048
_cell_angle_beta   90.13213099
_cell_angle_gamma   90.07456222
_symmetry_Int_Tables_number   1
_chemical_formula_structural   Pr5Sm7(GaRh)8
_chemical_formula_sum   'Pr5 Sm7 Ga8 Rh8'
_cell_volume   632.64180826
_cell_formula_units_Z   1
loop_
 _symmetry_equiv_pos_site_id
 _symmetry_equiv_pos_as_xyz
  1  'x, y, z'
loop_
 _atom_site_type_symbol
 _atom_site_label
 _atom_site_symmetry_multiplicity
 _atom_site_fract_x
 _atom_site_fract_y
 _atom_site_fract_z
 _atom_site_occupancy
  Pr  Pr0  1  0.633064  0.257287  0.250923  1
  Pr  Pr1  1  0.366586  0.741460  0.749860  1
  Pr  Pr2  1  0.366672  0.758736  0.250584  1
  Pr  Pr3  1  0.633569  0.242104  0.749913  1
  Pr  Pr4  1  0.144855  0.397048  0.097172  1
  Sm  Sm5  1  0.851907  0.603839  0.901882  1
  Sm  Sm6  1  0.851904  0.602445  0.597100  1
  Sm  Sm7  1  0.852459  0.897645  0.403628  1
  Sm  Sm8  1  0.147691  0.397055  0.403085  1
  Sm  Sm9  1  0.147493  0.102789  0.597351  1
  Sm  Sm10  1  0.148350  0.101764  0.902362  1
  Sm  Sm11  1  0.851968  0.897178  0.096954  1
  Ga  Ga12  1  0.130910  0.107068  0.250734  1
  Ga  Ga13  1  0.868850  0.891380  0.749763  1
  Ga  Ga14  1  0.866435  0.610146  0.251260  1
  Ga  Ga15  1  0.131373  0.390749  0.749706  1
  Ga  Ga16  1  0.637463  0.249416  0.999568  1
  Ga  Ga17  1  0.363337  0.751002  0.999088  1
  Ga  Ga18  1  0.363230  0.749697  0.500156  1
  Ga  Ga19  1  0.636639  0.250120  0.500224  1
  Rh  Rh20  1  0.358256  0.033808  0.091003  1
  Rh  Rh21  1  0.643337  0.964491  0.908840  1
  Rh  Rh22  1  0.643712  0.964668  0.590579  1
  Rh  Rh23  1  0.642774  0.535129  0.409603  1
  Rh  Rh24  1  0.356760  0.034974  0.409928  1
  Rh  Rh25  1  0.356133  0.464683  0.590632  1
  Rh  Rh26  1  0.361302  0.465538  0.907792  1
  Rh  Rh27  1  0.642973  0.537780  0.090311  1
