# generated using pymatgen
data_Tb7Er3(InBi2)2
_symmetry_space_group_name_H-M   'P 1'
_cell_length_a   9.10003560
_cell_length_b   9.11868403
_cell_length_c   6.53736245
_cell_angle_alpha   90.00422021
_cell_angle_beta   90.03453031
_cell_angle_gamma   120.03413629
_symmetry_Int_Tables_number   1
_chemical_formula_structural   Tb7Er3(InBi2)2
_chemical_formula_sum   'Tb7 Er3 In2 Bi4'
_cell_volume   469.63325667
_cell_formula_units_Z   1
loop_
 _symmetry_equiv_pos_site_id
 _symmetry_equiv_pos_as_xyz
  1  'x, y, z'
loop_
 _atom_site_type_symbol
 _atom_site_label
 _atom_site_symmetry_multiplicity
 _atom_site_fract_x
 _atom_site_fract_y
 _atom_site_fract_z
 _atom_site_occupancy
  Tb  Tb0  1  0.660599  0.328609  0.502193  1
  Tb  Tb1  1  0.755547  0.764097  0.750056  1
  Tb  Tb2  1  0.243848  0.008402  0.750087  1
  Tb  Tb3  1  0.000440  0.236047  0.750129  1
  Tb  Tb4  1  0.239847  0.238161  0.249664  1
  Tb  Tb5  1  0.761145  0.998140  0.249721  1
  Tb  Tb6  1  0.999259  0.760176  0.249758  1
  Er  Er7  1  0.660429  0.328660  0.997242  1
  Er  Er8  1  0.339374  0.668424  0.997073  1
  Er  Er9  1  0.339768  0.668741  0.503136  1
  In  In10  1  0.393338  0.395740  0.751108  1
  In  In11  1  0.604924  0.000902  0.751268  1
  Bi  Bi12  1  0.001124  0.609609  0.750622  1
  Bi  Bi13  1  0.606797  0.604816  0.249134  1
  Bi  Bi14  1  0.392959  0.995946  0.249437  1
  Bi  Bi15  1  0.000601  0.393528  0.249373  1
