# generated using pymatgen
data_Ta6FeSi2Os3C2
_symmetry_space_group_name_H-M   'P 1'
_cell_length_a   8.20597317
_cell_length_b   8.20220927
_cell_length_c   8.20548222
_cell_angle_alpha   119.99441914
_cell_angle_beta   119.97151920
_cell_angle_gamma   90.03710355
_symmetry_Int_Tables_number   1
_chemical_formula_structural   Ta6FeSi2Os3C2
_chemical_formula_sum   'Ta12 Fe2 Si4 Os6 C4'
_cell_volume   390.60060645
_cell_formula_units_Z   2
loop_
 _symmetry_equiv_pos_site_id
 _symmetry_equiv_pos_as_xyz
  1  'x, y, z'
loop_
 _atom_site_type_symbol
 _atom_site_label
 _atom_site_symmetry_multiplicity
 _atom_site_fract_x
 _atom_site_fract_y
 _atom_site_fract_z
 _atom_site_occupancy
  Ta  Ta0  1  0.176185  0.176238  0.000024  1
  Ta  Ta1  1  0.571868  0.571938  0.000068  1
  Ta  Ta2  1  0.177009  0.572483  0.001441  1
  Ta  Ta3  1  0.570960  0.175540  0.998522  1
  Ta  Ta4  1  0.176982  0.175564  0.604564  1
  Ta  Ta5  1  0.571091  0.572502  0.395514  1
  Ta  Ta6  1  0.322216  0.822248  0.500031  1
  Ta  Ta7  1  0.929118  0.429127  0.500000  1
  Ta  Ta8  1  0.318342  0.424906  0.497910  1
  Ta  Ta9  1  0.927015  0.820468  0.502124  1
  Ta  Ta10  1  0.318338  0.820458  0.893437  1
  Ta  Ta11  1  0.926968  0.424885  0.106536  1
  Fe  Fe12  1  0.958229  0.795330  0.837053  1
  Fe  Fe13  1  0.958360  0.120879  0.162756  1
  Si  Si14  1  0.756261  0.005520  0.249257  1
  Si  Si15  1  0.756073  0.506837  0.750738  1
  Si  Si16  1  0.761382  0.000001  0.761329  1
  Si  Si17  1  0.238670  0.000020  0.238632  1
  Os  Os18  1  0.959692  0.794467  0.165177  1
  Os  Os19  1  0.629302  0.794453  0.834757  1
  Os  Os20  1  0.541683  0.208085  0.666488  1
  Os  Os21  1  0.541606  0.875248  0.333532  1
  Os  Os22  1  0.540875  0.208369  0.332481  1
  Os  Os23  1  0.875867  0.208424  0.667539  1
  C  C24  1  0.249266  0.498029  0.248785  1
  C  C25  1  0.249212  0.000560  0.751314  1
  C  C26  1  0.249033  0.498707  0.750305  1
  C  C27  1  0.748395  0.498716  0.249685  1
