# generated using pymatgen
data_Dy5Y11Cd4(CoNi)2
_symmetry_space_group_name_H-M   'P 1'
_cell_length_a   9.54211469
_cell_length_b   9.55309443
_cell_length_c   9.56634404
_cell_angle_alpha   59.97134071
_cell_angle_beta   60.00636318
_cell_angle_gamma   59.93661255
_symmetry_Int_Tables_number   1
_chemical_formula_structural   Dy5Y11Cd4(CoNi)2
_chemical_formula_sum   'Dy5 Y11 Cd4 Co2 Ni2'
_cell_volume   616.22314785
_cell_formula_units_Z   1
loop_
 _symmetry_equiv_pos_site_id
 _symmetry_equiv_pos_as_xyz
  1  'x, y, z'
loop_
 _atom_site_type_symbol
 _atom_site_label
 _atom_site_symmetry_multiplicity
 _atom_site_fract_x
 _atom_site_fract_y
 _atom_site_fract_z
 _atom_site_occupancy
  Dy  Dy0  1  0.595524  0.595646  0.599502  1
  Dy  Dy1  1  0.598032  0.597906  0.205098  1
  Dy  Dy2  1  0.595360  0.209222  0.598829  1
  Dy  Dy3  1  0.208751  0.595365  0.599064  1
  Dy  Dy4  1  0.064283  0.438487  0.439460  1
  Y  Y5  1  0.437261  0.064999  0.057838  1
  Y  Y6  1  0.438715  0.063601  0.439786  1
  Y  Y7  1  0.065272  0.437129  0.057758  1
  Y  Y8  1  0.438867  0.438885  0.060670  1
  Y  Y9  1  0.061226  0.060905  0.437741  1
  Y  Y10  1  0.187400  0.811740  0.814190  1
  Y  Y11  1  0.810318  0.187359  0.188326  1
  Y  Y12  1  0.811789  0.187850  0.813833  1
  Y  Y13  1  0.187472  0.809755  0.188669  1
  Y  Y14  1  0.812884  0.812383  0.188547  1
  Y  Y15  1  0.187952  0.188182  0.811214  1
  Cd  Cd16  1  0.829343  0.829408  0.830401  1
  Cd  Cd17  1  0.830012  0.830247  0.508143  1
  Cd  Cd18  1  0.830838  0.506355  0.831027  1
  Cd  Cd19  1  0.506336  0.830822  0.830847  1
  Co  Co20  1  0.391971  0.394324  0.392601  1
  Co  Co21  1  0.393593  0.393461  0.821888  1
  Ni  Ni22  1  0.393458  0.822097  0.392110  1
  Ni  Ni23  1  0.823343  0.393874  0.392461  1
