# generated using pymatgen
data_VSi16(MoPt4)3
_symmetry_space_group_name_H-M   'P 1'
_cell_length_a   3.52494400
_cell_length_b   5.54868236
_cell_length_c   24.52503109
_cell_angle_alpha   90.04419497
_cell_angle_beta   90.00000000
_cell_angle_gamma   90.00000000
_symmetry_Int_Tables_number   1
_chemical_formula_structural   VSi16(MoPt4)3
_chemical_formula_sum   'V1 Si16 Mo3 Pt12'
_cell_volume   479.67990248
_cell_formula_units_Z   1
loop_
 _symmetry_equiv_pos_site_id
 _symmetry_equiv_pos_as_xyz
  1  'x, y, z'
loop_
 _atom_site_type_symbol
 _atom_site_label
 _atom_site_symmetry_multiplicity
 _atom_site_fract_x
 _atom_site_fract_y
 _atom_site_fract_z
 _atom_site_occupancy
  V  V0  1  0.250000  0.504739  0.710513  1
  Si  Si1  1  0.250000  0.181525  0.520546  1
  Si  Si2  1  0.750000  0.321092  0.019461  1
  Si  Si3  1  0.250000  0.679824  0.980013  1
  Si  Si4  1  0.750000  0.821373  0.481001  1
  Si  Si5  1  0.750000  0.324739  0.648505  1
  Si  Si6  1  0.250000  0.180474  0.145978  1
  Si  Si7  1  0.750000  0.819808  0.853114  1
  Si  Si8  1  0.250000  0.680593  0.353968  1
  Si  Si9  1  0.250000  0.654786  0.611829  1
  Si  Si10  1  0.750000  0.839684  0.109586  1
  Si  Si11  1  0.250000  0.161664  0.889517  1
  Si  Si12  1  0.750000  0.339844  0.390341  1
  Si  Si13  1  0.750000  0.820259  0.726302  1
  Si  Si14  1  0.250000  0.668986  0.225891  1
  Si  Si15  1  0.750000  0.333044  0.770698  1
  Si  Si16  1  0.250000  0.168561  0.274211  1
  Mo  Mo17  1  0.750000  0.995743  0.210326  1
  Mo  Mo18  1  0.250000  0.004967  0.789087  1
  Mo  Mo19  1  0.750000  0.494926  0.289633  1
  Pt  Pt20  1  0.750000  0.003609  0.575037  1
  Pt  Pt21  1  0.250000  0.498519  0.074345  1
  Pt  Pt22  1  0.750000  0.501592  0.925000  1
  Pt  Pt23  1  0.250000  0.998187  0.426102  1
  Pt  Pt24  1  0.250000  0.003240  0.670362  1
  Pt  Pt25  1  0.750000  0.496190  0.169589  1
  Pt  Pt26  1  0.250000  0.504025  0.828674  1
  Pt  Pt27  1  0.750000  0.995941  0.330494  1
  Pt  Pt28  1  0.750000  0.504110  0.548559  1
  Pt  Pt29  1  0.250000  0.997891  0.048417  1
  Pt  Pt30  1  0.750000  0.002521  0.951511  1
  Pt  Pt31  1  0.250000  0.497546  0.451387  1
