# generated using pymatgen
data_LiMnZn6(CoSb)8
_symmetry_space_group_name_H-M   'P 1'
_cell_length_a   8.12912906
_cell_length_b   8.18448632
_cell_length_c   8.18448607
_cell_angle_alpha   60.42025624
_cell_angle_beta   60.22348808
_cell_angle_gamma   60.22348922
_symmetry_Int_Tables_number   1
_chemical_formula_structural   LiMnZn6(CoSb)8
_chemical_formula_sum   'Li1 Mn1 Zn6 Co8 Sb8'
_cell_volume   387.56129792
_cell_formula_units_Z   1
loop_
 _symmetry_equiv_pos_site_id
 _symmetry_equiv_pos_as_xyz
  1  'x, y, z'
loop_
 _atom_site_type_symbol
 _atom_site_label
 _atom_site_symmetry_multiplicity
 _atom_site_fract_x
 _atom_site_fract_y
 _atom_site_fract_z
 _atom_site_occupancy
  Li  Li0  1  0.000000  0.500000  0.500000  1
  Mn  Mn1  1  0.500000  0.500000  0.500000  1
  Zn  Zn2  1  0.500000  0.500000  0.000000  1
  Zn  Zn3  1  0.000000  0.000000  0.000000  1
  Zn  Zn4  1  0.500000  0.000000  0.500000  1
  Zn  Zn5  1  0.000000  0.500000  0.000000  1
  Zn  Zn6  1  0.000000  0.000000  0.500000  1
  Zn  Zn7  1  0.500000  0.000000  0.000000  1
  Co  Co8  1  0.123581  0.122233  0.122233  1
  Co  Co9  1  0.631951  0.122233  0.122233  1
  Co  Co10  1  0.124183  0.113894  0.637739  1
  Co  Co11  1  0.875817  0.362261  0.886106  1
  Co  Co12  1  0.124183  0.637739  0.113894  1
  Co  Co13  1  0.368049  0.877767  0.877767  1
  Co  Co14  1  0.875817  0.886106  0.362261  1
  Co  Co15  1  0.876419  0.877767  0.877767  1
  Sb  Sb16  1  0.244723  0.255277  0.255277  1
  Sb  Sb17  1  0.265881  0.727797  0.272203  1
  Sb  Sb18  1  0.265881  0.272203  0.727797  1
  Sb  Sb19  1  0.728066  0.271934  0.271934  1
  Sb  Sb20  1  0.271934  0.728066  0.728066  1
  Sb  Sb21  1  0.734119  0.727797  0.272203  1
  Sb  Sb22  1  0.734119  0.272203  0.727797  1
  Sb  Sb23  1  0.755277  0.744723  0.744723  1
