# generated using pymatgen
data_Y2HoTm(GaCo)4
_symmetry_space_group_name_H-M   'P 1'
_cell_length_a   4.41836700
_cell_length_b   6.87582045
_cell_length_c   7.00387201
_cell_angle_alpha   89.97122719
_cell_angle_beta   90.00000000
_cell_angle_gamma   90.00000000
_symmetry_Int_Tables_number   1
_chemical_formula_structural   Y2HoTm(GaCo)4
_chemical_formula_sum   'Y2 Ho1 Tm1 Ga4 Co4'
_cell_volume   212.77689147
_cell_formula_units_Z   1
loop_
 _symmetry_equiv_pos_site_id
 _symmetry_equiv_pos_as_xyz
  1  'x, y, z'
loop_
 _atom_site_type_symbol
 _atom_site_label
 _atom_site_symmetry_multiplicity
 _atom_site_fract_x
 _atom_site_fract_y
 _atom_site_fract_z
 _atom_site_occupancy
  Y  Y0  1  0.750000  0.693541  0.479169  1
  Y  Y1  1  0.750000  0.805694  0.978936  1
  Ho  Ho2  1  0.250000  0.197683  0.022703  1
  Tm  Tm3  1  0.250000  0.301519  0.522942  1
  Ga  Ga4  1  0.250000  0.895812  0.694398  1
  Ga  Ga5  1  0.250000  0.604703  0.194603  1
  Ga  Ga6  1  0.750000  0.106846  0.306611  1
  Ga  Ga7  1  0.750000  0.393472  0.804687  1
  Co  Co8  1  0.250000  0.939007  0.343408  1
  Co  Co9  1  0.250000  0.560986  0.841343  1
  Co  Co10  1  0.750000  0.065572  0.655172  1
  Co  Co11  1  0.750000  0.435165  0.156028  1
