# generated using pymatgen
data_Gd(HfSe2)4
_symmetry_space_group_name_H-M   'P 1'
_cell_length_a   8.01384874
_cell_length_b   8.01384801
_cell_length_c   8.01384904
_cell_angle_alpha   55.60472929
_cell_angle_beta   55.60473292
_cell_angle_gamma   55.60472754
_symmetry_Int_Tables_number   1
_chemical_formula_structural   Gd(HfSe2)4
_chemical_formula_sum   'Gd1 Hf4 Se8'
_cell_volume   326.80054992
_cell_formula_units_Z   1
loop_
 _symmetry_equiv_pos_site_id
 _symmetry_equiv_pos_as_xyz
  1  'x, y, z'
loop_
 _atom_site_type_symbol
 _atom_site_label
 _atom_site_symmetry_multiplicity
 _atom_site_fract_x
 _atom_site_fract_y
 _atom_site_fract_z
 _atom_site_occupancy
  Gd  Gd0  1  0.500000  0.500000  0.500000  1
  Hf  Hf1  1  0.000000  0.500000  0.500000  1
  Hf  Hf2  1  0.500000  0.000000  0.500000  1
  Hf  Hf3  1  0.500000  0.500000  0.000000  1
  Hf  Hf4  1  0.000000  0.000000  0.000000  1
  Se  Se5  1  0.243731  0.757894  0.757894  1
  Se  Se6  1  0.242106  0.242106  0.756269  1
  Se  Se7  1  0.756269  0.242106  0.242106  1
  Se  Se8  1  0.242106  0.756269  0.242106  1
  Se  Se9  1  0.255679  0.255679  0.255679  1
  Se  Se10  1  0.744321  0.744321  0.744321  1
  Se  Se11  1  0.757894  0.243731  0.757894  1
  Se  Se12  1  0.757894  0.757894  0.243731  1
