# generated using pymatgen
data_HgBi3IrPd2RuO14
_symmetry_space_group_name_H-M   'P 1'
_cell_length_a   7.26312096
_cell_length_b   7.26312296
_cell_length_c   7.26312200
_cell_angle_alpha   61.45948856
_cell_angle_beta   61.45948898
_cell_angle_gamma   61.45948465
_symmetry_Int_Tables_number   1
_chemical_formula_structural   HgBi3IrPd2RuO14
_chemical_formula_sum   'Hg1 Bi3 Ir1 Pd2 Ru1 O14'
_cell_volume   279.80731584
_cell_formula_units_Z   1
loop_
 _symmetry_equiv_pos_site_id
 _symmetry_equiv_pos_as_xyz
  1  'x, y, z'
loop_
 _atom_site_type_symbol
 _atom_site_label
 _atom_site_symmetry_multiplicity
 _atom_site_fract_x
 _atom_site_fract_y
 _atom_site_fract_z
 _atom_site_occupancy
  Hg  Hg0  1  0.125000  0.125000  0.125000  1
  Bi  Bi1  1  0.125000  0.125000  0.625000  1
  Bi  Bi2  1  0.125000  0.625000  0.125000  1
  Bi  Bi3  1  0.625000  0.125000  0.125000  1
  Ir  Ir4  1  0.625000  0.625000  0.625000  1
  Pd  Pd5  1  0.625000  0.625000  0.125000  1
  Pd  Pd6  1  0.625000  0.125000  0.625000  1
  Ru  Ru7  1  0.125000  0.625000  0.625000  1
  O  O8  1  0.246628  0.249615  0.249615  1
  O  O9  1  0.003372  0.000385  0.000385  1
  O  O10  1  0.538848  0.951247  0.544129  1
  O  O11  1  0.291726  0.690441  0.305151  1
  O  O12  1  0.538848  0.544129  0.951247  1
  O  O13  1  0.949988  0.546643  0.546643  1
  O  O14  1  0.544298  0.958326  0.958326  1
  O  O15  1  0.958274  0.944849  0.559559  1
  O  O16  1  0.958274  0.559559  0.944849  1
  O  O17  1  0.705702  0.291674  0.291674  1
  O  O18  1  0.300012  0.703357  0.703357  1
  O  O19  1  0.711152  0.298753  0.705871  1
  O  O20  1  0.291726  0.305151  0.690441  1
  O  O21  1  0.711152  0.705871  0.298753  1
