# generated using pymatgen
data_LiYCo2P3Ir2
_symmetry_space_group_name_H-M   'P 1'
_cell_length_a   3.78853100
_cell_length_b   10.53871700
_cell_length_c   12.43855000
_cell_angle_alpha   90.00000000
_cell_angle_beta   90.00000000
_cell_angle_gamma   90.00000000
_symmetry_Int_Tables_number   1
_chemical_formula_structural   LiYCo2P3Ir2
_chemical_formula_sum   'Li4 Y4 Co8 P12 Ir8'
_cell_volume   496.62473225
_cell_formula_units_Z   4
loop_
 _symmetry_equiv_pos_site_id
 _symmetry_equiv_pos_as_xyz
  1  'x, y, z'
loop_
 _atom_site_type_symbol
 _atom_site_label
 _atom_site_symmetry_multiplicity
 _atom_site_fract_x
 _atom_site_fract_y
 _atom_site_fract_z
 _atom_site_occupancy
  Li  Li0  1  0.250000  0.793588  0.489539  1
  Li  Li1  1  0.750000  0.206412  0.510461  1
  Li  Li2  1  0.750000  0.293588  0.010461  1
  Li  Li3  1  0.250000  0.706412  0.989539  1
  Y  Y4  1  0.250000  0.918601  0.211751  1
  Y  Y5  1  0.750000  0.081399  0.788249  1
  Y  Y6  1  0.750000  0.418601  0.288249  1
  Y  Y7  1  0.250000  0.581399  0.711751  1
  Co  Co8  1  0.250000  0.617425  0.191066  1
  Co  Co9  1  0.750000  0.382575  0.808934  1
  Co  Co10  1  0.750000  0.117425  0.308934  1
  Co  Co11  1  0.250000  0.882575  0.691066  1
  Co  Co12  1  0.250000  0.033872  0.435498  1
  Co  Co13  1  0.750000  0.966128  0.564502  1
  Co  Co14  1  0.750000  0.533872  0.064502  1
  Co  Co15  1  0.250000  0.466128  0.935498  1
  P  P16  1  0.250000  0.071486  0.610874  1
  P  P17  1  0.750000  0.928514  0.389126  1
  P  P18  1  0.750000  0.571486  0.889126  1
  P  P19  1  0.250000  0.428514  0.110874  1
  P  P20  1  0.250000  0.224403  0.364583  1
  P  P21  1  0.750000  0.775597  0.635417  1
  P  P22  1  0.750000  0.724403  0.135417  1
  P  P23  1  0.250000  0.275597  0.864583  1
  P  P24  1  0.250000  0.900465  0.880463  1
  P  P25  1  0.750000  0.099535  0.119537  1
  P  P26  1  0.750000  0.400465  0.619537  1
  P  P27  1  0.250000  0.599535  0.380463  1
  Ir  Ir28  1  0.250000  0.095906  0.973018  1
  Ir  Ir29  1  0.750000  0.904094  0.026982  1
  Ir  Ir30  1  0.750000  0.595906  0.526982  1
  Ir  Ir31  1  0.250000  0.404094  0.473018  1
  Ir  Ir32  1  0.250000  0.280759  0.675750  1
  Ir  Ir33  1  0.750000  0.719241  0.324250  1
  Ir  Ir34  1  0.750000  0.780759  0.824250  1
  Ir  Ir35  1  0.250000  0.219241  0.175750  1
