# generated using pymatgen
data_MgTi2GaPt12
_symmetry_space_group_name_H-M   'P 1'
_cell_length_a   5.57363800
_cell_length_b   5.57363808
_cell_length_c   7.88235200
_cell_angle_alpha   90.00000000
_cell_angle_beta   90.00000000
_cell_angle_gamma   90.00952936
_symmetry_Int_Tables_number   1
_chemical_formula_structural   MgTi2GaPt12
_chemical_formula_sum   'Mg1 Ti2 Ga1 Pt12'
_cell_volume   244.86873749
_cell_formula_units_Z   1
loop_
 _symmetry_equiv_pos_site_id
 _symmetry_equiv_pos_as_xyz
  1  'x, y, z'
loop_
 _atom_site_type_symbol
 _atom_site_label
 _atom_site_symmetry_multiplicity
 _atom_site_fract_x
 _atom_site_fract_y
 _atom_site_fract_z
 _atom_site_occupancy
  Mg  Mg0  1  0.000000  0.500000  0.749854  1
  Ti  Ti1  1  0.500000  0.000000  0.249991  1
  Ti  Ti2  1  0.000000  0.500000  0.250111  1
  Ga  Ga3  1  0.500000  0.000000  0.750136  1
  Pt  Pt4  1  0.247595  0.252405  0.005113  1
  Pt  Pt5  1  0.747171  0.247171  0.004545  1
  Pt  Pt6  1  0.252829  0.752829  0.004545  1
  Pt  Pt7  1  0.752405  0.747595  0.005113  1
  Pt  Pt8  1  0.000000  0.000000  0.249962  1
  Pt  Pt9  1  0.500000  0.500000  0.249962  1
  Pt  Pt10  1  0.750253  0.250253  0.495097  1
  Pt  Pt11  1  0.250730  0.249270  0.495233  1
  Pt  Pt12  1  0.749270  0.750730  0.495233  1
  Pt  Pt13  1  0.249747  0.749747  0.495097  1
  Pt  Pt14  1  0.000000  0.000000  0.750003  1
  Pt  Pt15  1  0.500000  0.500000  0.750003  1
