# generated using pymatgen
data_Be6Co2ReMo3
_symmetry_space_group_name_H-M   'P 1'
_cell_length_a   4.53587100
_cell_length_b   4.53587080
_cell_length_c   7.18655900
_cell_angle_alpha   90.00000000
_cell_angle_beta   90.00000000
_cell_angle_gamma   120.00000872
_symmetry_Int_Tables_number   1
_chemical_formula_structural   Be6Co2ReMo3
_chemical_formula_sum   'Be6 Co2 Re1 Mo3'
_cell_volume   128.04804722
_cell_formula_units_Z   1
loop_
 _symmetry_equiv_pos_site_id
 _symmetry_equiv_pos_as_xyz
  1  'x, y, z'
loop_
 _atom_site_type_symbol
 _atom_site_label
 _atom_site_symmetry_multiplicity
 _atom_site_fract_x
 _atom_site_fract_y
 _atom_site_fract_z
 _atom_site_occupancy
  Be  Be0  1  0.832126  0.664253  0.251552  1
  Be  Be1  1  0.168652  0.831348  0.748808  1
  Be  Be2  1  0.662697  0.831348  0.748808  1
  Be  Be3  1  0.335747  0.167874  0.251552  1
  Be  Be4  1  0.832126  0.167874  0.251552  1
  Be  Be5  1  0.168652  0.337303  0.748808  1
  Co  Co6  1  0.000000  0.000000  0.000153  1
  Co  Co7  1  0.000000  0.000000  0.499861  1
  Re  Re8  1  0.333333  0.666667  0.429091  1
  Mo  Mo9  1  0.333333  0.666667  0.072579  1
  Mo  Mo10  1  0.666667  0.333333  0.566400  1
  Mo  Mo11  1  0.666667  0.333333  0.930834  1
