# generated using pymatgen
data_Ho5Tm3Sc11Si16Hg
_symmetry_space_group_name_H-M   'P 1'
_cell_length_a   7.02783038
_cell_length_b   7.37758916
_cell_length_c   13.97763368
_cell_angle_alpha   89.99722246
_cell_angle_beta   90.03552600
_cell_angle_gamma   89.89414078
_symmetry_Int_Tables_number   1
_chemical_formula_structural   Ho5Tm3Sc11Si16Hg
_chemical_formula_sum   'Ho5 Tm3 Sc11 Si16 Hg1'
_cell_volume   724.71719716
_cell_formula_units_Z   1
loop_
 _symmetry_equiv_pos_site_id
 _symmetry_equiv_pos_as_xyz
  1  'x, y, z'
loop_
 _atom_site_type_symbol
 _atom_site_label
 _atom_site_symmetry_multiplicity
 _atom_site_fract_x
 _atom_site_fract_y
 _atom_site_fract_z
 _atom_site_occupancy
  Ho  Ho0  1  0.009925  0.174985  0.096297  1
  Ho  Ho1  1  0.990515  0.816465  0.902587  1
  Ho  Ho2  1  0.485700  0.673713  0.902949  1
  Ho  Ho3  1  0.990519  0.816361  0.597200  1
  Ho  Ho4  1  0.510729  0.323478  0.096604  1
  Tm  Tm5  1  0.010397  0.175505  0.403491  1
  Tm  Tm6  1  0.510612  0.323158  0.403284  1
  Tm  Tm7  1  0.485730  0.673987  0.597089  1
  Sc  Sc8  1  0.838038  0.497070  0.250228  1
  Sc  Sc9  1  0.339907  0.004167  0.250205  1
  Sc  Sc10  1  0.656770  0.997067  0.749888  1
  Sc  Sc11  1  0.325090  0.182856  0.626145  1
  Sc  Sc12  1  0.671290  0.824105  0.374963  1
  Sc  Sc13  1  0.169509  0.680395  0.373210  1
  Sc  Sc14  1  0.671322  0.824125  0.125300  1
  Sc  Sc15  1  0.838524  0.325364  0.626061  1
  Sc  Sc16  1  0.324824  0.182558  0.873726  1
  Sc  Sc17  1  0.838741  0.325407  0.873740  1
  Sc  Sc18  1  0.169490  0.680409  0.126993  1
  Si  Si19  1  0.026334  0.091632  0.749902  1
  Si  Si20  1  0.968571  0.890495  0.250160  1
  Si  Si21  1  0.467370  0.615067  0.250179  1
  Si  Si22  1  0.543170  0.381300  0.749866  1
  Si  Si23  1  0.291027  0.883803  0.749790  1
  Si  Si24  1  0.713627  0.130709  0.250479  1
  Si  Si25  1  0.212886  0.371151  0.250408  1
  Si  Si26  1  0.768925  0.632944  0.749716  1
  Si  Si27  1  0.164614  0.459291  0.528270  1
  Si  Si28  1  0.840680  0.535232  0.461812  1
  Si  Si29  1  0.343151  0.966886  0.462166  1
  Si  Si30  1  0.841270  0.535918  0.037969  1
  Si  Si31  1  0.657991  0.033254  0.540263  1
  Si  Si32  1  0.163739  0.459520  0.971684  1
  Si  Si33  1  0.658305  0.033315  0.959679  1
  Si  Si34  1  0.343375  0.966501  0.037751  1
  Hg  Hg35  1  0.157334  0.511808  0.749947  1
