# generated using pymatgen
data_Er6Lu4Sn5Sb
_symmetry_space_group_name_H-M   'P 1'
_cell_length_a   8.85039500
_cell_length_b   8.85591199
_cell_length_c   6.40832700
_cell_angle_alpha   90.00000000
_cell_angle_beta   90.00000000
_cell_angle_gamma   119.97939064
_symmetry_Int_Tables_number   1
_chemical_formula_structural   Er6Lu4Sn5Sb
_chemical_formula_sum   'Er6 Lu4 Sn5 Sb1'
_cell_volume   435.07226231
_cell_formula_units_Z   1
loop_
 _symmetry_equiv_pos_site_id
 _symmetry_equiv_pos_as_xyz
  1  'x, y, z'
loop_
 _atom_site_type_symbol
 _atom_site_label
 _atom_site_symmetry_multiplicity
 _atom_site_fract_x
 _atom_site_fract_y
 _atom_site_fract_z
 _atom_site_occupancy
  Er  Er0  1  0.997397  0.760060  0.750000  1
  Er  Er1  1  0.001115  0.238859  0.250000  1
  Er  Er2  1  0.762256  0.761141  0.250000  1
  Er  Er3  1  0.761904  0.000000  0.750000  1
  Er  Er4  1  0.237337  0.239940  0.750000  1
  Er  Er5  1  0.239167  0.000000  0.250000  1
  Lu  Lu6  1  0.333314  0.665790  0.499759  1
  Lu  Lu7  1  0.667525  0.334210  0.000241  1
  Lu  Lu8  1  0.667525  0.334210  0.499759  1
  Lu  Lu9  1  0.333314  0.665790  0.000241  1
  Sn  Sn10  1  0.396792  0.395597  0.250000  1
  Sn  Sn11  1  0.001196  0.604403  0.250000  1
  Sn  Sn12  1  0.999559  0.396632  0.750000  1
  Sn  Sn13  1  0.602927  0.603368  0.750000  1
  Sn  Sn14  1  0.604741  0.000000  0.250000  1
  Sb  Sb15  1  0.393930  0.000000  0.750000  1
