# generated using pymatgen
data_Tm2B6Mo
_symmetry_space_group_name_H-M   'P 1'
_cell_length_a   9.25167700
_cell_length_b   11.62923400
_cell_length_c   3.57369800
_cell_angle_alpha   90.00000000
_cell_angle_beta   90.00000000
_cell_angle_gamma   90.00000000
_symmetry_Int_Tables_number   1
_chemical_formula_structural   Tm2B6Mo
_chemical_formula_sum   'Tm8 B24 Mo4'
_cell_volume   384.49387022
_cell_formula_units_Z   4
loop_
 _symmetry_equiv_pos_site_id
 _symmetry_equiv_pos_as_xyz
  1  'x, y, z'
loop_
 _atom_site_type_symbol
 _atom_site_label
 _atom_site_symmetry_multiplicity
 _atom_site_fract_x
 _atom_site_fract_y
 _atom_site_fract_z
 _atom_site_occupancy
  Tm  Tm0  1  0.678531  0.085899  0.000000  1
  Tm  Tm1  1  0.056351  0.128709  0.000000  1
  Tm  Tm2  1  0.556352  0.371291  0.000000  1
  Tm  Tm3  1  0.178532  0.414100  0.000000  1
  Tm  Tm4  1  0.821469  0.585899  0.000000  1
  Tm  Tm5  1  0.443649  0.628709  0.000000  1
  Tm  Tm6  1  0.943648  0.871290  0.000000  1
  Tm  Tm7  1  0.321468  0.914101  0.000000  1
  B  B8  1  0.900058  0.027897  0.500001  1
  B  B9  1  0.448493  0.064794  0.500001  1
  B  B10  1  0.247271  0.077905  0.500001  1
  B  B11  1  0.869184  0.182352  0.500001  1
  B  B12  1  0.521579  0.212078  0.500001  1
  B  B13  1  0.204781  0.236771  0.500001  1
  B  B14  1  0.704782  0.263229  0.500001  1
  B  B15  1  0.021580  0.287922  0.500001  1
  B  B16  1  0.369185  0.317648  0.500001  1
  B  B17  1  0.747272  0.422095  0.500001  1
  B  B18  1  0.948494  0.435206  0.500001  1
  B  B19  1  0.400059  0.472103  0.500001  1
  B  B20  1  0.599942  0.527898  0.500001  1
  B  B21  1  0.051507  0.564794  0.500001  1
  B  B22  1  0.252729  0.577906  0.500001  1
  B  B23  1  0.630816  0.682352  0.500001  1
  B  B24  1  0.978421  0.712078  0.500001  1
  B  B25  1  0.295219  0.736771  0.500001  1
  B  B26  1  0.795218  0.763229  0.500001  1
  B  B27  1  0.478420  0.787922  0.500001  1
  B  B28  1  0.130815  0.817647  0.500001  1
  B  B29  1  0.752728  0.922094  0.500001  1
  B  B30  1  0.551506  0.935205  0.500001  1
  B  B31  1  0.099942  0.972102  0.500001  1
  Mo  Mo32  1  0.360323  0.180152  0.000000  1
  Mo  Mo33  1  0.860324  0.319848  0.000000  1
  Mo  Mo34  1  0.139677  0.680153  0.000000  1
  Mo  Mo35  1  0.639676  0.819847  0.000000  1
