# generated using pymatgen
data_ErLu5(ScAu5)2
_symmetry_space_group_name_H-M   'P 1'
_cell_length_a   7.80187406
_cell_length_b   7.79188087
_cell_length_c   7.79840300
_cell_angle_alpha   66.81349110
_cell_angle_beta   66.76119647
_cell_angle_gamma   66.63085654
_symmetry_Int_Tables_number   1
_chemical_formula_structural   ErLu5(ScAu5)2
_chemical_formula_sum   'Er1 Lu5 Sc2 Au10'
_cell_volume   383.73876638
_cell_formula_units_Z   1
loop_
 _symmetry_equiv_pos_site_id
 _symmetry_equiv_pos_as_xyz
  1  'x, y, z'
loop_
 _atom_site_type_symbol
 _atom_site_label
 _atom_site_symmetry_multiplicity
 _atom_site_fract_x
 _atom_site_fract_y
 _atom_site_fract_z
 _atom_site_occupancy
  Er  Er0  1  0.807096  0.383837  0.106598  1
  Lu  Lu1  1  0.893761  0.193801  0.614897  1
  Lu  Lu2  1  0.614614  0.893194  0.193698  1
  Lu  Lu3  1  0.193088  0.612351  0.892504  1
  Lu  Lu4  1  0.106127  0.808489  0.386975  1
  Lu  Lu5  1  0.384602  0.108081  0.806833  1
  Sc  Sc6  1  0.662137  0.661346  0.661716  1
  Sc  Sc7  1  0.338853  0.338707  0.338063  1
  Au  Au8  1  0.004573  0.992675  0.998129  1
  Au  Au9  1  0.497086  0.503960  0.499552  1
  Au  Au10  1  0.811665  0.814901  0.813293  1
  Au  Au11  1  0.190067  0.185414  0.187944  1
  Au  Au12  1  0.936603  0.553339  0.314716  1
  Au  Au13  1  0.314695  0.934365  0.553695  1
  Au  Au14  1  0.551977  0.314042  0.933933  1
  Au  Au15  1  0.065371  0.448966  0.683421  1
  Au  Au16  1  0.684107  0.063243  0.450269  1
  Au  Au17  1  0.443578  0.689285  0.063762  1
