# generated using pymatgen
data_TaTi3B4(AsRu5)2
_symmetry_space_group_name_H-M   'P 1'
_cell_length_a   9.25346193
_cell_length_b   9.25346193
_cell_length_c   2.98929600
_cell_angle_alpha   90.00000000
_cell_angle_beta   90.00000000
_cell_angle_gamma   89.92602012
_symmetry_Int_Tables_number   1
_chemical_formula_structural   TaTi3B4(AsRu5)2
_chemical_formula_sum   'Ta1 Ti3 B4 As2 Ru10'
_cell_volume   255.96291294
_cell_formula_units_Z   1
loop_
 _symmetry_equiv_pos_site_id
 _symmetry_equiv_pos_as_xyz
  1  'x, y, z'
loop_
 _atom_site_type_symbol
 _atom_site_label
 _atom_site_symmetry_multiplicity
 _atom_site_fract_x
 _atom_site_fract_y
 _atom_site_fract_z
 _atom_site_occupancy
  Ta  Ta0  1  0.674207  0.174207  0.000000  1
  Ti  Ti1  1  0.825659  0.675045  0.000000  1
  Ti  Ti2  1  0.175045  0.325659  0.000000  1
  Ti  Ti3  1  0.323283  0.823283  0.000000  1
  B  B4  1  0.624359  0.875234  0.000000  1
  B  B5  1  0.375234  0.124359  0.000000  1
  B  B6  1  0.124119  0.624119  0.000000  1
  B  B7  1  0.876448  0.376448  0.000000  1
  As  As8  1  0.499397  0.501857  0.000000  1
  As  As9  1  0.001857  0.999397  0.000000  1
  Ru  Ru10  1  0.572560  0.711964  0.500000  1
  Ru  Ru11  1  0.430652  0.287484  0.500000  1
  Ru  Ru12  1  0.070423  0.787676  0.500000  1
  Ru  Ru13  1  0.930528  0.212599  0.500000  1
  Ru  Ru14  1  0.287676  0.570423  0.500000  1
  Ru  Ru15  1  0.712599  0.430528  0.500000  1
  Ru  Ru16  1  0.211964  0.072560  0.500000  1
  Ru  Ru17  1  0.787484  0.930652  0.500000  1
  Ru  Ru18  1  0.496169  0.996169  0.500000  1
  Ru  Ru19  1  0.000339  0.500339  0.500000  1
