# generated using pymatgen
data_NaLa7Te8
_symmetry_space_group_name_H-M   'P 1'
_cell_length_a   9.15435437
_cell_length_b   9.15435530
_cell_length_c   9.16054594
_cell_angle_alpha   60.02235822
_cell_angle_beta   60.02235168
_cell_angle_gamma   59.99999508
_symmetry_Int_Tables_number   1
_chemical_formula_structural   NaLa7Te8
_chemical_formula_sum   'Na1 La7 Te8'
_cell_volume   543.01082905
_cell_formula_units_Z   1
loop_
 _symmetry_equiv_pos_site_id
 _symmetry_equiv_pos_as_xyz
  1  'x, y, z'
loop_
 _atom_site_type_symbol
 _atom_site_label
 _atom_site_symmetry_multiplicity
 _atom_site_fract_x
 _atom_site_fract_y
 _atom_site_fract_z
 _atom_site_occupancy
  Na  Na0  1  0.125000  0.125000  0.625000  1
  La  La1  1  0.625000  0.125000  0.625000  1
  La  La2  1  0.625000  0.625000  0.625000  1
  La  La3  1  0.125000  0.625000  0.625000  1
  La  La4  1  0.625000  0.625000  0.125000  1
  La  La5  1  0.125000  0.625000  0.125000  1
  La  La6  1  0.625000  0.125000  0.125000  1
  La  La7  1  0.125000  0.125000  0.125000  1
  Te  Te8  1  0.371658  0.879006  0.377677  1
  Te  Te9  1  0.878342  0.370994  0.872323  1
  Te  Te10  1  0.875228  0.875228  0.374316  1
  Te  Te11  1  0.878342  0.878342  0.872323  1
  Te  Te12  1  0.879006  0.371658  0.377677  1
  Te  Te13  1  0.374772  0.374772  0.875684  1
  Te  Te14  1  0.371658  0.371658  0.377677  1
  Te  Te15  1  0.370994  0.878342  0.872323  1
