# generated using pymatgen
data_Ta8NbTc3Os4
_symmetry_space_group_name_H-M   'P 1'
_cell_length_a   6.41251100
_cell_length_b   4.52445700
_cell_length_c   9.04489300
_cell_angle_alpha   90.00000000
_cell_angle_beta   89.99991098
_cell_angle_gamma   90.00000000
_symmetry_Int_Tables_number   1
_chemical_formula_structural   Ta8NbTc3Os4
_chemical_formula_sum   'Ta8 Nb1 Tc3 Os4'
_cell_volume   262.42065899
_cell_formula_units_Z   1
loop_
 _symmetry_equiv_pos_site_id
 _symmetry_equiv_pos_as_xyz
  1  'x, y, z'
loop_
 _atom_site_type_symbol
 _atom_site_label
 _atom_site_symmetry_multiplicity
 _atom_site_fract_x
 _atom_site_fract_y
 _atom_site_fract_z
 _atom_site_occupancy
  Ta  Ta0  1  0.499306  0.749999  0.124997  1
  Ta  Ta1  1  0.000693  0.749999  0.124998  1
  Ta  Ta2  1  0.499961  0.250000  0.374961  1
  Ta  Ta3  1  0.000046  0.250000  0.374961  1
  Ta  Ta4  1  0.998985  0.749999  0.624996  1
  Ta  Ta5  1  0.501010  0.749999  0.624996  1
  Ta  Ta6  1  0.000037  0.250000  0.875035  1
  Ta  Ta7  1  0.499965  0.250000  0.875033  1
  Nb  Nb8  1  0.749999  0.250000  0.124998  1
  Tc  Tc9  1  0.249998  0.749999  0.376688  1
  Tc  Tc10  1  0.750002  0.250000  0.625000  1
  Tc  Tc11  1  0.249999  0.749999  0.873340  1
  Os  Os12  1  0.250001  0.250000  0.125005  1
  Os  Os13  1  0.749999  0.749999  0.378904  1
  Os  Os14  1  0.250002  0.250000  0.625005  1
  Os  Os15  1  0.749998  0.749999  0.871084  1
