# generated using pymatgen
data_Sr3Cd2(AgAs2)2
_symmetry_space_group_name_H-M   'P 1'
_cell_length_a   4.56116300
_cell_length_b   4.56116273
_cell_length_c   15.90340700
_cell_angle_alpha   90.00000000
_cell_angle_beta   90.00000000
_cell_angle_gamma   119.99999474
_symmetry_Int_Tables_number   1
_chemical_formula_structural   Sr3Cd2(AgAs2)2
_chemical_formula_sum   'Sr3 Cd2 Ag2 As4'
_cell_volume   286.53124541
_cell_formula_units_Z   1
loop_
 _symmetry_equiv_pos_site_id
 _symmetry_equiv_pos_as_xyz
  1  'x, y, z'
loop_
 _atom_site_type_symbol
 _atom_site_label
 _atom_site_symmetry_multiplicity
 _atom_site_fract_x
 _atom_site_fract_y
 _atom_site_fract_z
 _atom_site_occupancy
  Sr  Sr0  1  0.000000  0.000000  0.000000  1
  Sr  Sr1  1  0.000000  0.000000  0.269363  1
  Sr  Sr2  1  0.000000  0.000000  0.730637  1
  Cd  Cd3  1  0.666666  0.333333  0.437484  1
  Cd  Cd4  1  0.333334  0.666668  0.562516  1
  Ag  Ag5  1  0.333334  0.666668  0.136801  1
  Ag  Ag6  1  0.666666  0.333333  0.863199  1
  As  As7  1  0.666666  0.333333  0.132937  1
  As  As8  1  0.333334  0.666668  0.383189  1
  As  As9  1  0.666666  0.333333  0.616812  1
  As  As10  1  0.333334  0.666668  0.867063  1
