# generated using pymatgen
data_Ba10MnTcN10
_symmetry_space_group_name_H-M   'P 1'
_cell_length_a   8.05660160
_cell_length_b   8.05660241
_cell_length_c   9.54575556
_cell_angle_alpha   76.16088832
_cell_angle_beta   76.16089053
_cell_angle_gamma   96.69580913
_symmetry_Int_Tables_number   1
_chemical_formula_structural   Ba10MnTcN10
_chemical_formula_sum   'Ba10 Mn1 Tc1 N10'
_cell_volume   574.14009779
_cell_formula_units_Z   1
loop_
 _symmetry_equiv_pos_site_id
 _symmetry_equiv_pos_as_xyz
  1  'x, y, z'
loop_
 _atom_site_type_symbol
 _atom_site_label
 _atom_site_symmetry_multiplicity
 _atom_site_fract_x
 _atom_site_fract_y
 _atom_site_fract_z
 _atom_site_occupancy
  Ba  Ba0  1  0.383988  0.389696  0.386929  1
  Ba  Ba1  1  0.610304  0.616012  0.613071  1
  Ba  Ba2  1  0.666458  0.667942  0.009052  1
  Ba  Ba3  1  0.332058  0.333542  0.990948  1
  Ba  Ba4  1  0.929600  0.917322  0.204837  1
  Ba  Ba5  1  0.082678  0.070400  0.795163  1
  Ba  Ba6  1  0.556304  0.088607  0.754095  1
  Ba  Ba7  1  0.911393  0.443696  0.245905  1
  Ba  Ba8  1  0.427160  0.897791  0.245757  1
  Ba  Ba9  1  0.102209  0.572840  0.754243  1
  Mn  Mn10  1  0.244042  0.755958  0.000000  1
  Tc  Tc11  1  0.756844  0.243156  0.000000  1
  N  N12  1  0.652078  0.651262  0.309853  1
  N  N13  1  0.348738  0.347922  0.690147  1
  N  N14  1  0.714692  0.017207  0.990250  1
  N  N15  1  0.982793  0.285308  0.009750  1
  N  N16  1  0.282748  0.976039  0.005889  1
  N  N17  1  0.023961  0.717252  0.994111  1
  N  N18  1  0.385401  0.730884  0.838494  1
  N  N19  1  0.269116  0.614599  0.161505  1
  N  N20  1  0.606396  0.268964  0.167429  1
  N  N21  1  0.731036  0.393604  0.832570  1
