# generated using pymatgen
data_Tm15Sc5(GaBi2)4
_symmetry_space_group_name_H-M   'P 1'
_cell_length_a   7.90769492
_cell_length_b   9.14676757
_cell_length_c   11.62834394
_cell_angle_alpha   90.00151078
_cell_angle_beta   90.05145450
_cell_angle_gamma   90.00653551
_symmetry_Int_Tables_number   1
_chemical_formula_structural   Tm15Sc5(GaBi2)4
_chemical_formula_sum   'Tm15 Sc5 Ga4 Bi8'
_cell_volume   841.07599830
_cell_formula_units_Z   1
loop_
 _symmetry_equiv_pos_site_id
 _symmetry_equiv_pos_as_xyz
  1  'x, y, z'
loop_
 _atom_site_type_symbol
 _atom_site_label
 _atom_site_symmetry_multiplicity
 _atom_site_fract_x
 _atom_site_fract_y
 _atom_site_fract_z
 _atom_site_occupancy
  Tm  Tm0  1  0.344960  0.248828  0.295097  1
  Tm  Tm1  1  0.653360  0.750559  0.703904  1
  Tm  Tm2  1  0.153441  0.749680  0.797241  1
  Tm  Tm3  1  0.847872  0.249102  0.202795  1
  Tm  Tm4  1  0.178000  0.249125  0.786595  1
  Tm  Tm5  1  0.820110  0.749738  0.214395  1
  Tm  Tm6  1  0.321413  0.750326  0.285018  1
  Tm  Tm7  1  0.677454  0.248921  0.714690  1
  Tm  Tm8  1  0.816630  0.944154  0.945290  1
  Tm  Tm9  1  0.312859  0.942708  0.556267  1
  Tm  Tm10  1  0.814311  0.557698  0.944366  1
  Tm  Tm11  1  0.686685  0.056757  0.443136  1
  Tm  Tm12  1  0.186335  0.443060  0.055767  1
  Tm  Tm13  1  0.686793  0.442441  0.443547  1
  Tm  Tm14  1  0.312791  0.556857  0.556206  1
  Sc  Sc15  1  0.037464  0.249661  0.509889  1
  Sc  Sc16  1  0.962588  0.749838  0.488648  1
  Sc  Sc17  1  0.462836  0.751474  0.011083  1
  Sc  Sc18  1  0.534542  0.248434  0.990592  1
  Sc  Sc19  1  0.186956  0.058289  0.055273  1
  Ga  Ga20  1  0.405203  0.249900  0.541507  1
  Ga  Ga21  1  0.595179  0.749452  0.458008  1
  Ga  Ga22  1  0.098376  0.755668  0.043915  1
  Ga  Ga23  1  0.908077  0.249386  0.959105  1
  Bi  Bi24  1  0.057444  0.001268  0.323757  1
  Bi  Bi25  1  0.942829  0.998346  0.673473  1
  Bi  Bi26  1  0.441751  0.998565  0.827867  1
  Bi  Bi27  1  0.942592  0.500814  0.674020  1
  Bi  Bi28  1  0.553951  0.002116  0.172639  1
  Bi  Bi29  1  0.057160  0.498179  0.325522  1
  Bi  Bi30  1  0.556648  0.497533  0.173540  1
  Bi  Bi31  1  0.443390  0.501124  0.826849  1
