# generated using pymatgen
data_TbSm7(Sc3Pb4)4
_symmetry_space_group_name_H-M   'P 1'
_cell_length_a   8.02029945
_cell_length_b   8.11035844
_cell_length_c   15.28907200
_cell_angle_alpha   90.10835565
_cell_angle_beta   90.20120682
_cell_angle_gamma   90.12665298
_symmetry_Int_Tables_number   1
_chemical_formula_structural   TbSm7(Sc3Pb4)4
_chemical_formula_sum   'Tb1 Sm7 Sc12 Pb16'
_cell_volume   994.50560702
_cell_formula_units_Z   1
loop_
 _symmetry_equiv_pos_site_id
 _symmetry_equiv_pos_as_xyz
  1  'x, y, z'
loop_
 _atom_site_type_symbol
 _atom_site_label
 _atom_site_symmetry_multiplicity
 _atom_site_fract_x
 _atom_site_fract_y
 _atom_site_fract_z
 _atom_site_occupancy
  Tb  Tb0  1  0.029523  0.177064  0.902850  1
  Sm  Sm1  1  0.527130  0.322181  0.903566  1
  Sm  Sm2  1  0.025905  0.177008  0.595872  1
  Sm  Sm3  1  0.473473  0.677636  0.404073  1
  Sm  Sm4  1  0.972598  0.823083  0.096101  1
  Sm  Sm5  1  0.472582  0.677762  0.095978  1
  Sm  Sm6  1  0.973553  0.822891  0.404099  1
  Sm  Sm7  1  0.526874  0.322328  0.596609  1
  Sc  Sc8  1  0.368537  0.843107  0.876103  1
  Sc  Sc9  1  0.867725  0.657012  0.625003  1
  Sc  Sc10  1  0.632706  0.157581  0.375876  1
  Sc  Sc11  1  0.131146  0.342320  0.123781  1
  Sc  Sc12  1  0.631335  0.157044  0.123675  1
  Sc  Sc13  1  0.132566  0.342710  0.375623  1
  Sc  Sc14  1  0.367068  0.842556  0.624465  1
  Sc  Sc15  1  0.868112  0.657154  0.875827  1
  Sc  Sc16  1  0.199919  0.507649  0.750410  1
  Sc  Sc17  1  0.700429  0.992606  0.750419  1
  Sc  Sc18  1  0.799828  0.492129  0.249865  1
  Sc  Sc19  1  0.299605  0.007912  0.249634  1
  Pb  Pb20  1  0.294785  0.043980  0.043523  1
  Pb  Pb21  1  0.797349  0.456650  0.455815  1
  Pb  Pb22  1  0.701969  0.955397  0.544629  1
  Pb  Pb23  1  0.202533  0.541772  0.955241  1
  Pb  Pb24  1  0.706318  0.958666  0.954960  1
  Pb  Pb25  1  0.202633  0.543341  0.544591  1
  Pb  Pb26  1  0.297617  0.044186  0.455551  1
  Pb  Pb27  1  0.796354  0.456918  0.044467  1
  Pb  Pb28  1  0.561221  0.634198  0.750272  1
  Pb  Pb29  1  0.061326  0.866337  0.750584  1
  Pb  Pb30  1  0.438709  0.365797  0.249727  1
  Pb  Pb31  1  0.938474  0.134051  0.249749  1
  Pb  Pb32  1  0.339154  0.148920  0.750018  1
  Pb  Pb33  1  0.841206  0.349731  0.750846  1
  Pb  Pb34  1  0.659826  0.851278  0.250128  1
  Pb  Pb35  1  0.159911  0.649049  0.250070  1
