# generated using pymatgen
data_ThBe11Cu2
_symmetry_space_group_name_H-M   'P 1'
_cell_length_a   7.45770437
_cell_length_b   7.44530370
_cell_length_c   7.41033219
_cell_angle_alpha   60.26581938
_cell_angle_beta   60.09946487
_cell_angle_gamma   59.63471179
_symmetry_Int_Tables_number   1
_chemical_formula_structural   ThBe11Cu2
_chemical_formula_sum   'Th2 Be22 Cu4'
_cell_volume   290.92565005
_cell_formula_units_Z   2
loop_
 _symmetry_equiv_pos_site_id
 _symmetry_equiv_pos_as_xyz
  1  'x, y, z'
loop_
 _atom_site_type_symbol
 _atom_site_label
 _atom_site_symmetry_multiplicity
 _atom_site_fract_x
 _atom_site_fract_y
 _atom_site_fract_z
 _atom_site_occupancy
  Th  Th0  1  0.250000  0.250000  0.250000  1
  Th  Th1  1  0.750000  0.750000  0.750000  1
  Be  Be2  1  0.000000  0.000000  0.000000  1
  Be  Be3  1  0.500000  0.500000  0.500000  1
  Be  Be4  1  0.932463  0.291960  0.067537  1
  Be  Be5  1  0.214196  0.440582  0.785804  1
  Be  Be6  1  0.067537  0.708040  0.932463  1
  Be  Be7  1  0.785804  0.559418  0.214196  1
  Be  Be8  1  0.708040  0.067537  0.291960  1
  Be  Be9  1  0.440582  0.214196  0.559418  1
  Be  Be10  1  0.291960  0.932463  0.708040  1
  Be  Be11  1  0.559418  0.785804  0.440582  1
  Be  Be12  1  0.059346  0.940654  0.297076  1
  Be  Be13  1  0.567756  0.221714  0.778286  1
  Be  Be14  1  0.940654  0.059346  0.702924  1
  Be  Be15  1  0.432244  0.778286  0.221714  1
  Be  Be16  1  0.702924  0.297076  0.940654  1
  Be  Be17  1  0.221714  0.567756  0.432244  1
  Be  Be18  1  0.297076  0.702924  0.059346  1
  Be  Be19  1  0.778286  0.432244  0.567756  1
  Be  Be20  1  0.784747  0.215253  0.435530  1
  Be  Be21  1  0.215253  0.784747  0.564470  1
  Be  Be22  1  0.564470  0.435530  0.215253  1
  Be  Be23  1  0.435530  0.564470  0.784747  1
  Cu  Cu24  1  0.302943  0.057452  0.942548  1
  Cu  Cu25  1  0.697057  0.942548  0.057452  1
  Cu  Cu26  1  0.057452  0.302943  0.697057  1
  Cu  Cu27  1  0.942548  0.697057  0.302943  1
