# generated using pymatgen
data_Ho4B16IrRh3
_symmetry_space_group_name_H-M   'P 1'
_cell_length_a   3.56312100
_cell_length_b   5.95546111
_cell_length_c   11.54353921
_cell_angle_alpha   89.97795084
_cell_angle_beta   90.00000000
_cell_angle_gamma   90.00000000
_symmetry_Int_Tables_number   1
_chemical_formula_structural   Ho4B16IrRh3
_chemical_formula_sum   'Ho4 B16 Ir1 Rh3'
_cell_volume   244.95421351
_cell_formula_units_Z   1
loop_
 _symmetry_equiv_pos_site_id
 _symmetry_equiv_pos_as_xyz
  1  'x, y, z'
loop_
 _atom_site_type_symbol
 _atom_site_label
 _atom_site_symmetry_multiplicity
 _atom_site_fract_x
 _atom_site_fract_y
 _atom_site_fract_z
 _atom_site_occupancy
  Ho  Ho0  1  0.500000  0.369115  0.147947  1
  Ho  Ho1  1  0.500000  0.630815  0.851561  1
  Ho  Ho2  1  0.500000  0.131430  0.649082  1
  Ho  Ho3  1  0.500000  0.869034  0.351168  1
  B  B4  1  0.000000  0.112405  0.046768  1
  B  B5  1  0.000000  0.887384  0.953145  1
  B  B6  1  0.000000  0.387530  0.546626  1
  B  B7  1  0.000000  0.612354  0.452781  1
  B  B8  1  0.000000  0.135696  0.469616  1
  B  B9  1  0.000000  0.864166  0.530361  1
  B  B10  1  0.000000  0.364157  0.969435  1
  B  B11  1  0.000000  0.635633  0.030196  1
  B  B12  1  0.000000  0.022478  0.192988  1
  B  B13  1  0.000000  0.976967  0.806767  1
  B  B14  1  0.000000  0.475836  0.693112  1
  B  B15  1  0.000000  0.523764  0.306803  1
  B  B16  1  0.000000  0.209154  0.312336  1
  B  B17  1  0.000000  0.790834  0.687743  1
  B  B18  1  0.000000  0.290094  0.812636  1
  B  B19  1  0.000000  0.709978  0.187280  1
  Ir  Ir20  1  0.500000  0.358118  0.404963  1
  Rh  Rh21  1  0.500000  0.643954  0.595909  1
  Rh  Rh22  1  0.500000  0.140678  0.905522  1
  Rh  Rh23  1  0.500000  0.858425  0.095254  1
