# generated using pymatgen
data_Ca3Tm(Ga2Ag)4
_symmetry_space_group_name_H-M   'P 1'
_cell_length_a   4.36820600
_cell_length_b   7.04123779
_cell_length_c   10.48399055
_cell_angle_alpha   91.04425633
_cell_angle_beta   90.00000000
_cell_angle_gamma   90.00000000
_symmetry_Int_Tables_number   1
_chemical_formula_structural   Ca3Tm(Ga2Ag)4
_chemical_formula_sum   'Ca3 Tm1 Ga8 Ag4'
_cell_volume   322.40859264
_cell_formula_units_Z   1
loop_
 _symmetry_equiv_pos_site_id
 _symmetry_equiv_pos_as_xyz
  1  'x, y, z'
loop_
 _atom_site_type_symbol
 _atom_site_label
 _atom_site_symmetry_multiplicity
 _atom_site_fract_x
 _atom_site_fract_y
 _atom_site_fract_z
 _atom_site_occupancy
  Ca  Ca0  1  0.750000  0.225242  0.173322  1
  Ca  Ca1  1  0.750000  0.724294  0.325977  1
  Ca  Ca2  1  0.250000  0.275663  0.673172  1
  Tm  Tm3  1  0.250000  0.779338  0.829339  1
  Ga  Ga4  1  0.250000  0.705122  0.538116  1
  Ga  Ga5  1  0.750000  0.299023  0.466341  1
  Ga  Ga6  1  0.750000  0.796184  0.031766  1
  Ga  Ga7  1  0.250000  0.199293  0.964839  1
  Ga  Ga8  1  0.250000  0.923248  0.146283  1
  Ga  Ga9  1  0.750000  0.070602  0.849078  1
  Ga  Ga10  1  0.750000  0.576285  0.653789  1
  Ga  Ga11  1  0.250000  0.426299  0.350460  1
  Ag  Ag12  1  0.250000  0.540806  0.098124  1
  Ag  Ag13  1  0.750000  0.459016  0.899305  1
  Ag  Ag14  1  0.750000  0.957416  0.599197  1
  Ag  Ag15  1  0.250000  0.042167  0.400893  1
