# generated using pymatgen
data_Tb4Co20As11P
_symmetry_space_group_name_H-M   'P 1'
_cell_length_a   3.78332900
_cell_length_b   12.16220795
_cell_length_c   10.66108571
_cell_angle_alpha   90.06486821
_cell_angle_beta   90.00000000
_cell_angle_gamma   90.00000000
_symmetry_Int_Tables_number   1
_chemical_formula_structural   Tb4Co20As11P
_chemical_formula_sum   'Tb4 Co20 As11 P1'
_cell_volume   490.55498181
_cell_formula_units_Z   1
loop_
 _symmetry_equiv_pos_site_id
 _symmetry_equiv_pos_as_xyz
  1  'x, y, z'
loop_
 _atom_site_type_symbol
 _atom_site_label
 _atom_site_symmetry_multiplicity
 _atom_site_fract_x
 _atom_site_fract_y
 _atom_site_fract_z
 _atom_site_occupancy
  Tb  Tb0  1  0.750000  0.700480  0.082665  1
  Tb  Tb1  1  0.250000  0.298363  0.917885  1
  Tb  Tb2  1  0.250000  0.793138  0.583053  1
  Tb  Tb3  1  0.750000  0.203219  0.417814  1
  Co  Co4  1  0.750000  0.694846  0.390539  1
  Co  Co5  1  0.250000  0.304870  0.615560  1
  Co  Co6  1  0.250000  0.801571  0.882287  1
  Co  Co7  1  0.750000  0.197129  0.115782  1
  Co  Co8  1  0.750000  0.990322  0.212538  1
  Co  Co9  1  0.250000  0.008602  0.788487  1
  Co  Co10  1  0.250000  0.514145  0.707008  1
  Co  Co11  1  0.750000  0.490670  0.288903  1
  Co  Co12  1  0.750000  0.673999  0.772538  1
  Co  Co13  1  0.250000  0.322519  0.217103  1
  Co  Co14  1  0.250000  0.820797  0.284908  1
  Co  Co15  1  0.750000  0.178161  0.715198  1
  Co  Co16  1  0.750000  0.931283  0.968866  1
  Co  Co17  1  0.250000  0.067284  0.030314  1
  Co  Co18  1  0.250000  0.571410  0.476668  1
  Co  Co19  1  0.750000  0.439068  0.533426  1
  Co  Co20  1  0.750000  0.988017  0.593271  1
  Co  Co21  1  0.250000  0.011115  0.407154  1
  Co  Co22  1  0.250000  0.511689  0.093495  1
  Co  Co23  1  0.750000  0.489542  0.906248  1
  As  As24  1  0.250000  0.389060  0.416155  1
  As  As25  1  0.250000  0.885223  0.084897  1
  As  As26  1  0.750000  0.113414  0.914704  1
  As  As27  1  0.750000  0.889670  0.400380  1
  As  As28  1  0.250000  0.109386  0.600643  1
  As  As29  1  0.250000  0.609247  0.897698  1
  As  As30  1  0.750000  0.391061  0.101091  1
  As  As31  1  0.750000  0.868691  0.768562  1
  As  As32  1  0.250000  0.129180  0.230514  1
  As  As33  1  0.250000  0.628343  0.272423  1
  As  As34  1  0.750000  0.371263  0.730592  1
  P  P35  1  0.750000  0.613223  0.580634  1
