# generated using pymatgen
data_NdDyB6Os
_symmetry_space_group_name_H-M   'P 1'
_cell_length_a   3.71219000
_cell_length_b   9.24896600
_cell_length_c   11.67285200
_cell_angle_alpha   90.00000000
_cell_angle_beta   90.00000000
_cell_angle_gamma   90.00000000
_symmetry_Int_Tables_number   1
_chemical_formula_structural   NdDyB6Os
_chemical_formula_sum   'Nd4 Dy4 B24 Os4'
_cell_volume   400.77475618
_cell_formula_units_Z   4
loop_
 _symmetry_equiv_pos_site_id
 _symmetry_equiv_pos_as_xyz
  1  'x, y, z'
loop_
 _atom_site_type_symbol
 _atom_site_label
 _atom_site_symmetry_multiplicity
 _atom_site_fract_x
 _atom_site_fract_y
 _atom_site_fract_z
 _atom_site_occupancy
  Nd  Nd0  1  0.000000  0.323009  0.414002  1
  Nd  Nd1  1  0.000000  0.676991  0.585998  1
  Nd  Nd2  1  0.000000  0.823009  0.085998  1
  Nd  Nd3  1  0.000000  0.176991  0.914002  1
  Dy  Dy4  1  0.000000  0.944283  0.372427  1
  Dy  Dy5  1  0.000000  0.055717  0.627573  1
  Dy  Dy6  1  0.000000  0.444283  0.127573  1
  Dy  Dy7  1  0.000000  0.555717  0.872427  1
  B  B8  1  0.500000  0.556036  0.430475  1
  B  B9  1  0.500000  0.443964  0.569525  1
  B  B10  1  0.500000  0.056036  0.069525  1
  B  B11  1  0.500000  0.943964  0.930475  1
  B  B12  1  0.500000  0.748992  0.417693  1
  B  B13  1  0.500000  0.251008  0.582307  1
  B  B14  1  0.500000  0.248992  0.082307  1
  B  B15  1  0.500000  0.751008  0.917693  1
  B  B16  1  0.500000  0.790282  0.267363  1
  B  B17  1  0.500000  0.209718  0.732637  1
  B  B18  1  0.500000  0.290282  0.232637  1
  B  B19  1  0.500000  0.709718  0.767363  1
  B  B20  1  0.500000  0.631302  0.185777  1
  B  B21  1  0.500000  0.368698  0.814223  1
  B  B22  1  0.500000  0.131302  0.314223  1
  B  B23  1  0.500000  0.868698  0.685777  1
  B  B24  1  0.500000  0.986098  0.214048  1
  B  B25  1  0.500000  0.013902  0.785952  1
  B  B26  1  0.500000  0.486098  0.285952  1
  B  B27  1  0.500000  0.513902  0.714048  1
  B  B28  1  0.500000  0.603996  0.028606  1
  B  B29  1  0.500000  0.396004  0.971394  1
  B  B30  1  0.500000  0.103995  0.471394  1
  B  B31  1  0.500000  0.896004  0.528606  1
  Os  Os32  1  0.000000  0.639133  0.319870  1
  Os  Os33  1  0.000000  0.360867  0.680130  1
  Os  Os34  1  0.000000  0.139133  0.180130  1
  Os  Os35  1  0.000000  0.860867  0.819870  1
