# generated using pymatgen
data_Pr12IrOsAu2
_symmetry_space_group_name_H-M   'P 1'
_cell_length_a   6.68310833
_cell_length_b   7.46370637
_cell_length_c   10.10098300
_cell_angle_alpha   90.00000000
_cell_angle_beta   90.00000000
_cell_angle_gamma   90.05267033
_symmetry_Int_Tables_number   1
_chemical_formula_structural   Pr12IrOsAu2
_chemical_formula_sum   'Pr12 Ir1 Os1 Au2'
_cell_volume   503.84447762
_cell_formula_units_Z   1
loop_
 _symmetry_equiv_pos_site_id
 _symmetry_equiv_pos_as_xyz
  1  'x, y, z'
loop_
 _atom_site_type_symbol
 _atom_site_label
 _atom_site_symmetry_multiplicity
 _atom_site_fract_x
 _atom_site_fract_y
 _atom_site_fract_z
 _atom_site_occupancy
  Pr  Pr0  1  0.325641  0.687758  0.056691  1
  Pr  Pr1  1  0.160297  0.167925  0.436804  1
  Pr  Pr2  1  0.661644  0.332704  0.564357  1
  Pr  Pr3  1  0.821587  0.811537  0.940255  1
  Pr  Pr4  1  0.661644  0.332704  0.935643  1
  Pr  Pr5  1  0.821587  0.811537  0.559745  1
  Pr  Pr6  1  0.325641  0.687758  0.443309  1
  Pr  Pr7  1  0.160297  0.167925  0.063196  1
  Pr  Pr8  1  0.876726  0.541056  0.250000  1
  Pr  Pr9  1  0.649601  0.021638  0.250000  1
  Pr  Pr10  1  0.146573  0.480181  0.750000  1
  Pr  Pr11  1  0.378270  0.957335  0.750000  1
  Ir  Ir12  1  0.069239  0.883408  0.250000  1
  Os  Os13  1  0.565177  0.616052  0.750000  1
  Au  Au14  1  0.435653  0.388313  0.250000  1
  Au  Au15  1  0.940421  0.112170  0.750000  1
