# generated using pymatgen
data_Zr6Zn18GeIr5
_symmetry_space_group_name_H-M   'P 1'
_cell_length_a   8.77519170
_cell_length_b   8.77519115
_cell_length_c   8.77519200
_cell_angle_alpha   59.83748663
_cell_angle_beta   59.83748088
_cell_angle_gamma   59.83748648
_symmetry_Int_Tables_number   1
_chemical_formula_structural   Zr6Zn18GeIr5
_chemical_formula_sum   'Zr6 Zn18 Ge1 Ir5'
_cell_volume   476.04721040
_cell_formula_units_Z   1
loop_
 _symmetry_equiv_pos_site_id
 _symmetry_equiv_pos_as_xyz
  1  'x, y, z'
loop_
 _atom_site_type_symbol
 _atom_site_label
 _atom_site_symmetry_multiplicity
 _atom_site_fract_x
 _atom_site_fract_y
 _atom_site_fract_z
 _atom_site_occupancy
  Zr  Zr0  1  0.713452  0.280803  0.280803  1
  Zr  Zr1  1  0.286548  0.719197  0.719197  1
  Zr  Zr2  1  0.280803  0.713452  0.280803  1
  Zr  Zr3  1  0.719197  0.286548  0.719197  1
  Zr  Zr4  1  0.280803  0.280803  0.713452  1
  Zr  Zr5  1  0.719197  0.719197  0.286548  1
  Zn  Zn6  1  0.122442  0.122442  0.628406  1
  Zn  Zn7  1  0.122442  0.628406  0.122442  1
  Zn  Zn8  1  0.877558  0.877558  0.371594  1
  Zn  Zn9  1  0.877558  0.371594  0.877558  1
  Zn  Zn10  1  0.628406  0.122442  0.122442  1
  Zn  Zn11  1  0.371594  0.877558  0.877558  1
  Zn  Zn12  1  0.500000  0.000000  0.000000  1
  Zn  Zn13  1  0.000000  0.500000  0.000000  1
  Zn  Zn14  1  0.000000  0.000000  0.500000  1
  Zn  Zn15  1  0.337894  0.337894  0.337894  1
  Zn  Zn16  1  0.662106  0.662106  0.662106  1
  Zn  Zn17  1  0.333537  0.333537  0.989508  1
  Zn  Zn18  1  0.333537  0.989508  0.333537  1
  Zn  Zn19  1  0.666463  0.666463  0.010492  1
  Zn  Zn20  1  0.666463  0.010492  0.666463  1
  Zn  Zn21  1  0.989508  0.333537  0.333537  1
  Zn  Zn22  1  0.010492  0.666463  0.666463  1
  Zn  Zn23  1  0.000000  0.000000  0.000000  1
  Ge  Ge24  1  0.500000  0.500000  0.500000  1
  Ir  Ir25  1  0.118999  0.118999  0.118999  1
  Ir  Ir26  1  0.881001  0.881001  0.881001  1
  Ir  Ir27  1  0.000000  0.500000  0.500000  1
  Ir  Ir28  1  0.500000  0.000000  0.500000  1
  Ir  Ir29  1  0.500000  0.500000  0.000000  1
