# generated using pymatgen
data_Ho5Lu3(Co4P3)4
_symmetry_space_group_name_H-M   'P 1'
_cell_length_a   12.33383300
_cell_length_b   12.33383264
_cell_length_c   3.74057000
_cell_angle_alpha   90.00000000
_cell_angle_beta   90.00000000
_cell_angle_gamma   120.00000365
_symmetry_Int_Tables_number   1
_chemical_formula_structural   Ho5Lu3(Co4P3)4
_chemical_formula_sum   'Ho5 Lu3 Co16 P12'
_cell_volume   492.79298515
_cell_formula_units_Z   1
loop_
 _symmetry_equiv_pos_site_id
 _symmetry_equiv_pos_as_xyz
  1  'x, y, z'
loop_
 _atom_site_type_symbol
 _atom_site_label
 _atom_site_symmetry_multiplicity
 _atom_site_fract_x
 _atom_site_fract_y
 _atom_site_fract_z
 _atom_site_occupancy
  Ho  Ho0  1  0.666667  0.333333  0.000000  1
  Ho  Ho1  1  0.333333  0.666667  0.000000  1
  Ho  Ho2  1  0.817455  0.817455  0.500000  1
  Ho  Ho3  1  0.182545  0.000000  0.500000  1
  Ho  Ho4  1  0.000000  0.182545  0.500000  1
  Lu  Lu5  1  0.440987  0.440987  0.000000  1
  Lu  Lu6  1  0.559013  0.000000  0.000000  1
  Lu  Lu7  1  0.000000  0.559013  0.000000  1
  Co  Co8  1  0.875639  0.354053  0.500000  1
  Co  Co9  1  0.645947  0.521586  0.500000  1
  Co  Co10  1  0.478414  0.124361  0.500000  1
  Co  Co11  1  0.354053  0.875639  0.500000  1
  Co  Co12  1  0.521586  0.645947  0.500000  1
  Co  Co13  1  0.124361  0.478414  0.500000  1
  Co  Co14  1  0.806617  0.179464  0.000000  1
  Co  Co15  1  0.820536  0.627152  0.000000  1
  Co  Co16  1  0.372848  0.193383  0.000000  1
  Co  Co17  1  0.179464  0.806617  0.000000  1
  Co  Co18  1  0.627152  0.820536  0.000000  1
  Co  Co19  1  0.193383  0.372848  0.000000  1
  Co  Co20  1  0.276109  0.276109  0.500000  1
  Co  Co21  1  0.723891  0.000000  0.500000  1
  Co  Co22  1  0.000000  0.723891  0.500000  1
  Co  Co23  1  0.000000  0.000000  0.000000  1
  P  P24  1  0.695602  0.173854  0.500000  1
  P  P25  1  0.826146  0.521749  0.500000  1
  P  P26  1  0.478251  0.304398  0.500000  1
  P  P27  1  0.173854  0.695602  0.500000  1
  P  P28  1  0.521749  0.826146  0.500000  1
  P  P29  1  0.304398  0.478251  0.500000  1
  P  P30  1  0.178727  0.178727  0.000000  1
  P  P31  1  0.821273  0.000000  0.000000  1
  P  P32  1  0.000000  0.821273  0.000000  1
  P  P33  1  0.650106  0.650106  0.000000  1
  P  P34  1  0.349894  0.000000  0.000000  1
  P  P35  1  0.000000  0.349894  0.000000  1
