# generated using pymatgen
data_Tb16YEr3Pb16
_symmetry_space_group_name_H-M   'P 1'
_cell_length_a   8.22919900
_cell_length_b   8.31339540
_cell_length_c   15.70552500
_cell_angle_alpha   90.00000000
_cell_angle_beta   90.00000000
_cell_angle_gamma   90.01668230
_symmetry_Int_Tables_number   1
_chemical_formula_structural   Tb16YEr3Pb16
_chemical_formula_sum   'Tb16 Y1 Er3 Pb16'
_cell_volume   1074.45551986
_cell_formula_units_Z   1
loop_
 _symmetry_equiv_pos_site_id
 _symmetry_equiv_pos_as_xyz
  1  'x, y, z'
loop_
 _atom_site_type_symbol
 _atom_site_label
 _atom_site_symmetry_multiplicity
 _atom_site_fract_x
 _atom_site_fract_y
 _atom_site_fract_z
 _atom_site_occupancy
  Tb  Tb0  1  0.377542  0.841144  0.879375  1
  Tb  Tb1  1  0.876918  0.659337  0.620589  1
  Tb  Tb2  1  0.622710  0.159033  0.379229  1
  Tb  Tb3  1  0.122689  0.340919  0.120880  1
  Tb  Tb4  1  0.622710  0.159033  0.120771  1
  Tb  Tb5  1  0.122689  0.340919  0.379120  1
  Tb  Tb6  1  0.377542  0.841144  0.620625  1
  Tb  Tb7  1  0.876918  0.659337  0.879411  1
  Tb  Tb8  1  0.535152  0.323525  0.899933  1
  Tb  Tb9  1  0.034754  0.176021  0.600073  1
  Tb  Tb10  1  0.465073  0.676307  0.399779  1
  Tb  Tb11  1  0.965058  0.823701  0.100158  1
  Tb  Tb12  1  0.465073  0.676307  0.100221  1
  Tb  Tb13  1  0.965058  0.823701  0.399842  1
  Tb  Tb14  1  0.535152  0.323525  0.600067  1
  Tb  Tb15  1  0.034754  0.176021  0.899927  1
  Y  Y16  1  0.208952  0.503554  0.750000  1
  Er  Er17  1  0.709111  0.996256  0.750000  1
  Er  Er18  1  0.790999  0.496240  0.250000  1
  Er  Er19  1  0.290741  0.003677  0.250000  1
  Pb  Pb20  1  0.280975  0.032697  0.043137  1
  Pb  Pb21  1  0.781051  0.467342  0.456866  1
  Pb  Pb22  1  0.718972  0.967399  0.543045  1
  Pb  Pb23  1  0.219037  0.532827  0.957382  1
  Pb  Pb24  1  0.718972  0.967399  0.956955  1
  Pb  Pb25  1  0.219037  0.532827  0.542618  1
  Pb  Pb26  1  0.280975  0.032697  0.456863  1
  Pb  Pb27  1  0.781051  0.467342  0.043134  1
  Pb  Pb28  1  0.572915  0.626458  0.750000  1
  Pb  Pb29  1  0.071884  0.874595  0.750000  1
  Pb  Pb30  1  0.427952  0.373900  0.250000  1
  Pb  Pb31  1  0.927869  0.126025  0.250000  1
  Pb  Pb32  1  0.347216  0.152005  0.750000  1
  Pb  Pb33  1  0.846124  0.346662  0.750000  1
  Pb  Pb34  1  0.653217  0.846912  0.250000  1
  Pb  Pb35  1  0.153160  0.653212  0.250000  1
