# generated using pymatgen
data_Fe7(B3Rh8)2
_symmetry_space_group_name_H-M   'P 1'
_cell_length_a   7.94593228
_cell_length_b   7.99971882
_cell_length_c   7.94593228
_cell_angle_alpha   120.22416583
_cell_angle_beta   89.22168486
_cell_angle_gamma   120.22416583
_symmetry_Int_Tables_number   1
_chemical_formula_structural   Fe7(B3Rh8)2
_chemical_formula_sum   'Fe7 B6 Rh16'
_cell_volume   357.11608872
_cell_formula_units_Z   1
loop_
 _symmetry_equiv_pos_site_id
 _symmetry_equiv_pos_as_xyz
  1  'x, y, z'
loop_
 _atom_site_type_symbol
 _atom_site_label
 _atom_site_symmetry_multiplicity
 _atom_site_fract_x
 _atom_site_fract_y
 _atom_site_fract_z
 _atom_site_occupancy
  Fe  Fe0  1  0.000000  0.000000  0.000000  1
  Fe  Fe1  1  0.000000  0.341980  0.000000  1
  Fe  Fe2  1  0.000000  0.658021  0.000000  1
  Fe  Fe3  1  0.749999  0.499999  0.250000  1
  Fe  Fe4  1  0.341980  0.341980  0.341980  1
  Fe  Fe5  1  0.658021  0.658021  0.658021  1
  Fe  Fe6  1  0.250000  0.499999  0.749999  1
  B  B7  1  0.284285  0.000000  0.284285  1
  B  B8  1  0.729357  0.000000  0.270643  1
  B  B9  1  0.284285  0.568570  0.284285  1
  B  B10  1  0.270643  0.000000  0.729357  1
  B  B11  1  0.715715  0.431431  0.715715  1
  B  B12  1  0.715715  0.000000  0.715715  1
  Rh  Rh13  1  0.328099  0.000000  0.011082  1
  Rh  Rh14  1  0.671902  0.000000  0.988918  1
  Rh  Rh15  1  0.328099  0.339180  0.011082  1
  Rh  Rh16  1  0.671902  0.660821  0.988918  1
  Rh  Rh17  1  0.381670  0.759527  0.137383  1
  Rh  Rh18  1  0.011082  0.000000  0.328099  1
  Rh  Rh19  1  0.011082  0.339180  0.328099  1
  Rh  Rh20  1  0.622144  0.240473  0.377856  1
  Rh  Rh21  1  0.622144  0.759527  0.377856  1
  Rh  Rh22  1  0.137383  0.759527  0.381670  1
  Rh  Rh23  1  0.862616  0.240473  0.618329  1
  Rh  Rh24  1  0.377856  0.240473  0.622144  1
  Rh  Rh25  1  0.377856  0.759527  0.622144  1
  Rh  Rh26  1  0.988918  0.000000  0.671902  1
  Rh  Rh27  1  0.988918  0.660821  0.671902  1
  Rh  Rh28  1  0.618329  0.240473  0.862616  1
