# generated using pymatgen
data_Zr9TaRe3Pt
_symmetry_space_group_name_H-M   'P 1'
_cell_length_a   8.88276800
_cell_length_b   8.88333567
_cell_length_c   8.57501700
_cell_angle_alpha   89.99988600
_cell_angle_beta   90.00175599
_cell_angle_gamma   120.00145598
_symmetry_Int_Tables_number   1
_chemical_formula_structural   Zr9TaRe3Pt
_chemical_formula_sum   'Zr18 Ta2 Re6 Pt2'
_cell_volume   585.98114480
_cell_formula_units_Z   2
loop_
 _symmetry_equiv_pos_site_id
 _symmetry_equiv_pos_as_xyz
  1  'x, y, z'
loop_
 _atom_site_type_symbol
 _atom_site_label
 _atom_site_symmetry_multiplicity
 _atom_site_fract_x
 _atom_site_fract_y
 _atom_site_fract_z
 _atom_site_occupancy
  Zr  Zr0  1  0.195336  0.804673  0.446449  1
  Zr  Zr1  1  0.195326  0.390649  0.446443  1
  Zr  Zr2  1  0.609350  0.804675  0.446433  1
  Zr  Zr3  1  0.804675  0.195326  0.553557  1
  Zr  Zr4  1  0.804677  0.609355  0.553561  1
  Zr  Zr5  1  0.390654  0.195325  0.553566  1
  Zr  Zr6  1  0.804663  0.195321  0.946441  1
  Zr  Zr7  1  0.804673  0.609354  0.946440  1
  Zr  Zr8  1  0.390648  0.195325  0.946434  1
  Zr  Zr9  1  0.195335  0.804677  0.053551  1
  Zr  Zr10  1  0.195323  0.390652  0.053557  1
  Zr  Zr11  1  0.609343  0.804680  0.053559  1
  Zr  Zr12  1  0.542228  0.457773  0.249998  1
  Zr  Zr13  1  0.542233  0.084454  0.250004  1
  Zr  Zr14  1  0.915547  0.457775  0.250003  1
  Zr  Zr15  1  0.457770  0.542228  0.750004  1
  Zr  Zr16  1  0.457774  0.915553  0.749998  1
  Zr  Zr17  1  0.084455  0.542230  0.749998  1
  Ta  Ta18  1  0.000006  0.999998  0.500002  1
  Ta  Ta19  1  0.999999  0.999995  0.999996  1
  Re  Re20  1  0.890549  0.109428  0.250006  1
  Re  Re21  1  0.890556  0.781116  0.249999  1
  Re  Re22  1  0.218876  0.109428  0.250002  1
  Re  Re23  1  0.109450  0.890555  0.750001  1
  Re  Re24  1  0.109452  0.218892  0.750003  1
  Re  Re25  1  0.781099  0.890561  0.749999  1
  Pt  Pt26  1  0.333326  0.666661  0.249998  1
  Pt  Pt27  1  0.666676  0.333343  0.750001  1
