# generated using pymatgen
data_Cs8Ba2V3AsSe16
_symmetry_space_group_name_H-M   'P 1'
_cell_length_a   12.47663703
_cell_length_b   12.56639166
_cell_length_c   12.47663676
_cell_angle_alpha   132.37719242
_cell_angle_beta   127.71844443
_cell_angle_gamma   73.22805798
_symmetry_Int_Tables_number   1
_chemical_formula_structural   Cs8Ba2V3AsSe16
_chemical_formula_sum   'Cs8 Ba2 V3 As1 Se16'
_cell_volume   1117.14507522
_cell_formula_units_Z   1
loop_
 _symmetry_equiv_pos_site_id
 _symmetry_equiv_pos_as_xyz
  1  'x, y, z'
loop_
 _atom_site_type_symbol
 _atom_site_label
 _atom_site_symmetry_multiplicity
 _atom_site_fract_x
 _atom_site_fract_y
 _atom_site_fract_z
 _atom_site_occupancy
  Cs  Cs0  1  0.491507  0.240029  0.240639  1
  Cs  Cs1  1  0.998094  0.746314  0.236102  1
  Cs  Cs2  1  0.584455  0.710621  0.126167  1
  Cs  Cs3  1  0.421877  0.301331  0.879454  1
  Cs  Cs4  1  0.510212  0.746314  0.748220  1
  Cs  Cs5  1  0.079293  0.457802  0.378509  1
  Cs  Cs6  1  0.915720  0.541370  0.625651  1
  Cs  Cs7  1  0.999391  0.240029  0.748523  1
  Ba  Ba8  1  0.250510  0.004681  0.256921  1
  Ba  Ba9  1  0.747759  0.004681  0.754171  1
  V  V10  1  0.873035  0.075821  0.202786  1
  V  V11  1  0.375938  0.677408  0.301471  1
  V  V12  1  0.626236  0.326834  0.700598  1
  As  As13  1  0.127718  0.922677  0.794959  1
  Se  Se14  1  0.593557  0.632186  0.379889  1
  Se  Se15  1  0.761141  0.002654  0.241513  1
  Se  Se16  1  0.896655  0.875889  0.979234  1
  Se  Se17  1  0.752123  0.374502  0.965068  1
  Se  Se18  1  0.746472  0.212593  0.123242  1
  Se  Se19  1  0.738170  0.473474  0.735305  1
  Se  Se20  1  0.240978  0.976492  0.735514  1
  Se  Se21  1  0.252297  0.632186  0.038629  1
  Se  Se22  1  0.264883  0.525576  0.260692  1
  Se  Se23  1  0.244704  0.785329  0.885774  1
  Se  Se24  1  0.110064  0.136919  0.026855  1
  Se  Se25  1  0.899555  0.785329  0.540625  1
  Se  Se26  1  0.089351  0.212593  0.466121  1
  Se  Se27  1  0.603916  0.081761  0.477846  1
  Se  Se28  1  0.409434  0.374502  0.622378  1
  Se  Se29  1  0.394957  0.922103  0.527144  1
