# generated using pymatgen
data_Tb2Tm2ScGa4
_symmetry_space_group_name_H-M   'P 1'
_cell_length_a   7.41240800
_cell_length_b   7.72314200
_cell_length_c   14.91490200
_cell_angle_alpha   90.00000000
_cell_angle_beta   90.00000000
_cell_angle_gamma   90.00000000
_symmetry_Int_Tables_number   1
_chemical_formula_structural   Tb2Tm2ScGa4
_chemical_formula_sum   'Tb8 Tm8 Sc4 Ga16'
_cell_volume   853.83458121
_cell_formula_units_Z   4
loop_
 _symmetry_equiv_pos_site_id
 _symmetry_equiv_pos_as_xyz
  1  'x, y, z'
loop_
 _atom_site_type_symbol
 _atom_site_label
 _atom_site_symmetry_multiplicity
 _atom_site_fract_x
 _atom_site_fract_y
 _atom_site_fract_z
 _atom_site_occupancy
  Tb  Tb0  1  0.013290  0.180375  0.096538  1
  Tb  Tb1  1  0.986710  0.819625  0.903462  1
  Tb  Tb2  1  0.486710  0.680375  0.903462  1
  Tb  Tb3  1  0.986710  0.819625  0.596538  1
  Tb  Tb4  1  0.513290  0.319625  0.096538  1
  Tb  Tb5  1  0.013290  0.180375  0.403462  1
  Tb  Tb6  1  0.513290  0.319625  0.403462  1
  Tb  Tb7  1  0.486710  0.680375  0.596538  1
  Tm  Tm8  1  0.329099  0.173002  0.624342  1
  Tm  Tm9  1  0.670901  0.826998  0.375658  1
  Tm  Tm10  1  0.170901  0.673002  0.375658  1
  Tm  Tm11  1  0.670901  0.826998  0.124342  1
  Tm  Tm12  1  0.829099  0.326998  0.624342  1
  Tm  Tm13  1  0.329099  0.173002  0.875658  1
  Tm  Tm14  1  0.829099  0.326998  0.875658  1
  Tm  Tm15  1  0.170901  0.673002  0.124342  1
  Sc  Sc16  1  0.163127  0.507861  0.750000  1
  Sc  Sc17  1  0.836873  0.492139  0.250000  1
  Sc  Sc18  1  0.336873  0.007861  0.250000  1
  Sc  Sc19  1  0.663127  0.992139  0.750000  1
  Ga  Ga20  1  0.028346  0.107226  0.750000  1
  Ga  Ga21  1  0.971654  0.892774  0.250000  1
  Ga  Ga22  1  0.471654  0.607226  0.250000  1
  Ga  Ga23  1  0.528346  0.392774  0.750000  1
  Ga  Ga24  1  0.283246  0.866831  0.750000  1
  Ga  Ga25  1  0.716754  0.133169  0.250000  1
  Ga  Ga26  1  0.216754  0.366831  0.250000  1
  Ga  Ga27  1  0.783246  0.633169  0.750000  1
  Ga  Ga28  1  0.160580  0.469304  0.540695  1
  Ga  Ga29  1  0.839420  0.530696  0.459305  1
  Ga  Ga30  1  0.339420  0.969304  0.459305  1
  Ga  Ga31  1  0.839420  0.530696  0.040695  1
  Ga  Ga32  1  0.660580  0.030696  0.540695  1
  Ga  Ga33  1  0.160580  0.469304  0.959305  1
  Ga  Ga34  1  0.660580  0.030696  0.959305  1
  Ga  Ga35  1  0.339420  0.969304  0.040695  1
