# generated using pymatgen
data_Tm4AlB16Os3
_symmetry_space_group_name_H-M   'P 1'
_cell_length_a   3.54081800
_cell_length_b   5.93201777
_cell_length_c   11.46056517
_cell_angle_alpha   89.65498745
_cell_angle_beta   90.00002618
_cell_angle_gamma   90.00000971
_symmetry_Int_Tables_number   1
_chemical_formula_structural   Tm4AlB16Os3
_chemical_formula_sum   'Tm4 Al1 B16 Os3'
_cell_volume   240.71558484
_cell_formula_units_Z   1
loop_
 _symmetry_equiv_pos_site_id
 _symmetry_equiv_pos_as_xyz
  1  'x, y, z'
loop_
 _atom_site_type_symbol
 _atom_site_label
 _atom_site_symmetry_multiplicity
 _atom_site_fract_x
 _atom_site_fract_y
 _atom_site_fract_z
 _atom_site_occupancy
  Tm  Tm0  1  0.000000  0.626380  0.350926  1
  Tm  Tm1  1  0.999998  0.374217  0.649263  1
  Tm  Tm2  1  0.000002  0.128552  0.150239  1
  Tm  Tm3  1  0.999999  0.869391  0.848019  1
  Al  Al4  1  0.000000  0.862412  0.590301  1
  B  B5  1  0.500000  0.790963  0.186574  1
  B  B6  1  0.500000  0.213309  0.812321  1
  B  B7  1  0.500000  0.289774  0.315389  1
  B  B8  1  0.500000  0.708829  0.686712  1
  B  B9  1  0.499999  0.865088  0.029446  1
  B  B10  1  0.500000  0.135750  0.969187  1
  B  B11  1  0.500000  0.365008  0.468226  1
  B  B12  1  0.500000  0.633491  0.530398  1
  B  B13  1  0.500000  0.887441  0.450816  1
  B  B14  1  0.500001  0.116597  0.545701  1
  B  B15  1  0.500000  0.387001  0.047690  1
  B  B16  1  0.500000  0.613831  0.952077  1
  B  B17  1  0.500000  0.979295  0.307533  1
  B  B18  1  0.499999  0.025257  0.692095  1
  B  B19  1  0.499999  0.474024  0.192462  1
  B  B20  1  0.500001  0.523256  0.806615  1
  Os  Os21  1  0.000000  0.643815  0.094639  1
  Os  Os22  1  0.000000  0.358315  0.910971  1
  Os  Os23  1  0.000000  0.128004  0.412400  1
