# generated using pymatgen
data_Ac3In2SnPt3
_symmetry_space_group_name_H-M   'P 1'
_cell_length_a   7.96934400
_cell_length_b   7.94549527
_cell_length_c   4.20160200
_cell_angle_alpha   90.00000000
_cell_angle_beta   90.00000000
_cell_angle_gamma   120.09933163
_symmetry_Int_Tables_number   1
_chemical_formula_structural   Ac3In2SnPt3
_chemical_formula_sum   'Ac3 In2 Sn1 Pt3'
_cell_volume   230.17254520
_cell_formula_units_Z   1
loop_
 _symmetry_equiv_pos_site_id
 _symmetry_equiv_pos_as_xyz
  1  'x, y, z'
loop_
 _atom_site_type_symbol
 _atom_site_label
 _atom_site_symmetry_multiplicity
 _atom_site_fract_x
 _atom_site_fract_y
 _atom_site_fract_z
 _atom_site_occupancy
  Ac  Ac0  1  0.585607  0.585295  0.000000  1
  Ac  Ac1  1  0.413536  0.000000  0.000000  1
  Ac  Ac2  1  0.000312  0.414705  0.000000  1
  In  In3  1  0.000149  0.754797  0.500000  1
  In  In4  1  0.245352  0.245203  0.500000  1
  Sn  Sn5  1  0.758588  0.000000  0.500000  1
  Pt  Pt6  1  0.665840  0.333190  0.500000  1
  Pt  Pt7  1  0.997966  0.000000  0.000000  1
  Pt  Pt8  1  0.332649  0.666810  0.500000  1
