# generated using pymatgen
data_RbTi(RhSe2)4
_symmetry_space_group_name_H-M   'P 1'
_cell_length_a   9.56126022
_cell_length_b   9.56125994
_cell_length_c   8.89946720
_cell_angle_alpha   76.69787665
_cell_angle_beta   76.69787655
_cell_angle_gamma   22.42361127
_symmetry_Int_Tables_number   1
_chemical_formula_structural   RbTi(RhSe2)4
_chemical_formula_sum   'Rb1 Ti1 Rh4 Se8'
_cell_volume   301.67883289
_cell_formula_units_Z   1
loop_
 _symmetry_equiv_pos_site_id
 _symmetry_equiv_pos_as_xyz
  1  'x, y, z'
loop_
 _atom_site_type_symbol
 _atom_site_label
 _atom_site_symmetry_multiplicity
 _atom_site_fract_x
 _atom_site_fract_y
 _atom_site_fract_z
 _atom_site_occupancy
  Rb  Rb0  1  0.489558  0.489558  0.502965  1
  Ti  Ti1  1  0.640968  0.640968  0.011800  1
  Rh  Rh2  1  0.012316  0.012316  0.998393  1
  Rh  Rh3  1  0.341215  0.341215  0.984337  1
  Rh  Rh4  1  0.298048  0.298048  0.324671  1
  Rh  Rh5  1  0.707516  0.707516  0.678772  1
  Se  Se6  1  0.432800  0.432800  0.147950  1
  Se  Se7  1  0.914621  0.914621  0.843953  1
  Se  Se8  1  0.827436  0.827436  0.484395  1
  Se  Se9  1  0.760965  0.760965  0.148134  1
  Se  Se10  1  0.236182  0.236182  0.850483  1
  Se  Se11  1  0.177867  0.177867  0.514423  1
  Se  Se12  1  0.089854  0.089854  0.196807  1
  Se  Se13  1  0.570655  0.570655  0.812917  1
