# generated using pymatgen
data_Tm2Sc3Si7Pt8Rh
_symmetry_space_group_name_H-M   'P 1'
_cell_length_a   10.03838235
_cell_length_b   10.05507416
_cell_length_c   3.94215400
_cell_angle_alpha   90.00000000
_cell_angle_beta   90.00000000
_cell_angle_gamma   119.76541414
_symmetry_Int_Tables_number   1
_chemical_formula_structural   Tm2Sc3Si7Pt8Rh
_chemical_formula_sum   'Tm2 Sc3 Si7 Pt8 Rh1'
_cell_volume   345.41006393
_cell_formula_units_Z   1
loop_
 _symmetry_equiv_pos_site_id
 _symmetry_equiv_pos_as_xyz
  1  'x, y, z'
loop_
 _atom_site_type_symbol
 _atom_site_label
 _atom_site_symmetry_multiplicity
 _atom_site_fract_x
 _atom_site_fract_y
 _atom_site_fract_z
 _atom_site_occupancy
  Tm  Tm0  1  0.000875  0.998094  0.000000  1
  Tm  Tm1  1  0.332341  0.668643  0.500000  1
  Sc  Sc2  1  0.894671  0.456533  0.500000  1
  Sc  Sc3  1  0.559765  0.103615  0.500000  1
  Sc  Sc4  1  0.542797  0.438601  0.500000  1
  Si  Si5  1  0.244458  0.189595  0.500000  1
  Si  Si6  1  0.806268  0.050175  0.500000  1
  Si  Si7  1  0.955535  0.756816  0.500000  1
  Si  Si8  1  0.555826  0.648083  0.000000  1
  Si  Si9  1  0.349316  0.909615  0.000000  1
  Si  Si10  1  0.091249  0.445133  0.000000  1
  Si  Si11  1  0.665831  0.332526  0.000000  1
  Pt  Pt12  1  0.064186  0.281468  0.500000  1
  Pt  Pt13  1  0.719335  0.782053  0.500000  1
  Pt  Pt14  1  0.314917  0.415694  0.000000  1
  Pt  Pt15  1  0.585056  0.900874  0.000000  1
  Pt  Pt16  1  0.098334  0.687014  0.000000  1
  Pt  Pt17  1  0.382942  0.173096  0.000000  1
  Pt  Pt18  1  0.827539  0.210614  0.000000  1
  Pt  Pt19  1  0.787200  0.614959  0.000000  1
  Rh  Rh20  1  0.221562  0.936797  0.500000  1
