# generated using pymatgen
data_Y6C2I11
_symmetry_space_group_name_H-M   'P 1'
_cell_length_a   9.50544443
_cell_length_b   10.83481100
_cell_length_c   15.15536861
_cell_angle_alpha   90.15532631
_cell_angle_beta   104.10303679
_cell_angle_gamma   109.71741678
_symmetry_Int_Tables_number   1
_chemical_formula_structural   Y6C2I11
_chemical_formula_sum   'Y12 C4 I22'
_cell_volume   1418.86669901
_cell_formula_units_Z   2
loop_
 _symmetry_equiv_pos_site_id
 _symmetry_equiv_pos_as_xyz
  1  'x, y, z'
loop_
 _atom_site_type_symbol
 _atom_site_label
 _atom_site_symmetry_multiplicity
 _atom_site_fract_x
 _atom_site_fract_y
 _atom_site_fract_z
 _atom_site_occupancy
  Y  Y0  1  0.384740  0.479408  0.120307  1
  Y  Y1  1  0.615260  0.520592  0.879693  1
  Y  Y2  1  0.424419  0.782444  0.267153  1
  Y  Y3  1  0.575581  0.217556  0.732847  1
  Y  Y4  1  0.626360  0.581799  0.360201  1
  Y  Y5  1  0.373640  0.418201  0.639799  1
  Y  Y6  1  0.834594  0.648545  0.200450  1
  Y  Y7  1  0.165406  0.351455  0.799550  1
  Y  Y8  1  0.629751  0.842703  0.104023  1
  Y  Y9  1  0.370249  0.157297  0.895977  1
  Y  Y10  1  0.861019  0.945883  0.347440  1
  Y  Y11  1  0.138981  0.054117  0.652560  1
  C  C12  1  0.430980  0.343548  0.796833  1
  C  C13  1  0.569020  0.656452  0.203167  1
  C  C14  1  0.315565  0.232290  0.740470  1
  C  C15  1  0.684435  0.767710  0.259530  1
  I  I16  1  0.386952  0.310240  0.273866  1
  I  I17  1  0.613048  0.689760  0.726134  1
  I  I18  1  0.119775  0.558847  0.150489  1
  I  I19  1  0.880225  0.441153  0.849511  1
  I  I20  1  0.628229  0.376196  0.062566  1
  I  I21  1  0.371771  0.623804  0.937434  1
  I  I22  1  0.120476  0.207586  0.480377  1
  I  I23  1  0.879524  0.792414  0.519623  1
  I  I24  1  0.616166  0.035049  0.391618  1
  I  I25  1  0.383834  0.964951  0.608382  1
  I  I26  1  0.131501  0.869579  0.305706  1
  I  I27  1  0.868499  0.130421  0.694294  1
  I  I28  1  0.128702  0.529305  0.652344  1
  I  I29  1  0.871298  0.470695  0.347656  1
  I  I30  1  0.617720  0.367726  0.564303  1
  I  I31  1  0.382280  0.632274  0.435697  1
  I  I32  1  0.137775  0.221868  0.979689  1
  I  I33  1  0.862225  0.778132  0.020311  1
  I  I34  1  0.627724  0.055412  0.897912  1
  I  I35  1  0.372276  0.944588  0.102088  1
  I  I36  1  0.127555  0.892184  0.816517  1
  I  I37  1  0.872445  0.107816  0.183483  1
