# generated using pymatgen
data_ErTh6FeCo2
_symmetry_space_group_name_H-M   'P 1'
_cell_length_a   9.74732910
_cell_length_b   9.73985027
_cell_length_c   6.13435900
_cell_angle_alpha   89.94475636
_cell_angle_beta   90.11040843
_cell_angle_gamma   120.02540039
_symmetry_Int_Tables_number   1
_chemical_formula_structural   ErTh6FeCo2
_chemical_formula_sum   'Er2 Th12 Fe2 Co4'
_cell_volume   504.22654903
_cell_formula_units_Z   2
loop_
 _symmetry_equiv_pos_site_id
 _symmetry_equiv_pos_as_xyz
  1  'x, y, z'
loop_
 _atom_site_type_symbol
 _atom_site_label
 _atom_site_symmetry_multiplicity
 _atom_site_fract_x
 _atom_site_fract_y
 _atom_site_fract_z
 _atom_site_occupancy
  Er  Er0  1  0.333609  0.667336  0.048531  1
  Er  Er1  1  0.666274  0.332664  0.548531  1
  Th  Th2  1  0.127260  0.872818  0.240000  1
  Th  Th3  1  0.254444  0.127182  0.740000  1
  Th  Th4  1  0.871278  0.747944  0.740146  1
  Th  Th5  1  0.123332  0.252056  0.240146  1
  Th  Th6  1  0.747993  0.876500  0.239707  1
  Th  Th7  1  0.871495  0.123500  0.739707  1
  Th  Th8  1  0.541744  0.459410  0.066138  1
  Th  Th9  1  0.082333  0.540590  0.566138  1
  Th  Th10  1  0.460465  0.916666  0.567595  1
  Th  Th11  1  0.543800  0.083334  0.067595  1
  Th  Th12  1  0.915749  0.456186  0.066090  1
  Th  Th13  1  0.459564  0.543814  0.566090  1
  Fe  Fe14  1  0.819844  0.183312  0.282090  1
  Fe  Fe15  1  0.636533  0.816688  0.782090  1
  Co  Co16  1  0.182335  0.364391  0.788972  1
  Co  Co17  1  0.817942  0.635609  0.288972  1
  Co  Co18  1  0.363451  0.182901  0.290732  1
  Co  Co19  1  0.180552  0.817099  0.790732  1
