# generated using pymatgen
data_Er10In8CoNiPd2
_symmetry_space_group_name_H-M   'P 1'
_cell_length_a   3.58146300
_cell_length_b   8.03557797
_cell_length_c   18.00528401
_cell_angle_alpha   90.14475076
_cell_angle_beta   90.00000000
_cell_angle_gamma   90.00000000
_symmetry_Int_Tables_number   1
_chemical_formula_structural   Er10In8CoNiPd2
_chemical_formula_sum   'Er10 In8 Co1 Ni1 Pd2'
_cell_volume   518.17466909
_cell_formula_units_Z   1
loop_
 _symmetry_equiv_pos_site_id
 _symmetry_equiv_pos_as_xyz
  1  'x, y, z'
loop_
 _atom_site_type_symbol
 _atom_site_label
 _atom_site_symmetry_multiplicity
 _atom_site_fract_x
 _atom_site_fract_y
 _atom_site_fract_z
 _atom_site_occupancy
  Er  Er0  1  0.000000  0.499943  0.500068  1
  Er  Er1  1  0.000000  0.999492  0.999799  1
  Er  Er2  1  0.000000  0.729626  0.276268  1
  Er  Er3  1  0.000000  0.274615  0.724611  1
  Er  Er4  1  0.000000  0.740873  0.780953  1
  Er  Er5  1  0.000000  0.253249  0.219658  1
  Er  Er6  1  0.000000  0.613118  0.087588  1
  Er  Er7  1  0.000000  0.388635  0.910710  1
  Er  Er8  1  0.000000  0.882384  0.585200  1
  Er  Er9  1  0.000000  0.117155  0.415184  1
  In  In10  1  0.500000  0.706876  0.931223  1
  In  In11  1  0.500000  0.291923  0.067734  1
  In  In12  1  0.500000  0.790319  0.430842  1
  In  In13  1  0.500000  0.209980  0.568936  1
  In  In14  1  0.500000  0.576056  0.651328  1
  In  In15  1  0.500000  0.423007  0.349092  1
  In  In16  1  0.500000  0.923281  0.149362  1
  In  In17  1  0.500000  0.078699  0.850768  1
  Co  Co18  1  0.500000  0.482122  0.805942  1
  Ni  Ni19  1  0.500000  0.518567  0.194519  1
  Pd  Pd20  1  0.500000  0.978941  0.696913  1
  Pd  Pd21  1  0.500000  0.021138  0.303302  1
