# generated using pymatgen
data_Ti4Mo5Os
_symmetry_space_group_name_H-M   'P 1'
_cell_length_a   4.45683706
_cell_length_b   8.20517610
_cell_length_c   4.44554400
_cell_angle_alpha   90.00000000
_cell_angle_beta   90.00000000
_cell_angle_gamma   74.27206645
_symmetry_Int_Tables_number   1
_chemical_formula_structural   Ti4Mo5Os
_chemical_formula_sum   'Ti4 Mo5 Os1'
_cell_volume   156.48303263
_cell_formula_units_Z   1
loop_
 _symmetry_equiv_pos_site_id
 _symmetry_equiv_pos_as_xyz
  1  'x, y, z'
loop_
 _atom_site_type_symbol
 _atom_site_label
 _atom_site_symmetry_multiplicity
 _atom_site_fract_x
 _atom_site_fract_y
 _atom_site_fract_z
 _atom_site_occupancy
  Ti  Ti0  1  0.086326  0.993896  0.000000  1
  Ti  Ti1  1  0.280799  0.606110  0.000000  1
  Ti  Ti2  1  0.587030  0.993204  0.500001  1
  Ti  Ti3  1  0.779483  0.606798  0.500001  1
  Mo  Mo4  1  0.480557  0.206225  0.000000  1
  Mo  Mo5  1  0.885607  0.393796  0.000000  1
  Mo  Mo6  1  0.683766  0.799973  0.000000  1
  Mo  Mo7  1  0.980254  0.206018  0.500001  1
  Mo  Mo8  1  0.385903  0.393993  0.500001  1
  Os  Os9  1  0.183452  0.799988  0.500001  1
