# generated using pymatgen
data_Y8Ta6TiNb5Si15P
_symmetry_space_group_name_H-M   'P 1'
_cell_length_a   7.04756400
_cell_length_b   7.04559958
_cell_length_c   13.03699200
_cell_angle_alpha   89.91690580
_cell_angle_beta   89.99929270
_cell_angle_gamma   89.98723965
_symmetry_Int_Tables_number   1
_chemical_formula_structural   Y8Ta6TiNb5Si15P
_chemical_formula_sum   'Y8 Ta6 Ti1 Nb5 Si15 P1'
_cell_volume   647.34219740
_cell_formula_units_Z   1
loop_
 _symmetry_equiv_pos_site_id
 _symmetry_equiv_pos_as_xyz
  1  'x, y, z'
loop_
 _atom_site_type_symbol
 _atom_site_label
 _atom_site_symmetry_multiplicity
 _atom_site_fract_x
 _atom_site_fract_y
 _atom_site_fract_z
 _atom_site_occupancy
  Y  Y0  1  0.001023  0.338659  0.218432  1
  Y  Y1  1  0.001959  0.658589  0.717732  1
  Y  Y2  1  0.158057  0.499080  0.467835  1
  Y  Y3  1  0.500022  0.841397  0.033232  1
  Y  Y4  1  0.840473  0.502541  0.968564  1
  Y  Y5  1  0.498424  0.159410  0.531594  1
  Y  Y6  1  0.341205  0.998969  0.782391  1
  Y  Y7  1  0.655624  0.001587  0.280687  1
  Ta  Ta8  1  0.170865  0.168621  0.000815  1
  Ta  Ta9  1  0.829353  0.829907  0.499491  1
  Ta  Ta10  1  0.329309  0.671219  0.249491  1
  Ta  Ta11  1  0.672399  0.328432  0.750055  1
  Ta  Ta12  1  0.154205  0.994507  0.373037  1
  Ta  Ta13  1  0.845493  0.008847  0.876322  1
  Ti  Ti14  1  0.508328  0.655751  0.626237  1
  Nb  Nb15  1  0.346219  0.493368  0.873826  1
  Nb  Nb16  1  0.489623  0.341731  0.127290  1
  Nb  Nb17  1  0.656123  0.509539  0.374040  1
  Nb  Nb18  1  0.992527  0.154581  0.624175  1
  Nb  Nb19  1  0.008710  0.847716  0.125111  1
  Si  Si20  1  0.705032  0.953875  0.685703  1
  Si  Si21  1  0.455350  0.792859  0.437247  1
  Si  Si22  1  0.206117  0.544080  0.063222  1
  Si  Si23  1  0.544625  0.205782  0.936338  1
  Si  Si24  1  0.791748  0.456654  0.564409  1
  Si  Si25  1  0.044972  0.293881  0.814110  1
  Si  Si26  1  0.956183  0.705711  0.313487  1
  Si  Si27  1  0.368921  0.300238  0.320461  1
  Si  Si28  1  0.633163  0.703317  0.817069  1
  Si  Si29  1  0.204139  0.867204  0.566064  1
  Si  Si30  1  0.132145  0.795506  0.932140  1
  Si  Si31  1  0.796549  0.132634  0.067105  1
  Si  Si32  1  0.867283  0.202535  0.431686  1
  Si  Si33  1  0.298418  0.369117  0.682409  1
  Si  Si34  1  0.703779  0.631025  0.181755  1
  P  P35  1  0.291635  0.041127  0.186436  1
