# generated using pymatgen
data_Tb5DyRu2
_symmetry_space_group_name_H-M   'P 1'
_cell_length_a   6.33187208
_cell_length_b   7.32720100
_cell_length_c   9.24150812
_cell_angle_alpha   90.00000000
_cell_angle_beta   90.01851326
_cell_angle_gamma   90.00000000
_symmetry_Int_Tables_number   1
_chemical_formula_structural   Tb5DyRu2
_chemical_formula_sum   'Tb10 Dy2 Ru4'
_cell_volume   428.75881769
_cell_formula_units_Z   2
loop_
 _symmetry_equiv_pos_site_id
 _symmetry_equiv_pos_as_xyz
  1  'x, y, z'
loop_
 _atom_site_type_symbol
 _atom_site_label
 _atom_site_symmetry_multiplicity
 _atom_site_fract_x
 _atom_site_fract_y
 _atom_site_fract_z
 _atom_site_occupancy
  Tb  Tb0  1  0.329968  0.677089  0.064845  1
  Tb  Tb1  1  0.170032  0.177089  0.435155  1
  Tb  Tb2  1  0.669969  0.322953  0.564765  1
  Tb  Tb3  1  0.830031  0.822953  0.935235  1
  Tb  Tb4  1  0.669996  0.322904  0.935239  1
  Tb  Tb5  1  0.830004  0.822904  0.564761  1
  Tb  Tb6  1  0.864738  0.540292  0.250015  1
  Tb  Tb7  1  0.635262  0.040292  0.249985  1
  Tb  Tb8  1  0.135362  0.459733  0.749990  1
  Tb  Tb9  1  0.364638  0.959733  0.750010  1
  Dy  Dy10  1  0.330000  0.677032  0.435155  1
  Dy  Dy11  1  0.170000  0.177032  0.064845  1
  Ru  Ru12  1  0.040145  0.885518  0.250003  1
  Ru  Ru13  1  0.459855  0.385518  0.249997  1
  Ru  Ru14  1  0.959951  0.114479  0.750056  1
  Ru  Ru15  1  0.540049  0.614479  0.749944  1
