# generated using pymatgen
data_Tb4Dy(OsO6)2
_symmetry_space_group_name_H-M   'P 1'
_cell_length_a   6.91090354
_cell_length_b   6.91090246
_cell_length_c   7.52861908
_cell_angle_alpha   73.95707024
_cell_angle_beta   73.95707112
_cell_angle_gamma   48.44793262
_symmetry_Int_Tables_number   1
_chemical_formula_structural   Tb4Dy(OsO6)2
_chemical_formula_sum   'Tb4 Dy1 Os2 O12'
_cell_volume   256.43321358
_cell_formula_units_Z   1
loop_
 _symmetry_equiv_pos_site_id
 _symmetry_equiv_pos_as_xyz
  1  'x, y, z'
loop_
 _atom_site_type_symbol
 _atom_site_label
 _atom_site_symmetry_multiplicity
 _atom_site_fract_x
 _atom_site_fract_y
 _atom_site_fract_z
 _atom_site_occupancy
  Tb  Tb0  1  0.198744  0.198744  0.642122  1
  Tb  Tb1  1  0.187786  0.187786  0.170832  1
  Tb  Tb2  1  0.801256  0.801256  0.357878  1
  Tb  Tb3  1  0.812214  0.812214  0.829168  1
  Dy  Dy4  1  0.500000  0.500000  0.500000  1
  Os  Os5  1  0.718982  0.281018  0.000000  1
  Os  Os6  1  0.281018  0.718982  0.000000  1
  O  O7  1  0.413286  0.917844  0.914848  1
  O  O8  1  0.917844  0.413286  0.914848  1
  O  O9  1  0.903335  0.401424  0.427320  1
  O  O10  1  0.401424  0.903335  0.427320  1
  O  O11  1  0.501281  0.501281  0.202801  1
  O  O12  1  0.999088  0.999088  0.172631  1
  O  O13  1  0.000912  0.000912  0.827369  1
  O  O14  1  0.498719  0.498719  0.797199  1
  O  O15  1  0.082156  0.586714  0.085152  1
  O  O16  1  0.586714  0.082156  0.085152  1
  O  O17  1  0.096665  0.598576  0.572680  1
  O  O18  1  0.598576  0.096665  0.572680  1
