# generated using pymatgen
data_Ba3AlGaSi2
_symmetry_space_group_name_H-M   'P 1'
_cell_length_a   4.31731998
_cell_length_b   5.10593158
_cell_length_c   10.46257794
_cell_angle_alpha   104.12329580
_cell_angle_beta   101.90689833
_cell_angle_gamma   90.00000579
_symmetry_Int_Tables_number   1
_chemical_formula_structural   Ba3AlGaSi2
_chemical_formula_sum   'Ba3 Al1 Ga1 Si2'
_cell_volume   218.54439104
_cell_formula_units_Z   1
loop_
 _symmetry_equiv_pos_site_id
 _symmetry_equiv_pos_as_xyz
  1  'x, y, z'
loop_
 _atom_site_type_symbol
 _atom_site_label
 _atom_site_symmetry_multiplicity
 _atom_site_fract_x
 _atom_site_fract_y
 _atom_site_fract_z
 _atom_site_occupancy
  Ba  Ba0  1  0.500747  0.000746  0.001491  1
  Ba  Ba1  1  0.184314  0.184314  0.368626  1
  Ba  Ba2  1  0.814983  0.814982  0.629966  1
  Al  Al3  1  0.935518  0.435517  0.871033  1
  Ga  Ga4  1  0.064057  0.564057  0.128114  1
  Si  Si5  1  0.633305  0.633304  0.266608  1
  Si  Si6  1  0.367081  0.367081  0.734161  1
