# generated using pymatgen
data_MnAl4Fe3
_symmetry_space_group_name_H-M   'P 1'
_cell_length_a   7.13198052
_cell_length_b   7.13198026
_cell_length_c   7.13198018
_cell_angle_alpha   33.29634324
_cell_angle_beta   33.29634084
_cell_angle_gamma   33.29634393
_symmetry_Int_Tables_number   1
_chemical_formula_structural   MnAl4Fe3
_chemical_formula_sum   'Mn1 Al4 Fe3'
_cell_volume   97.33835420
_cell_formula_units_Z   1
loop_
 _symmetry_equiv_pos_site_id
 _symmetry_equiv_pos_as_xyz
  1  'x, y, z'
loop_
 _atom_site_type_symbol
 _atom_site_label
 _atom_site_symmetry_multiplicity
 _atom_site_fract_x
 _atom_site_fract_y
 _atom_site_fract_z
 _atom_site_occupancy
  Mn  Mn0  1  0.000000  0.000000  0.000000  1
  Al  Al1  1  0.619970  0.619970  0.619970  1
  Al  Al2  1  0.128826  0.128826  0.128826  1
  Al  Al3  1  0.871174  0.871174  0.871174  1
  Al  Al4  1  0.380030  0.380030  0.380030  1
  Fe  Fe5  1  0.253793  0.253793  0.253793  1
  Fe  Fe6  1  0.746207  0.746207  0.746207  1
  Fe  Fe7  1  0.500000  0.500000  0.500000  1
