# generated using pymatgen
data_Pr3EuCo18(P6Ru)2
_symmetry_space_group_name_H-M   'P 1'
_cell_length_a   3.71572700
_cell_length_b   10.47392534
_cell_length_c   11.89070738
_cell_angle_alpha   89.97085997
_cell_angle_beta   90.00000000
_cell_angle_gamma   90.00000000
_symmetry_Int_Tables_number   1
_chemical_formula_structural   Pr3EuCo18(P6Ru)2
_chemical_formula_sum   'Pr3 Eu1 Co18 P12 Ru2'
_cell_volume   462.76542925
_cell_formula_units_Z   1
loop_
 _symmetry_equiv_pos_site_id
 _symmetry_equiv_pos_as_xyz
  1  'x, y, z'
loop_
 _atom_site_type_symbol
 _atom_site_label
 _atom_site_symmetry_multiplicity
 _atom_site_fract_x
 _atom_site_fract_y
 _atom_site_fract_z
 _atom_site_occupancy
  Pr  Pr0  1  0.250000  0.582869  0.701682  1
  Pr  Pr1  1  0.250000  0.917066  0.201375  1
  Pr  Pr2  1  0.750000  0.086308  0.796434  1
  Eu  Eu3  1  0.750000  0.413285  0.296323  1
  Co  Co4  1  0.750000  0.287307  0.009723  1
  Co  Co5  1  0.750000  0.212734  0.509366  1
  Co  Co6  1  0.250000  0.405537  0.490127  1
  Co  Co7  1  0.250000  0.094415  0.989937  1
  Co  Co8  1  0.750000  0.593204  0.507655  1
  Co  Co9  1  0.750000  0.906718  0.007427  1
  Co  Co10  1  0.250000  0.219867  0.175212  1
  Co  Co11  1  0.250000  0.279689  0.675622  1
  Co  Co12  1  0.750000  0.778546  0.823944  1
  Co  Co13  1  0.750000  0.720972  0.324266  1
  Co  Co14  1  0.250000  0.885680  0.700441  1
  Co  Co15  1  0.250000  0.614505  0.200865  1
  Co  Co16  1  0.750000  0.117304  0.302426  1
  Co  Co17  1  0.750000  0.383149  0.802726  1
  Co  Co18  1  0.250000  0.465233  0.934394  1
  Co  Co19  1  0.250000  0.035676  0.433062  1
  Co  Co20  1  0.750000  0.531221  0.068156  1
  Co  Co21  1  0.750000  0.968513  0.567643  1
  P  P22  1  0.250000  0.417240  0.112007  1
  P  P23  1  0.250000  0.083368  0.609161  1
  P  P24  1  0.750000  0.578656  0.890151  1
  P  P25  1  0.750000  0.921333  0.389673  1
  P  P26  1  0.250000  0.275840  0.869269  1
  P  P27  1  0.250000  0.227314  0.367910  1
  P  P28  1  0.750000  0.722183  0.133233  1
  P  P29  1  0.750000  0.777137  0.632535  1
  P  P30  1  0.250000  0.596904  0.391310  1
  P  P31  1  0.250000  0.900549  0.892342  1
  P  P32  1  0.750000  0.392670  0.606009  1
  P  P33  1  0.750000  0.107707  0.106719  1
  Ru  Ru34  1  0.250000  0.712271  0.990594  1
  Ru  Ru35  1  0.250000  0.787030  0.490278  1
