# generated using pymatgen
data_CaIClO3
_symmetry_space_group_name_H-M   'P 1'
_cell_length_a   8.97300120
_cell_length_b   8.97300094
_cell_length_c   7.45066100
_cell_angle_alpha   90.00000000
_cell_angle_beta   90.00000000
_cell_angle_gamma   129.61458223
_symmetry_Int_Tables_number   1
_chemical_formula_structural   CaIClO3
_chemical_formula_sum   'Ca4 I4 Cl4 O12'
_cell_volume   462.12438592
_cell_formula_units_Z   4
loop_
 _symmetry_equiv_pos_site_id
 _symmetry_equiv_pos_as_xyz
  1  'x, y, z'
loop_
 _atom_site_type_symbol
 _atom_site_label
 _atom_site_symmetry_multiplicity
 _atom_site_fract_x
 _atom_site_fract_y
 _atom_site_fract_z
 _atom_site_occupancy
  Ca  Ca0  1  0.347482  0.152518  0.750000  1
  Ca  Ca1  1  0.152518  0.347482  0.250000  1
  Ca  Ca2  1  0.652518  0.847482  0.250000  1
  Ca  Ca3  1  0.847482  0.652518  0.750000  1
  I  I4  1  0.601113  0.398887  0.283343  1
  I  I5  1  0.398887  0.601113  0.716657  1
  I  I6  1  0.898887  0.101113  0.783343  1
  I  I7  1  0.101113  0.898887  0.216657  1
  Cl  Cl8  1  0.211354  0.788646  0.663168  1
  Cl  Cl9  1  0.788646  0.211354  0.336832  1
  Cl  Cl10  1  0.288646  0.711354  0.163168  1
  Cl  Cl11  1  0.711354  0.288646  0.836832  1
  O  O12  1  0.412824  0.214909  0.437999  1
  O  O13  1  0.214909  0.412824  0.562001  1
  O  O14  1  0.714910  0.912824  0.937999  1
  O  O15  1  0.912824  0.714909  0.062001  1
  O  O16  1  0.587176  0.785091  0.562001  1
  O  O17  1  0.785091  0.587176  0.437999  1
  O  O18  1  0.285091  0.087176  0.062001  1
  O  O19  1  0.087176  0.285091  0.937999  1
  O  O20  1  0.490050  0.509950  0.223102  1
  O  O21  1  0.509950  0.490050  0.776898  1
  O  O22  1  0.009950  0.990050  0.723102  1
  O  O23  1  0.990050  0.009950  0.276898  1
