# generated using pymatgen
data_LiY2Tm7Cd3Ru
_symmetry_space_group_name_H-M   'P 1'
_cell_length_a   9.35423928
_cell_length_b   9.35030331
_cell_length_c   9.61739900
_cell_angle_alpha   90.00000000
_cell_angle_beta   90.00000000
_cell_angle_gamma   119.98608006
_symmetry_Int_Tables_number   1
_chemical_formula_structural   LiY2Tm7Cd3Ru
_chemical_formula_sum   'Li2 Y4 Tm14 Cd6 Ru2'
_cell_volume   728.59022349
_cell_formula_units_Z   2
loop_
 _symmetry_equiv_pos_site_id
 _symmetry_equiv_pos_as_xyz
  1  'x, y, z'
loop_
 _atom_site_type_symbol
 _atom_site_label
 _atom_site_symmetry_multiplicity
 _atom_site_fract_x
 _atom_site_fract_y
 _atom_site_fract_z
 _atom_site_occupancy
  Li  Li0  1  0.000039  0.000020  0.499842  1
  Li  Li1  1  0.000039  0.000020  0.000158  1
  Y  Y2  1  0.915014  0.457507  0.250000  1
  Y  Y3  1  0.457978  0.541916  0.750000  1
  Y  Y4  1  0.457978  0.916061  0.750000  1
  Y  Y5  1  0.083855  0.541927  0.750000  1
  Tm  Tm6  1  0.208867  0.792184  0.441345  1
  Tm  Tm7  1  0.208867  0.416684  0.441345  1
  Tm  Tm8  1  0.583289  0.791645  0.441117  1
  Tm  Tm9  1  0.791231  0.208074  0.557930  1
  Tm  Tm10  1  0.791231  0.583156  0.557930  1
  Tm  Tm11  1  0.417041  0.208520  0.557475  1
  Tm  Tm12  1  0.791231  0.208074  0.942070  1
  Tm  Tm13  1  0.791231  0.583156  0.942070  1
  Tm  Tm14  1  0.417041  0.208520  0.942525  1
  Tm  Tm15  1  0.208867  0.792184  0.058655  1
  Tm  Tm16  1  0.208867  0.416684  0.058655  1
  Tm  Tm17  1  0.583289  0.791645  0.058883  1
  Tm  Tm18  1  0.541650  0.457754  0.250000  1
  Tm  Tm19  1  0.541650  0.083897  0.250000  1
  Cd  Cd20  1  0.891321  0.108029  0.250000  1
  Cd  Cd21  1  0.891321  0.783293  0.250000  1
  Cd  Cd22  1  0.217281  0.108641  0.250000  1
  Cd  Cd23  1  0.108267  0.891799  0.750000  1
  Cd  Cd24  1  0.108267  0.216467  0.750000  1
  Cd  Cd25  1  0.783586  0.891792  0.750000  1
  Ru  Ru26  1  0.333857  0.666929  0.250000  1
  Ru  Ru27  1  0.666846  0.333422  0.750000  1
