# generated using pymatgen
data_Eu2CuAsPPd
_symmetry_space_group_name_H-M   'P 1'
_cell_length_a   4.20824000
_cell_length_b   4.20824159
_cell_length_c   8.32899100
_cell_angle_alpha   90.00000000
_cell_angle_beta   90.00000000
_cell_angle_gamma   120.00000325
_symmetry_Int_Tables_number   1
_chemical_formula_structural   Eu2CuAsPPd
_chemical_formula_sum   'Eu2 Cu1 As1 P1 Pd1'
_cell_volume   127.73919478
_cell_formula_units_Z   1
loop_
 _symmetry_equiv_pos_site_id
 _symmetry_equiv_pos_as_xyz
  1  'x, y, z'
loop_
 _atom_site_type_symbol
 _atom_site_label
 _atom_site_symmetry_multiplicity
 _atom_site_fract_x
 _atom_site_fract_y
 _atom_site_fract_z
 _atom_site_occupancy
  Eu  Eu0  1  0.000000  0.000000  0.508129  1
  Eu  Eu1  1  0.000000  0.000000  0.991871  1
  Cu  Cu2  1  0.333333  0.666667  0.250000  1
  As  As3  1  0.666667  0.333333  0.250000  1
  P  P4  1  0.333333  0.666667  0.750000  1
  Pd  Pd5  1  0.666667  0.333333  0.750000  1
