# generated using pymatgen
data_SrSc2(H6Ir)2
_symmetry_space_group_name_H-M   'P 1'
_cell_length_a   4.71783900
_cell_length_b   4.71784061
_cell_length_c   8.33130300
_cell_angle_alpha   90.00000000
_cell_angle_beta   90.00000000
_cell_angle_gamma   119.99999569
_symmetry_Int_Tables_number   1
_chemical_formula_structural   SrSc2(H6Ir)2
_chemical_formula_sum   'Sr1 Sc2 H12 Ir2'
_cell_volume   160.59423871
_cell_formula_units_Z   1
loop_
 _symmetry_equiv_pos_site_id
 _symmetry_equiv_pos_as_xyz
  1  'x, y, z'
loop_
 _atom_site_type_symbol
 _atom_site_label
 _atom_site_symmetry_multiplicity
 _atom_site_fract_x
 _atom_site_fract_y
 _atom_site_fract_z
 _atom_site_occupancy
  Sr  Sr0  1  0.000000  0.000000  0.000000  1
  Sc  Sc1  1  0.666667  0.333333  0.372488  1
  Sc  Sc2  1  0.333333  0.666667  0.627512  1
  H  H3  1  0.165025  0.834975  0.390429  1
  H  H4  1  0.669951  0.834975  0.390429  1
  H  H5  1  0.165025  0.330049  0.390429  1
  H  H6  1  0.834975  0.165025  0.609571  1
  H  H7  1  0.330049  0.165025  0.609571  1
  H  H8  1  0.834975  0.669951  0.609571  1
  H  H9  1  0.495933  0.991864  0.845139  1
  H  H10  1  0.495933  0.504067  0.845139  1
  H  H11  1  0.008136  0.504067  0.845139  1
  H  H12  1  0.504067  0.008136  0.154861  1
  H  H13  1  0.504067  0.495933  0.154861  1
  H  H14  1  0.991864  0.495933  0.154861  1
  Ir  Ir15  1  0.666667  0.333333  0.729875  1
  Ir  Ir16  1  0.333333  0.666667  0.270125  1
