# generated using pymatgen
data_TbPr4DyTa2O14
_symmetry_space_group_name_H-M   'P 1'
_cell_length_a   6.65143800
_cell_length_b   6.62306455
_cell_length_c   7.69367000
_cell_angle_alpha   90.00000000
_cell_angle_beta   90.00000000
_cell_angle_gamma   110.45370051
_symmetry_Int_Tables_number   1
_chemical_formula_structural   TbPr4DyTa2O14
_chemical_formula_sum   'Tb1 Pr4 Dy1 Ta2 O14'
_cell_volume   317.56071163
_cell_formula_units_Z   1
loop_
 _symmetry_equiv_pos_site_id
 _symmetry_equiv_pos_as_xyz
  1  'x, y, z'
loop_
 _atom_site_type_symbol
 _atom_site_label
 _atom_site_symmetry_multiplicity
 _atom_site_fract_x
 _atom_site_fract_y
 _atom_site_fract_z
 _atom_site_occupancy
  Tb  Tb0  1  0.484374  0.942357  0.750000  1
  Pr  Pr1  1  0.000000  0.000001  0.000010  1
  Pr  Pr2  1  0.000000  0.000001  0.499990  1
  Pr  Pr3  1  0.933434  0.477275  0.750000  1
  Pr  Pr4  1  0.066600  0.522767  0.250000  1
  Dy  Dy5  1  0.515364  0.056748  0.250000  1
  Ta  Ta6  1  0.500043  0.500035  0.000057  1
  Ta  Ta7  1  0.500043  0.500035  0.499943  1
  O  O8  1  0.561087  0.577967  0.750000  1
  O  O9  1  0.438932  0.421828  0.250000  1
  O  O10  1  0.838719  0.099156  0.750000  1
  O  O11  1  0.162678  0.901525  0.250000  1
  O  O12  1  0.127478  0.848528  0.750000  1
  O  O13  1  0.871125  0.151181  0.250000  1
  O  O14  1  0.468235  0.192754  0.962890  1
  O  O15  1  0.531816  0.807530  0.462015  1
  O  O16  1  0.179469  0.415661  0.968980  1
  O  O17  1  0.820542  0.584354  0.468993  1
  O  O18  1  0.468235  0.192754  0.537110  1
  O  O19  1  0.531816  0.807530  0.037985  1
  O  O20  1  0.820542  0.584354  0.031007  1
  O  O21  1  0.179469  0.415661  0.531020  1
