# generated using pymatgen
data_Tb2SiIr3
_symmetry_space_group_name_H-M   'P 1'
_cell_length_a   5.09505590
_cell_length_b   5.09505569
_cell_length_c   5.09505527
_cell_angle_alpha   66.21174786
_cell_angle_beta   66.21174690
_cell_angle_gamma   66.21174655
_symmetry_Int_Tables_number   1
_chemical_formula_structural   Tb2SiIr3
_chemical_formula_sum   'Tb2 Si1 Ir3'
_cell_volume   106.07320769
_cell_formula_units_Z   1
loop_
 _symmetry_equiv_pos_site_id
 _symmetry_equiv_pos_as_xyz
  1  'x, y, z'
loop_
 _atom_site_type_symbol
 _atom_site_label
 _atom_site_symmetry_multiplicity
 _atom_site_fract_x
 _atom_site_fract_y
 _atom_site_fract_z
 _atom_site_occupancy
  Tb  Tb0  1  0.625624  0.625624  0.625624  1
  Tb  Tb1  1  0.374376  0.374376  0.374376  1
  Si  Si2  1  0.000000  0.000000  0.000000  1
  Ir  Ir3  1  0.000000  0.000000  0.500000  1
  Ir  Ir4  1  0.500000  0.000000  0.000000  1
  Ir  Ir5  1  0.000000  0.500000  0.000000  1
