# generated using pymatgen
data_Ho8MgAl(SiB4)4
_symmetry_space_group_name_H-M   'P 1'
_cell_length_a   7.13341800
_cell_length_b   7.13341800
_cell_length_c   7.74546900
_cell_angle_alpha   90.00000000
_cell_angle_beta   90.00000000
_cell_angle_gamma   90.00000000
_symmetry_Int_Tables_number   1
_chemical_formula_structural   Ho8MgAl(SiB4)4
_chemical_formula_sum   'Ho8 Mg1 Al1 Si4 B16'
_cell_volume   394.13324292
_cell_formula_units_Z   1
loop_
 _symmetry_equiv_pos_site_id
 _symmetry_equiv_pos_as_xyz
  1  'x, y, z'
loop_
 _atom_site_type_symbol
 _atom_site_label
 _atom_site_symmetry_multiplicity
 _atom_site_fract_x
 _atom_site_fract_y
 _atom_site_fract_z
 _atom_site_occupancy
  Ho  Ho0  1  0.682212  0.182326  0.232706  1
  Ho  Ho1  1  0.317788  0.817674  0.767294  1
  Ho  Ho2  1  0.317788  0.817674  0.232706  1
  Ho  Ho3  1  0.817674  0.682212  0.232706  1
  Ho  Ho4  1  0.817674  0.682212  0.767294  1
  Ho  Ho5  1  0.682212  0.182326  0.767294  1
  Ho  Ho6  1  0.182326  0.317788  0.767294  1
  Ho  Ho7  1  0.182326  0.317788  0.232706  1
  Mg  Mg8  1  0.000000  0.000000  0.500000  1
  Al  Al9  1  0.500000  0.500000  0.500000  1
  Si  Si10  1  0.118769  0.614149  0.500000  1
  Si  Si11  1  0.881231  0.385851  0.500000  1
  Si  Si12  1  0.385851  0.118769  0.500000  1
  Si  Si13  1  0.614149  0.881231  0.500000  1
  B  B14  1  0.173538  0.039523  0.000000  1
  B  B15  1  0.826462  0.960477  0.000000  1
  B  B16  1  0.960477  0.173538  0.000000  1
  B  B17  1  0.325889  0.540113  0.000000  1
  B  B18  1  0.039523  0.826462  0.000000  1
  B  B19  1  0.674111  0.459887  0.000000  1
  B  B20  1  0.540113  0.674111  0.000000  1
  B  B21  1  0.459887  0.325889  0.000000  1
  B  B22  1  0.088667  0.589093  0.000000  1
  B  B23  1  0.911333  0.410907  0.000000  1
  B  B24  1  0.410907  0.088667  0.000000  1
  B  B25  1  0.589093  0.911333  0.000000  1
  B  B26  1  0.000000  0.000000  0.165255  1
  B  B27  1  0.000000  0.000000  0.834745  1
  B  B28  1  0.500000  0.500000  0.833837  1
  B  B29  1  0.500000  0.500000  0.166163  1
