# generated using pymatgen
data_Ho20Al3Zn3Ru2
_symmetry_space_group_name_H-M   'P 1'
_cell_length_a   9.39984900
_cell_length_b   9.39987005
_cell_length_c   9.66550300
_cell_angle_alpha   89.99992512
_cell_angle_beta   89.99998965
_cell_angle_gamma   120.00011891
_symmetry_Int_Tables_number   1
_chemical_formula_structural   Ho20Al3Zn3Ru2
_chemical_formula_sum   'Ho20 Al3 Zn3 Ru2'
_cell_volume   739.60067352
_cell_formula_units_Z   1
loop_
 _symmetry_equiv_pos_site_id
 _symmetry_equiv_pos_as_xyz
  1  'x, y, z'
loop_
 _atom_site_type_symbol
 _atom_site_label
 _atom_site_symmetry_multiplicity
 _atom_site_fract_x
 _atom_site_fract_y
 _atom_site_fract_z
 _atom_site_occupancy
  Ho  Ho0  1  0.000001  0.000002  0.517569  1
  Ho  Ho1  1  0.000002  0.000003  0.982431  1
  Ho  Ho2  1  0.207097  0.792899  0.439394  1
  Ho  Ho3  1  0.207098  0.414195  0.439391  1
  Ho  Ho4  1  0.585805  0.792902  0.439395  1
  Ho  Ho5  1  0.791967  0.208026  0.557381  1
  Ho  Ho6  1  0.791969  0.583939  0.557384  1
  Ho  Ho7  1  0.416064  0.208034  0.557383  1
  Ho  Ho8  1  0.791963  0.208026  0.942616  1
  Ho  Ho9  1  0.791969  0.583937  0.942620  1
  Ho  Ho10  1  0.416062  0.208033  0.942622  1
  Ho  Ho11  1  0.207098  0.792907  0.060608  1
  Ho  Ho12  1  0.207099  0.414198  0.060609  1
  Ho  Ho13  1  0.585803  0.792902  0.060601  1
  Ho  Ho14  1  0.540413  0.459578  0.250001  1
  Ho  Ho15  1  0.540418  0.080838  0.250000  1
  Ho  Ho16  1  0.919169  0.459577  0.249997  1
  Ho  Ho17  1  0.458797  0.541211  0.749996  1
  Ho  Ho18  1  0.458791  0.917587  0.750001  1
  Ho  Ho19  1  0.082409  0.541201  0.749997  1
  Al  Al20  1  0.894492  0.105505  0.250002  1
  Al  Al21  1  0.894493  0.788986  0.250001  1
  Al  Al22  1  0.211015  0.105508  0.250001  1
  Zn  Zn23  1  0.115540  0.884458  0.750003  1
  Zn  Zn24  1  0.115542  0.231080  0.750001  1
  Zn  Zn25  1  0.768921  0.884458  0.750000  1
  Ru  Ru26  1  0.333325  0.666670  0.249997  1
  Ru  Ru27  1  0.666675  0.333340  0.749998  1
