# generated using pymatgen
data_Dy4Y(CoTe)2
_symmetry_space_group_name_H-M   'P 1'
_cell_length_a   7.77773651
_cell_length_b   7.77773642
_cell_length_c   14.92980900
_cell_angle_alpha   89.99901636
_cell_angle_beta   90.00098437
_cell_angle_gamma   150.38776659
_symmetry_Int_Tables_number   1
_chemical_formula_structural   Dy4Y(CoTe)2
_chemical_formula_sum   'Dy8 Y2 Co4 Te4'
_cell_volume   446.27209039
_cell_formula_units_Z   2
loop_
 _symmetry_equiv_pos_site_id
 _symmetry_equiv_pos_as_xyz
  1  'x, y, z'
loop_
 _atom_site_type_symbol
 _atom_site_label
 _atom_site_symmetry_multiplicity
 _atom_site_fract_x
 _atom_site_fract_y
 _atom_site_fract_z
 _atom_site_occupancy
  Dy  Dy0  1  0.959706  0.040294  0.125688  1
  Dy  Dy1  1  0.040092  0.959908  0.874348  1
  Dy  Dy2  1  0.040086  0.959914  0.625654  1
  Dy  Dy3  1  0.959711  0.040289  0.374309  1
  Dy  Dy4  1  0.741670  0.258330  0.630551  1
  Dy  Dy5  1  0.258611  0.741389  0.369378  1
  Dy  Dy6  1  0.258608  0.741392  0.130613  1
  Dy  Dy7  1  0.741672  0.258328  0.869460  1
  Y  Y8  1  0.605318  0.394682  0.250018  1
  Y  Y9  1  0.394687  0.605313  0.749982  1
  Co  Co10  1  0.410353  0.589647  0.249995  1
  Co  Co11  1  0.589538  0.410462  0.750005  1
  Co  Co12  1  0.820030  0.179970  0.250002  1
  Co  Co13  1  0.180017  0.819983  0.749998  1
  Te  Te14  1  0.617358  0.382642  0.038430  1
  Te  Te15  1  0.382592  0.617408  0.961617  1
  Te  Te16  1  0.382594  0.617406  0.538382  1
  Te  Te17  1  0.617357  0.382643  0.461569  1
