# generated using pymatgen
data_Hf16Co4ReRh3
_symmetry_space_group_name_H-M   'P 1'
_cell_length_a   8.61014570
_cell_length_b   8.61014507
_cell_length_c   8.61014678
_cell_angle_alpha   59.74572884
_cell_angle_beta   59.74572663
_cell_angle_gamma   59.74573279
_symmetry_Int_Tables_number   1
_chemical_formula_structural   Hf16Co4ReRh3
_chemical_formula_sum   'Hf16 Co4 Re1 Rh3'
_cell_volume   448.74704243
_cell_formula_units_Z   1
loop_
 _symmetry_equiv_pos_site_id
 _symmetry_equiv_pos_as_xyz
  1  'x, y, z'
loop_
 _atom_site_type_symbol
 _atom_site_label
 _atom_site_symmetry_multiplicity
 _atom_site_fract_x
 _atom_site_fract_y
 _atom_site_fract_z
 _atom_site_occupancy
  Hf  Hf0  1  0.692269  0.102904  0.102904  1
  Hf  Hf1  1  0.102904  0.692269  0.102904  1
  Hf  Hf2  1  0.102904  0.102904  0.692269  1
  Hf  Hf3  1  0.105205  0.105205  0.105205  1
  Hf  Hf4  1  0.313565  0.313565  0.680617  1
  Hf  Hf5  1  0.685923  0.685923  0.313661  1
  Hf  Hf6  1  0.313565  0.680617  0.313565  1
  Hf  Hf7  1  0.685923  0.313661  0.685923  1
  Hf  Hf8  1  0.680617  0.313565  0.313565  1
  Hf  Hf9  1  0.313661  0.685923  0.685923  1
  Hf  Hf10  1  0.947097  0.947097  0.553221  1
  Hf  Hf11  1  0.552146  0.552146  0.949716  1
  Hf  Hf12  1  0.947097  0.553221  0.947097  1
  Hf  Hf13  1  0.552146  0.949716  0.552146  1
  Hf  Hf14  1  0.553221  0.947097  0.947097  1
  Hf  Hf15  1  0.949716  0.552146  0.552146  1
  Co  Co16  1  0.324164  0.893330  0.893330  1
  Co  Co17  1  0.893330  0.324164  0.893330  1
  Co  Co18  1  0.893330  0.893330  0.324164  1
  Co  Co19  1  0.891290  0.891290  0.891290  1
  Re  Re20  1  0.332612  0.332612  0.332612  1
  Rh  Rh21  1  0.995500  0.335906  0.335906  1
  Rh  Rh22  1  0.335906  0.995500  0.335906  1
  Rh  Rh23  1  0.335906  0.335906  0.995500  1
