# generated using pymatgen
data_Ca5Ag6
_symmetry_space_group_name_H-M   'P 1'
_cell_length_a   16.25616140
_cell_length_b   16.25616223
_cell_length_c   4.02987300
_cell_angle_alpha   90.00000000
_cell_angle_beta   90.00000000
_cell_angle_gamma   164.00106153
_symmetry_Int_Tables_number   1
_chemical_formula_structural   Ca5Ag6
_chemical_formula_sum   'Ca5 Ag6'
_cell_volume   293.51979841
_cell_formula_units_Z   1
loop_
 _symmetry_equiv_pos_site_id
 _symmetry_equiv_pos_as_xyz
  1  'x, y, z'
loop_
 _atom_site_type_symbol
 _atom_site_label
 _atom_site_symmetry_multiplicity
 _atom_site_fract_x
 _atom_site_fract_y
 _atom_site_fract_z
 _atom_site_occupancy
  Ca  Ca0  1  0.000000  0.000000  0.000000  1
  Ca  Ca1  1  0.618832  0.381166  0.000000  1
  Ca  Ca2  1  0.381166  0.618832  0.000000  1
  Ca  Ca3  1  0.802775  0.197223  0.500001  1
  Ca  Ca4  1  0.197223  0.802775  0.500001  1
  Ag  Ag5  1  0.721322  0.278676  0.000000  1
  Ag  Ag6  1  0.278676  0.721322  0.000000  1
  Ag  Ag7  1  0.905220  0.094779  0.500001  1
  Ag  Ag8  1  0.542627  0.457371  0.500001  1
  Ag  Ag9  1  0.457371  0.542627  0.500001  1
  Ag  Ag10  1  0.094779  0.905220  0.500001  1
