# generated using pymatgen
data_Dy6Er4InSb5
_symmetry_space_group_name_H-M   'P 1'
_cell_length_a   6.36112100
_cell_length_b   8.93232934
_cell_length_c   8.94410834
_cell_angle_alpha   119.95646056
_cell_angle_beta   90.00001801
_cell_angle_gamma   89.99997174
_symmetry_Int_Tables_number   1
_chemical_formula_structural   Dy6Er4InSb5
_chemical_formula_sum   'Dy6 Er4 In1 Sb5'
_cell_volume   440.30786068
_cell_formula_units_Z   1
loop_
 _symmetry_equiv_pos_site_id
 _symmetry_equiv_pos_as_xyz
  1  'x, y, z'
loop_
 _atom_site_type_symbol
 _atom_site_label
 _atom_site_symmetry_multiplicity
 _atom_site_fract_x
 _atom_site_fract_y
 _atom_site_fract_z
 _atom_site_occupancy
  Dy  Dy0  1  0.750001  0.243594  0.000000  1
  Dy  Dy1  1  0.750001  0.753716  0.757670  1
  Dy  Dy2  1  0.750001  0.996046  0.242330  1
  Dy  Dy3  1  0.249999  0.757140  0.000000  1
  Dy  Dy4  1  0.250001  0.246571  0.244555  1
  Dy  Dy5  1  0.250001  0.002016  0.755445  1
  Er  Er6  1  0.499174  0.335234  0.669026  1
  Er  Er7  1  0.499174  0.666208  0.330974  1
  Er  Er8  1  0.000825  0.666209  0.330974  1
  Er  Er9  1  0.000825  0.335235  0.669026  1
  In  In10  1  0.749999  0.605050  0.000000  1
  Sb  Sb11  1  0.750001  0.389599  0.390391  1
  Sb  Sb12  1  0.750001  0.999208  0.609609  1
  Sb  Sb13  1  0.250000  0.392262  0.000000  1
  Sb  Sb14  1  0.250000  0.610636  0.609360  1
  Sb  Sb15  1  0.250000  0.001275  0.390640  1
