# generated using pymatgen
data_LaSm4(TcB3)2
_symmetry_space_group_name_H-M   'P 1'
_cell_length_a   5.58735220
_cell_length_b   5.58735241
_cell_length_c   8.74369623
_cell_angle_alpha   71.36685539
_cell_angle_beta   71.36685267
_cell_angle_gamma   59.99999427
_symmetry_Int_Tables_number   1
_chemical_formula_structural   LaSm4(TcB3)2
_chemical_formula_sum   'La1 Sm4 Tc2 B6'
_cell_volume   219.71825624
_cell_formula_units_Z   1
loop_
 _symmetry_equiv_pos_site_id
 _symmetry_equiv_pos_as_xyz
  1  'x, y, z'
loop_
 _atom_site_type_symbol
 _atom_site_label
 _atom_site_symmetry_multiplicity
 _atom_site_fract_x
 _atom_site_fract_y
 _atom_site_fract_z
 _atom_site_occupancy
  La  La0  1  0.000000  0.000000  0.000000  1
  Sm  Sm1  1  0.752196  0.752196  0.743413  1
  Sm  Sm2  1  0.247804  0.247804  0.256587  1
  Sm  Sm3  1  0.580737  0.580737  0.257791  1
  Sm  Sm4  1  0.419263  0.419263  0.742209  1
  Tc  Tc5  1  0.886810  0.886810  0.339571  1
  Tc  Tc6  1  0.113190  0.113190  0.660429  1
  B  B7  1  0.500000  0.169175  0.500000  1
  B  B8  1  0.830825  0.500000  0.500000  1
  B  B9  1  0.169175  0.830826  0.500000  1
  B  B10  1  0.169175  0.500000  0.500000  1
  B  B11  1  0.830825  0.169175  0.500000  1
  B  B12  1  0.500000  0.830825  0.500000  1
