# generated using pymatgen
data_BaEu(SbPd)4
_symmetry_space_group_name_H-M   'P 1'
_cell_length_a   4.74666800
_cell_length_b   4.74665100
_cell_length_c   10.83225300
_cell_angle_alpha   90.00000000
_cell_angle_beta   90.00000000
_cell_angle_gamma   90.00000000
_symmetry_Int_Tables_number   1
_chemical_formula_structural   BaEu(SbPd)4
_chemical_formula_sum   'Ba1 Eu1 Sb4 Pd4'
_cell_volume   244.05907035
_cell_formula_units_Z   1
loop_
 _symmetry_equiv_pos_site_id
 _symmetry_equiv_pos_as_xyz
  1  'x, y, z'
loop_
 _atom_site_type_symbol
 _atom_site_label
 _atom_site_symmetry_multiplicity
 _atom_site_fract_x
 _atom_site_fract_y
 _atom_site_fract_z
 _atom_site_occupancy
  Ba  Ba0  1  0.500000  0.000000  0.754636  1
  Eu  Eu1  1  0.000000  0.500000  0.240320  1
  Sb  Sb2  1  0.000000  0.000000  0.493960  1
  Sb  Sb3  1  0.500000  0.500000  0.494027  1
  Sb  Sb4  1  0.000000  0.500000  0.877518  1
  Sb  Sb5  1  0.500000  0.000000  0.129569  1
  Pd  Pd6  1  0.000000  0.000000  0.006709  1
  Pd  Pd7  1  0.500000  0.500000  0.006680  1
  Pd  Pd8  1  0.000000  0.500000  0.623879  1
  Pd  Pd9  1  0.500000  0.000000  0.372702  1
