# generated using pymatgen
data_LaYb(PaRh2)2
_symmetry_space_group_name_H-M   'P 1'
_cell_length_a   4.39586600
_cell_length_b   5.55519990
_cell_length_c   7.05197500
_cell_angle_alpha   90.46238750
_cell_angle_beta   90.00000000
_cell_angle_gamma   90.00000000
_symmetry_Int_Tables_number   1
_chemical_formula_structural   LaYb(PaRh2)2
_chemical_formula_sum   'La1 Yb1 Pa2 Rh4'
_cell_volume   172.20301778
_cell_formula_units_Z   1
loop_
 _symmetry_equiv_pos_site_id
 _symmetry_equiv_pos_as_xyz
  1  'x, y, z'
loop_
 _atom_site_type_symbol
 _atom_site_label
 _atom_site_symmetry_multiplicity
 _atom_site_fract_x
 _atom_site_fract_y
 _atom_site_fract_z
 _atom_site_occupancy
  La  La0  1  0.750000  0.847967  0.810743  1
  Yb  Yb1  1  0.250000  0.351510  0.684813  1
  Pa  Pa2  1  0.250000  0.150532  0.179961  1
  Pa  Pa3  1  0.750000  0.644846  0.324378  1
  Rh  Rh4  1  0.250000  0.837253  0.506422  1
  Rh  Rh5  1  0.250000  0.665984  0.082478  1
  Rh  Rh6  1  0.750000  0.172706  0.422767  1
  Rh  Rh7  1  0.750000  0.329202  0.988438  1
