# generated using pymatgen
data_Zr2Mn3Co9P7
_symmetry_space_group_name_H-M   'P 1'
_cell_length_a   8.96580504
_cell_length_b   8.96573341
_cell_length_c   3.56741100
_cell_angle_alpha   90.00000000
_cell_angle_beta   90.00000000
_cell_angle_gamma   119.99171004
_symmetry_Int_Tables_number   1
_chemical_formula_structural   Zr2Mn3Co9P7
_chemical_formula_sum   'Zr2 Mn3 Co9 P7'
_cell_volume   248.36772748
_cell_formula_units_Z   1
loop_
 _symmetry_equiv_pos_site_id
 _symmetry_equiv_pos_as_xyz
  1  'x, y, z'
loop_
 _atom_site_type_symbol
 _atom_site_label
 _atom_site_symmetry_multiplicity
 _atom_site_fract_x
 _atom_site_fract_y
 _atom_site_fract_z
 _atom_site_occupancy
  Zr  Zr0  1  0.666757  0.333275  0.000000  1
  Zr  Zr1  1  0.000033  0.000098  0.500000  1
  Mn  Mn2  1  0.555365  0.764905  0.500000  1
  Mn  Mn3  1  0.234914  0.790390  0.500000  1
  Mn  Mn4  1  0.209459  0.444587  0.500000  1
  Co  Co5  1  0.768167  0.731202  0.000000  1
  Co  Co6  1  0.268855  0.037016  0.000000  1
  Co  Co7  1  0.962997  0.231852  0.000000  1
  Co  Co8  1  0.494835  0.946535  0.000000  1
  Co  Co9  1  0.053322  0.548256  0.000000  1
  Co  Co10  1  0.451850  0.505199  0.000000  1
  Co  Co11  1  0.721989  0.107175  0.500000  1
  Co  Co12  1  0.892842  0.614786  0.500000  1
  Co  Co13  1  0.385183  0.278053  0.500000  1
  P  P14  1  0.453575  0.074915  0.500000  1
  P  P15  1  0.925187  0.378625  0.500000  1
  P  P16  1  0.621369  0.546338  0.500000  1
  P  P17  1  0.747578  0.964995  0.000000  1
  P  P18  1  0.035065  0.782651  0.000000  1
  P  P19  1  0.217421  0.252594  0.000000  1
  P  P20  1  0.333233  0.666555  0.000000  1
