# generated using pymatgen
data_NdNi5P3
_symmetry_space_group_name_H-M   'P 1'
_cell_length_a   6.09182382
_cell_length_b   6.09182295
_cell_length_c   11.42238300
_cell_angle_alpha   90.00000000
_cell_angle_beta   90.00000000
_cell_angle_gamma   145.51640593
_symmetry_Int_Tables_number   1
_chemical_formula_structural   NdNi5P3
_chemical_formula_sum   'Nd2 Ni10 P6'
_cell_volume   239.99288128
_cell_formula_units_Z   2
loop_
 _symmetry_equiv_pos_site_id
 _symmetry_equiv_pos_as_xyz
  1  'x, y, z'
loop_
 _atom_site_type_symbol
 _atom_site_label
 _atom_site_symmetry_multiplicity
 _atom_site_fract_x
 _atom_site_fract_y
 _atom_site_fract_z
 _atom_site_occupancy
  Nd  Nd0  1  0.161293  0.838707  0.250000  1
  Nd  Nd1  1  0.838707  0.161293  0.750000  1
  Ni  Ni2  1  0.449048  0.550952  0.145368  1
  Ni  Ni3  1  0.449048  0.550952  0.354632  1
  Ni  Ni4  1  0.199772  0.800228  0.930300  1
  Ni  Ni5  1  0.550952  0.449048  0.854632  1
  Ni  Ni6  1  0.800228  0.199772  0.430300  1
  Ni  Ni7  1  0.550952  0.449048  0.645368  1
  Ni  Ni8  1  0.199772  0.800228  0.569700  1
  Ni  Ni9  1  0.000000  0.000000  0.000000  1
  Ni  Ni10  1  0.000000  0.000000  0.500000  1
  Ni  Ni11  1  0.800228  0.199772  0.069700  1
  P  P12  1  0.117191  0.882809  0.750000  1
  P  P13  1  0.382365  0.617635  0.959562  1
  P  P14  1  0.382365  0.617635  0.540438  1
  P  P15  1  0.617635  0.382365  0.459562  1
  P  P16  1  0.617635  0.382365  0.040438  1
  P  P17  1  0.882809  0.117191  0.250000  1
