# generated using pymatgen
data_K4Al4SnGe3Se16
_symmetry_space_group_name_H-M   'P 1'
_cell_length_a   17.24184731
_cell_length_b   7.35604359
_cell_length_c   7.65782348
_cell_angle_alpha   68.95207077
_cell_angle_beta   90.51289100
_cell_angle_gamma   90.33636932
_symmetry_Int_Tables_number   1
_chemical_formula_structural   K4Al4SnGe3Se16
_chemical_formula_sum   'K4 Al4 Sn1 Ge3 Se16'
_cell_volume   906.41354613
_cell_formula_units_Z   1
loop_
 _symmetry_equiv_pos_site_id
 _symmetry_equiv_pos_as_xyz
  1  'x, y, z'
loop_
 _atom_site_type_symbol
 _atom_site_label
 _atom_site_symmetry_multiplicity
 _atom_site_fract_x
 _atom_site_fract_y
 _atom_site_fract_z
 _atom_site_occupancy
  K  K0  1  0.395312  0.973859  0.179995  1
  K  K1  1  0.893888  0.027926  0.817951  1
  K  K2  1  0.606573  0.512017  0.814978  1
  K  K3  1  0.104419  0.487789  0.187643  1
  Al  Al4  1  0.585194  0.162568  0.475629  1
  Al  Al5  1  0.081371  0.832351  0.524157  1
  Al  Al6  1  0.272632  0.600439  0.712571  1
  Al  Al7  1  0.773420  0.406095  0.288650  1
  Sn  Sn8  1  0.418719  0.337774  0.530502  1
  Ge  Ge9  1  0.919902  0.666343  0.468644  1
  Ge  Ge10  1  0.724388  0.910427  0.272210  1
  Ge  Ge11  1  0.220890  0.087871  0.727374  1
  Se  Se12  1  0.594573  0.879378  0.384883  1
  Se  Se13  1  0.090081  0.113441  0.618684  1
  Se  Se14  1  0.409190  0.633297  0.628428  1
  Se  Se15  1  0.909779  0.389591  0.377812  1
  Se  Se16  1  0.801054  0.778982  0.556721  1
  Se  Se17  1  0.291399  0.212573  0.436593  1
  Se  Se18  1  0.198884  0.728107  0.433047  1
  Se  Se19  1  0.702129  0.272683  0.568811  1
  Se  Se20  1  0.762949  0.231122  0.074446  1
  Se  Se21  1  0.260569  0.770008  0.930070  1
  Se  Se22  1  0.241364  0.271971  0.924645  1
  Se  Se23  1  0.740069  0.729858  0.071146  1
  Se  Se24  1  0.997377  0.911713  0.247570  1
  Se  Se25  1  0.504822  0.076510  0.758560  1
  Se  Se26  1  0.996241  0.597876  0.747434  1
  Se  Se27  1  0.502803  0.397433  0.240846  1
