# generated using pymatgen
data_K2TbEuTe8
_symmetry_space_group_name_H-M   'P 1'
_cell_length_a   6.83519800
_cell_length_b   6.83519800
_cell_length_c   9.26716300
_cell_angle_alpha   90.00000000
_cell_angle_beta   90.00000000
_cell_angle_gamma   90.00000000
_symmetry_Int_Tables_number   1
_chemical_formula_structural   K2TbEuTe8
_chemical_formula_sum   'K2 Tb1 Eu1 Te8'
_cell_volume   432.96122241
_cell_formula_units_Z   1
loop_
 _symmetry_equiv_pos_site_id
 _symmetry_equiv_pos_as_xyz
  1  'x, y, z'
loop_
 _atom_site_type_symbol
 _atom_site_label
 _atom_site_symmetry_multiplicity
 _atom_site_fract_x
 _atom_site_fract_y
 _atom_site_fract_z
 _atom_site_occupancy
  K  K0  1  0.500000  0.500000  0.000000  1
  K  K1  1  0.000000  0.000000  0.000000  1
  Tb  Tb2  1  0.000000  0.000000  0.500000  1
  Eu  Eu3  1  0.500000  0.500000  0.500000  1
  Te  Te4  1  0.344629  0.861566  0.288063  1
  Te  Te5  1  0.138434  0.344629  0.288063  1
  Te  Te6  1  0.861566  0.655371  0.288063  1
  Te  Te7  1  0.344629  0.138434  0.711937  1
  Te  Te8  1  0.655371  0.861566  0.711937  1
  Te  Te9  1  0.655371  0.138434  0.288063  1
  Te  Te10  1  0.861566  0.344629  0.711937  1
  Te  Te11  1  0.138434  0.655371  0.711937  1
