# generated using pymatgen
data_Lu2MnBe2Ir5
_symmetry_space_group_name_H-M   'P 1'
_cell_length_a   9.55257800
_cell_length_b   9.55257800
_cell_length_c   3.18170900
_cell_angle_alpha   90.00000000
_cell_angle_beta   90.00000000
_cell_angle_gamma   90.00000000
_symmetry_Int_Tables_number   1
_chemical_formula_structural   Lu2MnBe2Ir5
_chemical_formula_sum   'Lu4 Mn2 Be4 Ir10'
_cell_volume   290.33650293
_cell_formula_units_Z   2
loop_
 _symmetry_equiv_pos_site_id
 _symmetry_equiv_pos_as_xyz
  1  'x, y, z'
loop_
 _atom_site_type_symbol
 _atom_site_label
 _atom_site_symmetry_multiplicity
 _atom_site_fract_x
 _atom_site_fract_y
 _atom_site_fract_z
 _atom_site_occupancy
  Lu  Lu0  1  0.676706  0.176706  0.000000  1
  Lu  Lu1  1  0.323294  0.823294  0.000000  1
  Lu  Lu2  1  0.176706  0.323294  0.000000  1
  Lu  Lu3  1  0.823294  0.676706  0.000000  1
  Mn  Mn4  1  0.000000  0.000000  0.000000  1
  Mn  Mn5  1  0.500000  0.500000  0.000000  1
  Be  Be6  1  0.122351  0.622351  0.000000  1
  Be  Be7  1  0.877649  0.377649  0.000000  1
  Be  Be8  1  0.622351  0.877649  0.000000  1
  Be  Be9  1  0.377649  0.122351  0.000000  1
  Ir  Ir10  1  0.210649  0.066904  0.500000  1
  Ir  Ir11  1  0.789351  0.933096  0.500000  1
  Ir  Ir12  1  0.066904  0.789351  0.500000  1
  Ir  Ir13  1  0.710649  0.433096  0.500000  1
  Ir  Ir14  1  0.933096  0.210649  0.500000  1
  Ir  Ir15  1  0.289351  0.566904  0.500000  1
  Ir  Ir16  1  0.566904  0.710649  0.500000  1
  Ir  Ir17  1  0.433096  0.289351  0.500000  1
  Ir  Ir18  1  0.500000  0.000000  0.500000  1
  Ir  Ir19  1  0.000000  0.500000  0.500000  1
