# generated using pymatgen
data_Ba4Al5Au23
_symmetry_space_group_name_H-M   'P 1'
_cell_length_a   7.43840300
_cell_length_b   9.18136970
_cell_length_c   10.19448481
_cell_angle_alpha   89.97423753
_cell_angle_beta   90.00000000
_cell_angle_gamma   90.00000000
_symmetry_Int_Tables_number   1
_chemical_formula_structural   Ba4Al5Au23
_chemical_formula_sum   'Ba4 Al5 Au23'
_cell_volume   696.22949627
_cell_formula_units_Z   1
loop_
 _symmetry_equiv_pos_site_id
 _symmetry_equiv_pos_as_xyz
  1  'x, y, z'
loop_
 _atom_site_type_symbol
 _atom_site_label
 _atom_site_symmetry_multiplicity
 _atom_site_fract_x
 _atom_site_fract_y
 _atom_site_fract_z
 _atom_site_occupancy
  Ba  Ba0  1  0.250000  0.237925  0.113710  1
  Ba  Ba1  1  0.250000  0.750069  0.376785  1
  Ba  Ba2  1  0.750000  0.760089  0.883652  1
  Ba  Ba3  1  0.750000  0.257010  0.622835  1
  Al  Al4  1  0.250000  0.057228  0.615840  1
  Al  Al5  1  0.250000  0.567465  0.881858  1
  Al  Al6  1  0.750000  0.935732  0.381381  1
  Al  Al7  1  0.750000  0.431263  0.116842  1
  Al  Al8  1  0.250000  0.354349  0.482002  1
  Au  Au9  1  0.250000  0.843971  0.019719  1
  Au  Au10  1  0.750000  0.657768  0.519879  1
  Au  Au11  1  0.750000  0.156549  0.982282  1
  Au  Au12  1  0.060640  0.109786  0.397616  1
  Au  Au13  1  0.443439  0.587194  0.105799  1
  Au  Au14  1  0.556228  0.910984  0.599892  1
  Au  Au15  1  0.948023  0.406768  0.893625  1
  Au  Au16  1  0.943772  0.910984  0.599892  1
  Au  Au17  1  0.551977  0.406768  0.893625  1
  Au  Au18  1  0.439360  0.109786  0.397616  1
  Au  Au19  1  0.056561  0.587194  0.105799  1
  Au  Au20  1  0.049192  0.052386  0.848351  1
  Au  Au21  1  0.451051  0.547098  0.645284  1
  Au  Au22  1  0.548732  0.944755  0.159397  1
  Au  Au23  1  0.970174  0.442157  0.361523  1
  Au  Au24  1  0.951268  0.944755  0.159397  1
  Au  Au25  1  0.529826  0.442157  0.361523  1
  Au  Au26  1  0.450808  0.052386  0.848351  1
  Au  Au27  1  0.048949  0.547098  0.645284  1
  Au  Au28  1  0.250000  0.297954  0.735309  1
  Au  Au29  1  0.250000  0.798542  0.740737  1
  Au  Au30  1  0.750000  0.688582  0.244594  1
  Au  Au31  1  0.750000  0.203245  0.259600  1
