# generated using pymatgen
data_Ti2Be2Ir3Rh
_symmetry_space_group_name_H-M   'P 1'
_cell_length_a   4.21920600
_cell_length_b   5.92707310
_cell_length_c   12.62785221
_cell_angle_alpha   89.97917074
_cell_angle_beta   89.99970546
_cell_angle_gamma   90.00028469
_symmetry_Int_Tables_number   1
_chemical_formula_structural   Ti2Be2Ir3Rh
_chemical_formula_sum   'Ti6 Be6 Ir9 Rh3'
_cell_volume   315.79152837
_cell_formula_units_Z   3
loop_
 _symmetry_equiv_pos_site_id
 _symmetry_equiv_pos_as_xyz
  1  'x, y, z'
loop_
 _atom_site_type_symbol
 _atom_site_label
 _atom_site_symmetry_multiplicity
 _atom_site_fract_x
 _atom_site_fract_y
 _atom_site_fract_z
 _atom_site_occupancy
  Ti  Ti0  1  0.999999  0.999706  0.998134  1
  Ti  Ti1  1  0.499743  0.500376  0.166435  1
  Ti  Ti2  1  0.999777  0.999763  0.333418  1
  Ti  Ti3  1  0.499988  0.501226  0.501130  1
  Ti  Ti4  1  0.000246  0.997721  0.668354  1
  Ti  Ti5  1  0.500245  0.501367  0.832550  1
  Be  Be6  1  0.999994  0.500228  0.001177  1
  Be  Be7  1  0.499719  0.999649  0.166524  1
  Be  Be8  1  0.999729  0.500114  0.333402  1
  Be  Be9  1  0.499978  0.000614  0.499574  1
  Be  Be10  1  0.000285  0.497966  0.665166  1
  Be  Be11  1  0.500273  0.001210  0.834151  1
  Ir  Ir12  1  0.499998  0.250603  0.999226  1
  Ir  Ir13  1  0.499994  0.750433  0.999546  1
  Ir  Ir14  1  0.999776  0.249800  0.166168  1
  Ir  Ir15  1  0.999774  0.750533  0.166170  1
  Ir  Ir16  1  0.499796  0.250510  0.333774  1
  Ir  Ir17  1  0.499801  0.750397  0.333365  1
  Ir  Ir18  1  0.999992  0.249422  0.500853  1
  Ir  Ir19  1  0.999996  0.750275  0.500466  1
  Ir  Ir20  1  0.500211  0.248075  0.667124  1
  Rh  Rh21  1  0.500251  0.750014  0.666991  1
  Rh  Rh22  1  0.000220  0.251615  0.832920  1
  Rh  Rh23  1  0.000208  0.748389  0.833382  1
