# generated using pymatgen
data_Tb(Si2Ir3)2
_symmetry_space_group_name_H-M   'P 1'
_cell_length_a   7.04060900
_cell_length_b   7.04060990
_cell_length_c   3.84898200
_cell_angle_alpha   90.00000000
_cell_angle_beta   90.00000000
_cell_angle_gamma   120.00000048
_symmetry_Int_Tables_number   1
_chemical_formula_structural   Tb(Si2Ir3)2
_chemical_formula_sum   'Tb1 Si4 Ir6'
_cell_volume   165.23308747
_cell_formula_units_Z   1
loop_
 _symmetry_equiv_pos_site_id
 _symmetry_equiv_pos_as_xyz
  1  'x, y, z'
loop_
 _atom_site_type_symbol
 _atom_site_label
 _atom_site_symmetry_multiplicity
 _atom_site_fract_x
 _atom_site_fract_y
 _atom_site_fract_z
 _atom_site_occupancy
  Tb  Tb0  1  0.000000  0.000000  0.000000  1
  Si  Si1  1  0.333333  0.666666  0.000000  1
  Si  Si2  1  0.394647  0.197324  0.500001  1
  Si  Si3  1  0.802676  0.197324  0.500001  1
  Si  Si4  1  0.802677  0.605352  0.500001  1
  Ir  Ir5  1  0.532831  0.065662  0.000000  1
  Ir  Ir6  1  0.934337  0.467170  0.000000  1
  Ir  Ir7  1  0.532831  0.467170  0.000000  1
  Ir  Ir8  1  0.197604  0.395208  0.500001  1
  Ir  Ir9  1  0.197604  0.802396  0.500001  1
  Ir  Ir10  1  0.604793  0.802396  0.500001  1
