# generated using pymatgen
data_Mn4Nb3Os2
_symmetry_space_group_name_H-M   'P 1'
_cell_length_a   8.58850701
_cell_length_b   8.49980303
_cell_length_c   8.09280100
_cell_angle_alpha   90.00000000
_cell_angle_beta   90.00000000
_cell_angle_gamma   119.19255806
_symmetry_Int_Tables_number   1
_chemical_formula_structural   Mn4Nb3Os2
_chemical_formula_sum   'Mn16 Nb12 Os8'
_cell_volume   515.74187674
_cell_formula_units_Z   4
loop_
 _symmetry_equiv_pos_site_id
 _symmetry_equiv_pos_as_xyz
  1  'x, y, z'
loop_
 _atom_site_type_symbol
 _atom_site_label
 _atom_site_symmetry_multiplicity
 _atom_site_fract_x
 _atom_site_fract_y
 _atom_site_fract_z
 _atom_site_occupancy
  Mn  Mn0  1  0.325975  0.836852  0.750000  1
  Mn  Mn1  1  0.679223  0.509463  0.750000  1
  Mn  Mn2  1  0.674025  0.163148  0.250000  1
  Mn  Mn3  1  0.320777  0.490537  0.250000  1
  Mn  Mn4  1  0.833218  0.326311  0.750000  1
  Mn  Mn5  1  0.166782  0.673689  0.250000  1
  Mn  Mn6  1  0.328321  0.666143  0.496888  1
  Mn  Mn7  1  0.671679  0.333857  0.503112  1
  Mn  Mn8  1  0.671679  0.333857  0.996888  1
  Mn  Mn9  1  0.328321  0.666143  0.003112  1
  Mn  Mn10  1  0.170023  0.995660  0.750000  1
  Mn  Mn11  1  0.829977  0.004340  0.250000  1
  Mn  Mn12  1  0.991698  0.169146  0.750000  1
  Mn  Mn13  1  0.008302  0.830854  0.250000  1
  Mn  Mn14  1  0.833345  0.825673  0.750000  1
  Mn  Mn15  1  0.166655  0.174327  0.250000  1
  Nb  Nb16  1  0.333725  0.999635  0.064628  1
  Nb  Nb17  1  0.666275  0.000365  0.935372  1
  Nb  Nb18  1  0.001931  0.334924  0.064675  1
  Nb  Nb19  1  0.666275  0.000365  0.564628  1
  Nb  Nb20  1  0.001931  0.334924  0.435325  1
  Nb  Nb21  1  0.998069  0.665076  0.935325  1
  Nb  Nb22  1  0.333725  0.999635  0.435372  1
  Nb  Nb23  1  0.998069  0.665076  0.564675  1
  Nb  Nb24  1  0.664713  0.665872  0.064773  1
  Nb  Nb25  1  0.335287  0.334128  0.935227  1
  Nb  Nb26  1  0.335287  0.334128  0.564773  1
  Nb  Nb27  1  0.664713  0.665872  0.435227  1
  Os  Os28  1  0.000000  0.000000  0.500000  1
  Os  Os29  1  0.000000  0.000000  0.000000  1
  Os  Os30  1  0.157818  0.493364  0.750000  1
  Os  Os31  1  0.842182  0.506636  0.250000  1
  Os  Os32  1  0.510663  0.671787  0.750000  1
  Os  Os33  1  0.493861  0.164345  0.750000  1
  Os  Os34  1  0.489337  0.328213  0.250000  1
  Os  Os35  1  0.506139  0.835655  0.250000  1
