# generated using pymatgen
data_YHo8Th3Co4
_symmetry_space_group_name_H-M   'P 1'
_cell_length_a   6.27646293
_cell_length_b   6.85921217
_cell_length_c   9.51250449
_cell_angle_alpha   90.01976137
_cell_angle_beta   89.93942932
_cell_angle_gamma   88.87288703
_symmetry_Int_Tables_number   1
_chemical_formula_structural   YHo8Th3Co4
_chemical_formula_sum   'Y1 Ho8 Th3 Co4'
_cell_volume   409.44895834
_cell_formula_units_Z   1
loop_
 _symmetry_equiv_pos_site_id
 _symmetry_equiv_pos_as_xyz
  1  'x, y, z'
loop_
 _atom_site_type_symbol
 _atom_site_label
 _atom_site_symmetry_multiplicity
 _atom_site_fract_x
 _atom_site_fract_y
 _atom_site_fract_z
 _atom_site_occupancy
  Y  Y0  1  0.671388  0.173339  0.067281  1
  Ho  Ho1  1  0.829435  0.671558  0.431656  1
  Ho  Ho2  1  0.324423  0.827789  0.930551  1
  Ho  Ho3  1  0.175855  0.327769  0.571385  1
  Ho  Ho4  1  0.671352  0.172906  0.432284  1
  Ho  Ho5  1  0.175890  0.328007  0.928205  1
  Ho  Ho6  1  0.324873  0.827979  0.569200  1
  Ho  Ho7  1  0.643570  0.457238  0.749567  1
  Ho  Ho8  1  0.829653  0.671748  0.068236  1
  Th  Th9  1  0.348055  0.552867  0.250211  1
  Th  Th10  1  0.154551  0.051426  0.250404  1
  Th  Th11  1  0.844283  0.949636  0.749515  1
  Co  Co12  1  0.966653  0.373319  0.250969  1
  Co  Co13  1  0.465700  0.111590  0.749458  1
  Co  Co14  1  0.535303  0.871009  0.251099  1
  Co  Co15  1  0.039015  0.631821  0.749980  1
