# generated using pymatgen
data_LiThF36
_symmetry_space_group_name_H-M   'P 1'
_cell_length_a   6.10417043
_cell_length_b   10.82624665
_cell_length_c   10.66094011
_cell_angle_alpha   89.78849448
_cell_angle_beta   97.75450173
_cell_angle_gamma   74.87814273
_symmetry_Int_Tables_number   1
_chemical_formula_structural   LiThF36
_chemical_formula_sum   'Li1 Th1 F36'
_cell_volume   673.35841183
_cell_formula_units_Z   1
loop_
 _symmetry_equiv_pos_site_id
 _symmetry_equiv_pos_as_xyz
  1  'x, y, z'
loop_
 _atom_site_type_symbol
 _atom_site_label
 _atom_site_symmetry_multiplicity
 _atom_site_fract_x
 _atom_site_fract_y
 _atom_site_fract_z
 _atom_site_occupancy
  Li  Li0  1  0.149228  0.235065  0.198597  1
  Th  Th1  1  0.766737  0.820172  0.869097  1
  F  F2  1  0.320947  0.395501  0.910075  1
  F  F3  1  0.632382  0.618579  0.121584  1
  F  F4  1  0.328435  0.284524  0.593228  1
  F  F5  1  0.671494  0.753537  0.427237  1
  F  F6  1  0.872052  0.220098  0.803942  1
  F  F7  1  0.157521  0.762861  0.201922  1
  F  F8  1  0.685160  0.831123  0.055001  1
  F  F9  1  0.295049  0.091319  0.993025  1
  F  F10  1  0.789264  0.600362  0.859944  1
  F  F11  1  0.181114  0.389673  0.142473  1
  F  F12  1  0.439631  0.448394  0.826407  1
  F  F13  1  0.590244  0.497112  0.144947  1
  F  F14  1  0.725984  0.696144  0.692494  1
  F  F15  1  0.332803  0.327055  0.313836  1
  F  F16  1  0.744200  0.969296  0.552974  1
  F  F17  1  0.247349  0.009366  0.453350  1
  F  F18  1  0.288601  0.174944  0.651656  1
  F  F19  1  0.683406  0.819103  0.312942  1
  F  F20  1  0.803655  0.086165  0.581210  1
  F  F21  1  0.160769  0.923451  0.371575  1
  F  F22  1  0.824962  0.001480  0.844865  1
  F  F23  1  0.238319  0.999721  0.070523  1
  F  F24  1  0.904514  0.345945  0.793682  1
  F  F25  1  0.125532  0.636767  0.191288  1
  F  F26  1  0.169901  0.741264  0.911286  1
  F  F27  1  0.863258  0.216474  0.090429  1
  F  F28  1  0.404120  0.940801  0.749279  1
  F  F29  1  0.457567  0.148567  0.268690  1
  F  F30  1  0.121247  0.750750  0.578245  1
  F  F31  1  0.931839  0.243424  0.415925  1
  F  F32  1  0.208161  0.633424  0.652038  1
  F  F33  1  0.840191  0.364280  0.348256  1
  F  F34  1  0.292181  0.842042  0.828229  1
  F  F35  1  0.693266  0.183637  0.167287  1
  F  F36  1  0.552803  0.445560  0.550010  1
  F  F37  1  0.506116  0.552019  0.462455  1
