# generated using pymatgen
data_Ta2Hg3F12
_symmetry_space_group_name_H-M   'P 1'
_cell_length_a   9.07926800
_cell_length_b   6.07817915
_cell_length_c   12.33511668
_cell_angle_alpha   86.12776333
_cell_angle_beta   90.00000000
_cell_angle_gamma   90.00000000
_symmetry_Int_Tables_number   1
_chemical_formula_structural   Ta2Hg3F12
_chemical_formula_sum   'Ta4 Hg6 F24'
_cell_volume   679.16456394
_cell_formula_units_Z   2
loop_
 _symmetry_equiv_pos_site_id
 _symmetry_equiv_pos_as_xyz
  1  'x, y, z'
loop_
 _atom_site_type_symbol
 _atom_site_label
 _atom_site_symmetry_multiplicity
 _atom_site_fract_x
 _atom_site_fract_y
 _atom_site_fract_z
 _atom_site_occupancy
  Ta  Ta0  1  0.142846  0.705286  0.672491  1
  Ta  Ta1  1  0.642846  0.294714  0.827509  1
  Ta  Ta2  1  0.857154  0.294714  0.327509  1
  Ta  Ta3  1  0.357154  0.705286  0.172491  1
  Hg  Hg4  1  0.728622  0.753309  0.560270  1
  Hg  Hg5  1  0.228622  0.246691  0.939730  1
  Hg  Hg6  1  0.271378  0.246691  0.439730  1
  Hg  Hg7  1  0.771378  0.753309  0.060270  1
  Hg  Hg8  1  0.500000  0.000000  0.500000  1
  Hg  Hg9  1  0.000000  0.000000  0.000000  1
  F  F10  1  0.952860  0.590512  0.621293  1
  F  F11  1  0.452860  0.409488  0.878707  1
  F  F12  1  0.047140  0.409488  0.378707  1
  F  F13  1  0.547140  0.590512  0.121293  1
  F  F14  1  0.197780  0.408895  0.722417  1
  F  F15  1  0.697780  0.591105  0.777583  1
  F  F16  1  0.802220  0.591105  0.277583  1
  F  F17  1  0.302220  0.408895  0.222417  1
  F  F18  1  0.058942  0.737606  0.813367  1
  F  F19  1  0.558942  0.262394  0.686633  1
  F  F20  1  0.176609  0.833577  0.214140  1
  F  F21  1  0.676609  0.166423  0.285860  1
  F  F22  1  0.823391  0.166423  0.785860  1
  F  F23  1  0.323391  0.833577  0.714140  1
  F  F24  1  0.267636  0.647929  0.034406  1
  F  F25  1  0.767636  0.352071  0.465594  1
  F  F26  1  0.732364  0.352071  0.965594  1
  F  F27  1  0.232364  0.647929  0.534406  1
  F  F28  1  0.426870  0.985850  0.114343  1
  F  F29  1  0.926870  0.014150  0.385657  1
  F  F30  1  0.573130  0.014150  0.885657  1
  F  F31  1  0.073130  0.985850  0.614343  1
  F  F32  1  0.441058  0.737606  0.313367  1
  F  F33  1  0.941058  0.262394  0.186633  1
