# generated using pymatgen
data_PrReSi2Tc3
_symmetry_space_group_name_H-M   'P 1'
_cell_length_a   7.34804929
_cell_length_b   7.34804880
_cell_length_c   4.10303300
_cell_angle_alpha   90.00000000
_cell_angle_beta   90.00000000
_cell_angle_gamma   147.27123442
_symmetry_Int_Tables_number   1
_chemical_formula_structural   PrReSi2Tc3
_chemical_formula_sum   'Pr1 Re1 Si2 Tc3'
_cell_volume   119.77758171
_cell_formula_units_Z   1
loop_
 _symmetry_equiv_pos_site_id
 _symmetry_equiv_pos_as_xyz
  1  'x, y, z'
loop_
 _atom_site_type_symbol
 _atom_site_label
 _atom_site_symmetry_multiplicity
 _atom_site_fract_x
 _atom_site_fract_y
 _atom_site_fract_z
 _atom_site_occupancy
  Pr  Pr0  1  0.999367  0.000633  0.000000  1
  Re  Re1  1  0.696992  0.303008  0.000000  1
  Si  Si2  1  0.589837  0.410163  0.500000  1
  Si  Si3  1  0.409337  0.590663  0.500000  1
  Tc  Tc4  1  0.811649  0.188351  0.500000  1
  Tc  Tc5  1  0.187892  0.812108  0.500000  1
  Tc  Tc6  1  0.304927  0.695073  0.000000  1
