# generated using pymatgen
data_Dy4Tm(ReO6)2
_symmetry_space_group_name_H-M   'P 1'
_cell_length_a   6.82786913
_cell_length_b   6.82786985
_cell_length_c   7.52651171
_cell_angle_alpha   73.72681461
_cell_angle_beta   73.72681180
_cell_angle_gamma   49.09562013
_symmetry_Int_Tables_number   1
_chemical_formula_structural   Dy4Tm(ReO6)2
_chemical_formula_sum   'Dy4 Tm1 Re2 O12'
_cell_volume   252.30207143
_cell_formula_units_Z   1
loop_
 _symmetry_equiv_pos_site_id
 _symmetry_equiv_pos_as_xyz
  1  'x, y, z'
loop_
 _atom_site_type_symbol
 _atom_site_label
 _atom_site_symmetry_multiplicity
 _atom_site_fract_x
 _atom_site_fract_y
 _atom_site_fract_z
 _atom_site_occupancy
  Dy  Dy0  1  0.803143  0.803143  0.358527  1
  Dy  Dy1  1  0.196857  0.196857  0.641473  1
  Dy  Dy2  1  0.184862  0.184862  0.176862  1
  Dy  Dy3  1  0.815138  0.815138  0.823138  1
  Tm  Tm4  1  0.500000  0.500000  0.500000  1
  Re  Re5  1  0.286084  0.713916  0.000000  1
  Re  Re6  1  0.713916  0.286084  0.000000  1
  O  O7  1  0.412907  0.918272  0.914240  1
  O  O8  1  0.081728  0.587093  0.085760  1
  O  O9  1  0.587093  0.081728  0.085760  1
  O  O10  1  0.918272  0.412907  0.914240  1
  O  O11  1  0.598393  0.097903  0.571838  1
  O  O12  1  0.902097  0.401607  0.428162  1
  O  O13  1  0.401607  0.902097  0.428162  1
  O  O14  1  0.000964  0.000964  0.823074  1
  O  O15  1  0.999036  0.999036  0.176926  1
  O  O16  1  0.497959  0.497959  0.792431  1
  O  O17  1  0.502041  0.502041  0.207569  1
  O  O18  1  0.097903  0.598393  0.571838  1
