# generated using pymatgen
data_NpSb2IO12
_symmetry_space_group_name_H-M   'P 1'
_cell_length_a   7.27435887
_cell_length_b   7.27435920
_cell_length_c   7.71049148
_cell_angle_alpha   61.01401305
_cell_angle_beta   61.01401445
_cell_angle_gamma   59.39677055
_symmetry_Int_Tables_number   1
_chemical_formula_structural   NpSb2IO12
_chemical_formula_sum   'Np1 Sb2 I1 O12'
_cell_volume   291.45322250
_cell_formula_units_Z   1
loop_
 _symmetry_equiv_pos_site_id
 _symmetry_equiv_pos_as_xyz
  1  'x, y, z'
loop_
 _atom_site_type_symbol
 _atom_site_label
 _atom_site_symmetry_multiplicity
 _atom_site_fract_x
 _atom_site_fract_y
 _atom_site_fract_z
 _atom_site_occupancy
  Np  Np0  1  0.625000  0.625000  0.125000  1
  Sb  Sb1  1  0.125000  0.625000  0.625000  1
  Sb  Sb2  1  0.625000  0.125000  0.625000  1
  I  I3  1  0.625000  0.625000  0.625000  1
  O  O4  1  0.684079  0.684079  0.336708  1
  O  O5  1  0.301829  0.301829  0.693795  1
  O  O6  1  0.700358  0.311540  0.691008  1
  O  O7  1  0.313779  0.686845  0.315383  1
  O  O8  1  0.311540  0.700358  0.691008  1
  O  O9  1  0.686845  0.313779  0.315383  1
  O  O10  1  0.565921  0.565921  0.913292  1
  O  O11  1  0.948171  0.948171  0.556205  1
  O  O12  1  0.549642  0.938460  0.558992  1
  O  O13  1  0.936221  0.563155  0.934617  1
  O  O14  1  0.938460  0.549642  0.558992  1
  O  O15  1  0.563155  0.936221  0.934617  1
