# generated using pymatgen
data_TbTh(ZnRu)2
_symmetry_space_group_name_H-M   'P 1'
_cell_length_a   4.00806600
_cell_length_b   6.99372210
_cell_length_c   8.36592384
_cell_angle_alpha   90.72966902
_cell_angle_beta   90.00000000
_cell_angle_gamma   90.00000000
_symmetry_Int_Tables_number   1
_chemical_formula_structural   TbTh(ZnRu)2
_chemical_formula_sum   'Tb2 Th2 Zn4 Ru4'
_cell_volume   234.48870235
_cell_formula_units_Z   2
loop_
 _symmetry_equiv_pos_site_id
 _symmetry_equiv_pos_as_xyz
  1  'x, y, z'
loop_
 _atom_site_type_symbol
 _atom_site_label
 _atom_site_symmetry_multiplicity
 _atom_site_fract_x
 _atom_site_fract_y
 _atom_site_fract_z
 _atom_site_occupancy
  Tb  Tb0  1  0.250000  0.037916  0.320686  1
  Tb  Tb1  1  0.750000  0.962084  0.679314  1
  Th  Th2  1  0.250000  0.535279  0.186512  1
  Th  Th3  1  0.750000  0.464721  0.813488  1
  Zn  Zn4  1  0.250000  0.121173  0.940924  1
  Zn  Zn5  1  0.750000  0.878827  0.059076  1
  Zn  Zn6  1  0.250000  0.643367  0.555211  1
  Zn  Zn7  1  0.750000  0.356633  0.444789  1
  Ru  Ru8  1  0.750000  0.739420  0.364088  1
  Ru  Ru9  1  0.250000  0.260580  0.635912  1
  Ru  Ru10  1  0.750000  0.259681  0.126893  1
  Ru  Ru11  1  0.250000  0.740319  0.873107  1
