# generated using pymatgen
data_Dy7Ho(LuGa5)4
_symmetry_space_group_name_H-M   'P 1'
_cell_length_a   6.05997106
_cell_length_b   9.56633402
_cell_length_c   11.55845709
_cell_angle_alpha   90.00014679
_cell_angle_beta   90.01405354
_cell_angle_gamma   90.00765541
_symmetry_Int_Tables_number   1
_chemical_formula_structural   Dy7Ho(LuGa5)4
_chemical_formula_sum   'Dy7 Ho1 Lu4 Ga20'
_cell_volume   670.06346507
_cell_formula_units_Z   1
loop_
 _symmetry_equiv_pos_site_id
 _symmetry_equiv_pos_as_xyz
  1  'x, y, z'
loop_
 _atom_site_type_symbol
 _atom_site_label
 _atom_site_symmetry_multiplicity
 _atom_site_fract_x
 _atom_site_fract_y
 _atom_site_fract_z
 _atom_site_occupancy
  Dy  Dy0  1  0.609287  0.993524  0.851061  1
  Dy  Dy1  1  0.109250  0.006516  0.648914  1
  Dy  Dy2  1  0.390743  0.493507  0.149050  1
  Dy  Dy3  1  0.109236  0.493497  0.648809  1
  Dy  Dy4  1  0.390710  0.006495  0.148961  1
  Dy  Dy5  1  0.890715  0.993478  0.351057  1
  Dy  Dy6  1  0.609310  0.506508  0.851062  1
  Ho  Ho7  1  0.890800  0.506486  0.351017  1
  Lu  Lu8  1  0.849774  0.749983  0.074500  1
  Lu  Lu9  1  0.650300  0.749952  0.574389  1
  Lu  Lu10  1  0.150266  0.250011  0.925576  1
  Lu  Lu11  1  0.349612  0.250013  0.425516  1
  Ga  Ga12  1  0.876338  0.053171  0.089519  1
  Ga  Ga13  1  0.623705  0.446861  0.589467  1
  Ga  Ga14  1  0.123680  0.553165  0.910472  1
  Ga  Ga15  1  0.376305  0.946817  0.410476  1
  Ga  Ga16  1  0.123674  0.946839  0.910475  1
  Ga  Ga17  1  0.376133  0.553103  0.410430  1
  Ga  Ga18  1  0.876339  0.446886  0.089672  1
  Ga  Ga19  1  0.623697  0.053176  0.589522  1
  Ga  Ga20  1  0.166887  0.749866  0.254173  1
  Ga  Ga21  1  0.333025  0.749997  0.754109  1
  Ga  Ga22  1  0.833008  0.250011  0.745862  1
  Ga  Ga23  1  0.667121  0.250140  0.245993  1
  Ga  Ga24  1  0.379262  0.750001  0.001277  1
  Ga  Ga25  1  0.120627  0.749938  0.501257  1
  Ga  Ga26  1  0.620728  0.250014  0.998743  1
  Ga  Ga27  1  0.879281  0.250178  0.498548  1
  Ga  Ga28  1  0.604465  0.749821  0.298616  1
  Ga  Ga29  1  0.895758  0.750005  0.798578  1
  Ga  Ga30  1  0.395748  0.250001  0.701436  1
  Ga  Ga31  1  0.104216  0.250041  0.201460  1
