# generated using pymatgen
data_U4Mn6Si6Tc
_symmetry_space_group_name_H-M   'P 1'
_cell_length_a   6.88676998
_cell_length_b   6.88677010
_cell_length_c   6.88677000
_cell_angle_alpha   109.47122034
_cell_angle_beta   109.47122070
_cell_angle_gamma   109.47122437
_symmetry_Int_Tables_number   1
_chemical_formula_structural   U4Mn6Si6Tc
_chemical_formula_sum   'U4 Mn6 Si6 Tc1'
_cell_volume   251.43447921
_cell_formula_units_Z   1
loop_
 _symmetry_equiv_pos_site_id
 _symmetry_equiv_pos_as_xyz
  1  'x, y, z'
loop_
 _atom_site_type_symbol
 _atom_site_label
 _atom_site_symmetry_multiplicity
 _atom_site_fract_x
 _atom_site_fract_y
 _atom_site_fract_z
 _atom_site_occupancy
  U  U0  1  0.500000  0.500000  0.500000  1
  U  U1  1  0.000000  0.500000  0.000000  1
  U  U2  1  0.500000  0.000000  0.000000  1
  U  U3  1  0.000000  0.000000  0.500000  1
  Mn  Mn4  1  0.500000  0.750000  0.250000  1
  Mn  Mn5  1  0.750000  0.250000  0.500000  1
  Mn  Mn6  1  0.250000  0.750000  0.500000  1
  Mn  Mn7  1  0.250000  0.500000  0.750000  1
  Mn  Mn8  1  0.500000  0.250000  0.750000  1
  Mn  Mn9  1  0.750000  0.500000  0.250000  1
  Si  Si10  1  0.676046  0.000000  0.676046  1
  Si  Si11  1  0.676046  0.676046  0.000000  1
  Si  Si12  1  0.323954  0.323954  0.000000  1
  Si  Si13  1  0.000000  0.676046  0.676046  1
  Si  Si14  1  0.000000  0.323954  0.323954  1
  Si  Si15  1  0.323954  0.000000  0.323954  1
  Tc  Tc16  1  0.000000  0.000000  0.000000  1
