# generated using pymatgen
data_BaNa(CoAs)4
_symmetry_space_group_name_H-M   'P 1'
_cell_length_a   7.05825021
_cell_length_b   7.05825060
_cell_length_c   5.38248400
_cell_angle_alpha   90.00000000
_cell_angle_beta   90.00000000
_cell_angle_gamma   135.27302597
_symmetry_Int_Tables_number   1
_chemical_formula_structural   BaNa(CoAs)4
_chemical_formula_sum   'Ba1 Na1 Co4 As4'
_cell_volume   188.70459661
_cell_formula_units_Z   1
loop_
 _symmetry_equiv_pos_site_id
 _symmetry_equiv_pos_as_xyz
  1  'x, y, z'
loop_
 _atom_site_type_symbol
 _atom_site_label
 _atom_site_symmetry_multiplicity
 _atom_site_fract_x
 _atom_site_fract_y
 _atom_site_fract_z
 _atom_site_occupancy
  Ba  Ba0  1  0.500000  0.500000  0.500000  1
  Na  Na1  1  0.000000  0.000000  0.000000  1
  Co  Co2  1  0.500000  0.000000  0.750829  1
  Co  Co3  1  0.000000  0.500000  0.249171  1
  Co  Co4  1  0.000000  0.500000  0.750829  1
  Co  Co5  1  0.500000  0.000000  0.249171  1
  As  As6  1  0.647268  0.352732  0.000000  1
  As  As7  1  0.148582  0.851418  0.500000  1
  As  As8  1  0.851418  0.148582  0.500000  1
  As  As9  1  0.352732  0.647268  0.000000  1
