# generated using pymatgen
data_YbGa2(Cu2Au3)2
_symmetry_space_group_name_H-M   'P 1'
_cell_length_a   6.91881965
_cell_length_b   6.91881883
_cell_length_c   6.91881916
_cell_angle_alpha   99.30038731
_cell_angle_beta   97.04741300
_cell_angle_gamma   135.70050624
_symmetry_Int_Tables_number   1
_chemical_formula_structural   YbGa2(Cu2Au3)2
_chemical_formula_sum   'Yb1 Ga2 Cu4 Au6'
_cell_volume   214.19015739
_cell_formula_units_Z   1
loop_
 _symmetry_equiv_pos_site_id
 _symmetry_equiv_pos_as_xyz
  1  'x, y, z'
loop_
 _atom_site_type_symbol
 _atom_site_label
 _atom_site_symmetry_multiplicity
 _atom_site_fract_x
 _atom_site_fract_y
 _atom_site_fract_z
 _atom_site_occupancy
  Yb  Yb0  1  0.000000  0.000000  0.000000  1
  Ga  Ga1  1  0.740315  0.500000  0.240315  1
  Ga  Ga2  1  0.259685  0.500000  0.759685  1
  Cu  Cu3  1  0.000000  0.000000  0.500000  1
  Cu  Cu4  1  0.500000  0.500000  0.500000  1
  Cu  Cu5  1  0.500000  0.000000  0.000000  1
  Cu  Cu6  1  0.000000  0.500000  0.000000  1
  Au  Au7  1  0.000000  0.336575  0.336575  1
  Au  Au8  1  0.000000  0.663425  0.663425  1
  Au  Au9  1  0.663349  0.000000  0.663349  1
  Au  Au10  1  0.336651  0.000000  0.336651  1
  Au  Au11  1  0.500000  0.315868  0.815868  1
  Au  Au12  1  0.500000  0.684132  0.184132  1
