# generated using pymatgen
data_Dy3Er9Co4TcBi
_symmetry_space_group_name_H-M   'P 1'
_cell_length_a   8.27696717
_cell_length_b   8.27696603
_cell_length_c   8.27078252
_cell_angle_alpha   110.58610906
_cell_angle_beta   111.52379606
_cell_angle_gamma   106.38166455
_symmetry_Int_Tables_number   1
_chemical_formula_structural   Dy3Er9Co4TcBi
_chemical_formula_sum   'Dy3 Er9 Co4 Tc1 Bi1'
_cell_volume   435.02346915
_cell_formula_units_Z   1
loop_
 _symmetry_equiv_pos_site_id
 _symmetry_equiv_pos_as_xyz
  1  'x, y, z'
loop_
 _atom_site_type_symbol
 _atom_site_label
 _atom_site_symmetry_multiplicity
 _atom_site_fract_x
 _atom_site_fract_y
 _atom_site_fract_z
 _atom_site_occupancy
  Dy  Dy0  1  0.281964  0.183248  0.465211  1
  Dy  Dy1  1  0.718238  0.817355  0.535594  1
  Dy  Dy2  1  0.281792  0.816129  0.097920  1
  Er  Er3  1  0.718972  0.182995  0.901967  1
  Er  Er4  1  0.619267  0.309814  0.308879  1
  Er  Er5  1  0.381107  0.690596  0.690996  1
  Er  Er6  1  0.000402  0.309889  0.690996  1
  Er  Er7  1  0.999063  0.689612  0.308879  1
  Er  Er8  1  0.214236  0.411437  0.196286  1
  Er  Er9  1  0.785131  0.587881  0.803273  1
  Er  Er10  1  0.215392  0.018142  0.803273  1
  Er  Er11  1  0.784849  0.982050  0.196286  1
  Co  Co12  1  0.999703  0.377752  0.377455  1
  Co  Co13  1  0.999786  0.622009  0.621795  1
  Co  Co14  1  0.389573  0.889599  0.501036  1
  Co  Co15  1  0.611436  0.111462  0.501036  1
  Tc  Tc16  1  0.999092  0.000107  0.999198  1
  Bi  Bi17  1  0.499996  0.499922  0.999918  1
