# generated using pymatgen
data_RbUBr6
_symmetry_space_group_name_H-M   'P 1'
_cell_length_a   11.61772500
_cell_length_b   8.25950649
_cell_length_c   8.23445029
_cell_angle_alpha   89.93215213
_cell_angle_beta   90.00000000
_cell_angle_gamma   90.00000000
_symmetry_Int_Tables_number   1
_chemical_formula_structural   RbUBr6
_chemical_formula_sum   'Rb2 U2 Br12'
_cell_volume   790.14991624
_cell_formula_units_Z   2
loop_
 _symmetry_equiv_pos_site_id
 _symmetry_equiv_pos_as_xyz
  1  'x, y, z'
loop_
 _atom_site_type_symbol
 _atom_site_label
 _atom_site_symmetry_multiplicity
 _atom_site_fract_x
 _atom_site_fract_y
 _atom_site_fract_z
 _atom_site_occupancy
  Rb  Rb0  1  0.727746  0.255868  0.298364  1
  Rb  Rb1  1  0.227746  0.744132  0.701636  1
  U  U2  1  0.994427  0.249013  0.757376  1
  U  U3  1  0.494427  0.750987  0.242624  1
  Br  Br4  1  0.491324  0.979362  0.478756  1
  Br  Br5  1  0.762054  0.246588  0.764651  1
  Br  Br6  1  0.997780  0.015994  0.985349  1
  Br  Br7  1  0.996251  0.483448  0.983799  1
  Br  Br8  1  0.497780  0.984006  0.014651  1
  Br  Br9  1  0.726690  0.748102  0.248746  1
  Br  Br10  1  0.262054  0.753412  0.235349  1
  Br  Br11  1  0.488183  0.523273  0.480426  1
  Br  Br12  1  0.991323  0.020638  0.521244  1
  Br  Br13  1  0.988183  0.476727  0.519574  1
  Br  Br14  1  0.226690  0.251898  0.751254  1
  Br  Br15  1  0.496251  0.516552  0.016201  1
