# generated using pymatgen
data_YbHf7H30
_symmetry_space_group_name_H-M   'P 1'
_cell_length_a   6.96727082
_cell_length_b   6.96727147
_cell_length_c   6.96727047
_cell_angle_alpha   109.30876652
_cell_angle_beta   109.30877686
_cell_angle_gamma   109.30876691
_symmetry_Int_Tables_number   1
_chemical_formula_structural   YbHf7H30
_chemical_formula_sum   'Yb1 Hf7 H30'
_cell_volume   261.90938934
_cell_formula_units_Z   1
loop_
 _symmetry_equiv_pos_site_id
 _symmetry_equiv_pos_as_xyz
  1  'x, y, z'
loop_
 _atom_site_type_symbol
 _atom_site_label
 _atom_site_symmetry_multiplicity
 _atom_site_fract_x
 _atom_site_fract_y
 _atom_site_fract_z
 _atom_site_occupancy
  Yb  Yb0  1  0.914136  0.914136  0.914136  1
  Hf  Hf1  1  0.501651  0.001997  0.101747  1
  Hf  Hf2  1  0.001997  0.101747  0.501651  1
  Hf  Hf3  1  0.101747  0.501651  0.001997  1
  Hf  Hf4  1  0.999133  0.603561  0.498704  1
  Hf  Hf5  1  0.603561  0.498704  0.999133  1
  Hf  Hf6  1  0.498704  0.999133  0.603561  1
  Hf  Hf7  1  0.408715  0.408715  0.408715  1
  H  H8  1  0.654996  0.971444  0.386253  1
  H  H9  1  0.219136  0.306201  0.845429  1
  H  H10  1  0.189981  0.421240  0.532760  1
  H  H11  1  0.103475  0.295639  0.130754  1
  H  H12  1  0.295639  0.130754  0.103475  1
  H  H13  1  0.130754  0.103475  0.295639  1
  H  H14  1  0.457570  0.153677  0.883156  1
  H  H15  1  0.720357  0.341818  0.811157  1
  H  H16  1  0.632487  0.368169  0.249287  1
  H  H17  1  0.249287  0.632487  0.368169  1
  H  H18  1  0.746446  0.864879  0.136097  1
  H  H19  1  0.136097  0.746446  0.864879  1
  H  H20  1  0.368169  0.249287  0.632487  1
  H  H21  1  0.864879  0.136097  0.746446  1
  H  H22  1  0.767204  0.574549  0.598600  1
  H  H23  1  0.306201  0.845429  0.219136  1
  H  H24  1  0.386253  0.654996  0.971444  1
  H  H25  1  0.971444  0.386253  0.654996  1
  H  H26  1  0.532760  0.189981  0.421240  1
  H  H27  1  0.421240  0.532760  0.189981  1
  H  H28  1  0.845429  0.219136  0.306201  1
  H  H29  1  0.910203  0.667311  0.030085  1
  H  H30  1  0.811157  0.720357  0.341818  1
  H  H31  1  0.153677  0.883156  0.457570  1
  H  H32  1  0.667311  0.030085  0.910203  1
  H  H33  1  0.341818  0.811157  0.720357  1
  H  H34  1  0.883156  0.457570  0.153677  1
  H  H35  1  0.598600  0.767204  0.574549  1
  H  H36  1  0.574549  0.598600  0.767204  1
  H  H37  1  0.030085  0.910203  0.667311  1
