# generated using pymatgen
data_LaSm2TaO7
_symmetry_space_group_name_H-M   'P 1'
_cell_length_a   6.63991885
_cell_length_b   6.63991884
_cell_length_c   7.72496000
_cell_angle_alpha   90.00000000
_cell_angle_beta   90.00000000
_cell_angle_gamma   109.08676026
_symmetry_Int_Tables_number   1
_chemical_formula_structural   LaSm2TaO7
_chemical_formula_sum   'La2 Sm4 Ta2 O14'
_cell_volume   321.85840075
_cell_formula_units_Z   2
loop_
 _symmetry_equiv_pos_site_id
 _symmetry_equiv_pos_as_xyz
  1  'x, y, z'
loop_
 _atom_site_type_symbol
 _atom_site_label
 _atom_site_symmetry_multiplicity
 _atom_site_fract_x
 _atom_site_fract_y
 _atom_site_fract_z
 _atom_site_occupancy
  La  La0  1  0.500000  0.500000  0.500000  1
  La  La1  1  0.500000  0.500000  0.000000  1
  Sm  Sm2  1  0.534802  0.000024  0.750000  1
  Sm  Sm3  1  0.000024  0.534802  0.250000  1
  Sm  Sm4  1  0.465198  0.999976  0.250000  1
  Sm  Sm5  1  0.999976  0.465198  0.750000  1
  Ta  Ta6  1  0.000000  0.000000  0.500000  1
  Ta  Ta7  1  0.000000  0.000000  0.000000  1
  O  O8  1  0.685759  0.934491  0.469192  1
  O  O9  1  0.934491  0.685759  0.530808  1
  O  O10  1  0.685759  0.934491  0.030808  1
  O  O11  1  0.934491  0.685759  0.969192  1
  O  O12  1  0.314241  0.065509  0.530808  1
  O  O13  1  0.065509  0.314241  0.469192  1
  O  O14  1  0.314241  0.065509  0.969192  1
  O  O15  1  0.065509  0.314241  0.030808  1
  O  O16  1  0.940602  0.059398  0.750000  1
  O  O17  1  0.059398  0.940602  0.250000  1
  O  O18  1  0.366688  0.633311  0.750000  1
  O  O19  1  0.633311  0.366688  0.250000  1
  O  O20  1  0.639336  0.360664  0.750000  1
  O  O21  1  0.360664  0.639336  0.250000  1
