# generated using pymatgen
data_ErTm3Sn6Rh7
_symmetry_space_group_name_H-M   'P 1'
_cell_length_a   7.58234147
_cell_length_b   7.58234262
_cell_length_c   7.57693400
_cell_angle_alpha   109.45677419
_cell_angle_beta   109.45677725
_cell_angle_gamma   109.48566843
_symmetry_Int_Tables_number   1
_chemical_formula_structural   ErTm3Sn6Rh7
_chemical_formula_sum   'Er1 Tm3 Sn6 Rh7'
_cell_volume   335.39432637
_cell_formula_units_Z   1
loop_
 _symmetry_equiv_pos_site_id
 _symmetry_equiv_pos_as_xyz
  1  'x, y, z'
loop_
 _atom_site_type_symbol
 _atom_site_label
 _atom_site_symmetry_multiplicity
 _atom_site_fract_x
 _atom_site_fract_y
 _atom_site_fract_z
 _atom_site_occupancy
  Er  Er0  1  0.000000  0.000000  0.500000  1
  Tm  Tm1  1  0.000000  0.500000  0.000000  1
  Tm  Tm2  1  0.500000  0.000000  0.000000  1
  Tm  Tm3  1  0.500000  0.500000  0.500000  1
  Sn  Sn4  1  0.685129  0.685129  0.999836  1
  Sn  Sn5  1  0.314871  0.000000  0.314706  1
  Sn  Sn6  1  0.000000  0.314871  0.314706  1
  Sn  Sn7  1  0.314871  0.314871  0.000164  1
  Sn  Sn8  1  0.685129  0.000000  0.685294  1
  Sn  Sn9  1  0.000000  0.685129  0.685294  1
  Rh  Rh10  1  0.749939  0.250061  0.500000  1
  Rh  Rh11  1  0.749939  0.499879  0.249939  1
  Rh  Rh12  1  0.500121  0.250061  0.750061  1
  Rh  Rh13  1  0.250061  0.500121  0.750061  1
  Rh  Rh14  1  0.250061  0.749939  0.500000  1
  Rh  Rh15  1  0.499879  0.749939  0.249939  1
  Rh  Rh16  1  0.000000  0.000000  0.000000  1
