# generated using pymatgen
data_La10Sn6As
_symmetry_space_group_name_H-M   'P 1'
_cell_length_a   7.01598310
_cell_length_b   9.67256952
_cell_length_c   9.66967214
_cell_angle_alpha   120.00045011
_cell_angle_beta   90.01606414
_cell_angle_gamma   89.98263027
_symmetry_Int_Tables_number   1
_chemical_formula_structural   La10Sn6As
_chemical_formula_sum   'La10 Sn6 As1'
_cell_volume   568.29100274
_cell_formula_units_Z   1
loop_
 _symmetry_equiv_pos_site_id
 _symmetry_equiv_pos_as_xyz
  1  'x, y, z'
loop_
 _atom_site_type_symbol
 _atom_site_label
 _atom_site_symmetry_multiplicity
 _atom_site_fract_x
 _atom_site_fract_y
 _atom_site_fract_z
 _atom_site_occupancy
  La  La0  1  0.500013  0.333148  0.666342  1
  La  La1  1  0.500012  0.667100  0.333699  1
  La  La2  1  0.999899  0.666880  0.333511  1
  La  La3  1  0.000032  0.333288  0.666468  1
  La  La4  1  0.747059  0.251283  0.999962  1
  La  La5  1  0.746942  0.748550  0.748448  1
  La  La6  1  0.747011  0.999954  0.251444  1
  La  La7  1  0.253013  0.748720  0.000164  1
  La  La8  1  0.252953  0.251289  0.251393  1
  La  La9  1  0.253000  0.999920  0.748538  1
  Sn  Sn10  1  0.749765  0.607881  0.999840  1
  Sn  Sn11  1  0.749902  0.391974  0.391885  1
  Sn  Sn12  1  0.749855  0.000101  0.608061  1
  Sn  Sn13  1  0.250167  0.392061  0.999969  1
  Sn  Sn14  1  0.250164  0.608003  0.608120  1
  Sn  Sn15  1  0.250186  0.999832  0.392128  1
  As  As16  1  0.500028  0.000020  0.000026  1
