# generated using pymatgen
data_NaTm(ReN3)2
_symmetry_space_group_name_H-M   'P 1'
_cell_length_a   7.36356499
_cell_length_b   7.36351931
_cell_length_c   6.21908303
_cell_angle_alpha   74.33946397
_cell_angle_beta   74.33841640
_cell_angle_gamma   83.95771533
_symmetry_Int_Tables_number   1
_chemical_formula_structural   NaTm(ReN3)2
_chemical_formula_sum   'Na2 Tm2 Re4 N12'
_cell_volume   312.44595386
_cell_formula_units_Z   2
loop_
 _symmetry_equiv_pos_site_id
 _symmetry_equiv_pos_as_xyz
  1  'x, y, z'
loop_
 _atom_site_type_symbol
 _atom_site_label
 _atom_site_symmetry_multiplicity
 _atom_site_fract_x
 _atom_site_fract_y
 _atom_site_fract_z
 _atom_site_occupancy
  Na  Na0  1  0.711704  0.288298  0.250006  1
  Na  Na1  1  0.288296  0.711702  0.749994  1
  Tm  Tm2  1  0.908164  0.091837  0.750000  1
  Tm  Tm3  1  0.091836  0.908163  0.250000  1
  Re  Re4  1  0.624453  0.795515  0.267139  1
  Re  Re5  1  0.204488  0.375540  0.232858  1
  Re  Re6  1  0.375547  0.204485  0.732861  1
  Re  Re7  1  0.795512  0.624460  0.767142  1
  N  N8  1  0.664895  0.636774  0.066630  1
  N  N9  1  0.392850  0.891542  0.293744  1
  N  N10  1  0.363223  0.335112  0.433364  1
  N  N11  1  0.108430  0.607169  0.206268  1
  N  N12  1  0.022045  0.203759  0.352650  1
  N  N13  1  0.796239  0.977962  0.147348  1
  N  N14  1  0.203761  0.022038  0.852652  1
  N  N15  1  0.607150  0.108458  0.706256  1
  N  N16  1  0.335105  0.363226  0.933370  1
  N  N17  1  0.891570  0.392831  0.793732  1
  N  N18  1  0.636777  0.664888  0.566636  1
  N  N19  1  0.977955  0.796241  0.647350  1
