# generated using pymatgen
data_Hf4Sc2TiCo16P12W
_symmetry_space_group_name_H-M   'P 1'
_cell_length_a   11.99127200
_cell_length_b   11.99144323
_cell_length_c   3.62281000
_cell_angle_alpha   90.00000000
_cell_angle_beta   90.00000000
_cell_angle_gamma   119.94026304
_symmetry_Int_Tables_number   1
_chemical_formula_structural   Hf4Sc2TiCo16P12W
_chemical_formula_sum   'Hf4 Sc2 Ti1 Co16 P12 W1'
_cell_volume   451.41294418
_cell_formula_units_Z   1
loop_
 _symmetry_equiv_pos_site_id
 _symmetry_equiv_pos_as_xyz
  1  'x, y, z'
loop_
 _atom_site_type_symbol
 _atom_site_label
 _atom_site_symmetry_multiplicity
 _atom_site_fract_x
 _atom_site_fract_y
 _atom_site_fract_z
 _atom_site_occupancy
  Hf  Hf0  1  0.819120  0.819573  0.500000  1
  Hf  Hf1  1  0.998366  0.175024  0.500000  1
  Hf  Hf2  1  0.000989  0.555986  0.000000  1
  Hf  Hf3  1  0.177440  0.998810  0.500000  1
  Sc  Sc4  1  0.336045  0.668141  0.000000  1
  Sc  Sc5  1  0.666141  0.333310  0.000000  1
  Ti  Ti6  1  0.557071  0.000568  0.000000  1
  Co  Co7  1  0.627675  0.823032  0.000000  1
  Co  Co8  1  0.369836  0.195664  0.000000  1
  Co  Co9  1  0.999971  0.721620  0.500000  1
  Co  Co10  1  0.280332  0.279816  0.500000  1
  Co  Co11  1  0.874363  0.350961  0.500000  1
  Co  Co12  1  0.718252  0.999450  0.500000  1
  Co  Co13  1  0.820419  0.628919  0.000000  1
  Co  Co14  1  0.178766  0.809532  0.000000  1
  Co  Co15  1  0.355972  0.877591  0.500000  1
  Co  Co16  1  0.130249  0.480005  0.500000  1
  Co  Co17  1  0.643810  0.517575  0.500000  1
  Co  Co18  1  0.999215  0.000119  0.000000  1
  Co  Co19  1  0.517894  0.646422  0.500000  1
  Co  Co20  1  0.481113  0.129316  0.500000  1
  Co  Co21  1  0.196347  0.368912  0.000000  1
  Co  Co22  1  0.804459  0.174373  0.000000  1
  P  P23  1  0.001515  0.345447  0.000000  1
  P  P24  1  0.825941  0.514853  0.500000  1
  P  P25  1  0.685898  0.169289  0.500000  1
  P  P26  1  0.174179  0.173502  0.000000  1
  P  P27  1  0.643912  0.645700  0.000000  1
  P  P28  1  0.823279  0.997800  0.000000  1
  P  P29  1  0.516104  0.831439  0.500000  1
  P  P30  1  0.175497  0.691336  0.500000  1
  P  P31  1  0.353729  0.003521  0.000000  1
  P  P32  1  0.482751  0.315376  0.500000  1
  P  P33  1  0.998487  0.825169  0.000000  1
  P  P34  1  0.316203  0.483067  0.500000  1
  W  W35  1  0.448659  0.448786  0.000000  1
