# generated using pymatgen
data_RbAc3(CrN3)2
_symmetry_space_group_name_H-M   'P 1'
_cell_length_a   6.43600511
_cell_length_b   6.43600550
_cell_length_c   12.65240070
_cell_angle_alpha   89.90491856
_cell_angle_beta   90.09508024
_cell_angle_gamma   127.30523105
_symmetry_Int_Tables_number   1
_chemical_formula_structural   RbAc3(CrN3)2
_chemical_formula_sum   'Rb2 Ac6 Cr4 N12'
_cell_volume   416.86984091
_cell_formula_units_Z   2
loop_
 _symmetry_equiv_pos_site_id
 _symmetry_equiv_pos_as_xyz
  1  'x, y, z'
loop_
 _atom_site_type_symbol
 _atom_site_label
 _atom_site_symmetry_multiplicity
 _atom_site_fract_x
 _atom_site_fract_y
 _atom_site_fract_z
 _atom_site_occupancy
  Rb  Rb0  1  0.541279  0.458721  0.643025  1
  Rb  Rb1  1  0.458721  0.541279  0.356975  1
  Ac  Ac2  1  0.935751  0.064249  0.138178  1
  Ac  Ac3  1  0.064249  0.935751  0.861822  1
  Ac  Ac4  1  0.845964  0.154036  0.585304  1
  Ac  Ac5  1  0.154036  0.845964  0.414696  1
  Ac  Ac6  1  0.642199  0.357801  0.079867  1
  Ac  Ac7  1  0.357801  0.642199  0.920133  1
  Cr  Cr8  1  0.735120  0.264880  0.839231  1
  Cr  Cr9  1  0.264880  0.735120  0.160769  1
  Cr  Cr10  1  0.776978  0.223022  0.334354  1
  Cr  Cr11  1  0.223022  0.776978  0.665646  1
  N  N12  1  0.842774  0.157226  0.954024  1
  N  N13  1  0.157226  0.842774  0.045976  1
  N  N14  1  0.688687  0.311313  0.447648  1
  N  N15  1  0.311313  0.688687  0.552352  1
  N  N16  1  0.580702  0.419298  0.882136  1
  N  N17  1  0.419298  0.580702  0.117864  1
  N  N18  1  0.923089  0.076911  0.375292  1
  N  N19  1  0.076911  0.923089  0.624708  1
  N  N20  1  0.500411  0.989502  0.754267  1
  N  N21  1  0.989502  0.500411  0.245733  1
  N  N22  1  0.499589  0.010498  0.245733  1
  N  N23  1  0.010498  0.499589  0.754267  1
