# generated using pymatgen
data_Sr3Al12Ir3Os
_symmetry_space_group_name_H-M   'P 1'
_cell_length_a   8.96814100
_cell_length_b   8.96813994
_cell_length_c   9.76466500
_cell_angle_alpha   90.00000000
_cell_angle_beta   90.00000000
_cell_angle_gamma   120.00000021
_symmetry_Int_Tables_number   1
_chemical_formula_structural   Sr3Al12Ir3Os
_chemical_formula_sum   'Sr6 Al24 Ir6 Os2'
_cell_volume   680.13133411
_cell_formula_units_Z   2
loop_
 _symmetry_equiv_pos_site_id
 _symmetry_equiv_pos_as_xyz
  1  'x, y, z'
loop_
 _atom_site_type_symbol
 _atom_site_label
 _atom_site_symmetry_multiplicity
 _atom_site_fract_x
 _atom_site_fract_y
 _atom_site_fract_z
 _atom_site_occupancy
  Sr  Sr0  1  0.192448  0.384896  0.250000  1
  Sr  Sr1  1  0.807552  0.615104  0.750000  1
  Sr  Sr2  1  0.615104  0.807552  0.250000  1
  Sr  Sr3  1  0.384896  0.192448  0.750000  1
  Sr  Sr4  1  0.192448  0.807552  0.250000  1
  Sr  Sr5  1  0.807552  0.192448  0.750000  1
  Al  Al6  1  0.333333  0.666667  0.994696  1
  Al  Al7  1  0.666667  0.333333  0.005304  1
  Al  Al8  1  0.666667  0.333333  0.494696  1
  Al  Al9  1  0.333333  0.666667  0.505304  1
  Al  Al10  1  0.161439  0.322877  0.576373  1
  Al  Al11  1  0.838561  0.677123  0.423627  1
  Al  Al12  1  0.677123  0.838561  0.576373  1
  Al  Al13  1  0.838561  0.677123  0.076373  1
  Al  Al14  1  0.322877  0.161439  0.423627  1
  Al  Al15  1  0.161439  0.322877  0.923627  1
  Al  Al16  1  0.161439  0.838561  0.576373  1
  Al  Al17  1  0.322877  0.161439  0.076373  1
  Al  Al18  1  0.838561  0.161439  0.423627  1
  Al  Al19  1  0.677123  0.838561  0.923627  1
  Al  Al20  1  0.838561  0.161439  0.076373  1
  Al  Al21  1  0.161439  0.838561  0.923627  1
  Al  Al22  1  0.563966  0.127932  0.250000  1
  Al  Al23  1  0.436034  0.872068  0.750000  1
  Al  Al24  1  0.872068  0.436034  0.250000  1
  Al  Al25  1  0.127932  0.563966  0.750000  1
  Al  Al26  1  0.563966  0.436034  0.250000  1
  Al  Al27  1  0.436034  0.563966  0.750000  1
  Al  Al28  1  0.000000  0.000000  0.250000  1
  Al  Al29  1  0.000000  0.000000  0.750000  1
  Ir  Ir30  1  0.500000  0.000000  0.000000  1
  Ir  Ir31  1  0.000000  0.500000  0.000000  1
  Ir  Ir32  1  0.500000  0.000000  0.500000  1
  Ir  Ir33  1  0.500000  0.500000  0.000000  1
  Ir  Ir34  1  0.000000  0.500000  0.500000  1
  Ir  Ir35  1  0.500000  0.500000  0.500000  1
  Os  Os36  1  0.000000  0.000000  0.000000  1
  Os  Os37  1  0.000000  0.000000  0.500000  1
