# generated using pymatgen
data_Sc4SI6
_symmetry_space_group_name_H-M   'P 1'
_cell_length_a   3.98897800
_cell_length_b   13.33454900
_cell_length_c   13.96726600
_cell_angle_alpha   90.00000000
_cell_angle_beta   90.00000000
_cell_angle_gamma   90.00000000
_symmetry_Int_Tables_number   1
_chemical_formula_structural   Sc4SI6
_chemical_formula_sum   'Sc8 S2 I12'
_cell_volume   742.93595493
_cell_formula_units_Z   2
loop_
 _symmetry_equiv_pos_site_id
 _symmetry_equiv_pos_as_xyz
  1  'x, y, z'
loop_
 _atom_site_type_symbol
 _atom_site_label
 _atom_site_symmetry_multiplicity
 _atom_site_fract_x
 _atom_site_fract_y
 _atom_site_fract_z
 _atom_site_occupancy
  Sc  Sc0  1  0.000000  0.097419  0.075121  1
  Sc  Sc1  1  0.000000  0.902581  0.924879  1
  Sc  Sc2  1  0.000000  0.597419  0.424879  1
  Sc  Sc3  1  0.000000  0.402581  0.575121  1
  Sc  Sc4  1  0.500000  0.118784  0.858881  1
  Sc  Sc5  1  0.500000  0.881216  0.141119  1
  Sc  Sc6  1  0.500000  0.618784  0.641119  1
  Sc  Sc7  1  0.500000  0.381216  0.358881  1
  S  S8  1  0.500000  0.000000  0.000000  1
  S  S9  1  0.500000  0.500000  0.500000  1
  I  I10  1  0.500000  0.266141  0.673681  1
  I  I11  1  0.500000  0.733859  0.326319  1
  I  I12  1  0.500000  0.766141  0.826319  1
  I  I13  1  0.500000  0.233859  0.173681  1
  I  I14  1  0.000000  0.259843  0.931077  1
  I  I15  1  0.000000  0.740157  0.068923  1
  I  I16  1  0.000000  0.485859  0.242362  1
  I  I17  1  0.000000  0.514141  0.757638  1
  I  I18  1  0.000000  0.985859  0.257638  1
  I  I19  1  0.000000  0.014141  0.742362  1
  I  I20  1  0.000000  0.240157  0.431077  1
  I  I21  1  0.000000  0.759843  0.568923  1
