# generated using pymatgen
data_Ho8Er5Tm7Pb16
_symmetry_space_group_name_H-M   'P 1'
_cell_length_a   8.15055904
_cell_length_b   15.52269401
_cell_length_c   8.22505204
_cell_angle_alpha   90.00380252
_cell_angle_beta   90.01078341
_cell_angle_gamma   90.00247356
_symmetry_Int_Tables_number   1
_chemical_formula_structural   Ho8Er5Tm7Pb16
_chemical_formula_sum   'Ho8 Er5 Tm7 Pb16'
_cell_volume   1040.62232690
_cell_formula_units_Z   1
loop_
 _symmetry_equiv_pos_site_id
 _symmetry_equiv_pos_as_xyz
  1  'x, y, z'
loop_
 _atom_site_type_symbol
 _atom_site_label
 _atom_site_symmetry_multiplicity
 _atom_site_fract_x
 _atom_site_fract_y
 _atom_site_fract_z
 _atom_site_occupancy
  Ho  Ho0  1  0.465366  0.599927  0.676853  1
  Ho  Ho1  1  0.965341  0.900060  0.823115  1
  Ho  Ho2  1  0.534635  0.099935  0.323097  1
  Ho  Ho3  1  0.034652  0.400049  0.176842  1
  Ho  Ho4  1  0.534638  0.400126  0.323138  1
  Ho  Ho5  1  0.034689  0.099883  0.176811  1
  Ho  Ho6  1  0.465312  0.900115  0.676812  1
  Ho  Ho7  1  0.965334  0.599958  0.823224  1
  Er  Er8  1  0.877072  0.379356  0.659153  1
  Er  Er9  1  0.377135  0.379303  0.840768  1
  Er  Er10  1  0.877128  0.120695  0.659201  1
  Er  Er11  1  0.622893  0.879283  0.159216  1
  Er  Er12  1  0.122846  0.620658  0.340817  1
  Tm  Tm13  1  0.622946  0.620709  0.159147  1
  Tm  Tm14  1  0.122955  0.879312  0.340841  1
  Tm  Tm15  1  0.377066  0.120682  0.840868  1
  Tm  Tm16  1  0.791442  0.749996  0.495877  1
  Tm  Tm17  1  0.291442  0.750013  0.004095  1
  Tm  Tm18  1  0.208635  0.249940  0.504059  1
  Tm  Tm19  1  0.708502  0.249965  0.995992  1
  Pb  Pb20  1  0.718502  0.457535  0.966715  1
  Pb  Pb21  1  0.218622  0.042502  0.533534  1
  Pb  Pb22  1  0.281351  0.957448  0.033548  1
  Pb  Pb23  1  0.781290  0.542699  0.466319  1
  Pb  Pb24  1  0.281641  0.542706  0.033495  1
  Pb  Pb25  1  0.781653  0.957294  0.466494  1
  Pb  Pb26  1  0.718363  0.042642  0.966489  1
  Pb  Pb27  1  0.218574  0.457402  0.533435  1
  Pb  Pb28  1  0.428274  0.749976  0.372398  1
  Pb  Pb29  1  0.928321  0.750032  0.127628  1
  Pb  Pb30  1  0.571586  0.249916  0.627611  1
  Pb  Pb31  1  0.071828  0.249942  0.872521  1
  Pb  Pb32  1  0.653302  0.749953  0.847325  1
  Pb  Pb33  1  0.153307  0.750047  0.652688  1
  Pb  Pb34  1  0.346677  0.249947  0.152667  1
  Pb  Pb35  1  0.846680  0.249994  0.347208  1
