# generated using pymatgen
data_Nd3Mg3Pd2Ru
_symmetry_space_group_name_H-M   'P 1'
_cell_length_a   7.61434000
_cell_length_b   7.61434011
_cell_length_c   4.10102900
_cell_angle_alpha   90.00000000
_cell_angle_beta   90.00000000
_cell_angle_gamma   119.99999952
_symmetry_Int_Tables_number   1
_chemical_formula_structural   Nd3Mg3Pd2Ru
_chemical_formula_sum   'Nd3 Mg3 Pd2 Ru1'
_cell_volume   205.91501270
_cell_formula_units_Z   1
loop_
 _symmetry_equiv_pos_site_id
 _symmetry_equiv_pos_as_xyz
  1  'x, y, z'
loop_
 _atom_site_type_symbol
 _atom_site_label
 _atom_site_symmetry_multiplicity
 _atom_site_fract_x
 _atom_site_fract_y
 _atom_site_fract_z
 _atom_site_occupancy
  Nd  Nd0  1  0.576805  0.984562  0.000000  1
  Nd  Nd1  1  0.015438  0.592243  0.000000  1
  Nd  Nd2  1  0.407757  0.423195  0.000000  1
  Mg  Mg3  1  0.243230  0.999258  0.500000  1
  Mg  Mg4  1  0.000742  0.243972  0.500000  1
  Mg  Mg5  1  0.756028  0.756770  0.500000  1
  Pd  Pd6  1  0.666667  0.333333  0.500000  1
  Pd  Pd7  1  0.000000  0.000000  0.000000  1
  Ru  Ru8  1  0.333333  0.666667  0.500000  1
