# generated using pymatgen
data_AcIn3HgIr
_symmetry_space_group_name_H-M   'P 1'
_cell_length_a   8.81293700
_cell_length_b   8.81293782
_cell_length_c   7.54827200
_cell_angle_alpha   90.00000000
_cell_angle_beta   90.00000000
_cell_angle_gamma   150.18562640
_symmetry_Int_Tables_number   1
_chemical_formula_structural   AcIn3HgIr
_chemical_formula_sum   'Ac2 In6 Hg2 Ir2'
_cell_volume   291.48266379
_cell_formula_units_Z   2
loop_
 _symmetry_equiv_pos_site_id
 _symmetry_equiv_pos_as_xyz
  1  'x, y, z'
loop_
 _atom_site_type_symbol
 _atom_site_label
 _atom_site_symmetry_multiplicity
 _atom_site_fract_x
 _atom_site_fract_y
 _atom_site_fract_z
 _atom_site_occupancy
  Ac  Ac0  1  0.624751  0.375249  0.750000  1
  Ac  Ac1  1  0.375249  0.624751  0.250000  1
  In  In2  1  0.814967  0.185033  0.945379  1
  In  In3  1  0.185033  0.814967  0.054621  1
  In  In4  1  0.814967  0.185033  0.554621  1
  In  In5  1  0.185033  0.814967  0.445379  1
  In  In6  1  0.428085  0.571915  0.750000  1
  In  In7  1  0.571915  0.428085  0.250000  1
  Hg  Hg8  1  0.000000  0.000000  0.000000  1
  Hg  Hg9  1  0.000000  0.000000  0.500000  1
  Ir  Ir10  1  0.270163  0.729837  0.750000  1
  Ir  Ir11  1  0.729837  0.270163  0.250000  1
