# generated using pymatgen
data_Zr3InPd2N
_symmetry_space_group_name_H-M   'P 1'
_cell_length_a   8.81898025
_cell_length_b   8.81898021
_cell_length_c   8.81898000
_cell_angle_alpha   60.00000077
_cell_angle_beta   60.00000092
_cell_angle_gamma   59.99999613
_symmetry_Int_Tables_number   1
_chemical_formula_structural   Zr3InPd2N
_chemical_formula_sum   'Zr12 In4 Pd8 N4'
_cell_volume   484.99815936
_cell_formula_units_Z   4
loop_
 _symmetry_equiv_pos_site_id
 _symmetry_equiv_pos_as_xyz
  1  'x, y, z'
loop_
 _atom_site_type_symbol
 _atom_site_label
 _atom_site_symmetry_multiplicity
 _atom_site_fract_x
 _atom_site_fract_y
 _atom_site_fract_z
 _atom_site_occupancy
  Zr  Zr0  1  0.815098  0.815098  0.184902  1
  Zr  Zr1  1  0.184902  0.184902  0.815098  1
  Zr  Zr2  1  0.815098  0.184902  0.815098  1
  Zr  Zr3  1  0.184902  0.815098  0.184902  1
  Zr  Zr4  1  0.184902  0.815098  0.815098  1
  Zr  Zr5  1  0.815098  0.184902  0.184902  1
  Zr  Zr6  1  0.434902  0.434902  0.065098  1
  Zr  Zr7  1  0.065098  0.065098  0.434902  1
  Zr  Zr8  1  0.434902  0.065098  0.434902  1
  Zr  Zr9  1  0.065098  0.434902  0.065098  1
  Zr  Zr10  1  0.065098  0.434902  0.434902  1
  Zr  Zr11  1  0.434902  0.065098  0.065098  1
  In  In12  1  0.125000  0.625000  0.625000  1
  In  In13  1  0.625000  0.125000  0.625000  1
  In  In14  1  0.625000  0.625000  0.125000  1
  In  In15  1  0.625000  0.625000  0.625000  1
  Pd  Pd16  1  0.774602  0.408466  0.408466  1
  Pd  Pd17  1  0.408466  0.774602  0.408466  1
  Pd  Pd18  1  0.408466  0.408466  0.774602  1
  Pd  Pd19  1  0.408466  0.408466  0.408466  1
  Pd  Pd20  1  0.475398  0.841534  0.841534  1
  Pd  Pd21  1  0.841534  0.475398  0.841534  1
  Pd  Pd22  1  0.841534  0.841534  0.475398  1
  Pd  Pd23  1  0.841534  0.841534  0.841534  1
  N  N24  1  0.625000  0.125000  0.125000  1
  N  N25  1  0.125000  0.625000  0.125000  1
  N  N26  1  0.125000  0.125000  0.625000  1
  N  N27  1  0.125000  0.125000  0.125000  1
