# generated using pymatgen
data_TbDy3(Tm2Ni)4
_symmetry_space_group_name_H-M   'P 1'
_cell_length_a   6.29973879
_cell_length_b   6.76568005
_cell_length_c   9.44107100
_cell_angle_alpha   90.00000000
_cell_angle_beta   90.00000000
_cell_angle_gamma   90.00322357
_symmetry_Int_Tables_number   1
_chemical_formula_structural   TbDy3(Tm2Ni)4
_chemical_formula_sum   'Tb1 Dy3 Tm8 Ni4'
_cell_volume   402.39748850
_cell_formula_units_Z   1
loop_
 _symmetry_equiv_pos_site_id
 _symmetry_equiv_pos_as_xyz
  1  'x, y, z'
loop_
 _atom_site_type_symbol
 _atom_site_label
 _atom_site_symmetry_multiplicity
 _atom_site_fract_x
 _atom_site_fract_y
 _atom_site_fract_z
 _atom_site_occupancy
  Tb  Tb0  1  0.863450  0.530597  0.250000  1
  Dy  Dy1  1  0.636697  0.030874  0.250000  1
  Dy  Dy2  1  0.363222  0.969149  0.750000  1
  Dy  Dy3  1  0.136476  0.469115  0.750000  1
  Tm  Tm4  1  0.180373  0.177795  0.065870  1
  Tm  Tm5  1  0.819678  0.822414  0.933823  1
  Tm  Tm6  1  0.679986  0.321994  0.933832  1
  Tm  Tm7  1  0.819678  0.822414  0.566177  1
  Tm  Tm8  1  0.320234  0.677945  0.065968  1
  Tm  Tm9  1  0.180373  0.177795  0.434130  1
  Tm  Tm10  1  0.320234  0.677945  0.434032  1
  Tm  Tm11  1  0.679986  0.321994  0.566168  1
  Ni  Ni12  1  0.444107  0.392137  0.250000  1
  Ni  Ni13  1  0.554618  0.607287  0.750000  1
  Ni  Ni14  1  0.945045  0.107253  0.750000  1
  Ni  Ni15  1  0.055844  0.893295  0.250000  1
