# generated using pymatgen
data_Sr2PN3
_symmetry_space_group_name_H-M   'P 1'
_cell_length_a   6.10484224
_cell_length_b   6.10484243
_cell_length_c   11.99184200
_cell_angle_alpha   90.00000000
_cell_angle_beta   90.00000000
_cell_angle_gamma   127.53418285
_symmetry_Int_Tables_number   1
_chemical_formula_structural   Sr2PN3
_chemical_formula_sum   'Sr8 P4 N12'
_cell_volume   354.40718555
_cell_formula_units_Z   4
loop_
 _symmetry_equiv_pos_site_id
 _symmetry_equiv_pos_as_xyz
  1  'x, y, z'
loop_
 _atom_site_type_symbol
 _atom_site_label
 _atom_site_symmetry_multiplicity
 _atom_site_fract_x
 _atom_site_fract_y
 _atom_site_fract_z
 _atom_site_occupancy
  Sr  Sr0  1  0.860031  0.139969  0.423887  1
  Sr  Sr1  1  0.360031  0.639969  0.076113  1
  Sr  Sr2  1  0.639969  0.360031  0.923887  1
  Sr  Sr3  1  0.139969  0.860031  0.576113  1
  Sr  Sr4  1  0.443219  0.556781  0.642081  1
  Sr  Sr5  1  0.556781  0.443219  0.357919  1
  Sr  Sr6  1  0.056781  0.943219  0.142081  1
  Sr  Sr7  1  0.943219  0.056781  0.857919  1
  P  P8  1  0.759330  0.240670  0.668233  1
  P  P9  1  0.740670  0.259330  0.168233  1
  P  P10  1  0.240670  0.759330  0.331767  1
  P  P11  1  0.259330  0.740670  0.831767  1
  N  N12  1  0.972469  0.527531  0.750000  1
  N  N13  1  0.527531  0.972469  0.250000  1
  N  N14  1  0.027531  0.472469  0.250000  1
  N  N15  1  0.472469  0.027531  0.750000  1
  N  N16  1  0.406661  0.593339  0.859957  1
  N  N17  1  0.593339  0.406661  0.140043  1
  N  N18  1  0.093339  0.906661  0.359957  1
  N  N19  1  0.665394  0.334606  0.562180  1
  N  N20  1  0.165394  0.834606  0.937820  1
  N  N21  1  0.834606  0.165394  0.062180  1
  N  N22  1  0.334606  0.665394  0.437820  1
  N  N23  1  0.906661  0.093339  0.640043  1
