# generated using pymatgen
data_La10Al4Ir5Ru
_symmetry_space_group_name_H-M   'P 1'
_cell_length_a   8.71386667
_cell_length_b   8.71386666
_cell_length_c   8.69318216
_cell_angle_alpha   109.29045379
_cell_angle_beta   109.63446202
_cell_angle_gamma   109.58509841
_symmetry_Int_Tables_number   1
_chemical_formula_structural   La10Al4Ir5Ru
_chemical_formula_sum   'La10 Al4 Ir5 Ru1'
_cell_volume   507.52539423
_cell_formula_units_Z   1
loop_
 _symmetry_equiv_pos_site_id
 _symmetry_equiv_pos_as_xyz
  1  'x, y, z'
loop_
 _atom_site_type_symbol
 _atom_site_label
 _atom_site_symmetry_multiplicity
 _atom_site_fract_x
 _atom_site_fract_y
 _atom_site_fract_z
 _atom_site_occupancy
  La  La0  1  0.252270  0.684229  0.440080  1
  La  La1  1  0.744150  0.812191  0.059921  1
  La  La2  1  0.436489  0.248040  0.685348  1
  La  La3  1  0.686645  0.436646  0.250000  1
  La  La4  1  0.062692  0.751141  0.814652  1
  La  La5  1  0.814212  0.064212  0.750000  1
  La  La6  1  0.213262  0.212842  0.212967  1
  La  La7  1  0.499876  0.000295  0.287033  1
  La  La8  1  0.288502  0.502681  0.998415  1
  La  La9  1  0.004265  0.290087  0.501586  1
  Al  Al10  1  0.498902  0.000870  0.902354  1
  Al  Al11  1  0.598516  0.596547  0.597646  1
  Al  Al12  1  0.901352  0.500645  0.000957  1
  Al  Al13  1  0.999687  0.900395  0.499044  1
  Ir  Ir14  1  0.249825  0.118725  0.867771  1
  Ir  Ir15  1  0.750954  0.382053  0.632228  1
  Ir  Ir16  1  0.866800  0.250000  0.116485  1
  Ir  Ir17  1  0.116422  0.866422  0.250001  1
  Ir  Ir18  1  0.633513  0.750315  0.383514  1
  Ru  Ru19  1  0.381666  0.631666  0.750000  1
