# generated using pymatgen
data_CaLaV2O6
_symmetry_space_group_name_H-M   'P 1'
_cell_length_a   5.58631452
_cell_length_b   7.78541636
_cell_length_c   5.49989309
_cell_angle_alpha   90.40383063
_cell_angle_beta   89.99425992
_cell_angle_gamma   90.00273827
_symmetry_Int_Tables_number   1
_chemical_formula_structural   CaLaV2O6
_chemical_formula_sum   'Ca2 La2 V4 O12'
_cell_volume   239.19422204
_cell_formula_units_Z   2
loop_
 _symmetry_equiv_pos_site_id
 _symmetry_equiv_pos_as_xyz
  1  'x, y, z'
loop_
 _atom_site_type_symbol
 _atom_site_label
 _atom_site_symmetry_multiplicity
 _atom_site_fract_x
 _atom_site_fract_y
 _atom_site_fract_z
 _atom_site_occupancy
  Ca  Ca0  1  0.954472  0.749775  0.012141  1
  Ca  Ca1  1  0.545542  0.249857  0.512521  1
  La  La2  1  0.463409  0.750974  0.489975  1
  La  La3  1  0.036569  0.250923  0.990258  1
  V  V4  1  0.499846  0.499516  0.999021  1
  V  V5  1  0.501273  0.001116  0.999484  1
  V  V6  1  0.998760  0.501133  0.499621  1
  V  V7  1  0.000124  0.999515  0.498867  1
  O  O8  1  0.483241  0.238080  0.082105  1
  O  O9  1  0.016717  0.738090  0.581860  1
  O  O10  1  0.978596  0.261644  0.426012  1
  O  O11  1  0.521419  0.761648  0.925774  1
  O  O12  1  0.211877  0.955670  0.208234  1
  O  O13  1  0.291724  0.042594  0.709885  1
  O  O14  1  0.713356  0.541283  0.286989  1
  O  O15  1  0.786746  0.459278  0.786404  1
  O  O16  1  0.786483  0.041408  0.786804  1
  O  O17  1  0.713470  0.959193  0.286036  1
  O  O18  1  0.288223  0.455781  0.708209  1
  O  O19  1  0.208151  0.542523  0.209799  1
