# generated using pymatgen
data_Hf6Zn11Cu12Se
_symmetry_space_group_name_H-M   'P 1'
_cell_length_a   8.52211666
_cell_length_b   8.50397366
_cell_length_c   8.50397400
_cell_angle_alpha   60.00000647
_cell_angle_beta   60.07040595
_cell_angle_gamma   60.07040334
_symmetry_Int_Tables_number   1
_chemical_formula_structural   Hf6Zn11Cu12Se
_chemical_formula_sum   'Hf6 Zn11 Cu12 Se1'
_cell_volume   436.25224117
_cell_formula_units_Z   1
loop_
 _symmetry_equiv_pos_site_id
 _symmetry_equiv_pos_as_xyz
  1  'x, y, z'
loop_
 _atom_site_type_symbol
 _atom_site_label
 _atom_site_symmetry_multiplicity
 _atom_site_fract_x
 _atom_site_fract_y
 _atom_site_fract_z
 _atom_site_occupancy
  Hf  Hf0  1  0.726784  0.279851  0.279851  1
  Hf  Hf1  1  0.273216  0.720149  0.720149  1
  Hf  Hf2  1  0.273216  0.720149  0.286486  1
  Hf  Hf3  1  0.726784  0.279851  0.713514  1
  Hf  Hf4  1  0.273216  0.286486  0.720149  1
  Hf  Hf5  1  0.726784  0.713514  0.279851  1
  Zn  Zn6  1  0.633838  0.122054  0.122054  1
  Zn  Zn7  1  0.366162  0.877946  0.877946  1
  Zn  Zn8  1  0.331334  0.334828  0.334828  1
  Zn  Zn9  1  0.668666  0.665172  0.665172  1
  Zn  Zn10  1  0.331334  0.334828  0.999010  1
  Zn  Zn11  1  0.331334  0.999010  0.334828  1
  Zn  Zn12  1  0.668666  0.665172  0.000990  1
  Zn  Zn13  1  0.668666  0.000990  0.665172  1
  Zn  Zn14  1  0.012554  0.329148  0.329148  1
  Zn  Zn15  1  0.987446  0.670852  0.670852  1
  Zn  Zn16  1  0.000000  0.000000  0.000000  1
  Cu  Cu17  1  0.120745  0.120141  0.120141  1
  Cu  Cu18  1  0.879255  0.879859  0.879859  1
  Cu  Cu19  1  0.120745  0.120141  0.638972  1
  Cu  Cu20  1  0.120745  0.638972  0.120141  1
  Cu  Cu21  1  0.879255  0.879859  0.361028  1
  Cu  Cu22  1  0.879255  0.361028  0.879859  1
  Cu  Cu23  1  0.500000  0.000000  0.000000  1
  Cu  Cu24  1  0.000000  0.500000  0.500000  1
  Cu  Cu25  1  0.000000  0.500000  0.000000  1
  Cu  Cu26  1  0.500000  0.000000  0.500000  1
  Cu  Cu27  1  0.000000  0.000000  0.500000  1
  Cu  Cu28  1  0.500000  0.500000  0.000000  1
  Se  Se29  1  0.500000  0.500000  0.500000  1
