# generated using pymatgen
data_Th8Si12Ir3Rh
_symmetry_space_group_name_H-M   'P 1'
_cell_length_a   8.26861004
_cell_length_b   8.26880901
_cell_length_c   8.40291700
_cell_angle_alpha   90.00406741
_cell_angle_beta   89.99420710
_cell_angle_gamma   120.00675742
_symmetry_Int_Tables_number   1
_chemical_formula_structural   Th8Si12Ir3Rh
_chemical_formula_sum   'Th8 Si12 Ir3 Rh1'
_cell_volume   497.51548022
_cell_formula_units_Z   1
loop_
 _symmetry_equiv_pos_site_id
 _symmetry_equiv_pos_as_xyz
  1  'x, y, z'
loop_
 _atom_site_type_symbol
 _atom_site_label
 _atom_site_symmetry_multiplicity
 _atom_site_fract_x
 _atom_site_fract_y
 _atom_site_fract_z
 _atom_site_occupancy
  Th  Th0  1  0.999997  0.000006  0.250258  1
  Th  Th1  1  0.000005  0.000011  0.749983  1
  Th  Th2  1  0.500839  0.499153  0.250522  1
  Th  Th3  1  0.500853  0.001703  0.250530  1
  Th  Th4  1  0.998299  0.499144  0.250537  1
  Th  Th5  1  0.500284  0.499714  0.749633  1
  Th  Th6  1  0.500286  0.000575  0.749619  1
  Th  Th7  1  0.999425  0.499719  0.749601  1
  Si  Si8  1  0.166347  0.833659  0.498583  1
  Si  Si9  1  0.166359  0.332698  0.498582  1
  Si  Si10  1  0.667295  0.833640  0.498597  1
  Si  Si11  1  0.833817  0.166179  0.501567  1
  Si  Si12  1  0.833803  0.667613  0.501560  1
  Si  Si13  1  0.332397  0.166200  0.501561  1
  Si  Si14  1  0.834043  0.165958  0.001131  1
  Si  Si15  1  0.834035  0.668065  0.001125  1
  Si  Si16  1  0.331939  0.165967  0.001125  1
  Si  Si17  1  0.166952  0.833048  0.998793  1
  Si  Si18  1  0.166963  0.333916  0.998794  1
  Si  Si19  1  0.666083  0.833035  0.998803  1
  Ir  Ir20  1  0.333316  0.666671  0.501733  1
  Ir  Ir21  1  0.666691  0.333323  0.497970  1
  Ir  Ir22  1  0.666684  0.333325  0.997985  1
  Rh  Rh23  1  0.333292  0.666680  0.001409  1
