# generated using pymatgen
data_AlHgCl4
_symmetry_space_group_name_H-M   'P 1'
_cell_length_a   6.65174983
_cell_length_b   6.89081384
_cell_length_c   9.79785734
_cell_angle_alpha   82.54182103
_cell_angle_beta   74.85060890
_cell_angle_gamma   61.29233062
_symmetry_Int_Tables_number   1
_chemical_formula_structural   AlHgCl4
_chemical_formula_sum   'Al2 Hg2 Cl8'
_cell_volume   380.19895847
_cell_formula_units_Z   2
loop_
 _symmetry_equiv_pos_site_id
 _symmetry_equiv_pos_as_xyz
  1  'x, y, z'
loop_
 _atom_site_type_symbol
 _atom_site_label
 _atom_site_symmetry_multiplicity
 _atom_site_fract_x
 _atom_site_fract_y
 _atom_site_fract_z
 _atom_site_occupancy
  Al  Al0  1  0.382605  0.849537  0.761395  1
  Al  Al1  1  0.617395  0.150463  0.238605  1
  Hg  Hg2  1  0.938155  0.518493  0.880718  1
  Hg  Hg3  1  0.061845  0.481507  0.119282  1
  Cl  Cl4  1  0.739545  0.569870  0.678665  1
  Cl  Cl5  1  0.260455  0.430130  0.321335  1
  Cl  Cl6  1  0.331030  0.821962  0.987023  1
  Cl  Cl7  1  0.668970  0.178038  0.012977  1
  Cl  Cl8  1  0.140060  0.803926  0.679527  1
  Cl  Cl9  1  0.859940  0.196074  0.320473  1
  Cl  Cl10  1  0.386281  0.156363  0.690032  1
  Cl  Cl11  1  0.613719  0.843637  0.309968  1
