# generated using pymatgen
data_HfPa5(GaPt)6
_symmetry_space_group_name_H-M   'P 1'
_cell_length_a   7.03535165
_cell_length_b   7.05461839
_cell_length_c   8.26419517
_cell_angle_alpha   89.99190754
_cell_angle_beta   90.02320240
_cell_angle_gamma   120.38316791
_symmetry_Int_Tables_number   1
_chemical_formula_structural   HfPa5(GaPt)6
_chemical_formula_sum   'Hf1 Pa5 Ga6 Pt6'
_cell_volume   353.83491032
_cell_formula_units_Z   1
loop_
 _symmetry_equiv_pos_site_id
 _symmetry_equiv_pos_as_xyz
  1  'x, y, z'
loop_
 _atom_site_type_symbol
 _atom_site_label
 _atom_site_symmetry_multiplicity
 _atom_site_fract_x
 _atom_site_fract_y
 _atom_site_fract_z
 _atom_site_occupancy
  Hf  Hf0  1  0.000331  0.596351  0.750018  1
  Pa  Pa1  1  0.417496  0.418761  0.249999  1
  Pa  Pa2  1  0.580849  0.998003  0.750008  1
  Pa  Pa3  1  0.418670  0.421343  0.749971  1
  Pa  Pa4  1  0.996079  0.569816  0.250018  1
  Pa  Pa5  1  0.585961  0.003058  0.249993  1
  Ga  Ga6  1  0.243548  0.995668  0.999239  1
  Ga  Ga7  1  0.243596  0.995721  0.500772  1
  Ga  Ga8  1  0.999096  0.247999  0.508963  1
  Ga  Ga9  1  0.999118  0.248053  0.991009  1
  Ga  Ga10  1  0.757339  0.754383  0.999803  1
  Ga  Ga11  1  0.757343  0.754397  0.500204  1
  Pt  Pt12  1  0.666960  0.335324  0.506866  1
  Pt  Pt13  1  0.000714  0.993718  0.750025  1
  Pt  Pt14  1  0.666964  0.335283  0.993117  1
  Pt  Pt15  1  0.331732  0.666884  0.996830  1
  Pt  Pt16  1  0.331772  0.666924  0.503146  1
  Pt  Pt17  1  0.002433  0.998316  0.250019  1
