# generated using pymatgen
data_Pr4Nd6Si5Rh
_symmetry_space_group_name_H-M   'P 1'
_cell_length_a   7.70035660
_cell_length_b   7.70035674
_cell_length_c   9.10617701
_cell_angle_alpha   115.01209651
_cell_angle_beta   115.01209387
_cell_angle_gamma   90.00000573
_symmetry_Int_Tables_number   1
_chemical_formula_structural   Pr4Nd6Si5Rh
_chemical_formula_sum   'Pr4 Nd6 Si5 Rh1'
_cell_volume   432.79496629
_cell_formula_units_Z   1
loop_
 _symmetry_equiv_pos_site_id
 _symmetry_equiv_pos_as_xyz
  1  'x, y, z'
loop_
 _atom_site_type_symbol
 _atom_site_label
 _atom_site_symmetry_multiplicity
 _atom_site_fract_x
 _atom_site_fract_y
 _atom_site_fract_z
 _atom_site_occupancy
  Pr  Pr0  1  0.022648  0.166195  0.712765  1
  Pr  Pr1  1  0.690117  0.546570  0.712765  1
  Pr  Pr2  1  0.166195  0.690117  0.712765  1
  Pr  Pr3  1  0.546570  0.022648  0.712765  1
  Nd  Nd4  1  0.472406  0.472406  0.944812  1
  Nd  Nd5  1  0.028075  0.028075  0.056150  1
  Nd  Nd6  1  0.952513  0.809057  0.286074  1
  Nd  Nd7  1  0.333561  0.477017  0.286074  1
  Nd  Nd8  1  0.809057  0.333561  0.286074  1
  Nd  Nd9  1  0.477017  0.952513  0.286074  1
  Si  Si10  1  0.249503  0.249503  0.499005  1
  Si  Si11  1  0.615745  0.885598  0.001449  1
  Si  Si12  1  0.385704  0.115851  0.001449  1
  Si  Si13  1  0.885598  0.385704  0.001449  1
  Si  Si14  1  0.115851  0.615745  0.001449  1
  Rh  Rh15  1  0.749441  0.749441  0.498881  1
