# generated using pymatgen
data_La6Pr4SnBi4PbCl2
_symmetry_space_group_name_H-M   'P 1'
_cell_length_a   9.69605800
_cell_length_b   9.72081297
_cell_length_c   6.74146000
_cell_angle_alpha   90.00000000
_cell_angle_beta   90.00000000
_cell_angle_gamma   119.91579502
_symmetry_Int_Tables_number   1
_chemical_formula_structural   La6Pr4SnBi4PbCl2
_chemical_formula_sum   'La6 Pr4 Sn1 Bi4 Pb1 Cl2'
_cell_volume   550.74461804
_cell_formula_units_Z   1
loop_
 _symmetry_equiv_pos_site_id
 _symmetry_equiv_pos_as_xyz
  1  'x, y, z'
loop_
 _atom_site_type_symbol
 _atom_site_label
 _atom_site_symmetry_multiplicity
 _atom_site_fract_x
 _atom_site_fract_y
 _atom_site_fract_z
 _atom_site_occupancy
  La  La0  1  0.740419  0.003740  0.750000  1
  La  La1  1  0.735364  0.734867  0.250000  1
  La  La2  1  0.003289  0.265210  0.250000  1
  La  La3  1  0.999562  0.734144  0.750000  1
  La  La4  1  0.260767  0.265194  0.750000  1
  La  La5  1  0.262956  0.002381  0.250000  1
  Pr  Pr6  1  0.668138  0.333618  0.999058  1
  Pr  Pr7  1  0.331279  0.664585  0.500971  1
  Pr  Pr8  1  0.668138  0.333618  0.500942  1
  Pr  Pr9  1  0.331279  0.664585  0.999029  1
  Sn  Sn10  1  0.999859  0.387115  0.750000  1
  Bi  Bi11  1  0.612893  0.613639  0.750000  1
  Bi  Bi12  1  0.000550  0.613542  0.250000  1
  Bi  Bi13  1  0.614538  0.000571  0.250000  1
  Bi  Bi14  1  0.386014  0.001019  0.750000  1
  Pb  Pb15  1  0.387153  0.386734  0.250000  1
  Cl  Cl16  1  0.998901  0.997718  0.500028  1
  Cl  Cl17  1  0.998901  0.997718  0.999972  1
