# generated using pymatgen
data_CaScMn3Ni9As7
_symmetry_space_group_name_H-M   'P 1'
_cell_length_a   3.78552700
_cell_length_b   9.46935339
_cell_length_c   9.46935200
_cell_angle_alpha   119.99999513
_cell_angle_beta   90.00000000
_cell_angle_gamma   90.00000000
_symmetry_Int_Tables_number   1
_chemical_formula_structural   CaScMn3Ni9As7
_chemical_formula_sum   'Ca1 Sc1 Mn3 Ni9 As7'
_cell_volume   293.96632727
_cell_formula_units_Z   1
loop_
 _symmetry_equiv_pos_site_id
 _symmetry_equiv_pos_as_xyz
  1  'x, y, z'
loop_
 _atom_site_type_symbol
 _atom_site_label
 _atom_site_symmetry_multiplicity
 _atom_site_fract_x
 _atom_site_fract_y
 _atom_site_fract_z
 _atom_site_occupancy
  Ca  Ca0  1  0.500000  0.333333  0.666667  1
  Sc  Sc1  1  0.000000  0.666667  0.333333  1
  Mn  Mn2  1  0.500000  0.779433  0.901203  1
  Mn  Mn3  1  0.500000  0.121770  0.220567  1
  Mn  Mn4  1  0.500000  0.098797  0.878230  1
  Ni  Ni5  1  0.000000  0.568809  0.944459  1
  Ni  Ni6  1  0.000000  0.375649  0.431191  1
  Ni  Ni7  1  0.000000  0.055541  0.624351  1
  Ni  Ni8  1  0.000000  0.873327  0.154896  1
  Ni  Ni9  1  0.000000  0.281570  0.126673  1
  Ni  Ni10  1  0.000000  0.845104  0.718430  1
  Ni  Ni11  1  0.500000  0.944480  0.376188  1
  Ni  Ni12  1  0.500000  0.431708  0.055520  1
  Ni  Ni13  1  0.500000  0.623812  0.568292  1
  As  As14  1  0.500000  0.702512  0.119338  1
  As  As15  1  0.500000  0.416827  0.297488  1
  As  As16  1  0.500000  0.880662  0.583173  1
  As  As17  1  0.000000  0.000000  0.000000  1
  As  As18  1  0.000000  0.589773  0.705074  1
  As  As19  1  0.000000  0.115300  0.410227  1
  As  As20  1  0.000000  0.294926  0.884700  1
