# generated using pymatgen
data_YbPr6IrBr12
_symmetry_space_group_name_H-M   'P 1'
_cell_length_a   9.70967268
_cell_length_b   9.70967104
_cell_length_c   9.70967131
_cell_angle_alpha   107.58320464
_cell_angle_beta   107.58320516
_cell_angle_gamma   107.58319484
_symmetry_Int_Tables_number   1
_chemical_formula_structural   YbPr6IrBr12
_chemical_formula_sum   'Yb1 Pr6 Ir1 Br12'
_cell_volume   749.89971730
_cell_formula_units_Z   1
loop_
 _symmetry_equiv_pos_site_id
 _symmetry_equiv_pos_as_xyz
  1  'x, y, z'
loop_
 _atom_site_type_symbol
 _atom_site_label
 _atom_site_symmetry_multiplicity
 _atom_site_fract_x
 _atom_site_fract_y
 _atom_site_fract_z
 _atom_site_occupancy
  Yb  Yb0  1  0.500000  0.500000  0.500000  1
  Pr  Pr1  1  0.107193  0.316604  0.025740  1
  Pr  Pr2  1  0.316604  0.025741  0.107192  1
  Pr  Pr3  1  0.025741  0.107192  0.316605  1
  Pr  Pr4  1  0.974260  0.892808  0.683396  1
  Pr  Pr5  1  0.683396  0.974260  0.892808  1
  Pr  Pr6  1  0.892807  0.683396  0.974260  1
  Ir  Ir7  1  0.000000  0.000000  0.000000  1
  Br  Br8  1  0.218985  0.684943  0.072857  1
  Br  Br9  1  0.459045  0.381526  0.172147  1
  Br  Br10  1  0.684944  0.072857  0.218985  1
  Br  Br11  1  0.927144  0.781015  0.315057  1
  Br  Br12  1  0.172147  0.459045  0.381526  1
  Br  Br13  1  0.381526  0.172147  0.459045  1
  Br  Br14  1  0.618474  0.827853  0.540956  1
  Br  Br15  1  0.827854  0.540955  0.618474  1
  Br  Br16  1  0.072857  0.218985  0.684944  1
  Br  Br17  1  0.315057  0.927144  0.781015  1
  Br  Br18  1  0.540955  0.618474  0.827854  1
  Br  Br19  1  0.781015  0.315057  0.927143  1
