# generated using pymatgen
data_Na3Y(PS4)2
_symmetry_space_group_name_H-M   'P 1'
_cell_length_a   10.31259790
_cell_length_b   10.31259798
_cell_length_c   9.26137759
_cell_angle_alpha   65.15705133
_cell_angle_beta   65.15704981
_cell_angle_gamma   55.58159739
_symmetry_Int_Tables_number   1
_chemical_formula_structural   Na3Y(PS4)2
_chemical_formula_sum   'Na6 Y2 P4 S16'
_cell_volume   715.03843527
_cell_formula_units_Z   2
loop_
 _symmetry_equiv_pos_site_id
 _symmetry_equiv_pos_as_xyz
  1  'x, y, z'
loop_
 _atom_site_type_symbol
 _atom_site_label
 _atom_site_symmetry_multiplicity
 _atom_site_fract_x
 _atom_site_fract_y
 _atom_site_fract_z
 _atom_site_occupancy
  Na  Na0  1  0.811854  0.532249  0.207708  1
  Na  Na1  1  0.467751  0.188146  0.292292  1
  Na  Na2  1  0.188146  0.467751  0.792292  1
  Na  Na3  1  0.532249  0.811854  0.707708  1
  Na  Na4  1  0.418913  0.581087  0.250000  1
  Na  Na5  1  0.581087  0.418913  0.750000  1
  Y  Y6  1  0.024981  0.975019  0.250000  1
  Y  Y7  1  0.975019  0.024981  0.750000  1
  P  P8  1  0.856066  0.332332  0.934648  1
  P  P9  1  0.667668  0.143934  0.565352  1
  P  P10  1  0.143934  0.667668  0.065352  1
  P  P11  1  0.332332  0.856066  0.434648  1
  S  S12  1  0.209097  0.852458  0.939925  1
  S  S13  1  0.657079  0.088650  0.808159  1
  S  S14  1  0.321302  0.445937  0.022997  1
  S  S15  1  0.088650  0.657079  0.308159  1
  S  S16  1  0.746377  0.945840  0.488300  1
  S  S17  1  0.790903  0.147542  0.060075  1
  S  S18  1  0.054160  0.253623  0.011700  1
  S  S19  1  0.253623  0.054160  0.511700  1
  S  S20  1  0.945840  0.746377  0.988300  1
  S  S21  1  0.852458  0.209097  0.439925  1
  S  S22  1  0.911350  0.342921  0.691841  1
  S  S23  1  0.342921  0.911350  0.191841  1
  S  S24  1  0.678698  0.554063  0.977003  1
  S  S25  1  0.445937  0.321302  0.522997  1
  S  S26  1  0.147542  0.790903  0.560075  1
  S  S27  1  0.554063  0.678698  0.477003  1
