# generated using pymatgen
data_CsK2Cu2AgP2
_symmetry_space_group_name_H-M   'P 1'
_cell_length_a   7.73967548
_cell_length_b   7.65381164
_cell_length_c   7.73967563
_cell_angle_alpha   45.98134910
_cell_angle_beta   44.74336487
_cell_angle_gamma   45.98134577
_symmetry_Int_Tables_number   1
_chemical_formula_structural   CsK2Cu2AgP2
_chemical_formula_sum   'Cs1 K2 Cu2 Ag1 P2'
_cell_volume   212.94098818
_cell_formula_units_Z   1
loop_
 _symmetry_equiv_pos_site_id
 _symmetry_equiv_pos_as_xyz
  1  'x, y, z'
loop_
 _atom_site_type_symbol
 _atom_site_label
 _atom_site_symmetry_multiplicity
 _atom_site_fract_x
 _atom_site_fract_y
 _atom_site_fract_z
 _atom_site_occupancy
  Cs  Cs0  1  0.500000  0.500000  0.500000  1
  K  K1  1  0.903687  0.916663  0.903687  1
  K  K2  1  0.096313  0.083337  0.096313  1
  Cu  Cu3  1  0.000000  0.500000  0.500000  1
  Cu  Cu4  1  0.500000  0.500000  0.000000  1
  Ag  Ag5  1  0.500000  0.000000  0.500000  1
  P  P6  1  0.244349  0.284278  0.244349  1
  P  P7  1  0.755651  0.715722  0.755651  1
