# generated using pymatgen
data_Ce2Pr14Cd3HgIr4
_symmetry_space_group_name_H-M   'P 1'
_cell_length_a   9.99979835
_cell_length_b   9.99979783
_cell_length_c   10.05923253
_cell_angle_alpha   59.54455105
_cell_angle_beta   59.54455239
_cell_angle_gamma   59.69815130
_symmetry_Int_Tables_number   1
_chemical_formula_structural   Ce2Pr14Cd3HgIr4
_chemical_formula_sum   'Ce2 Pr14 Cd3 Hg1 Ir4'
_cell_volume   704.72765412
_cell_formula_units_Z   1
loop_
 _symmetry_equiv_pos_site_id
 _symmetry_equiv_pos_as_xyz
  1  'x, y, z'
loop_
 _atom_site_type_symbol
 _atom_site_label
 _atom_site_symmetry_multiplicity
 _atom_site_fract_x
 _atom_site_fract_y
 _atom_site_fract_z
 _atom_site_occupancy
  Ce  Ce0  1  0.343277  0.343277  0.345206  1
  Ce  Ce1  1  0.343550  0.343550  0.967775  1
  Pr  Pr2  1  0.350118  0.950770  0.349886  1
  Pr  Pr3  1  0.950770  0.350118  0.349886  1
  Pr  Pr4  1  0.809816  0.190011  0.191127  1
  Pr  Pr5  1  0.190356  0.808784  0.808340  1
  Pr  Pr6  1  0.190011  0.809816  0.191127  1
  Pr  Pr7  1  0.808784  0.190356  0.808340  1
  Pr  Pr8  1  0.190897  0.190897  0.809231  1
  Pr  Pr9  1  0.808269  0.808269  0.191278  1
  Pr  Pr10  1  0.942173  0.559085  0.561613  1
  Pr  Pr11  1  0.558951  0.942436  0.935971  1
  Pr  Pr12  1  0.559085  0.942173  0.561613  1
  Pr  Pr13  1  0.942436  0.558951  0.935971  1
  Pr  Pr14  1  0.558992  0.558992  0.939852  1
  Pr  Pr15  1  0.937337  0.937337  0.562136  1
  Cd  Cd16  1  0.577738  0.577738  0.260708  1
  Cd  Cd17  1  0.576295  0.261964  0.580387  1
  Cd  Cd18  1  0.261964  0.576295  0.580387  1
  Hg  Hg19  1  0.581334  0.581334  0.585474  1
  Ir  Ir20  1  0.148240  0.148240  0.134518  1
  Ir  Ir21  1  0.148253  0.148253  0.569596  1
  Ir  Ir22  1  0.153880  0.567473  0.139791  1
  Ir  Ir23  1  0.567473  0.153880  0.139791  1
