# generated using pymatgen
data_SnSb4I3
_symmetry_space_group_name_H-M   'P 1'
_cell_length_a   24.06288614
_cell_length_b   24.06287890
_cell_length_c   6.64162302
_cell_angle_alpha   80.60836741
_cell_angle_beta   80.60847876
_cell_angle_gamma   13.95176666
_symmetry_Int_Tables_number   1
_chemical_formula_structural   SnSb4I3
_chemical_formula_sum   'Sn3 Sb12 I9'
_cell_volume   914.58943688
_cell_formula_units_Z   3
loop_
 _symmetry_equiv_pos_site_id
 _symmetry_equiv_pos_as_xyz
  1  'x, y, z'
loop_
 _atom_site_type_symbol
 _atom_site_label
 _atom_site_symmetry_multiplicity
 _atom_site_fract_x
 _atom_site_fract_y
 _atom_site_fract_z
 _atom_site_occupancy
  Sn  Sn0  1  0.933746  0.933852  0.149087  1
  Sn  Sn1  1  0.472351  0.472361  0.635735  1
  Sn  Sn2  1  0.605987  0.605980  0.493376  1
  Sb  Sb3  1  0.090974  0.090959  0.025667  1
  Sb  Sb4  1  0.737076  0.737064  0.028651  1
  Sb  Sb5  1  0.244207  0.244198  0.520672  1
  Sb  Sb6  1  0.233976  0.233964  0.033699  1
  Sb  Sb7  1  0.743238  0.743228  0.510338  1
  Sb  Sb8  1  0.876650  0.876656  0.980619  1
  Sb  Sb9  1  0.295609  0.295607  0.151882  1
  Sb  Sb10  1  0.175606  0.175599  0.283398  1
  Sb  Sb11  1  0.681259  0.681250  0.778358  1
  Sb  Sb12  1  0.795136  0.795134  0.157816  1
  Sb  Sb13  1  0.181251  0.181242  0.781696  1
  Sb  Sb14  1  0.672500  0.672494  0.302602  1
  I  I15  1  0.098890  0.098880  0.513112  1
  I  I16  1  0.595794  0.595780  0.026020  1
  I  I17  1  0.881037  0.881037  0.473208  1
  I  I18  1  0.371218  0.371224  0.971698  1
  I  I19  1  0.441326  0.441362  0.154520  1
  I  I20  1  0.969153  0.969133  0.628442  1
  I  I21  1  0.531637  0.531628  0.654388  1
  I  I22  1  0.032942  0.032935  0.106499  1
  I  I23  1  0.306524  0.306521  0.638522  1
