# generated using pymatgen
data_Al3FeI12
_symmetry_space_group_name_H-M   'P 1'
_cell_length_a   6.71981509
_cell_length_b   10.19321359
_cell_length_c   12.87889584
_cell_angle_alpha   71.52495208
_cell_angle_beta   89.72043188
_cell_angle_gamma   89.98719014
_symmetry_Int_Tables_number   1
_chemical_formula_structural   Al3FeI12
_chemical_formula_sum   'Al3 Fe1 I12'
_cell_volume   836.68369806
_cell_formula_units_Z   1
loop_
 _symmetry_equiv_pos_site_id
 _symmetry_equiv_pos_as_xyz
  1  'x, y, z'
loop_
 _atom_site_type_symbol
 _atom_site_label
 _atom_site_symmetry_multiplicity
 _atom_site_fract_x
 _atom_site_fract_y
 _atom_site_fract_z
 _atom_site_occupancy
  Al  Al0  1  0.003449  0.187829  0.953406  1
  Al  Al1  1  0.502848  0.815266  0.545677  1
  Al  Al2  1  0.996517  0.811899  0.046617  1
  Fe  Fe3  1  0.497228  0.180079  0.455573  1
  I  I4  1  0.781475  0.319389  0.801219  1
  I  I5  1  0.279438  0.682657  0.698805  1
  I  I6  1  0.219847  0.681307  0.198532  1
  I  I7  1  0.713449  0.321629  0.304068  1
  I  I8  1  0.230023  0.313362  0.042699  1
  I  I9  1  0.730574  0.688654  0.456097  1
  I  I10  1  0.768719  0.687507  0.957228  1
  I  I11  1  0.275667  0.315410  0.538637  1
  I  I12  1  0.790651  0.001048  0.107952  1
  I  I13  1  0.288240  0.996448  0.391943  1
  I  I14  1  0.209850  0.998945  0.892274  1
  I  I15  1  0.712027  0.998576  0.609273  1
