# generated using pymatgen
data_Sc7CoSn23Ir5
_symmetry_space_group_name_H-M   'P 1'
_cell_length_a   9.72061300
_cell_length_b   9.69308445
_cell_length_c   9.89934133
_cell_angle_alpha   90.13450347
_cell_angle_beta   90.00000000
_cell_angle_gamma   120.09399507
_symmetry_Int_Tables_number   1
_chemical_formula_structural   Sc7CoSn23Ir5
_chemical_formula_sum   'Sc7 Co1 Sn23 Ir5'
_cell_volume   807.00988969
_cell_formula_units_Z   1
loop_
 _symmetry_equiv_pos_site_id
 _symmetry_equiv_pos_as_xyz
  1  'x, y, z'
loop_
 _atom_site_type_symbol
 _atom_site_label
 _atom_site_symmetry_multiplicity
 _atom_site_fract_x
 _atom_site_fract_y
 _atom_site_fract_z
 _atom_site_occupancy
  Sc  Sc0  1  0.005817  0.011634  0.991552  1
  Sc  Sc1  1  0.033069  0.515548  0.311703  1
  Sc  Sc2  1  0.483362  0.966725  0.309549  1
  Sc  Sc3  1  0.482479  0.515548  0.311703  1
  Sc  Sc4  1  0.967709  0.483934  0.689826  1
  Sc  Sc5  1  0.515687  0.031375  0.690637  1
  Sc  Sc6  1  0.516226  0.483934  0.689826  1
  Co  Co7  1  0.828660  0.657320  0.201465  1
  Sn  Sn8  1  0.999730  0.999460  0.499616  1
  Sn  Sn9  1  0.112109  0.872734  0.277518  1
  Sn  Sn10  1  0.760624  0.872734  0.277518  1
  Sn  Sn11  1  0.121645  0.243291  0.284412  1
  Sn  Sn12  1  0.876428  0.120055  0.715555  1
  Sn  Sn13  1  0.243629  0.120055  0.715555  1
  Sn  Sn14  1  0.876415  0.752829  0.714496  1
  Sn  Sn15  1  0.352510  0.999681  0.000130  1
  Sn  Sn16  1  0.656864  0.650551  0.006141  1
  Sn  Sn17  1  0.999894  0.356322  0.001535  1
  Sn  Sn18  1  0.356429  0.356322  0.001535  1
  Sn  Sn19  1  0.993687  0.650551  0.006141  1
  Sn  Sn20  1  0.647170  0.999681  0.000130  1
  Sn  Sn21  1  0.779154  0.558307  0.454246  1
  Sn  Sn22  1  0.776151  0.222303  0.462224  1
  Sn  Sn23  1  0.446153  0.222303  0.462224  1
  Sn  Sn24  1  0.223540  0.447079  0.539081  1
  Sn  Sn25  1  0.222728  0.778641  0.537453  1
  Sn  Sn26  1  0.555913  0.778641  0.537453  1
  Sn  Sn27  1  0.669683  0.339365  0.171268  1
  Sn  Sn28  1  0.332757  0.665515  0.832461  1
  Sn  Sn29  1  0.667187  0.334372  0.865467  1
  Sn  Sn30  1  0.332358  0.664718  0.136554  1
  Ir  Ir31  1  0.167863  0.826438  0.799766  1
  Ir  Ir32  1  0.658574  0.826438  0.799766  1
  Ir  Ir33  1  0.168874  0.337749  0.800155  1
  Ir  Ir34  1  0.828503  0.168923  0.202669  1
  Ir  Ir35  1  0.340420  0.168923  0.202669  1
