# generated using pymatgen
data_SrLa9(In2Ir)4
_symmetry_space_group_name_H-M   'P 1'
_cell_length_a   3.84864700
_cell_length_b   8.42711583
_cell_length_c   19.24159300
_cell_angle_alpha   89.85542637
_cell_angle_beta   90.00000000
_cell_angle_gamma   90.00000000
_symmetry_Int_Tables_number   1
_chemical_formula_structural   SrLa9(In2Ir)4
_chemical_formula_sum   'Sr1 La9 In8 Ir4'
_cell_volume   624.06048456
_cell_formula_units_Z   1
loop_
 _symmetry_equiv_pos_site_id
 _symmetry_equiv_pos_as_xyz
  1  'x, y, z'
loop_
 _atom_site_type_symbol
 _atom_site_label
 _atom_site_symmetry_multiplicity
 _atom_site_fract_x
 _atom_site_fract_y
 _atom_site_fract_z
 _atom_site_occupancy
  Sr  Sr0  1  0.500000  0.500000  0.000000  1
  La  La1  1  0.500000  0.384030  0.591048  1
  La  La2  1  0.500000  0.884352  0.907580  1
  La  La3  1  0.500000  0.115648  0.092420  1
  La  La4  1  0.500000  0.752475  0.720891  1
  La  La5  1  0.500000  0.251612  0.776993  1
  La  La6  1  0.500000  0.748388  0.223007  1
  La  La7  1  0.500000  0.247525  0.279109  1
  La  La8  1  0.500000  0.000000  0.500000  1
  La  La9  1  0.500000  0.615970  0.408952  1
  In  In10  1  0.000000  0.794097  0.071331  1
  In  In11  1  0.000000  0.939560  0.350116  1
  In  In12  1  0.000000  0.060440  0.649884  1
  In  In13  1  0.000000  0.561171  0.847458  1
  In  In14  1  0.000000  0.709402  0.569558  1
  In  In15  1  0.000000  0.205903  0.928669  1
  In  In16  1  0.000000  0.290598  0.430442  1
  In  In17  1  0.000000  0.438829  0.152542  1
  Ir  Ir18  1  0.000000  0.993393  0.804182  1
  Ir  Ir19  1  0.000000  0.506024  0.305272  1
  Ir  Ir20  1  0.000000  0.493976  0.694728  1
  Ir  Ir21  1  0.000000  0.006607  0.195818  1
