# generated using pymatgen
data_NaLi2(CuO2)2
_symmetry_space_group_name_H-M   'P 1'
_cell_length_a   5.32003810
_cell_length_b   5.32003681
_cell_length_c   7.66524804
_cell_angle_alpha   62.78999315
_cell_angle_beta   62.78999759
_cell_angle_gamma   30.89799519
_symmetry_Int_Tables_number   1
_chemical_formula_structural   NaLi2(CuO2)2
_chemical_formula_sum   'Na1 Li2 Cu2 O4'
_cell_volume   98.07141851
_cell_formula_units_Z   1
loop_
 _symmetry_equiv_pos_site_id
 _symmetry_equiv_pos_as_xyz
  1  'x, y, z'
loop_
 _atom_site_type_symbol
 _atom_site_label
 _atom_site_symmetry_multiplicity
 _atom_site_fract_x
 _atom_site_fract_y
 _atom_site_fract_z
 _atom_site_occupancy
  Na  Na0  1  0.000000  0.000000  0.500000  1
  Li  Li1  1  0.637471  0.637471  0.114964  1
  Li  Li2  1  0.362529  0.362529  0.885036  1
  Cu  Cu3  1  0.838246  0.838246  0.248679  1
  Cu  Cu4  1  0.161754  0.161754  0.751321  1
  O  O5  1  0.754640  0.754640  0.822005  1
  O  O6  1  0.566394  0.566394  0.692606  1
  O  O7  1  0.433606  0.433606  0.307394  1
  O  O8  1  0.245360  0.245360  0.177995  1
