# generated using pymatgen
data_Ba(TaS2)6
_symmetry_space_group_name_H-M   'P 1'
_cell_length_a   5.82189784
_cell_length_b   5.82189873
_cell_length_c   15.54250856
_cell_angle_alpha   86.35476738
_cell_angle_beta   86.35476591
_cell_angle_gamma   120.00582154
_symmetry_Int_Tables_number   1
_chemical_formula_structural   Ba(TaS2)6
_chemical_formula_sum   'Ba1 Ta6 S12'
_cell_volume   452.49642140
_cell_formula_units_Z   1
loop_
 _symmetry_equiv_pos_site_id
 _symmetry_equiv_pos_as_xyz
  1  'x, y, z'
loop_
 _atom_site_type_symbol
 _atom_site_label
 _atom_site_symmetry_multiplicity
 _atom_site_fract_x
 _atom_site_fract_y
 _atom_site_fract_z
 _atom_site_occupancy
  Ba  Ba0  1  0.000000  0.000000  0.000000  1
  Ta  Ta1  1  0.086673  0.086673  0.739960  1
  Ta  Ta2  1  0.420752  0.754167  0.738244  1
  Ta  Ta3  1  0.754167  0.420752  0.738244  1
  Ta  Ta4  1  0.245833  0.579248  0.261756  1
  Ta  Ta5  1  0.579248  0.245833  0.261756  1
  Ta  Ta6  1  0.913327  0.913327  0.260040  1
  S  S7  1  0.285034  0.285034  0.158955  1
  S  S8  1  0.609805  0.947448  0.159036  1
  S  S9  1  0.947448  0.609805  0.159036  1
  S  S10  1  0.052552  0.390195  0.840964  1
  S  S11  1  0.390195  0.052552  0.840964  1
  S  S12  1  0.714966  0.714966  0.841045  1
  S  S13  1  0.210635  0.210635  0.360301  1
  S  S14  1  0.547751  0.879179  0.360336  1
  S  S15  1  0.879179  0.547751  0.360336  1
  S  S16  1  0.120821  0.452249  0.639664  1
  S  S17  1  0.452249  0.120821  0.639664  1
  S  S18  1  0.789365  0.789365  0.639699  1
