# generated using pymatgen
data_NaPu2(PO4)3
_symmetry_space_group_name_H-M   'P 1'
_cell_length_a   9.23555429
_cell_length_b   9.12684103
_cell_length_c   9.65782543
_cell_angle_alpha   61.88389392
_cell_angle_beta   61.99140566
_cell_angle_gamma   59.84083518
_symmetry_Int_Tables_number   1
_chemical_formula_structural   NaPu2(PO4)3
_chemical_formula_sum   'Na2 Pu4 P6 O24'
_cell_volume   591.16766720
_cell_formula_units_Z   2
loop_
 _symmetry_equiv_pos_site_id
 _symmetry_equiv_pos_as_xyz
  1  'x, y, z'
loop_
 _atom_site_type_symbol
 _atom_site_label
 _atom_site_symmetry_multiplicity
 _atom_site_fract_x
 _atom_site_fract_y
 _atom_site_fract_z
 _atom_site_occupancy
  Na  Na0  1  0.823528  0.522432  0.442530  1
  Na  Na1  1  0.176472  0.477568  0.557470  1
  Pu  Pu2  1  0.148270  0.653537  0.060338  1
  Pu  Pu3  1  0.651006  0.143018  0.559910  1
  Pu  Pu4  1  0.348994  0.856982  0.440090  1
  Pu  Pu5  1  0.851730  0.346463  0.939662  1
  P  P6  1  0.539488  0.462199  0.747701  1
  P  P7  1  0.749854  0.961718  0.250292  1
  P  P8  1  0.028188  0.258411  0.251760  1
  P  P9  1  0.971812  0.741589  0.748240  1
  P  P10  1  0.250146  0.038282  0.749708  1
  P  P11  1  0.460512  0.537801  0.252299  1
  O  O12  1  0.887602  0.772722  0.240642  1
  O  O13  1  0.525286  0.628565  0.590170  1
  O  O14  1  0.391491  0.507139  0.902258  1
  O  O15  1  0.723823  0.407170  0.759282  1
  O  O16  1  0.083722  0.406014  0.228641  1
  O  O17  1  0.790665  0.101661  0.080252  1
  O  O18  1  0.532971  0.310756  0.722551  1
  O  O19  1  0.233305  0.000575  0.617990  1
  O  O20  1  0.851315  0.276271  0.396442  1
  O  O21  1  0.563299  0.965830  0.300026  1
  O  O22  1  0.999120  0.290593  0.093336  1
  O  O23  1  0.169071  0.073383  0.295582  1
  O  O24  1  0.830929  0.926617  0.704418  1
  O  O25  1  0.000880  0.709407  0.906664  1
  O  O26  1  0.436701  0.034170  0.699974  1
  O  O27  1  0.148685  0.723729  0.603558  1
  O  O28  1  0.766695  0.999425  0.382010  1
  O  O29  1  0.467029  0.689244  0.277449  1
  O  O30  1  0.209335  0.898339  0.919748  1
  O  O31  1  0.916278  0.593986  0.771359  1
  O  O32  1  0.276177  0.592830  0.240718  1
  O  O33  1  0.608509  0.492861  0.097742  1
  O  O34  1  0.474714  0.371435  0.409830  1
  O  O35  1  0.112398  0.227278  0.759358  1
