# generated using pymatgen
data_CeNp(B2Ir3)3
_symmetry_space_group_name_H-M   'P 1'
_cell_length_a   5.66927900
_cell_length_b   5.66904487
_cell_length_c   8.65503202
_cell_angle_alpha   90.00228591
_cell_angle_beta   90.00456153
_cell_angle_gamma   59.99862800
_symmetry_Int_Tables_number   1
_chemical_formula_structural   CeNp(B2Ir3)3
_chemical_formula_sum   'Ce1 Np1 B6 Ir9'
_cell_volume   240.89679954
_cell_formula_units_Z   1
loop_
 _symmetry_equiv_pos_site_id
 _symmetry_equiv_pos_as_xyz
  1  'x, y, z'
loop_
 _atom_site_type_symbol
 _atom_site_label
 _atom_site_symmetry_multiplicity
 _atom_site_fract_x
 _atom_site_fract_y
 _atom_site_fract_z
 _atom_site_occupancy
  Ce  Ce0  1  0.999871  0.000000  0.698483  1
  Np  Np1  1  0.000273  0.000000  0.307723  1
  B  B2  1  0.666674  0.666643  0.999702  1
  B  B3  1  0.333317  0.333357  0.999702  1
  B  B4  1  0.666609  0.666688  0.331321  1
  B  B5  1  0.333297  0.333312  0.331321  1
  B  B6  1  0.333306  0.333320  0.667929  1
  B  B7  1  0.666628  0.666680  0.667929  1
  Ir  Ir8  1  0.500028  0.000000  0.163211  1
  Ir  Ir9  1  0.000012  0.500054  0.163212  1
  Ir  Ir10  1  0.500065  0.499946  0.163212  1
  Ir  Ir11  1  0.500022  0.000000  0.836173  1
  Ir  Ir12  1  0.000022  0.500015  0.836153  1
  Ir  Ir13  1  0.500037  0.499985  0.836153  1
  Ir  Ir14  1  0.499911  0.000000  0.499268  1
  Ir  Ir15  1  0.999919  0.499990  0.499255  1
  Ir  Ir16  1  0.499910  0.500010  0.499255  1
