# generated using pymatgen
data_Ca3Nd8Er9Si16
_symmetry_space_group_name_H-M   'P 1'
_cell_length_a   7.44782836
_cell_length_b   14.82361600
_cell_length_c   7.80448237
_cell_angle_alpha   90.00000000
_cell_angle_beta   90.03554951
_cell_angle_gamma   90.00000000
_symmetry_Int_Tables_number   1
_chemical_formula_structural   Ca3Nd8Er9Si16
_chemical_formula_sum   'Ca3 Nd8 Er9 Si16'
_cell_volume   861.64393664
_cell_formula_units_Z   1
loop_
 _symmetry_equiv_pos_site_id
 _symmetry_equiv_pos_as_xyz
  1  'x, y, z'
loop_
 _atom_site_type_symbol
 _atom_site_label
 _atom_site_symmetry_multiplicity
 _atom_site_fract_x
 _atom_site_fract_y
 _atom_site_fract_z
 _atom_site_occupancy
  Ca  Ca0  1  0.346116  0.250000  0.010960  1
  Ca  Ca1  1  0.845650  0.250000  0.489073  1
  Ca  Ca2  1  0.154311  0.750000  0.511486  1
  Nd  Nd3  1  0.023115  0.097871  0.179636  1
  Nd  Nd4  1  0.023115  0.402129  0.179636  1
  Nd  Nd5  1  0.522632  0.097676  0.320152  1
  Nd  Nd6  1  0.522632  0.402324  0.320152  1
  Nd  Nd7  1  0.477735  0.597604  0.678332  1
  Nd  Nd8  1  0.477735  0.902396  0.678332  1
  Nd  Nd9  1  0.978652  0.598406  0.820040  1
  Nd  Nd10  1  0.978652  0.901594  0.820040  1
  Er  Er11  1  0.321632  0.623430  0.180393  1
  Er  Er12  1  0.321632  0.876569  0.180393  1
  Er  Er13  1  0.822710  0.623655  0.320369  1
  Er  Er14  1  0.822710  0.876344  0.320369  1
  Er  Er15  1  0.177922  0.122512  0.680516  1
  Er  Er16  1  0.177922  0.377487  0.680516  1
  Er  Er17  1  0.677046  0.122223  0.819883  1
  Er  Er18  1  0.677046  0.377776  0.819883  1
  Er  Er19  1  0.654205  0.750000  0.989479  1
  Si  Si20  1  0.647924  0.539613  0.031415  1
  Si  Si21  1  0.647924  0.960387  0.031415  1
  Si  Si22  1  0.025889  0.750000  0.105767  1
  Si  Si23  1  0.733027  0.250000  0.112516  1
  Si  Si24  1  0.233041  0.250000  0.387690  1
  Si  Si25  1  0.533047  0.750000  0.385075  1
  Si  Si26  1  0.148712  0.535427  0.466157  1
  Si  Si27  1  0.148712  0.964573  0.466157  1
  Si  Si28  1  0.850485  0.035113  0.534042  1
  Si  Si29  1  0.850485  0.464886  0.534042  1
  Si  Si30  1  0.467784  0.250000  0.609697  1
  Si  Si31  1  0.765153  0.750000  0.621033  1
  Si  Si32  1  0.275345  0.750000  0.888940  1
  Si  Si33  1  0.967509  0.250000  0.891362  1
  Si  Si34  1  0.350898  0.035373  0.967525  1
  Si  Si35  1  0.350898  0.464626  0.967525  1
