# generated using pymatgen
data_Ca2YbSbI3
_symmetry_space_group_name_H-M   'P 1'
_cell_length_a   11.11256000
_cell_length_b   11.10486949
_cell_length_c   11.10814253
_cell_angle_alpha   109.60399150
_cell_angle_beta   109.45532042
_cell_angle_gamma   109.35076493
_symmetry_Int_Tables_number   1
_chemical_formula_structural   Ca2YbSbI3
_chemical_formula_sum   'Ca8 Yb4 Sb4 I12'
_cell_volume   1055.27278358
_cell_formula_units_Z   4
loop_
 _symmetry_equiv_pos_site_id
 _symmetry_equiv_pos_as_xyz
  1  'x, y, z'
loop_
 _atom_site_type_symbol
 _atom_site_label
 _atom_site_symmetry_multiplicity
 _atom_site_fract_x
 _atom_site_fract_y
 _atom_site_fract_z
 _atom_site_occupancy
  Ca  Ca0  1  0.259523  0.750051  0.240513  1
  Ca  Ca1  1  0.019436  0.259580  0.009688  1
  Ca  Ca2  1  0.009660  0.019259  0.259720  1
  Ca  Ca3  1  0.490105  0.749813  0.009481  1
  Ca  Ca4  1  0.490098  0.240232  0.480471  1
  Ca  Ca5  1  0.009482  0.490279  0.749702  1
  Ca  Ca6  1  0.259415  0.009306  0.018857  1
  Ca  Ca7  1  0.240142  0.259342  0.749689  1
  Yb  Yb8  1  0.483927  0.491854  0.242077  1
  Yb  Yb9  1  0.749902  0.241810  0.258167  1
  Yb  Yb10  1  0.749946  0.007938  0.491891  1
  Yb  Yb11  1  0.241868  0.484025  0.492114  1
  Sb  Sb12  1  0.250689  0.251289  0.250593  1
  Sb  Sb13  1  0.501054  0.000460  0.250499  1
  Sb  Sb14  1  0.999417  0.250041  0.499451  1
  Sb  Sb15  1  0.250649  0.499979  0.000654  1
  I  I16  1  0.249943  0.749267  0.747344  1
  I  I17  1  0.500030  0.500997  0.749003  1
  I  I18  1  0.997989  0.748972  0.998967  1
  I  I19  1  0.748952  0.248048  0.749113  1
  I  I20  1  0.997357  0.997946  0.747221  1
  I  I21  1  0.250025  0.999000  0.500954  1
  I  I22  1  0.749295  0.500090  0.497412  1
  I  I23  1  0.502639  0.251894  0.002499  1
  I  I24  1  0.749328  0.749158  0.251920  1
  I  I25  1  0.748882  0.000861  0.999807  1
  I  I26  1  0.999225  0.499433  0.252031  1
  I  I27  1  0.501022  0.749076  0.500162  1
