# generated using pymatgen
data_K(NdI3)2
_symmetry_space_group_name_H-M   'P 1'
_cell_length_a   8.56862800
_cell_length_b   8.56862841
_cell_length_c   14.93534400
_cell_angle_alpha   90.00000000
_cell_angle_beta   90.00000000
_cell_angle_gamma   119.99999841
_symmetry_Int_Tables_number   1
_chemical_formula_structural   K(NdI3)2
_chemical_formula_sum   'K2 Nd4 I12'
_cell_volume   949.66070238
_cell_formula_units_Z   2
loop_
 _symmetry_equiv_pos_site_id
 _symmetry_equiv_pos_as_xyz
  1  'x, y, z'
loop_
 _atom_site_type_symbol
 _atom_site_label
 _atom_site_symmetry_multiplicity
 _atom_site_fract_x
 _atom_site_fract_y
 _atom_site_fract_z
 _atom_site_occupancy
  K  K0  1  0.333333  0.666667  0.873057  1
  K  K1  1  0.666667  0.333333  0.373057  1
  Nd  Nd2  1  0.000000  0.000000  0.126016  1
  Nd  Nd3  1  0.000000  0.000000  0.376047  1
  Nd  Nd4  1  0.000000  0.000000  0.626016  1
  Nd  Nd5  1  0.000000  0.000000  0.876047  1
  I  I6  1  0.989888  0.696216  0.000243  1
  I  I7  1  0.290993  0.984449  0.251293  1
  I  I8  1  0.015551  0.306543  0.251293  1
  I  I9  1  0.303784  0.293674  0.000243  1
  I  I10  1  0.293674  0.303784  0.500243  1
  I  I11  1  0.706326  0.010112  0.000243  1
  I  I12  1  0.306543  0.015551  0.751293  1
  I  I13  1  0.693457  0.709007  0.251293  1
  I  I14  1  0.709007  0.693457  0.751293  1
  I  I15  1  0.010112  0.706326  0.500243  1
  I  I16  1  0.696216  0.989888  0.500243  1
  I  I17  1  0.984449  0.290993  0.751293  1
