# generated using pymatgen
data_LuHfV3Si4
_symmetry_space_group_name_H-M   'P 1'
_cell_length_a   6.67664969
_cell_length_b   6.67722148
_cell_length_c   12.35044629
_cell_angle_alpha   90.10597428
_cell_angle_beta   89.93844129
_cell_angle_gamma   89.88310919
_symmetry_Int_Tables_number   1
_chemical_formula_structural   LuHfV3Si4
_chemical_formula_sum   'Lu4 Hf4 V12 Si16'
_cell_volume   550.59862747
_cell_formula_units_Z   4
loop_
 _symmetry_equiv_pos_site_id
 _symmetry_equiv_pos_as_xyz
  1  'x, y, z'
loop_
 _atom_site_type_symbol
 _atom_site_label
 _atom_site_symmetry_multiplicity
 _atom_site_fract_x
 _atom_site_fract_y
 _atom_site_fract_z
 _atom_site_occupancy
  Lu  Lu0  1  0.500565  0.163621  0.219570  1
  Lu  Lu1  1  0.000018  0.337705  0.530187  1
  Lu  Lu2  1  0.663137  0.999260  0.970457  1
  Lu  Lu3  1  0.337486  0.999744  0.469972  1
  Hf  Hf4  1  0.004839  0.659252  0.029341  1
  Hf  Hf5  1  0.840189  0.505361  0.280221  1
  Hf  Hf6  1  0.161310  0.496944  0.780099  1
  Hf  Hf7  1  0.503388  0.838122  0.720285  1
  V  V8  1  0.330255  0.335724  0.999100  1
  V  V9  1  0.164655  0.829994  0.249096  1
  V  V10  1  0.833453  0.166688  0.750845  1
  V  V11  1  0.667649  0.667525  0.500961  1
  V  V12  1  0.003329  0.159506  0.125409  1
  V  V13  1  0.340579  0.506587  0.375736  1
  V  V14  1  0.657940  0.496874  0.875683  1
  V  V15  1  0.505883  0.343464  0.625932  1
  V  V16  1  0.492675  0.657680  0.123052  1
  V  V17  1  0.995167  0.839777  0.628320  1
  V  V18  1  0.157517  0.004183  0.873572  1
  V  V19  1  0.840673  0.992244  0.373195  1
  Si  Si20  1  0.287607  0.959370  0.063918  1
  Si  Si21  1  0.539893  0.788451  0.313886  1
  Si  Si22  1  0.460420  0.209250  0.814758  1
  Si  Si23  1  0.791224  0.540203  0.685995  1
  Si  Si24  1  0.206856  0.461393  0.184883  1
  Si  Si25  1  0.709756  0.038101  0.565057  1
  Si  Si26  1  0.960985  0.292626  0.934925  1
  Si  Si27  1  0.038769  0.709528  0.435672  1
  Si  Si28  1  0.706121  0.377205  0.069463  1
  Si  Si29  1  0.123205  0.204419  0.317040  1
  Si  Si30  1  0.874149  0.793134  0.820058  1
  Si  Si31  1  0.205336  0.125904  0.682623  1
  Si  Si32  1  0.798800  0.868899  0.180153  1
  Si  Si33  1  0.298102  0.628130  0.571724  1
  Si  Si34  1  0.370038  0.703047  0.928054  1
  Si  Si35  1  0.628030  0.300088  0.430761  1
