# generated using pymatgen
data_Sc8Ta11TiSi16
_symmetry_space_group_name_H-M   'P 1'
_cell_length_a   6.89958906
_cell_length_b   6.90235610
_cell_length_c   12.67041554
_cell_angle_alpha   90.00304430
_cell_angle_beta   90.00968626
_cell_angle_gamma   89.98671516
_symmetry_Int_Tables_number   1
_chemical_formula_structural   Sc8Ta11TiSi16
_chemical_formula_sum   'Sc8 Ta11 Ti1 Si16'
_cell_volume   603.40850388
_cell_formula_units_Z   1
loop_
 _symmetry_equiv_pos_site_id
 _symmetry_equiv_pos_as_xyz
  1  'x, y, z'
loop_
 _atom_site_type_symbol
 _atom_site_label
 _atom_site_symmetry_multiplicity
 _atom_site_fract_x
 _atom_site_fract_y
 _atom_site_fract_z
 _atom_site_occupancy
  Sc  Sc0  1  0.999061  0.659166  0.031593  1
  Sc  Sc1  1  0.841558  0.501289  0.281291  1
  Sc  Sc2  1  0.159167  0.500010  0.780960  1
  Sc  Sc3  1  0.500240  0.841280  0.718332  1
  Sc  Sc4  1  0.497967  0.158482  0.218802  1
  Sc  Sc5  1  0.999626  0.342040  0.531362  1
  Sc  Sc6  1  0.659663  0.000092  0.969160  1
  Sc  Sc7  1  0.340818  0.000087  0.468865  1
  Ta  Ta8  1  0.328607  0.328649  0.000195  1
  Ta  Ta9  1  0.172268  0.827702  0.250137  1
  Ta  Ta10  1  0.828308  0.171692  0.749773  1
  Ta  Ta11  1  0.672070  0.670654  0.499988  1
  Ta  Ta12  1  0.005688  0.150535  0.127493  1
  Ta  Ta13  1  0.349450  0.505342  0.377015  1
  Ta  Ta14  1  0.650364  0.493928  0.876595  1
  Ta  Ta15  1  0.506927  0.348850  0.622620  1
  Ta  Ta16  1  0.492923  0.650986  0.123356  1
  Ta  Ta17  1  0.993836  0.847909  0.626851  1
  Ta  Ta18  1  0.150772  0.006943  0.873068  1
  Ti  Ti19  1  0.849062  0.993080  0.372399  1
  Si  Si20  1  0.301785  0.956151  0.063849  1
  Si  Si21  1  0.545868  0.803072  0.314967  1
  Si  Si22  1  0.455851  0.198291  0.813414  1
  Si  Si23  1  0.802100  0.543771  0.686333  1
  Si  Si24  1  0.198415  0.455102  0.186901  1
  Si  Si25  1  0.700312  0.043637  0.561997  1
  Si  Si26  1  0.955449  0.302184  0.936623  1
  Si  Si27  1  0.044074  0.701321  0.435675  1
  Si  Si28  1  0.705690  0.361005  0.072844  1
  Si  Si29  1  0.135725  0.204604  0.323091  1
  Si  Si30  1  0.860385  0.794904  0.822399  1
  Si  Si31  1  0.205188  0.139485  0.677040  1
  Si  Si32  1  0.794753  0.860889  0.178775  1
  Si  Si33  1  0.294662  0.639046  0.571900  1
  Si  Si34  1  0.360290  0.705718  0.927759  1
  Si  Si35  1  0.641077  0.292104  0.426574  1
