# generated using pymatgen
data_Y2Ho5Lu9(In3Co)2
_symmetry_space_group_name_H-M   'P 1'
_cell_length_a   10.17952908
_cell_length_b   10.17764488
_cell_length_c   6.99988012
_cell_angle_alpha   89.97850843
_cell_angle_beta   90.01353709
_cell_angle_gamma   120.01066002
_symmetry_Int_Tables_number   1
_chemical_formula_structural   Y2Ho5Lu9(In3Co)2
_chemical_formula_sum   'Y2 Ho5 Lu9 In6 Co2'
_cell_volume   627.98536534
_cell_formula_units_Z   1
loop_
 _symmetry_equiv_pos_site_id
 _symmetry_equiv_pos_as_xyz
  1  'x, y, z'
loop_
 _atom_site_type_symbol
 _atom_site_label
 _atom_site_symmetry_multiplicity
 _atom_site_fract_x
 _atom_site_fract_y
 _atom_site_fract_z
 _atom_site_occupancy
  Y  Y0  1  0.999956  0.999893  0.495333  1
  Y  Y1  1  0.999970  0.999952  0.995192  1
  Ho  Ho2  1  0.465321  0.534685  0.482425  1
  Ho  Ho3  1  0.069363  0.534684  0.482400  1
  Ho  Ho4  1  0.465508  0.931042  0.482253  1
  Ho  Ho5  1  0.534726  0.464986  0.982478  1
  Ho  Ho6  1  0.930253  0.464993  0.982515  1
  Lu  Lu7  1  0.535271  0.070594  0.982006  1
  Lu  Lu8  1  0.819705  0.179371  0.276769  1
  Lu  Lu9  1  0.359671  0.179368  0.276706  1
  Lu  Lu10  1  0.820404  0.640773  0.277411  1
  Lu  Lu11  1  0.180231  0.820828  0.777842  1
  Lu  Lu12  1  0.640596  0.820848  0.777822  1
  Lu  Lu13  1  0.179538  0.359079  0.777418  1
  Lu  Lu14  1  0.333592  0.667190  0.089409  1
  Lu  Lu15  1  0.666383  0.332756  0.589605  1
  In  In16  1  0.163137  0.836856  0.233306  1
  In  In17  1  0.673708  0.836861  0.233356  1
  In  In18  1  0.163141  0.326278  0.233620  1
  In  In19  1  0.836339  0.163009  0.733764  1
  In  In20  1  0.326708  0.163038  0.733734  1
  In  In21  1  0.836898  0.673805  0.733281  1
  Co  Co22  1  0.333299  0.666567  0.708182  1
  Co  Co23  1  0.666284  0.332545  0.207726  1
