# generated using pymatgen
data_Ho4Ga2OsRu5
_symmetry_space_group_name_H-M   'P 1'
_cell_length_a   5.34216959
_cell_length_b   5.32519356
_cell_length_c   8.82892600
_cell_angle_alpha   90.00000000
_cell_angle_beta   90.00000000
_cell_angle_gamma   120.43145337
_symmetry_Int_Tables_number   1
_chemical_formula_structural   Ho4Ga2OsRu5
_chemical_formula_sum   'Ho4 Ga2 Os1 Ru5'
_cell_volume   216.56435105
_cell_formula_units_Z   1
loop_
 _symmetry_equiv_pos_site_id
 _symmetry_equiv_pos_as_xyz
  1  'x, y, z'
loop_
 _atom_site_type_symbol
 _atom_site_label
 _atom_site_symmetry_multiplicity
 _atom_site_fract_x
 _atom_site_fract_y
 _atom_site_fract_z
 _atom_site_occupancy
  Ho  Ho0  1  0.669223  0.336935  0.567986  1
  Ho  Ho1  1  0.341502  0.671084  0.440576  1
  Ho  Ho2  1  0.341502  0.671084  0.059424  1
  Ho  Ho3  1  0.669223  0.336935  0.932014  1
  Ga  Ga4  1  0.826703  0.664025  0.250000  1
  Ga  Ga5  1  0.827690  0.165684  0.250000  1
  Os  Os6  1  0.158792  0.320870  0.750000  1
  Ru  Ru7  1  0.009825  0.014227  0.501863  1
  Ru  Ru8  1  0.009825  0.014227  0.998137  1
  Ru  Ru9  1  0.166560  0.823463  0.750000  1
  Ru  Ru10  1  0.643146  0.816743  0.750000  1
  Ru  Ru11  1  0.336008  0.164725  0.250000  1
