# generated using pymatgen
data_La8Zn5Ga3(IrRh3)2
_symmetry_space_group_name_H-M   'P 1'
_cell_length_a   4.05552500
_cell_length_b   7.52382591
_cell_length_c   16.63264615
_cell_angle_alpha   89.78295249
_cell_angle_beta   90.00000000
_cell_angle_gamma   90.00000000
_symmetry_Int_Tables_number   1
_chemical_formula_structural   La8Zn5Ga3(IrRh3)2
_chemical_formula_sum   'La8 Zn5 Ga3 Ir2 Rh6'
_cell_volume   507.50935649
_cell_formula_units_Z   1
loop_
 _symmetry_equiv_pos_site_id
 _symmetry_equiv_pos_as_xyz
  1  'x, y, z'
loop_
 _atom_site_type_symbol
 _atom_site_label
 _atom_site_symmetry_multiplicity
 _atom_site_fract_x
 _atom_site_fract_y
 _atom_site_fract_z
 _atom_site_occupancy
  La  La0  1  0.750000  0.326381  0.440184  1
  La  La1  1  0.250000  0.051125  0.717314  1
  La  La2  1  0.250000  0.547164  0.783447  1
  La  La3  1  0.250000  0.673895  0.560025  1
  La  La4  1  0.750000  0.824629  0.058499  1
  La  La5  1  0.250000  0.174919  0.940977  1
  La  La6  1  0.750000  0.450311  0.216603  1
  La  La7  1  0.750000  0.950267  0.282688  1
  Zn  Zn8  1  0.750000  0.002901  0.562550  1
  Zn  Zn9  1  0.250000  0.501795  0.058655  1
  Zn  Zn10  1  0.750000  0.374659  0.649481  1
  Zn  Zn11  1  0.750000  0.498709  0.940741  1
  Zn  Zn12  1  0.250000  0.621711  0.349351  1
  Ga  Ga13  1  0.250000  0.121691  0.149797  1
  Ga  Ga14  1  0.250000  0.998427  0.439260  1
  Ga  Ga15  1  0.750000  0.878596  0.849984  1
  Ir  Ir16  1  0.750000  0.242208  0.817885  1
  Ir  Ir17  1  0.250000  0.241115  0.315325  1
  Rh  Rh18  1  0.250000  0.743499  0.929007  1
  Rh  Rh19  1  0.250000  0.239138  0.564347  1
  Rh  Rh20  1  0.250000  0.758658  0.181579  1
  Rh  Rh21  1  0.750000  0.767506  0.434625  1
  Rh  Rh22  1  0.750000  0.257796  0.071141  1
  Rh  Rh23  1  0.750000  0.752900  0.686536  1
