# generated using pymatgen
data_Nd5Ho11Cd4(OsPt)2
_symmetry_space_group_name_H-M   'P 1'
_cell_length_a   9.75667763
_cell_length_b   9.73734354
_cell_length_c   9.77444243
_cell_angle_alpha   59.58894007
_cell_angle_beta   59.70490945
_cell_angle_gamma   59.72855711
_symmetry_Int_Tables_number   1
_chemical_formula_structural   Nd5Ho11Cd4(OsPt)2
_chemical_formula_sum   'Nd5 Ho11 Cd4 Os2 Pt2'
_cell_volume   651.76471109
_cell_formula_units_Z   1
loop_
 _symmetry_equiv_pos_site_id
 _symmetry_equiv_pos_as_xyz
  1  'x, y, z'
loop_
 _atom_site_type_symbol
 _atom_site_label
 _atom_site_symmetry_multiplicity
 _atom_site_fract_x
 _atom_site_fract_y
 _atom_site_fract_z
 _atom_site_occupancy
  Nd  Nd0  1  0.550124  0.942522  0.943922  1
  Nd  Nd1  1  0.557466  0.937242  0.563910  1
  Nd  Nd2  1  0.941321  0.553700  0.939091  1
  Nd  Nd3  1  0.564587  0.561464  0.937095  1
  Nd  Nd4  1  0.940721  0.938729  0.559909  1
  Ho  Ho5  1  0.349849  0.348551  0.351937  1
  Ho  Ho6  1  0.348495  0.352012  0.953234  1
  Ho  Ho7  1  0.343261  0.960058  0.350794  1
  Ho  Ho8  1  0.955522  0.345741  0.348553  1
  Ho  Ho9  1  0.818495  0.185361  0.186456  1
  Ho  Ho10  1  0.182030  0.818551  0.809072  1
  Ho  Ho11  1  0.185482  0.816109  0.189082  1
  Ho  Ho12  1  0.817092  0.185153  0.807909  1
  Ho  Ho13  1  0.186214  0.187931  0.811205  1
  Ho  Ho14  1  0.810062  0.809103  0.190295  1
  Ho  Ho15  1  0.944777  0.547632  0.560622  1
  Cd  Cd16  1  0.582607  0.578016  0.578654  1
  Cd  Cd17  1  0.578940  0.578942  0.261603  1
  Cd  Cd18  1  0.580264  0.260034  0.578980  1
  Cd  Cd19  1  0.257841  0.580234  0.579127  1
  Os  Os20  1  0.145527  0.143671  0.136965  1
  Os  Os21  1  0.141347  0.150409  0.574150  1
  Pt  Pt22  1  0.142138  0.575320  0.145692  1
  Pt  Pt23  1  0.575840  0.143516  0.141745  1
