# generated using pymatgen
data_Nd3Zn2In3Ir
_symmetry_space_group_name_H-M   'P 1'
_cell_length_a   7.91239800
_cell_length_b   7.91239728
_cell_length_c   3.97765600
_cell_angle_alpha   90.00000000
_cell_angle_beta   90.00000000
_cell_angle_gamma   119.99998627
_symmetry_Int_Tables_number   1
_chemical_formula_structural   Nd3Zn2In3Ir
_chemical_formula_sum   'Nd3 Zn2 In3 Ir1'
_cell_volume   215.66224545
_cell_formula_units_Z   1
loop_
 _symmetry_equiv_pos_site_id
 _symmetry_equiv_pos_as_xyz
  1  'x, y, z'
loop_
 _atom_site_type_symbol
 _atom_site_label
 _atom_site_symmetry_multiplicity
 _atom_site_fract_x
 _atom_site_fract_y
 _atom_site_fract_z
 _atom_site_occupancy
  Nd  Nd0  1  0.583042  0.606458  0.000000  1
  Nd  Nd1  1  0.393542  0.976583  0.000000  1
  Nd  Nd2  1  0.023417  0.416958  0.000000  1
  Zn  Zn3  1  0.000000  0.000000  0.000000  1
  Zn  Zn4  1  0.666667  0.333333  0.500000  1
  In  In5  1  0.997454  0.740126  0.500000  1
  In  In6  1  0.259874  0.257328  0.500000  1
  In  In7  1  0.742672  0.002546  0.500000  1
  Ir  Ir8  1  0.333333  0.666667  0.500000  1
