# generated using pymatgen
data_Y5SiBi2
_symmetry_space_group_name_H-M   'P 1'
_cell_length_a   12.11567600
_cell_length_b   9.20960300
_cell_length_c   8.09115800
_cell_angle_alpha   90.00000000
_cell_angle_beta   90.00000000
_cell_angle_gamma   90.00000000
_symmetry_Int_Tables_number   1
_chemical_formula_structural   Y5SiBi2
_chemical_formula_sum   'Y20 Si4 Bi8'
_cell_volume   902.81598953
_cell_formula_units_Z   4
loop_
 _symmetry_equiv_pos_site_id
 _symmetry_equiv_pos_as_xyz
  1  'x, y, z'
loop_
 _atom_site_type_symbol
 _atom_site_label
 _atom_site_symmetry_multiplicity
 _atom_site_fract_x
 _atom_site_fract_y
 _atom_site_fract_z
 _atom_site_occupancy
  Y  Y0  1  0.062612  0.552502  0.820184  1
  Y  Y1  1  0.562612  0.947498  0.679816  1
  Y  Y2  1  0.937388  0.052502  0.179816  1
  Y  Y3  1  0.437388  0.447498  0.320184  1
  Y  Y4  1  0.937388  0.447498  0.179816  1
  Y  Y5  1  0.437388  0.052502  0.320184  1
  Y  Y6  1  0.062612  0.947498  0.820184  1
  Y  Y7  1  0.562612  0.552502  0.679816  1
  Y  Y8  1  0.000488  0.750000  0.459976  1
  Y  Y9  1  0.500488  0.750000  0.040024  1
  Y  Y10  1  0.999512  0.250000  0.540024  1
  Y  Y11  1  0.499512  0.250000  0.959976  1
  Y  Y12  1  0.210755  0.750000  0.165116  1
  Y  Y13  1  0.710755  0.750000  0.334884  1
  Y  Y14  1  0.789245  0.250000  0.834884  1
  Y  Y15  1  0.289245  0.250000  0.665116  1
  Y  Y16  1  0.295142  0.750000  0.637741  1
  Y  Y17  1  0.795142  0.750000  0.862259  1
  Y  Y18  1  0.704858  0.250000  0.362259  1
  Y  Y19  1  0.204858  0.250000  0.137741  1
  Si  Si20  1  0.478443  0.750000  0.413377  1
  Si  Si21  1  0.978443  0.750000  0.086623  1
  Si  Si22  1  0.521557  0.250000  0.586623  1
  Si  Si23  1  0.021557  0.250000  0.913377  1
  Bi  Bi24  1  0.325598  0.510335  0.933597  1
  Bi  Bi25  1  0.825598  0.989665  0.566403  1
  Bi  Bi26  1  0.674402  0.010335  0.066403  1
  Bi  Bi27  1  0.174402  0.489665  0.433597  1
  Bi  Bi28  1  0.674402  0.489665  0.066403  1
  Bi  Bi29  1  0.174402  0.010335  0.433597  1
  Bi  Bi30  1  0.325598  0.989665  0.933597  1
  Bi  Bi31  1  0.825598  0.510335  0.566403  1
