# generated using pymatgen
data_Eu4ErZn4Au3
_symmetry_space_group_name_H-M   'P 1'
_cell_length_a   4.67723100
_cell_length_b   7.56726094
_cell_length_c   8.06319905
_cell_angle_alpha   89.29113807
_cell_angle_beta   90.00000000
_cell_angle_gamma   90.00000000
_symmetry_Int_Tables_number   1
_chemical_formula_structural   Eu4ErZn4Au3
_chemical_formula_sum   'Eu4 Er1 Zn4 Au3'
_cell_volume   285.36563463
_cell_formula_units_Z   1
loop_
 _symmetry_equiv_pos_site_id
 _symmetry_equiv_pos_as_xyz
  1  'x, y, z'
loop_
 _atom_site_type_symbol
 _atom_site_label
 _atom_site_symmetry_multiplicity
 _atom_site_fract_x
 _atom_site_fract_y
 _atom_site_fract_z
 _atom_site_occupancy
  Eu  Eu0  1  0.250000  0.990280  0.285044  1
  Eu  Eu1  1  0.250000  0.513435  0.194685  1
  Eu  Eu2  1  0.750000  0.976413  0.708153  1
  Eu  Eu3  1  0.750000  0.512563  0.815979  1
  Er  Er4  1  0.250000  0.308835  0.595316  1
  Zn  Zn5  1  0.250000  0.694047  0.582056  1
  Zn  Zn6  1  0.250000  0.172391  0.930533  1
  Zn  Zn7  1  0.750000  0.312004  0.399338  1
  Zn  Zn8  1  0.750000  0.821419  0.082269  1
  Au  Au9  1  0.250000  0.792262  0.909700  1
  Au  Au10  1  0.750000  0.699782  0.407651  1
  Au  Au11  1  0.750000  0.206570  0.089277  1
