# generated using pymatgen
data_Y3Np(BRu)16
_symmetry_space_group_name_H-M   'P 1'
_cell_length_a   7.48117688
_cell_length_b   7.48117621
_cell_length_c   9.20775412
_cell_angle_alpha   113.92012332
_cell_angle_beta   113.92012641
_cell_angle_gamma   90.11010499
_symmetry_Int_Tables_number   1
_chemical_formula_structural   Y3Np(BRu)16
_chemical_formula_sum   'Y3 Np1 B16 Ru16'
_cell_volume   422.00130119
_cell_formula_units_Z   1
loop_
 _symmetry_equiv_pos_site_id
 _symmetry_equiv_pos_as_xyz
  1  'x, y, z'
loop_
 _atom_site_type_symbol
 _atom_site_label
 _atom_site_symmetry_multiplicity
 _atom_site_fract_x
 _atom_site_fract_y
 _atom_site_fract_z
 _atom_site_occupancy
  Y  Y0  1  0.000000  0.500000  0.000000  1
  Y  Y1  1  0.250000  0.250000  0.499999  1
  Y  Y2  1  0.749999  0.749999  0.499999  1
  Np  Np3  1  0.500000  0.000000  0.000000  1
  B  B4  1  0.251508  0.222583  0.167773  1
  B  B5  1  0.752531  0.440481  0.165397  1
  B  B6  1  0.412867  0.724916  0.165397  1
  B  B7  1  0.916265  0.945190  0.167773  1
  B  B8  1  0.838259  0.028979  0.339468  1
  B  B9  1  0.501209  0.310489  0.339468  1
  B  B10  1  0.002547  0.526790  0.336657  1
  B  B11  1  0.334109  0.809866  0.336657  1
  B  B12  1  0.690134  0.165891  0.663344  1
  B  B13  1  0.973209  0.497453  0.663344  1
  B  B14  1  0.471022  0.661742  0.660533  1
  B  B15  1  0.189511  0.998792  0.660533  1
  B  B16  1  0.775084  0.087133  0.834603  1
  B  B17  1  0.277417  0.248492  0.832227  1
  B  B18  1  0.554810  0.583735  0.832227  1
  B  B19  1  0.059519  0.747470  0.834603  1
  Ru  Ru20  1  0.943897  0.208804  0.119569  1
  Ru  Ru21  1  0.448204  0.401359  0.120861  1
  Ru  Ru22  1  0.672657  0.719502  0.120861  1
  Ru  Ru23  1  0.175672  0.910764  0.119569  1
  Ru  Ru24  1  0.572430  0.040789  0.373326  1
  Ru  Ru25  1  0.800896  0.332538  0.373326  1
  Ru  Ru26  1  0.302807  0.541186  0.374617  1
  Ru  Ru27  1  0.071810  0.833430  0.374617  1
  Ru  Ru28  1  0.958813  0.197193  0.625383  1
  Ru  Ru29  1  0.666569  0.428190  0.625383  1
  Ru  Ru30  1  0.167463  0.699104  0.626674  1
  Ru  Ru31  1  0.459211  0.927570  0.626674  1
  Ru  Ru32  1  0.098641  0.051796  0.879139  1
  Ru  Ru33  1  0.589236  0.324328  0.880431  1
  Ru  Ru34  1  0.291196  0.556102  0.880431  1
  Ru  Ru35  1  0.780498  0.827342  0.879139  1
