# generated using pymatgen
data_CaTm(Cu2P)4
_symmetry_space_group_name_H-M   'P 1'
_cell_length_a   7.25657676
_cell_length_b   7.25657676
_cell_length_c   3.79498000
_cell_angle_alpha   90.00000000
_cell_angle_beta   90.00000000
_cell_angle_gamma   89.41437311
_symmetry_Int_Tables_number   1
_chemical_formula_structural   CaTm(Cu2P)4
_chemical_formula_sum   'Ca1 Tm1 Cu8 P4'
_cell_volume   199.82526285
_cell_formula_units_Z   1
loop_
 _symmetry_equiv_pos_site_id
 _symmetry_equiv_pos_as_xyz
  1  'x, y, z'
loop_
 _atom_site_type_symbol
 _atom_site_label
 _atom_site_symmetry_multiplicity
 _atom_site_fract_x
 _atom_site_fract_y
 _atom_site_fract_z
 _atom_site_occupancy
  Ca  Ca0  1  0.500000  0.500000  0.500000  1
  Tm  Tm1  1  0.000000  0.000000  0.000000  1
  Cu  Cu2  1  0.665881  0.916712  0.500000  1
  Cu  Cu3  1  0.162632  0.584415  0.000000  1
  Cu  Cu4  1  0.415585  0.837368  0.000000  1
  Cu  Cu5  1  0.916712  0.665881  0.500000  1
  Cu  Cu6  1  0.837368  0.415585  0.000000  1
  Cu  Cu7  1  0.584415  0.162632  0.000000  1
  Cu  Cu8  1  0.083288  0.334119  0.500000  1
  Cu  Cu9  1  0.334119  0.083288  0.500000  1
  P  P10  1  0.279517  0.279517  0.000000  1
  P  P11  1  0.720483  0.720483  0.000000  1
  P  P12  1  0.787697  0.212303  0.500000  1
  P  P13  1  0.212303  0.787697  0.500000  1
