# generated using pymatgen
data_SrNdLu2(Ir2O7)2
_symmetry_space_group_name_H-M   'P 1'
_cell_length_a   7.25280665
_cell_length_b   7.29377403
_cell_length_c   7.30197305
_cell_angle_alpha   60.26994187
_cell_angle_beta   60.22248351
_cell_angle_gamma   60.18562622
_symmetry_Int_Tables_number   1
_chemical_formula_structural   SrNdLu2(Ir2O7)2
_chemical_formula_sum   'Sr1 Nd1 Lu2 Ir4 O14'
_cell_volume   274.53630935
_cell_formula_units_Z   1
loop_
 _symmetry_equiv_pos_site_id
 _symmetry_equiv_pos_as_xyz
  1  'x, y, z'
loop_
 _atom_site_type_symbol
 _atom_site_label
 _atom_site_symmetry_multiplicity
 _atom_site_fract_x
 _atom_site_fract_y
 _atom_site_fract_z
 _atom_site_occupancy
  Sr  Sr0  1  0.125000  0.625000  0.125000  1
  Nd  Nd1  1  0.125000  0.125000  0.625000  1
  Lu  Lu2  1  0.625000  0.125000  0.125000  1
  Lu  Lu3  1  0.125000  0.125000  0.125000  1
  Ir  Ir4  1  0.125000  0.625000  0.625000  1
  Ir  Ir5  1  0.625000  0.125000  0.625000  1
  Ir  Ir6  1  0.625000  0.625000  0.125000  1
  Ir  Ir7  1  0.625000  0.625000  0.625000  1
  O  O8  1  0.687907  0.725081  0.293112  1
  O  O9  1  0.292651  0.289481  0.720514  1
  O  O10  1  0.697354  0.289481  0.720514  1
  O  O11  1  0.293900  0.725081  0.293112  1
  O  O12  1  0.294352  0.711854  0.699441  1
  O  O13  1  0.707591  0.291224  0.293593  1
  O  O14  1  0.562093  0.524919  0.956888  1
  O  O15  1  0.957349  0.960519  0.529486  1
  O  O16  1  0.552646  0.960519  0.529486  1
  O  O17  1  0.956100  0.524919  0.956888  1
  O  O18  1  0.955648  0.538146  0.550559  1
  O  O19  1  0.542409  0.958776  0.956407  1
  O  O20  1  0.265540  0.226469  0.242449  1
  O  O21  1  0.984460  0.023531  0.007551  1
