# generated using pymatgen
data_Ho3Al2GaGe2Ir
_symmetry_space_group_name_H-M   'P 1'
_cell_length_a   7.00672300
_cell_length_b   6.95830748
_cell_length_c   4.20241700
_cell_angle_alpha   90.00000000
_cell_angle_beta   90.00000000
_cell_angle_gamma   120.23043035
_symmetry_Int_Tables_number   1
_chemical_formula_structural   Ho3Al2GaGe2Ir
_chemical_formula_sum   'Ho3 Al2 Ga1 Ge2 Ir1'
_cell_volume   177.02525651
_cell_formula_units_Z   1
loop_
 _symmetry_equiv_pos_site_id
 _symmetry_equiv_pos_as_xyz
  1  'x, y, z'
loop_
 _atom_site_type_symbol
 _atom_site_label
 _atom_site_symmetry_multiplicity
 _atom_site_fract_x
 _atom_site_fract_y
 _atom_site_fract_z
 _atom_site_occupancy
  Ho  Ho0  1  0.413167  0.000000  0.000000  1
  Ho  Ho1  1  0.997022  0.409377  0.000000  1
  Ho  Ho2  1  0.587645  0.590623  0.000000  1
  Al  Al3  1  0.229606  0.228563  0.500000  1
  Al  Al4  1  0.001043  0.771437  0.500000  1
  Ga  Ga5  1  0.768109  0.000000  0.500000  1
  Ge  Ge6  1  0.666363  0.336857  0.500000  1
  Ge  Ge7  1  0.329506  0.663143  0.500000  1
  Ir  Ir8  1  0.007538  0.000000  0.000000  1
