# generated using pymatgen
data_Y6TlFeCu
_symmetry_space_group_name_H-M   'P 1'
_cell_length_a   8.43086544
_cell_length_b   8.43110109
_cell_length_c   8.43086600
_cell_angle_alpha   111.51889745
_cell_angle_beta   109.09019723
_cell_angle_gamma   107.82537505
_symmetry_Int_Tables_number   1
_chemical_formula_structural   Y6TlFeCu
_chemical_formula_sum   'Y12 Tl2 Fe2 Cu2'
_cell_volume   460.83329662
_cell_formula_units_Z   2
loop_
 _symmetry_equiv_pos_site_id
 _symmetry_equiv_pos_as_xyz
  1  'x, y, z'
loop_
 _atom_site_type_symbol
 _atom_site_label
 _atom_site_symmetry_multiplicity
 _atom_site_fract_x
 _atom_site_fract_y
 _atom_site_fract_z
 _atom_site_occupancy
  Y  Y0  1  0.446592  0.239418  0.207173  1
  Y  Y1  1  0.553408  0.760582  0.792827  1
  Y  Y2  1  0.032245  0.239418  0.792828  1
  Y  Y3  1  0.967755  0.760582  0.207172  1
  Y  Y4  1  0.183257  0.287075  0.470332  1
  Y  Y5  1  0.816743  0.712925  0.529668  1
  Y  Y6  1  0.183258  0.712925  0.896183  1
  Y  Y7  1  0.816742  0.287075  0.103817  1
  Y  Y8  1  0.311755  0.612789  0.301036  1
  Y  Y9  1  0.688245  0.387211  0.698964  1
  Y  Y10  1  0.311754  0.010713  0.698959  1
  Y  Y11  1  0.688246  0.989287  0.301041  1
  Tl  Tl12  1  0.500000  0.500000  0.000000  1
  Tl  Tl13  1  0.000000  0.000000  0.000000  1
  Fe  Fe14  1  0.108381  0.608384  0.500004  1
  Fe  Fe15  1  0.891619  0.391616  0.499996  1
  Cu  Cu16  1  0.364134  0.000000  0.364134  1
  Cu  Cu17  1  0.635866  0.000000  0.635866  1
