# generated using pymatgen
data_YbGdB6Os
_symmetry_space_group_name_H-M   'P 1'
_cell_length_a   3.67747200
_cell_length_b   9.09659600
_cell_length_c   11.47397700
_cell_angle_alpha   90.00000000
_cell_angle_beta   90.00000000
_cell_angle_gamma   90.00000000
_symmetry_Int_Tables_number   1
_chemical_formula_structural   YbGdB6Os
_chemical_formula_sum   'Yb4 Gd4 B24 Os4'
_cell_volume   383.83295267
_cell_formula_units_Z   4
loop_
 _symmetry_equiv_pos_site_id
 _symmetry_equiv_pos_as_xyz
  1  'x, y, z'
loop_
 _atom_site_type_symbol
 _atom_site_label
 _atom_site_symmetry_multiplicity
 _atom_site_fract_x
 _atom_site_fract_y
 _atom_site_fract_z
 _atom_site_occupancy
  Yb  Yb0  1  0.000000  0.942032  0.368307  1
  Yb  Yb1  1  0.000000  0.057968  0.631693  1
  Yb  Yb2  1  0.000000  0.442032  0.131693  1
  Yb  Yb3  1  0.000000  0.557968  0.868307  1
  Gd  Gd4  1  0.000000  0.321737  0.413750  1
  Gd  Gd5  1  0.000000  0.678263  0.586250  1
  Gd  Gd6  1  0.000000  0.821737  0.086250  1
  Gd  Gd7  1  0.000000  0.178263  0.913750  1
  B  B8  1  0.500000  0.554705  0.432235  1
  B  B9  1  0.500000  0.445295  0.567765  1
  B  B10  1  0.500000  0.054705  0.067765  1
  B  B11  1  0.500000  0.945295  0.932235  1
  B  B12  1  0.500000  0.750699  0.417499  1
  B  B13  1  0.500000  0.249301  0.582501  1
  B  B14  1  0.500000  0.250699  0.082501  1
  B  B15  1  0.500000  0.749301  0.917499  1
  B  B16  1  0.500000  0.790527  0.265299  1
  B  B17  1  0.500000  0.209473  0.734701  1
  B  B18  1  0.500000  0.290527  0.234701  1
  B  B19  1  0.500000  0.709473  0.765299  1
  B  B20  1  0.500000  0.629107  0.185733  1
  B  B21  1  0.500000  0.370893  0.814267  1
  B  B22  1  0.500000  0.129107  0.314267  1
  B  B23  1  0.500000  0.870893  0.685733  1
  B  B24  1  0.500000  0.982925  0.212244  1
  B  B25  1  0.500000  0.017075  0.787756  1
  B  B26  1  0.500000  0.482925  0.287756  1
  B  B27  1  0.500000  0.517075  0.712244  1
  B  B28  1  0.500000  0.595487  0.026642  1
  B  B29  1  0.500000  0.404513  0.973358  1
  B  B30  1  0.500000  0.095487  0.473358  1
  B  B31  1  0.500000  0.904513  0.526642  1
  Os  Os32  1  0.000000  0.638175  0.320980  1
  Os  Os33  1  0.000000  0.361825  0.679020  1
  Os  Os34  1  0.000000  0.138175  0.179020  1
  Os  Os35  1  0.000000  0.861825  0.820980  1
