# generated using pymatgen
data_Pr4CuPt5O19
_symmetry_space_group_name_H-M   'P 1'
_cell_length_a   7.83625341
_cell_length_b   7.83625337
_cell_length_c   7.82196412
_cell_angle_alpha   109.64930051
_cell_angle_beta   109.17363818
_cell_angle_gamma   109.66486235
_symmetry_Int_Tables_number   1
_chemical_formula_structural   Pr4CuPt5O19
_chemical_formula_sum   'Pr4 Cu1 Pt5 O19'
_cell_volume   369.40701685
_cell_formula_units_Z   1
loop_
 _symmetry_equiv_pos_site_id
 _symmetry_equiv_pos_as_xyz
  1  'x, y, z'
loop_
 _atom_site_type_symbol
 _atom_site_label
 _atom_site_symmetry_multiplicity
 _atom_site_fract_x
 _atom_site_fract_y
 _atom_site_fract_z
 _atom_site_occupancy
  Pr  Pr0  1  0.675912  0.686540  0.677991  1
  Pr  Pr1  1  0.318637  0.999741  0.998999  1
  Pr  Pr2  1  0.000742  0.319638  0.001001  1
  Pr  Pr3  1  0.008548  0.997920  0.322009  1
  Cu  Cu4  1  0.339809  0.839809  0.500000  1
  Pt  Pt5  1  0.658400  0.158400  0.500000  1
  Pt  Pt6  1  0.844094  0.504030  0.341987  1
  Pt  Pt7  1  0.162043  0.502107  0.658013  1
  Pt  Pt8  1  0.497403  0.334974  0.837107  1
  Pt  Pt9  1  0.497867  0.660296  0.162893  1
  O  O10  1  0.655585  0.655585  0.000000  1
  O  O11  1  0.335295  0.335295  0.000000  1
  O  O12  1  0.659821  0.998540  0.656501  1
  O  O13  1  0.342039  0.003320  0.343499  1
  O  O14  1  0.998099  0.660544  0.660678  1
  O  O15  1  0.999866  0.337420  0.339322  1
  O  O16  1  0.998612  0.998612  0.000000  1
  O  O17  1  0.361563  0.617218  0.330485  1
  O  O18  1  0.640080  0.961231  0.248093  1
  O  O19  1  0.713139  0.391987  0.751907  1
  O  O20  1  0.608273  0.324882  0.360675  1
  O  O21  1  0.286732  0.031078  0.669515  1
  O  O22  1  0.964207  0.247598  0.639325  1
  O  O23  1  0.389018  0.758018  0.715280  1
  O  O24  1  0.042739  0.673739  0.284720  1
  O  O25  1  0.325010  0.361300  0.604542  1
  O  O26  1  0.756757  0.720468  0.395458  1
  O  O27  1  0.675552  0.282220  0.038062  1
  O  O28  1  0.244158  0.637490  0.961938  1
