# generated using pymatgen
data_DyY7Re3B24Ir
_symmetry_space_group_name_H-M   'P 1'
_cell_length_a   3.68230900
_cell_length_b   9.18952818
_cell_length_c   11.57573203
_cell_angle_alpha   90.14634994
_cell_angle_beta   90.00000000
_cell_angle_gamma   90.00000000
_symmetry_Int_Tables_number   1
_chemical_formula_structural   DyY7Re3B24Ir
_chemical_formula_sum   'Dy1 Y7 Re3 B24 Ir1'
_cell_volume   391.70624128
_cell_formula_units_Z   1
loop_
 _symmetry_equiv_pos_site_id
 _symmetry_equiv_pos_as_xyz
  1  'x, y, z'
loop_
 _atom_site_type_symbol
 _atom_site_label
 _atom_site_symmetry_multiplicity
 _atom_site_fract_x
 _atom_site_fract_y
 _atom_site_fract_z
 _atom_site_occupancy
  Dy  Dy0  1  0.000000  0.556645  0.871586  1
  Y  Y1  1  0.000000  0.318336  0.415459  1
  Y  Y2  1  0.000000  0.678490  0.591258  1
  Y  Y3  1  0.000000  0.827148  0.081304  1
  Y  Y4  1  0.000000  0.177085  0.912507  1
  Y  Y5  1  0.000000  0.944333  0.370714  1
  Y  Y6  1  0.000000  0.055647  0.628688  1
  Y  Y7  1  0.000000  0.441369  0.128195  1
  Re  Re8  1  0.000000  0.362800  0.677504  1
  Re  Re9  1  0.000000  0.138137  0.179842  1
  Re  Re10  1  0.000000  0.861794  0.821221  1
  B  B11  1  0.500000  0.553923  0.433584  1
  B  B12  1  0.500000  0.446670  0.566920  1
  B  B13  1  0.500000  0.053489  0.066860  1
  B  B14  1  0.500000  0.946998  0.932395  1
  B  B15  1  0.500000  0.748736  0.420124  1
  B  B16  1  0.500000  0.251154  0.581173  1
  B  B17  1  0.500000  0.248434  0.081342  1
  B  B18  1  0.500000  0.752101  0.918698  1
  B  B19  1  0.500000  0.790849  0.265422  1
  B  B20  1  0.500000  0.208736  0.733849  1
  B  B21  1  0.500000  0.291407  0.234844  1
  B  B22  1  0.500000  0.708358  0.766298  1
  B  B23  1  0.500000  0.631937  0.184545  1
  B  B24  1  0.500000  0.369296  0.813647  1
  B  B25  1  0.500000  0.131205  0.314596  1
  B  B26  1  0.500000  0.868177  0.685963  1
  B  B27  1  0.500000  0.983366  0.211835  1
  B  B28  1  0.500000  0.016961  0.787088  1
  B  B29  1  0.500000  0.483211  0.287893  1
  B  B30  1  0.500000  0.517598  0.712504  1
  B  B31  1  0.500000  0.604732  0.029759  1
  B  B32  1  0.500000  0.396286  0.971582  1
  B  B33  1  0.500000  0.103079  0.470741  1
  B  B34  1  0.500000  0.894024  0.528559  1
  Ir  Ir35  1  0.000000  0.637489  0.321504  1
