# generated using pymatgen
data_Sc2Be4Ru4Au
_symmetry_space_group_name_H-M   'P 1'
_cell_length_a   3.23342600
_cell_length_b   8.56801809
_cell_length_c   10.38220102
_cell_angle_alpha   90.00518352
_cell_angle_beta   90.00000000
_cell_angle_gamma   90.00000000
_symmetry_Int_Tables_number   1
_chemical_formula_structural   Sc2Be4Ru4Au
_chemical_formula_sum   'Sc4 Be8 Ru8 Au2'
_cell_volume   287.62904058
_cell_formula_units_Z   2
loop_
 _symmetry_equiv_pos_site_id
 _symmetry_equiv_pos_as_xyz
  1  'x, y, z'
loop_
 _atom_site_type_symbol
 _atom_site_label
 _atom_site_symmetry_multiplicity
 _atom_site_fract_x
 _atom_site_fract_y
 _atom_site_fract_z
 _atom_site_occupancy
  Sc  Sc0  1  0.500000  0.835627  0.192576  1
  Sc  Sc1  1  0.500000  0.164373  0.807424  1
  Sc  Sc2  1  0.500000  0.664326  0.692632  1
  Sc  Sc3  1  0.500000  0.335674  0.307368  1
  Be  Be4  1  0.500000  0.965094  0.594630  1
  Be  Be5  1  0.500000  0.034906  0.405370  1
  Be  Be6  1  0.500000  0.835728  0.898198  1
  Be  Be7  1  0.500000  0.164272  0.101802  1
  Be  Be8  1  0.500000  0.664321  0.398211  1
  Be  Be9  1  0.500000  0.335679  0.601789  1
  Be  Be10  1  0.500000  0.465144  0.905361  1
  Be  Be11  1  0.500000  0.534856  0.094639  1
  Ru  Ru12  1  0.000000  0.660693  0.958819  1
  Ru  Ru13  1  0.000000  0.339307  0.041181  1
  Ru  Ru14  1  0.000000  0.839315  0.458813  1
  Ru  Ru15  1  0.000000  0.160685  0.541187  1
  Ru  Ru16  1  0.000000  0.409268  0.755200  1
  Ru  Ru17  1  0.000000  0.590732  0.244800  1
  Ru  Ru18  1  0.000000  0.909272  0.744799  1
  Ru  Ru19  1  0.000000  0.090728  0.255201  1
  Au  Au20  1  0.000000  0.000000  0.000000  1
  Au  Au21  1  0.000000  0.500000  0.500000  1
