# generated using pymatgen
data_Ti8VFeBi4
_symmetry_space_group_name_H-M   'P 1'
_cell_length_a   7.89972942
_cell_length_b   7.89972964
_cell_length_c   7.89972929
_cell_angle_alpha   95.84940821
_cell_angle_beta   95.84941449
_cell_angle_gamma   142.76604973
_symmetry_Int_Tables_number   1
_chemical_formula_structural   Ti8VFeBi4
_chemical_formula_sum   'Ti8 V1 Fe1 Bi4'
_cell_volume   282.68443079
_cell_formula_units_Z   1
loop_
 _symmetry_equiv_pos_site_id
 _symmetry_equiv_pos_as_xyz
  1  'x, y, z'
loop_
 _atom_site_type_symbol
 _atom_site_label
 _atom_site_symmetry_multiplicity
 _atom_site_fract_x
 _atom_site_fract_y
 _atom_site_fract_z
 _atom_site_occupancy
  Ti  Ti0  1  0.579500  0.693356  0.274836  1
  Ti  Ti1  1  0.920500  0.195336  0.113857  1
  Ti  Ti2  1  0.304664  0.579500  0.886143  1
  Ti  Ti3  1  0.806644  0.920500  0.725164  1
  Ti  Ti4  1  0.693356  0.418521  0.113857  1
  Ti  Ti5  1  0.081479  0.806644  0.886143  1
  Ti  Ti6  1  0.418521  0.304664  0.725164  1
  Ti  Ti7  1  0.195336  0.081479  0.274836  1
  V  V8  1  0.750000  0.750000  0.000000  1
  Fe  Fe9  1  0.250000  0.250000  0.000000  1
  Bi  Bi10  1  0.360144  0.860144  0.220287  1
  Bi  Bi11  1  0.139856  0.360144  0.500000  1
  Bi  Bi12  1  0.639856  0.139856  0.779713  1
  Bi  Bi13  1  0.860144  0.639856  0.500000  1
