# generated using pymatgen
data_Ba14YBi11
_symmetry_space_group_name_H-M   'P 1'
_cell_length_a   18.69209710
_cell_length_b   18.69209659
_cell_length_c   18.69209700
_cell_angle_alpha   117.45216392
_cell_angle_beta   117.45216311
_cell_angle_gamma   94.47270914
_symmetry_Int_Tables_number   1
_chemical_formula_structural   Ba14YBi11
_chemical_formula_sum   'Ba56 Y4 Bi44'
_cell_volume   4780.14041685
_cell_formula_units_Z   4
loop_
 _symmetry_equiv_pos_site_id
 _symmetry_equiv_pos_as_xyz
  1  'x, y, z'
loop_
 _atom_site_type_symbol
 _atom_site_label
 _atom_site_symmetry_multiplicity
 _atom_site_fract_x
 _atom_site_fract_y
 _atom_site_fract_z
 _atom_site_occupancy
  Ba  Ba0  1  0.591665  0.871614  0.367785  1
  Ba  Ba1  1  0.123964  0.961148  0.520560  1
  Ba  Ba2  1  0.770930  0.375000  0.895930  1
  Ba  Ba3  1  0.125000  0.729070  0.104070  1
  Ba  Ba4  1  0.853405  0.190588  0.979440  1
  Ba  Ba5  1  0.126036  0.146595  0.337184  1
  Ba  Ba6  1  0.354404  0.750107  0.343559  1
  Ba  Ba7  1  0.896595  0.059412  0.520560  1
  Ba  Ba8  1  0.940588  0.461148  0.837184  1
  Ba  Ba9  1  0.038852  0.559412  0.162816  1
  Ba  Ba10  1  0.158335  0.378386  0.132215  1
  Ba  Ba11  1  0.003829  0.371614  0.279948  1
  Ba  Ba12  1  0.440588  0.603405  0.479440  1
  Ba  Ba13  1  0.309412  0.646595  0.020560  1
  Ba  Ba14  1  0.621614  0.753829  0.779948  1
  Ba  Ba15  1  0.246171  0.026119  0.867785  1
  Ba  Ba16  1  0.125000  0.229070  0.604070  1
  Ba  Ba17  1  0.489155  0.093452  0.343559  1
  Ba  Ba18  1  0.406548  0.010845  0.656441  1
  Ba  Ba19  1  0.343452  0.239155  0.843559  1
  Ba  Ba20  1  0.623964  0.103405  0.162816  1
  Ba  Ba21  1  0.479070  0.875000  0.104070  1
  Ba  Ba22  1  0.276119  0.996171  0.367785  1
  Ba  Ba23  1  0.760845  0.604404  0.104297  1
  Ba  Ba24  1  0.625000  0.020930  0.895930  1
  Ba  Ba25  1  0.500107  0.656548  0.895703  1
  Ba  Ba26  1  0.973881  0.841665  0.220052  1
  Ba  Ba27  1  0.989155  0.645596  0.395703  1
  Ba  Ba28  1  0.260845  0.156548  0.156441  1
  Ba  Ba29  1  0.396595  0.876036  0.837184  1
  Ba  Ba30  1  0.625000  0.520930  0.395930  1
  Ba  Ba31  1  0.000107  0.104404  0.843559  1
  Ba  Ba32  1  0.658335  0.526119  0.779948  1
  Ba  Ba33  1  0.628386  0.908335  0.632215  1
  Ba  Ba34  1  0.776119  0.408335  0.279948  1
  Ba  Ba35  1  0.211148  0.873964  0.020560  1
  Ba  Ba36  1  0.906548  0.250107  0.395703  1
  Ba  Ba37  1  0.809412  0.788852  0.662816  1
  Ba  Ba38  1  0.854404  0.510845  0.604297  1
  Ba  Ba39  1  0.746171  0.878386  0.220052  1
  Ba  Ba40  1  0.626036  0.288852  0.979440  1
  Ba  Ba41  1  0.749893  0.145596  0.656441  1
  Ba  Ba42  1  0.128386  0.496171  0.720052  1
  Ba  Ba43  1  0.979070  0.875000  0.604070  1
  Ba  Ba44  1  0.091665  0.723881  0.720052  1
  Ba  Ba45  1  0.121614  0.341665  0.867785  1
  Ba  Ba46  1  0.249893  0.593452  0.604297  1
  Ba  Ba47  1  0.395596  0.499893  0.156441  1
  Ba  Ba48  1  0.353405  0.373964  0.662816  1
  Ba  Ba49  1  0.843452  0.999893  0.104297  1
  Ba  Ba50  1  0.473881  0.253829  0.132215  1
  Ba  Ba51  1  0.270930  0.375000  0.395930  1
  Ba  Ba52  1  0.503829  0.223881  0.632215  1
  Ba  Ba53  1  0.538852  0.376036  0.479440  1
  Ba  Ba54  1  0.895596  0.739155  0.895703  1
  Ba  Ba55  1  0.711148  0.690588  0.337184  1
  Y  Y56  1  0.000000  0.000000  0.000000  1
  Y  Y57  1  0.250000  0.750000  0.500000  1
  Y  Y58  1  0.750000  0.250000  0.500000  1
  Y  Y59  1  0.500000  0.500000  0.000000  1
  Bi  Bi60  1  0.553909  0.697962  0.408743  1
  Bi  Bi61  1  0.131428  0.368572  0.500000  1
  Bi  Bi62  1  0.450238  0.817844  0.641636  1
  Bi  Bi63  1  0.058603  0.926210  0.858364  1
  Bi  Bi64  1  0.299762  0.432156  0.858364  1
  Bi  Bi65  1  0.854835  0.446091  0.144053  1
  Bi  Bi66  1  0.368572  0.868572  0.237144  1
  Bi  Bi67  1  0.250000  0.250000  0.000000  1
  Bi  Bi68  1  0.073790  0.932156  0.132394  1
  Bi  Bi69  1  0.960782  0.052038  0.355947  1
  Bi  Bi70  1  0.302038  0.710782  0.855947  1
  Bi  Bi71  1  0.631428  0.131428  0.762856  1
  Bi  Bi72  1  0.789218  0.197962  0.144053  1
  Bi  Bi73  1  0.881428  0.618572  0.000000  1
  Bi  Bi74  1  0.447962  0.539218  0.644053  1
  Bi  Bi75  1  0.395165  0.039218  0.091257  1
  Bi  Bi76  1  0.289218  0.145165  0.591257  1
  Bi  Bi77  1  0.558603  0.700238  0.132394  1
  Bi  Bi78  1  0.950238  0.308603  0.632394  1
  Bi  Bi79  1  0.691397  0.323790  0.641636  1
  Bi  Bi80  1  0.500000  0.000000  0.500000  1
  Bi  Bi81  1  0.618572  0.881428  0.000000  1
  Bi  Bi82  1  0.460782  0.104835  0.908743  1
  Bi  Bi83  1  0.947962  0.303909  0.908743  1
  Bi  Bi84  1  0.381428  0.381428  0.262856  1
  Bi  Bi85  1  0.182156  0.823790  0.632394  1
  Bi  Bi86  1  0.196091  0.552038  0.091257  1
  Bi  Bi87  1  0.802038  0.946091  0.591257  1
  Bi  Bi88  1  0.682156  0.049762  0.358364  1
  Bi  Bi89  1  0.696091  0.604835  0.644053  1
  Bi  Bi90  1  0.573790  0.441397  0.141636  1
  Bi  Bi91  1  0.895165  0.803909  0.355947  1
  Bi  Bi92  1  0.053909  0.645165  0.855947  1
  Bi  Bi93  1  0.676210  0.317844  0.367606  1
  Bi  Bi94  1  0.799762  0.941397  0.867606  1
  Bi  Bi95  1  0.067844  0.200238  0.141636  1
  Bi  Bi96  1  0.567844  0.426210  0.867606  1
  Bi  Bi97  1  0.176210  0.808603  0.358364  1
  Bi  Bi98  1  0.868572  0.631428  0.500000  1
  Bi  Bi99  1  0.750000  0.750000  0.000000  1
  Bi  Bi100  1  0.118572  0.118572  0.737144  1
  Bi  Bi101  1  0.191397  0.549762  0.367606  1
  Bi  Bi102  1  0.000000  0.500000  0.500000  1
  Bi  Bi103  1  0.354835  0.210782  0.408743  1
