# generated using pymatgen
data_Hf18VCr(Re3Ge)2
_symmetry_space_group_name_H-M   'P 1'
_cell_length_a   8.61647100
_cell_length_b   8.61647008
_cell_length_c   8.57803200
_cell_angle_alpha   90.00000000
_cell_angle_beta   90.00000000
_cell_angle_gamma   119.99999970
_symmetry_Int_Tables_number   1
_chemical_formula_structural   Hf18VCr(Re3Ge)2
_chemical_formula_sum   'Hf18 V1 Cr1 Re6 Ge2'
_cell_volume   551.54012072
_cell_formula_units_Z   1
loop_
 _symmetry_equiv_pos_site_id
 _symmetry_equiv_pos_as_xyz
  1  'x, y, z'
loop_
 _atom_site_type_symbol
 _atom_site_label
 _atom_site_symmetry_multiplicity
 _atom_site_fract_x
 _atom_site_fract_y
 _atom_site_fract_z
 _atom_site_occupancy
  Hf  Hf0  1  0.193620  0.806380  0.453242  1
  Hf  Hf1  1  0.193620  0.387241  0.453242  1
  Hf  Hf2  1  0.612759  0.806380  0.453242  1
  Hf  Hf3  1  0.806380  0.193620  0.546758  1
  Hf  Hf4  1  0.806380  0.612759  0.546758  1
  Hf  Hf5  1  0.387241  0.193620  0.546758  1
  Hf  Hf6  1  0.807765  0.192235  0.952908  1
  Hf  Hf7  1  0.807765  0.615531  0.952908  1
  Hf  Hf8  1  0.384469  0.192235  0.952908  1
  Hf  Hf9  1  0.192235  0.807765  0.047092  1
  Hf  Hf10  1  0.192235  0.384469  0.047092  1
  Hf  Hf11  1  0.615531  0.807765  0.047092  1
  Hf  Hf12  1  0.540467  0.459533  0.249442  1
  Hf  Hf13  1  0.540467  0.080931  0.249442  1
  Hf  Hf14  1  0.919069  0.459533  0.249442  1
  Hf  Hf15  1  0.459533  0.540467  0.750558  1
  Hf  Hf16  1  0.459533  0.919069  0.750558  1
  Hf  Hf17  1  0.080931  0.540467  0.750558  1
  V  V18  1  0.000000  0.000000  0.500000  1
  Cr  Cr19  1  0.000000  0.000000  0.000000  1
  Re  Re20  1  0.892196  0.107804  0.249832  1
  Re  Re21  1  0.892196  0.784392  0.249832  1
  Re  Re22  1  0.215608  0.107804  0.249832  1
  Re  Re23  1  0.107804  0.892196  0.750168  1
  Re  Re24  1  0.107804  0.215608  0.750168  1
  Re  Re25  1  0.784392  0.892196  0.750168  1
  Ge  Ge26  1  0.333333  0.666667  0.249205  1
  Ge  Ge27  1  0.666667  0.333333  0.750795  1
