# generated using pymatgen
data_DyMnFe2P3Ir2
_symmetry_space_group_name_H-M   'P 1'
_cell_length_a   3.76402300
_cell_length_b   10.53279600
_cell_length_c   12.41689800
_cell_angle_alpha   90.00000000
_cell_angle_beta   90.00000000
_cell_angle_gamma   90.00000000
_symmetry_Int_Tables_number   1
_chemical_formula_structural   DyMnFe2P3Ir2
_chemical_formula_sum   'Dy4 Mn4 Fe8 P12 Ir8'
_cell_volume   492.27644415
_cell_formula_units_Z   4
loop_
 _symmetry_equiv_pos_site_id
 _symmetry_equiv_pos_as_xyz
  1  'x, y, z'
loop_
 _atom_site_type_symbol
 _atom_site_label
 _atom_site_symmetry_multiplicity
 _atom_site_fract_x
 _atom_site_fract_y
 _atom_site_fract_z
 _atom_site_occupancy
  Dy  Dy0  1  0.250000  0.578982  0.713852  1
  Dy  Dy1  1  0.250000  0.921018  0.213852  1
  Dy  Dy2  1  0.750000  0.421018  0.286148  1
  Dy  Dy3  1  0.750000  0.078982  0.786148  1
  Mn  Mn4  1  0.250000  0.702643  0.992078  1
  Mn  Mn5  1  0.250000  0.797357  0.492078  1
  Mn  Mn6  1  0.750000  0.297357  0.007922  1
  Mn  Mn7  1  0.750000  0.202643  0.507922  1
  Fe  Fe8  1  0.250000  0.875987  0.693940  1
  Fe  Fe9  1  0.250000  0.624013  0.193940  1
  Fe  Fe10  1  0.750000  0.124013  0.306060  1
  Fe  Fe11  1  0.750000  0.375987  0.806060  1
  Fe  Fe12  1  0.250000  0.460150  0.936313  1
  Fe  Fe13  1  0.250000  0.039850  0.436313  1
  Fe  Fe14  1  0.750000  0.539850  0.063687  1
  Fe  Fe15  1  0.750000  0.960150  0.563687  1
  P  P16  1  0.250000  0.436092  0.110277  1
  P  P17  1  0.250000  0.063908  0.610277  1
  P  P18  1  0.750000  0.563908  0.889723  1
  P  P19  1  0.750000  0.936092  0.389723  1
  P  P20  1  0.250000  0.274078  0.863055  1
  P  P21  1  0.250000  0.225922  0.363055  1
  P  P22  1  0.750000  0.725922  0.136945  1
  P  P23  1  0.750000  0.774078  0.636945  1
  P  P24  1  0.250000  0.599577  0.378630  1
  P  P25  1  0.250000  0.900423  0.878630  1
  P  P26  1  0.750000  0.400423  0.621370  1
  P  P27  1  0.750000  0.099577  0.121370  1
  Ir  Ir28  1  0.250000  0.404043  0.474128  1
  Ir  Ir29  1  0.250000  0.095957  0.974128  1
  Ir  Ir30  1  0.750000  0.595957  0.525872  1
  Ir  Ir31  1  0.750000  0.904043  0.025872  1
  Ir  Ir32  1  0.250000  0.225362  0.172158  1
  Ir  Ir33  1  0.250000  0.274638  0.672158  1
  Ir  Ir34  1  0.750000  0.774638  0.827842  1
  Ir  Ir35  1  0.750000  0.725362  0.327842  1
