# generated using pymatgen
data_Lu12CuNi4Hg
_symmetry_space_group_name_H-M   'P 1'
_cell_length_a   8.09572750
_cell_length_b   8.09572967
_cell_length_c   8.09572700
_cell_angle_alpha   111.06126510
_cell_angle_beta   110.30975352
_cell_angle_gamma   107.06992774
_symmetry_Int_Tables_number   1
_chemical_formula_structural   Lu12CuNi4Hg
_chemical_formula_sum   'Lu12 Cu1 Ni4 Hg1'
_cell_volume   407.90293483
_cell_formula_units_Z   1
loop_
 _symmetry_equiv_pos_site_id
 _symmetry_equiv_pos_as_xyz
  1  'x, y, z'
loop_
 _atom_site_type_symbol
 _atom_site_label
 _atom_site_symmetry_multiplicity
 _atom_site_fract_x
 _atom_site_fract_y
 _atom_site_fract_z
 _atom_site_occupancy
  Lu  Lu0  1  0.422951  0.231030  0.191917  1
  Lu  Lu1  1  0.577049  0.768970  0.808083  1
  Lu  Lu2  1  0.039113  0.231030  0.808078  1
  Lu  Lu3  1  0.960887  0.768970  0.191922  1
  Lu  Lu4  1  0.180393  0.280612  0.461001  1
  Lu  Lu5  1  0.819607  0.719388  0.538999  1
  Lu  Lu6  1  0.180390  0.719388  0.899781  1
  Lu  Lu7  1  0.819610  0.280612  0.100219  1
  Lu  Lu8  1  0.323798  0.628746  0.304947  1
  Lu  Lu9  1  0.676202  0.371254  0.695053  1
  Lu  Lu10  1  0.323812  0.018883  0.695071  1
  Lu  Lu11  1  0.676188  0.981117  0.304929  1
  Cu  Cu12  1  0.000000  0.000000  0.000000  1
  Ni  Ni13  1  0.353661  0.000000  0.353661  1
  Ni  Ni14  1  0.646339  0.000000  0.646339  1
  Ni  Ni15  1  0.120753  0.620705  0.499952  1
  Ni  Ni16  1  0.879247  0.379295  0.500048  1
  Hg  Hg17  1  0.500000  0.500000  0.000000  1
