# generated using pymatgen
data_KLaH6Os
_symmetry_space_group_name_H-M   'P 1'
_cell_length_a   5.37343680
_cell_length_b   5.37343801
_cell_length_c   5.37343800
_cell_angle_alpha   60.00001235
_cell_angle_beta   60.00000490
_cell_angle_gamma   59.99999650
_symmetry_Int_Tables_number   1
_chemical_formula_structural   KLaH6Os
_chemical_formula_sum   'K1 La1 H6 Os1'
_cell_volume   109.70885368
_cell_formula_units_Z   1
loop_
 _symmetry_equiv_pos_site_id
 _symmetry_equiv_pos_as_xyz
  1  'x, y, z'
loop_
 _atom_site_type_symbol
 _atom_site_label
 _atom_site_symmetry_multiplicity
 _atom_site_fract_x
 _atom_site_fract_y
 _atom_site_fract_z
 _atom_site_occupancy
  K  K0  1  0.750000  0.750000  0.750000  1
  La  La1  1  0.250000  0.250000  0.250000  1
  H  H2  1  0.772172  0.772172  0.227828  1
  H  H3  1  0.227828  0.772172  0.227828  1
  H  H4  1  0.772172  0.227828  0.227828  1
  H  H5  1  0.227828  0.227828  0.772172  1
  H  H6  1  0.772172  0.227828  0.772172  1
  H  H7  1  0.227828  0.772172  0.772172  1
  Os  Os8  1  0.000000  0.000000  0.000000  1
