# generated using pymatgen
data_Ca2NdAs4Pd7
_symmetry_space_group_name_H-M   'P 1'
_cell_length_a   8.17026674
_cell_length_b   8.17026699
_cell_length_c   9.69059013
_cell_angle_alpha   55.66689439
_cell_angle_beta   55.66689355
_cell_angle_gamma   29.65647735
_symmetry_Int_Tables_number   1
_chemical_formula_structural   Ca2NdAs4Pd7
_chemical_formula_sum   'Ca2 Nd1 As4 Pd7'
_cell_volume   259.95219228
_cell_formula_units_Z   1
loop_
 _symmetry_equiv_pos_site_id
 _symmetry_equiv_pos_as_xyz
  1  'x, y, z'
loop_
 _atom_site_type_symbol
 _atom_site_label
 _atom_site_symmetry_multiplicity
 _atom_site_fract_x
 _atom_site_fract_y
 _atom_site_fract_z
 _atom_site_occupancy
  Ca  Ca0  1  0.674844  0.674844  0.828650  1
  Ca  Ca1  1  0.325156  0.325156  0.171350  1
  Nd  Nd2  1  0.000000  0.000000  0.500000  1
  As  As3  1  0.338780  0.338780  0.759325  1
  As  As4  1  0.661220  0.661220  0.240675  1
  As  As5  1  0.106715  0.106715  0.678131  1
  As  As6  1  0.893285  0.893285  0.321869  1
  Pd  Pd7  1  0.694933  0.694933  0.469606  1
  Pd  Pd8  1  0.511114  0.511114  0.210849  1
  Pd  Pd9  1  0.172846  0.172846  0.074944  1
  Pd  Pd10  1  0.305067  0.305067  0.530394  1
  Pd  Pd11  1  0.827154  0.827154  0.925056  1
  Pd  Pd12  1  0.000000  0.000000  0.000000  1
  Pd  Pd13  1  0.488886  0.488886  0.789151  1
