# generated using pymatgen
data_AlFe(SeCl7)2
_symmetry_space_group_name_H-M   'P 1'
_cell_length_a   6.38770600
_cell_length_b   6.68299461
_cell_length_c   14.11863000
_cell_angle_alpha   73.26131750
_cell_angle_beta   90.00055612
_cell_angle_gamma   89.90051185
_symmetry_Int_Tables_number   1
_chemical_formula_structural   AlFe(SeCl7)2
_chemical_formula_sum   'Al1 Fe1 Se2 Cl14'
_cell_volume   577.17143387
_cell_formula_units_Z   1
loop_
 _symmetry_equiv_pos_site_id
 _symmetry_equiv_pos_as_xyz
  1  'x, y, z'
loop_
 _atom_site_type_symbol
 _atom_site_label
 _atom_site_symmetry_multiplicity
 _atom_site_fract_x
 _atom_site_fract_y
 _atom_site_fract_z
 _atom_site_occupancy
  Al  Al0  1  0.006566  0.692989  0.164638  1
  Fe  Fe1  1  0.997922  0.693784  0.663932  1
  Se  Se2  1  0.592570  0.995015  0.506643  1
  Se  Se3  1  0.407995  0.996595  0.006887  1
  Cl  Cl4  1  0.403038  0.909980  0.395107  1
  Cl  Cl5  1  0.396519  0.242347  0.533848  1
  Cl  Cl6  1  0.183225  0.196414  0.906356  1
  Cl  Cl7  1  0.813810  0.196964  0.405090  1
  Cl  Cl8  1  0.115192  0.001511  0.165373  1
  Cl  Cl9  1  0.600863  0.245120  0.033619  1
  Cl  Cl10  1  0.124682  0.650254  0.026543  1
  Cl  Cl11  1  0.872457  0.651326  0.523393  1
  Cl  Cl12  1  0.669840  0.674784  0.166505  1
  Cl  Cl13  1  0.341915  0.674192  0.666635  1
  Cl  Cl14  1  0.145206  0.467944  0.287198  1
  Cl  Cl15  1  0.854702  0.462764  0.788505  1
  Cl  Cl16  1  0.594909  0.912664  0.894241  1
  Cl  Cl17  1  0.878590  0.005949  0.665282  1
