# generated using pymatgen
data_Er16Lu4Ir7Pd5
_symmetry_space_group_name_H-M   'P 1'
_cell_length_a   10.88279435
_cell_length_b   10.88279442
_cell_length_c   6.27969500
_cell_angle_alpha   90.01458351
_cell_angle_beta   90.01458351
_cell_angle_gamma   89.76560130
_symmetry_Int_Tables_number   1
_chemical_formula_structural   Er16Lu4Ir7Pd5
_chemical_formula_sum   'Er16 Lu4 Ir7 Pd5'
_cell_volume   743.73074721
_cell_formula_units_Z   1
loop_
 _symmetry_equiv_pos_site_id
 _symmetry_equiv_pos_as_xyz
  1  'x, y, z'
loop_
 _atom_site_type_symbol
 _atom_site_label
 _atom_site_symmetry_multiplicity
 _atom_site_fract_x
 _atom_site_fract_y
 _atom_site_fract_z
 _atom_site_occupancy
  Er  Er0  1  0.295631  0.089444  0.370491  1
  Er  Er1  1  0.295760  0.909275  0.869500  1
  Er  Er2  1  0.703839  0.084470  0.869344  1
  Er  Er3  1  0.703425  0.908893  0.369540  1
  Er  Er4  1  0.582713  0.787717  0.876626  1
  Er  Er5  1  0.580482  0.207553  0.370401  1
  Er  Er6  1  0.416728  0.789634  0.375421  1
  Er  Er7  1  0.411555  0.207983  0.878533  1
  Er  Er8  1  0.212283  0.417287  0.623374  1
  Er  Er9  1  0.210366  0.583272  0.124579  1
  Er  Er10  1  0.792447  0.419518  0.129599  1
  Er  Er11  1  0.792017  0.588445  0.621467  1
  Er  Er12  1  0.910556  0.704369  0.129509  1
  Er  Er13  1  0.915530  0.296161  0.630656  1
  Er  Er14  1  0.090725  0.704240  0.630500  1
  Er  Er15  1  0.091107  0.296575  0.130460  1
  Lu  Lu16  1  0.999090  0.000265  0.499342  1
  Lu  Lu17  1  0.999735  0.000910  0.000658  1
  Lu  Lu18  1  0.497706  0.500886  0.001140  1
  Lu  Lu19  1  0.499114  0.502294  0.498860  1
  Ir  Ir20  1  0.653324  0.651333  0.249625  1
  Ir  Ir21  1  0.348667  0.346676  0.250375  1
  Ir  Ir22  1  0.346364  0.653636  0.750000  1
  Ir  Ir23  1  0.500044  0.000140  0.118374  1
  Ir  Ir24  1  0.499937  0.000606  0.620629  1
  Ir  Ir25  1  0.999394  0.500063  0.879371  1
  Ir  Ir26  1  0.999860  0.499956  0.381626  1
  Pd  Pd27  1  0.846044  0.153956  0.250000  1
  Pd  Pd28  1  0.847884  0.848775  0.751439  1
  Pd  Pd29  1  0.151225  0.152116  0.748561  1
  Pd  Pd30  1  0.151839  0.848161  0.250000  1
  Pd  Pd31  1  0.654610  0.345390  0.750000  1
