# generated using pymatgen
data_CaPd(BrO3)6
_symmetry_space_group_name_H-M   'P 1'
_cell_length_a   9.63165800
_cell_length_b   9.63165743
_cell_length_c   5.75282800
_cell_angle_alpha   90.00000000
_cell_angle_beta   90.00000000
_cell_angle_gamma   119.99998823
_symmetry_Int_Tables_number   1
_chemical_formula_structural   CaPd(BrO3)6
_chemical_formula_sum   'Ca1 Pd1 Br6 O18'
_cell_volume   462.18319814
_cell_formula_units_Z   1
loop_
 _symmetry_equiv_pos_site_id
 _symmetry_equiv_pos_as_xyz
  1  'x, y, z'
loop_
 _atom_site_type_symbol
 _atom_site_label
 _atom_site_symmetry_multiplicity
 _atom_site_fract_x
 _atom_site_fract_y
 _atom_site_fract_z
 _atom_site_occupancy
  Ca  Ca0  1  0.333333  0.666667  0.184919  1
  Pd  Pd1  1  0.666667  0.333333  0.698611  1
  Br  Br2  1  0.689237  0.039672  0.376432  1
  Br  Br3  1  0.339766  0.998889  0.848107  1
  Br  Br4  1  0.001111  0.340877  0.848107  1
  Br  Br5  1  0.350433  0.310763  0.376432  1
  Br  Br6  1  0.960328  0.649567  0.376432  1
  Br  Br7  1  0.659123  0.660234  0.848107  1
  O  O8  1  0.774595  0.799130  0.034487  1
  O  O9  1  0.922247  0.761677  0.548907  1
  O  O10  1  0.839430  0.077753  0.548907  1
  O  O11  1  0.200870  0.975463  0.034487  1
  O  O12  1  0.024537  0.225405  0.034487  1
  O  O13  1  0.238323  0.160570  0.548907  1
  O  O14  1  0.723248  0.518127  0.918842  1
  O  O15  1  0.152541  0.702340  0.422972  1
  O  O16  1  0.549740  0.419254  0.500188  1
  O  O17  1  0.101517  0.528715  0.954691  1
  O  O18  1  0.427198  0.898483  0.954691  1
  O  O19  1  0.580746  0.130487  0.500188  1
  O  O20  1  0.869513  0.450260  0.500188  1
  O  O21  1  0.471285  0.572802  0.954691  1
  O  O22  1  0.297660  0.450199  0.422972  1
  O  O23  1  0.794879  0.276752  0.918842  1
  O  O24  1  0.481873  0.205121  0.918842  1
  O  O25  1  0.549801  0.847459  0.422972  1
