# generated using pymatgen
data_Na3SiMoCO7
_symmetry_space_group_name_H-M   'P 1'
_cell_length_a   6.90629000
_cell_length_b   5.33804767
_cell_length_c   9.09213313
_cell_angle_alpha   92.84397973
_cell_angle_beta   90.00000000
_cell_angle_gamma   90.00000000
_symmetry_Int_Tables_number   1
_chemical_formula_structural   Na3SiMoCO7
_chemical_formula_sum   'Na6 Si2 Mo2 C2 O14'
_cell_volume   334.77869706
_cell_formula_units_Z   2
loop_
 _symmetry_equiv_pos_site_id
 _symmetry_equiv_pos_as_xyz
  1  'x, y, z'
loop_
 _atom_site_type_symbol
 _atom_site_label
 _atom_site_symmetry_multiplicity
 _atom_site_fract_x
 _atom_site_fract_y
 _atom_site_fract_z
 _atom_site_occupancy
  Na  Na0  1  0.250000  0.774017  0.907939  1
  Na  Na1  1  0.019857  0.260813  0.718943  1
  Na  Na2  1  0.480143  0.260813  0.718943  1
  Na  Na3  1  0.519857  0.739187  0.281057  1
  Na  Na4  1  0.980143  0.739187  0.281057  1
  Na  Na5  1  0.750000  0.225983  0.092061  1
  Si  Si6  1  0.250000  0.716713  0.583018  1
  Si  Si7  1  0.750000  0.283287  0.416982  1
  Mo  Mo8  1  0.750000  0.785514  0.661835  1
  Mo  Mo9  1  0.250000  0.214486  0.338165  1
  C  C10  1  0.750000  0.707358  0.948831  1
  C  C11  1  0.250000  0.292642  0.051169  1
  O  O12  1  0.250000  0.324286  0.912838  1
  O  O13  1  0.750000  0.932002  0.896252  1
  O  O14  1  0.750000  0.517023  0.850968  1
  O  O15  1  0.060869  0.795188  0.687028  1
  O  O16  1  0.439131  0.795188  0.687028  1
  O  O17  1  0.250000  0.408335  0.549636  1
  O  O18  1  0.750000  0.147584  0.575129  1
  O  O19  1  0.250000  0.852416  0.424871  1
  O  O20  1  0.750000  0.591665  0.450364  1
  O  O21  1  0.560869  0.204812  0.312972  1
  O  O22  1  0.939131  0.204812  0.312972  1
  O  O23  1  0.250000  0.482977  0.149032  1
  O  O24  1  0.250000  0.067998  0.103748  1
  O  O25  1  0.750000  0.675714  0.087162  1
