# generated using pymatgen
data_Ho14Er2MgIn3Ru4
_symmetry_space_group_name_H-M   'P 1'
_cell_length_a   9.61396457
_cell_length_b   9.58615945
_cell_length_c   9.62946500
_cell_angle_alpha   59.85043881
_cell_angle_beta   59.94664144
_cell_angle_gamma   59.85250134
_symmetry_Int_Tables_number   1
_chemical_formula_structural   Ho14Er2MgIn3Ru4
_chemical_formula_sum   'Ho14 Er2 Mg1 In3 Ru4'
_cell_volume   625.86550748
_cell_formula_units_Z   1
loop_
 _symmetry_equiv_pos_site_id
 _symmetry_equiv_pos_as_xyz
  1  'x, y, z'
loop_
 _atom_site_type_symbol
 _atom_site_label
 _atom_site_symmetry_multiplicity
 _atom_site_fract_x
 _atom_site_fract_y
 _atom_site_fract_z
 _atom_site_occupancy
  Ho  Ho0  1  0.349079  0.960640  0.345140  1
  Ho  Ho1  1  0.955135  0.348578  0.348143  1
  Ho  Ho2  1  0.807798  0.190792  0.192735  1
  Ho  Ho3  1  0.188626  0.810736  0.811278  1
  Ho  Ho4  1  0.188626  0.810736  0.189359  1
  Ho  Ho5  1  0.807798  0.190792  0.808675  1
  Ho  Ho6  1  0.189782  0.188221  0.810998  1
  Ho  Ho7  1  0.808382  0.808265  0.191676  1
  Ho  Ho8  1  0.939992  0.559136  0.558978  1
  Ho  Ho9  1  0.560156  0.939739  0.940500  1
  Ho  Ho10  1  0.560156  0.939739  0.559604  1
  Ho  Ho11  1  0.939992  0.559136  0.941894  1
  Ho  Ho12  1  0.559111  0.560070  0.940409  1
  Ho  Ho13  1  0.941374  0.940946  0.558840  1
  Er  Er14  1  0.347682  0.346652  0.345408  1
  Er  Er15  1  0.347682  0.346652  0.960257  1
  Mg  Mg16  1  0.269469  0.576259  0.577136  1
  In  In17  1  0.580788  0.582357  0.582975  1
  In  In18  1  0.580788  0.582357  0.253881  1
  In  In19  1  0.580697  0.253890  0.582707  1
  Ru  Ru20  1  0.137804  0.141317  0.139284  1
  Ru  Ru21  1  0.137804  0.141317  0.581593  1
  Ru  Ru22  1  0.140182  0.579973  0.139921  1
  Ru  Ru23  1  0.581092  0.141698  0.138605  1
