# generated using pymatgen
data_Pr4(Ga8Pd3)3
_symmetry_space_group_name_H-M   'P 1'
_cell_length_a   7.58678933
_cell_length_b   7.65806297
_cell_length_c   13.55270834
_cell_angle_alpha   85.02700975
_cell_angle_beta   100.30298743
_cell_angle_gamma   119.61972926
_symmetry_Int_Tables_number   1
_chemical_formula_structural   Pr4(Ga8Pd3)3
_chemical_formula_sum   'Pr4 Ga24 Pd9'
_cell_volume   673.47966614
_cell_formula_units_Z   1
loop_
 _symmetry_equiv_pos_site_id
 _symmetry_equiv_pos_as_xyz
  1  'x, y, z'
loop_
 _atom_site_type_symbol
 _atom_site_label
 _atom_site_symmetry_multiplicity
 _atom_site_fract_x
 _atom_site_fract_y
 _atom_site_fract_z
 _atom_site_occupancy
  Pr  Pr0  1  0.437291  0.830869  0.810543  1
  Pr  Pr1  1  0.562709  0.169131  0.189457  1
  Pr  Pr2  1  0.771066  0.503018  0.810869  1
  Pr  Pr3  1  0.228934  0.496982  0.189131  1
  Ga  Ga4  1  0.477434  0.166716  0.941452  1
  Ga  Ga5  1  0.522566  0.833284  0.058548  1
  Ga  Ga6  1  0.021366  0.165757  0.556668  1
  Ga  Ga7  1  0.978634  0.834243  0.443332  1
  Ga  Ga8  1  0.355070  0.833317  0.555013  1
  Ga  Ga9  1  0.644930  0.166683  0.444987  1
  Ga  Ga10  1  0.617967  0.834979  0.328895  1
  Ga  Ga11  1  0.382033  0.165021  0.671105  1
  Ga  Ga12  1  0.058173  0.493969  0.668962  1
  Ga  Ga13  1  0.941827  0.506031  0.331038  1
  Ga  Ga14  1  0.730867  0.838904  0.667460  1
  Ga  Ga15  1  0.269133  0.161096  0.332540  1
  Ga  Ga16  1  0.146059  0.497516  0.942834  1
  Ga  Ga17  1  0.853941  0.502484  0.057166  1
  Ga  Ga18  1  0.817333  0.834865  0.949561  1
  Ga  Ga19  1  0.182667  0.165135  0.050439  1
  Ga  Ga20  1  0.312897  0.500857  0.443911  1
  Ga  Ga21  1  0.687103  0.499143  0.556089  1
  Ga  Ga22  1  0.100254  0.835760  0.182683  1
  Ga  Ga23  1  0.899746  0.164240  0.817317  1
  Ga  Ga24  1  0.306054  0.367785  0.816242  1
  Ga  Ga25  1  0.693946  0.632215  0.183758  1
  Ga  Ga26  1  0.102234  0.962282  0.816303  1
  Ga  Ga27  1  0.897766  0.037718  0.183697  1
  Pd  Pd28  1  0.384751  0.501176  0.636662  1
  Pd  Pd29  1  0.615249  0.498824  0.363338  1
  Pd  Pd30  1  0.171363  0.830315  0.999082  1
  Pd  Pd31  1  0.828637  0.169685  0.000918  1
  Pd  Pd32  1  0.290777  0.833540  0.362037  1
  Pd  Pd33  1  0.709223  0.166460  0.637963  1
  Pd  Pd34  1  0.049939  0.829469  0.636292  1
  Pd  Pd35  1  0.950061  0.170531  0.363708  1
  Pd  Pd36  1  0.500000  0.500000  0.000000  1
