# generated using pymatgen
data_ThAl2Au5
_symmetry_space_group_name_H-M   'P 1'
_cell_length_a   7.33828800
_cell_length_b   8.65879500
_cell_length_c   9.88047300
_cell_angle_alpha   90.00000000
_cell_angle_beta   90.00000000
_cell_angle_gamma   90.00000000
_symmetry_Int_Tables_number   1
_chemical_formula_structural   ThAl2Au5
_chemical_formula_sum   'Th4 Al8 Au20'
_cell_volume   627.81248142
_cell_formula_units_Z   4
loop_
 _symmetry_equiv_pos_site_id
 _symmetry_equiv_pos_as_xyz
  1  'x, y, z'
loop_
 _atom_site_type_symbol
 _atom_site_label
 _atom_site_symmetry_multiplicity
 _atom_site_fract_x
 _atom_site_fract_y
 _atom_site_fract_z
 _atom_site_occupancy
  Th  Th0  1  0.250000  0.253906  0.125455  1
  Th  Th1  1  0.250000  0.753906  0.374545  1
  Th  Th2  1  0.750000  0.746094  0.874545  1
  Th  Th3  1  0.750000  0.246094  0.625455  1
  Al  Al4  1  0.250000  0.049272  0.610993  1
  Al  Al5  1  0.250000  0.549272  0.889007  1
  Al  Al6  1  0.750000  0.950728  0.389007  1
  Al  Al7  1  0.750000  0.450728  0.110993  1
  Al  Al8  1  0.250000  0.354667  0.485716  1
  Al  Al9  1  0.250000  0.854667  0.014284  1
  Al  Al10  1  0.750000  0.645333  0.514284  1
  Al  Al11  1  0.750000  0.145333  0.985716  1
  Au  Au12  1  0.058695  0.105144  0.391976  1
  Au  Au13  1  0.441305  0.605144  0.108024  1
  Au  Au14  1  0.558695  0.894856  0.608024  1
  Au  Au15  1  0.941305  0.394856  0.891976  1
  Au  Au16  1  0.941305  0.894856  0.608024  1
  Au  Au17  1  0.558695  0.394856  0.891976  1
  Au  Au18  1  0.441305  0.105144  0.391976  1
  Au  Au19  1  0.058695  0.605144  0.108024  1
  Au  Au20  1  0.027504  0.054225  0.860115  1
  Au  Au21  1  0.472496  0.554225  0.639885  1
  Au  Au22  1  0.527504  0.945775  0.139885  1
  Au  Au23  1  0.972496  0.445775  0.360115  1
  Au  Au24  1  0.972496  0.945775  0.139885  1
  Au  Au25  1  0.527504  0.445775  0.360115  1
  Au  Au26  1  0.472496  0.054225  0.860115  1
  Au  Au27  1  0.027504  0.554225  0.639885  1
  Au  Au28  1  0.250000  0.295277  0.740449  1
  Au  Au29  1  0.250000  0.795277  0.759551  1
  Au  Au30  1  0.750000  0.704723  0.259551  1
  Au  Au31  1  0.750000  0.204723  0.240449  1
