# generated using pymatgen
data_Er12Ni4SnRh
_symmetry_space_group_name_H-M   'P 1'
_cell_length_a   8.24679983
_cell_length_b   8.24679876
_cell_length_c   8.24680000
_cell_angle_alpha   111.51830434
_cell_angle_beta   110.03133939
_cell_angle_gamma   106.89792158
_symmetry_Int_Tables_number   1
_chemical_formula_structural   Er12Ni4SnRh
_chemical_formula_sum   'Er12 Ni4 Sn1 Rh1'
_cell_volume   431.02638090
_cell_formula_units_Z   1
loop_
 _symmetry_equiv_pos_site_id
 _symmetry_equiv_pos_as_xyz
  1  'x, y, z'
loop_
 _atom_site_type_symbol
 _atom_site_label
 _atom_site_symmetry_multiplicity
 _atom_site_fract_x
 _atom_site_fract_y
 _atom_site_fract_z
 _atom_site_occupancy
  Er  Er0  1  0.320719  0.126433  0.805713  1
  Er  Er1  1  0.679281  0.484995  0.805713  1
  Er  Er2  1  0.406078  0.713960  0.692118  1
  Er  Er3  1  0.593922  0.286040  0.307882  1
  Er  Er4  1  0.978157  0.286040  0.692118  1
  Er  Er5  1  0.021843  0.713960  0.307882  1
  Er  Er6  1  0.320719  0.515005  0.194287  1
  Er  Er7  1  0.679281  0.873567  0.194287  1
  Er  Er8  1  0.182819  0.793850  0.976669  1
  Er  Er9  1  0.817181  0.793850  0.611032  1
  Er  Er10  1  0.182819  0.206150  0.388968  1
  Er  Er11  1  0.817181  0.206150  0.023331  1
  Ni  Ni12  1  0.876234  0.876234  0.000000  1
  Ni  Ni13  1  0.123766  0.123766  0.000000  1
  Ni  Ni14  1  0.636839  0.500000  0.136839  1
  Ni  Ni15  1  0.363161  0.500000  0.863161  1
  Sn  Sn16  1  0.500000  0.000000  0.500000  1
  Rh  Rh17  1  0.000000  0.500000  0.500000  1
