# generated using pymatgen
data_TbLu4GaSb2
_symmetry_space_group_name_H-M   'P 1'
_cell_length_a   8.72172098
_cell_length_b   8.72172122
_cell_length_c   6.30232500
_cell_angle_alpha   90.00000000
_cell_angle_beta   90.00000000
_cell_angle_gamma   120.35900238
_symmetry_Int_Tables_number   1
_chemical_formula_structural   TbLu4GaSb2
_chemical_formula_sum   'Tb2 Lu8 Ga2 Sb4'
_cell_volume   413.66934793
_cell_formula_units_Z   2
loop_
 _symmetry_equiv_pos_site_id
 _symmetry_equiv_pos_as_xyz
  1  'x, y, z'
loop_
 _atom_site_type_symbol
 _atom_site_label
 _atom_site_symmetry_multiplicity
 _atom_site_fract_x
 _atom_site_fract_y
 _atom_site_fract_z
 _atom_site_occupancy
  Tb  Tb0  1  0.761317  0.761317  0.750000  1
  Tb  Tb1  1  0.234873  0.234873  0.250000  1
  Lu  Lu2  1  0.667548  0.327040  0.003874  1
  Lu  Lu3  1  0.327040  0.667548  0.003874  1
  Lu  Lu4  1  0.327040  0.667548  0.496126  1
  Lu  Lu5  1  0.667548  0.327040  0.496126  1
  Lu  Lu6  1  0.239136  0.996366  0.750000  1
  Lu  Lu7  1  0.996366  0.239136  0.750000  1
  Lu  Lu8  1  0.761704  0.014913  0.250000  1
  Lu  Lu9  1  0.014913  0.761704  0.250000  1
  Ga  Ga10  1  0.397201  0.000182  0.250000  1
  Ga  Ga11  1  0.000182  0.397201  0.250000  1
  Sb  Sb12  1  0.390640  0.390640  0.750000  1
  Sb  Sb13  1  0.601499  0.998427  0.750000  1
  Sb  Sb14  1  0.998427  0.601499  0.750000  1
  Sb  Sb15  1  0.614567  0.614567  0.250000  1
