# generated using pymatgen
data_Cs4NpNbCl12
_symmetry_space_group_name_H-M   'P 1'
_cell_length_a   13.25042161
_cell_length_b   13.25042260
_cell_length_c   13.25042100
_cell_angle_alpha   131.79378279
_cell_angle_beta   131.79378661
_cell_angle_gamma   70.55491721
_symmetry_Int_Tables_number   1
_chemical_formula_structural   Cs4NpNbCl12
_chemical_formula_sum   'Cs8 Np2 Nb2 Cl24'
_cell_volume   1266.95815049
_cell_formula_units_Z   2
loop_
 _symmetry_equiv_pos_site_id
 _symmetry_equiv_pos_as_xyz
  1  'x, y, z'
loop_
 _atom_site_type_symbol
 _atom_site_label
 _atom_site_symmetry_multiplicity
 _atom_site_fract_x
 _atom_site_fract_y
 _atom_site_fract_z
 _atom_site_occupancy
  Cs  Cs0  1  0.375000  0.873909  0.998909  1
  Cs  Cs1  1  0.623909  0.625000  0.498909  1
  Cs  Cs2  1  0.875000  0.873909  0.498909  1
  Cs  Cs3  1  0.623909  0.125000  0.998909  1
  Cs  Cs4  1  0.875000  0.376091  0.001091  1
  Cs  Cs5  1  0.126091  0.125000  0.501091  1
  Cs  Cs6  1  0.375000  0.376091  0.501091  1
  Cs  Cs7  1  0.126091  0.625000  0.001091  1
  Np  Np8  1  0.000000  0.000000  0.000000  1
  Np  Np9  1  0.750000  0.250000  0.500000  1
  Nb  Nb10  1  0.500000  0.500000  0.000000  1
  Nb  Nb11  1  0.250000  0.750000  0.500000  1
  Cl  Cl12  1  0.724861  0.500353  0.224509  1
  Cl  Cl13  1  0.499647  0.275139  0.775491  1
  Cl  Cl14  1  0.387077  0.387077  0.000000  1
  Cl  Cl15  1  0.137077  0.637077  0.500000  1
  Cl  Cl16  1  0.362923  0.862923  0.500000  1
  Cl  Cl17  1  0.612923  0.612923  0.000000  1
  Cl  Cl18  1  0.121224  0.121224  0.000000  1
  Cl  Cl19  1  0.871224  0.371224  0.500000  1
  Cl  Cl20  1  0.628776  0.128776  0.500000  1
  Cl  Cl21  1  0.878776  0.878776  0.000000  1
  Cl  Cl22  1  0.242259  0.999118  0.243141  1
  Cl  Cl23  1  0.749118  0.005977  0.256859  1
  Cl  Cl24  1  0.499647  0.724155  0.224509  1
  Cl  Cl25  1  0.507741  0.250882  0.256859  1
  Cl  Cl26  1  0.994023  0.250882  0.743141  1
  Cl  Cl27  1  0.000882  0.244023  0.243141  1
  Cl  Cl28  1  0.000882  0.757741  0.756859  1
  Cl  Cl29  1  0.755977  0.999118  0.756859  1
  Cl  Cl30  1  0.749118  0.492259  0.743141  1
  Cl  Cl31  1  0.250353  0.525845  0.275491  1
  Cl  Cl32  1  0.250353  0.974861  0.724509  1
  Cl  Cl33  1  0.025139  0.749647  0.275491  1
  Cl  Cl34  1  0.474155  0.749647  0.724509  1
  Cl  Cl35  1  0.275845  0.500353  0.775491  1
