# generated using pymatgen
data_Zr2InIrAu
_symmetry_space_group_name_H-M   'P 1'
_cell_length_a   7.68672096
_cell_length_b   7.68672096
_cell_length_c   3.44336200
_cell_angle_alpha   90.00000000
_cell_angle_beta   90.00000000
_cell_angle_gamma   89.60808993
_symmetry_Int_Tables_number   1
_chemical_formula_structural   Zr2InIrAu
_chemical_formula_sum   'Zr4 In2 Ir2 Au2'
_cell_volume   203.44862246
_cell_formula_units_Z   2
loop_
 _symmetry_equiv_pos_site_id
 _symmetry_equiv_pos_as_xyz
  1  'x, y, z'
loop_
 _atom_site_type_symbol
 _atom_site_label
 _atom_site_symmetry_multiplicity
 _atom_site_fract_x
 _atom_site_fract_y
 _atom_site_fract_z
 _atom_site_occupancy
  Zr  Zr0  1  0.181703  0.318297  0.000000  1
  Zr  Zr1  1  0.818297  0.681703  0.000000  1
  Zr  Zr2  1  0.657611  0.157611  0.000000  1
  Zr  Zr3  1  0.342389  0.842389  0.000000  1
  In  In4  1  0.000000  0.000000  0.500000  1
  In  In5  1  0.500000  0.500000  0.500000  1
  Ir  Ir6  1  0.369241  0.130759  0.500000  1
  Ir  Ir7  1  0.630759  0.869241  0.500000  1
  Au  Au8  1  0.870693  0.370693  0.500000  1
  Au  Au9  1  0.129307  0.629307  0.500000  1
