# generated using pymatgen
data_Tb3Dy9Tc3Ru
_symmetry_space_group_name_H-M   'P 1'
_cell_length_a   6.28994718
_cell_length_b   7.40529062
_cell_length_c   9.19985600
_cell_angle_alpha   90.00000000
_cell_angle_beta   90.00000000
_cell_angle_gamma   89.93796088
_symmetry_Int_Tables_number   1
_chemical_formula_structural   Tb3Dy9Tc3Ru
_chemical_formula_sum   'Tb3 Dy9 Tc3 Ru1'
_cell_volume   428.51880075
_cell_formula_units_Z   1
loop_
 _symmetry_equiv_pos_site_id
 _symmetry_equiv_pos_as_xyz
  1  'x, y, z'
loop_
 _atom_site_type_symbol
 _atom_site_label
 _atom_site_symmetry_multiplicity
 _atom_site_fract_x
 _atom_site_fract_y
 _atom_site_fract_z
 _atom_site_occupancy
  Tb  Tb0  1  0.874240  0.542176  0.250000  1
  Tb  Tb1  1  0.625097  0.040823  0.250000  1
  Tb  Tb2  1  0.130996  0.457157  0.750000  1
  Dy  Dy3  1  0.335052  0.676653  0.063588  1
  Dy  Dy4  1  0.163028  0.175503  0.437536  1
  Dy  Dy5  1  0.662491  0.324142  0.562706  1
  Dy  Dy6  1  0.836146  0.824424  0.937492  1
  Dy  Dy7  1  0.662491  0.324142  0.937294  1
  Dy  Dy8  1  0.836146  0.824424  0.562508  1
  Dy  Dy9  1  0.335052  0.676653  0.436412  1
  Dy  Dy10  1  0.163028  0.175503  0.062464  1
  Dy  Dy11  1  0.373318  0.955854  0.750000  1
  Tc  Tc12  1  0.038671  0.886147  0.250000  1
  Tc  Tc13  1  0.462689  0.388111  0.250000  1
  Tc  Tc14  1  0.962391  0.113937  0.750000  1
  Ru  Ru15  1  0.539168  0.614351  0.750000  1
