# generated using pymatgen
data_Tc2O2F11
_symmetry_space_group_name_H-M   'P 1'
_cell_length_a   5.35852237
_cell_length_b   6.32111652
_cell_length_c   9.95910971
_cell_angle_alpha   99.33951188
_cell_angle_beta   105.07308895
_cell_angle_gamma   103.52583306
_symmetry_Int_Tables_number   1
_chemical_formula_structural   Tc2O2F11
_chemical_formula_sum   'Tc2 O2 F11'
_cell_volume   307.62048536
_cell_formula_units_Z   1
loop_
 _symmetry_equiv_pos_site_id
 _symmetry_equiv_pos_as_xyz
  1  'x, y, z'
loop_
 _atom_site_type_symbol
 _atom_site_label
 _atom_site_symmetry_multiplicity
 _atom_site_fract_x
 _atom_site_fract_y
 _atom_site_fract_z
 _atom_site_occupancy
  Tc  Tc0  1  0.933770  0.481631  0.103084  1
  Tc  Tc1  1  0.950755  0.013117  0.524949  1
  O  O2  1  0.694684  0.108207  0.545369  1
  O  O3  1  0.048681  0.219087  0.070084  1
  F  F4  1  0.484619  0.905043  0.938121  1
  F  F5  1  0.252750  0.165846  0.684610  1
  F  F6  1  0.144384  0.182546  0.428838  1
  F  F7  1  0.814267  0.799762  0.350261  1
  F  F8  1  0.093126  0.146049  0.939383  1
  F  F9  1  0.905603  0.449534  0.910158  1
  F  F10  1  0.955847  0.767406  0.604281  1
  F  F11  1  0.199068  0.550083  0.282093  1
  F  F12  1  0.127186  0.774156  0.119696  1
  F  F13  1  0.727052  0.316694  0.196738  1
  F  F14  1  0.613522  0.557890  0.049215  1
