# generated using pymatgen
data_Ac5Si9P3Ir19
_symmetry_space_group_name_H-M   'P 1'
_cell_length_a   13.10556700
_cell_length_b   13.10556592
_cell_length_c   4.05705000
_cell_angle_alpha   90.00000000
_cell_angle_beta   90.00000000
_cell_angle_gamma   120.00000019
_symmetry_Int_Tables_number   1
_chemical_formula_structural   Ac5Si9P3Ir19
_chemical_formula_sum   'Ac5 Si9 P3 Ir19'
_cell_volume   603.46569280
_cell_formula_units_Z   1
loop_
 _symmetry_equiv_pos_site_id
 _symmetry_equiv_pos_as_xyz
  1  'x, y, z'
loop_
 _atom_site_type_symbol
 _atom_site_label
 _atom_site_symmetry_multiplicity
 _atom_site_fract_x
 _atom_site_fract_y
 _atom_site_fract_z
 _atom_site_occupancy
  Ac  Ac0  1  0.666667  0.333333  0.000000  1
  Ac  Ac1  1  0.333333  0.666667  0.000000  1
  Ac  Ac2  1  0.814703  0.814703  0.500000  1
  Ac  Ac3  1  0.185297  0.000000  0.500000  1
  Ac  Ac4  1  0.000000  0.185297  0.500000  1
  Si  Si5  1  0.686686  0.164168  0.500000  1
  Si  Si6  1  0.835832  0.522519  0.500000  1
  Si  Si7  1  0.477481  0.313314  0.500000  1
  Si  Si8  1  0.164168  0.686686  0.500000  1
  Si  Si9  1  0.522519  0.835832  0.500000  1
  Si  Si10  1  0.313314  0.477481  0.500000  1
  Si  Si11  1  0.627088  0.627088  0.000000  1
  Si  Si12  1  0.372912  0.000000  0.000000  1
  Si  Si13  1  0.000000  0.372912  0.000000  1
  P  P14  1  0.184986  0.184986  0.000000  1
  P  P15  1  0.815014  0.000000  0.000000  1
  P  P16  1  0.000000  0.815014  0.000000  1
  Ir  Ir17  1  0.803642  0.179690  0.000000  1
  Ir  Ir18  1  0.820310  0.623951  0.000000  1
  Ir  Ir19  1  0.376049  0.196358  0.000000  1
  Ir  Ir20  1  0.179690  0.803642  0.000000  1
  Ir  Ir21  1  0.623951  0.820310  0.000000  1
  Ir  Ir22  1  0.196358  0.376049  0.000000  1
  Ir  Ir23  1  0.446505  0.446505  0.000000  1
  Ir  Ir24  1  0.553495  0.000000  0.000000  1
  Ir  Ir25  1  0.000000  0.553495  0.000000  1
  Ir  Ir26  1  0.282625  0.282625  0.500000  1
  Ir  Ir27  1  0.717375  0.000000  0.500000  1
  Ir  Ir28  1  0.000000  0.717375  0.500000  1
  Ir  Ir29  1  0.874998  0.361061  0.500000  1
  Ir  Ir30  1  0.638939  0.513938  0.500000  1
  Ir  Ir31  1  0.486062  0.125002  0.500000  1
  Ir  Ir32  1  0.361061  0.874998  0.500000  1
  Ir  Ir33  1  0.513938  0.638939  0.500000  1
  Ir  Ir34  1  0.125002  0.486062  0.500000  1
  Ir  Ir35  1  0.000000  0.000000  0.000000  1
