# generated using pymatgen
data_Dy15Ho5Ir11Au
_symmetry_space_group_name_H-M   'P 1'
_cell_length_a   10.94477207
_cell_length_b   10.94449775
_cell_length_c   6.34643505
_cell_angle_alpha   89.96369188
_cell_angle_beta   89.95665691
_cell_angle_gamma   89.63813858
_symmetry_Int_Tables_number   1
_chemical_formula_structural   Dy15Ho5Ir11Au
_chemical_formula_sum   'Dy15 Ho5 Ir11 Au1'
_cell_volume   760.19240419
_cell_formula_units_Z   1
loop_
 _symmetry_equiv_pos_site_id
 _symmetry_equiv_pos_as_xyz
  1  'x, y, z'
loop_
 _atom_site_type_symbol
 _atom_site_label
 _atom_site_symmetry_multiplicity
 _atom_site_fract_x
 _atom_site_fract_y
 _atom_site_fract_z
 _atom_site_occupancy
  Dy  Dy0  1  0.290262  0.088255  0.376809  1
  Dy  Dy1  1  0.292341  0.911243  0.876167  1
  Dy  Dy2  1  0.704376  0.084899  0.866753  1
  Dy  Dy3  1  0.705919  0.905308  0.380155  1
  Dy  Dy4  1  0.587920  0.790903  0.878734  1
  Dy  Dy5  1  0.580158  0.210041  0.378889  1
  Dy  Dy6  1  0.411124  0.791107  0.377666  1
  Dy  Dy7  1  0.410507  0.208678  0.877731  1
  Dy  Dy8  1  0.209036  0.412009  0.621231  1
  Dy  Dy9  1  0.208849  0.588742  0.122342  1
  Dy  Dy10  1  0.790013  0.419810  0.121115  1
  Dy  Dy11  1  0.791327  0.589456  0.622288  1
  Dy  Dy12  1  0.911816  0.709683  0.123126  1
  Dy  Dy13  1  0.915198  0.295636  0.633251  1
  Dy  Dy14  1  0.088792  0.707679  0.623830  1
  Ho  Ho15  1  0.094707  0.294296  0.119680  1
  Ho  Ho16  1  0.003739  0.996052  0.501711  1
  Ho  Ho17  1  0.003984  0.996370  0.998314  1
  Ho  Ho18  1  0.499308  0.499690  0.999096  1
  Ho  Ho19  1  0.500276  0.500699  0.500918  1
  Ir  Ir20  1  0.846687  0.848088  0.749481  1
  Ir  Ir21  1  0.151835  0.153420  0.750838  1
  Ir  Ir22  1  0.154634  0.845363  0.250002  1
  Ir  Ir23  1  0.654916  0.345097  0.750002  1
  Ir  Ir24  1  0.653596  0.652479  0.248873  1
  Ir  Ir25  1  0.347338  0.346377  0.250999  1
  Ir  Ir26  1  0.346517  0.653468  0.750003  1
  Ir  Ir27  1  0.500705  0.000242  0.124408  1
  Ir  Ir28  1  0.500013  0.000587  0.621313  1
  Ir  Ir29  1  0.999489  0.499812  0.878851  1
  Ir  Ir30  1  0.999838  0.499160  0.375480  1
  Au  Au31  1  0.844780  0.155353  0.249945  1
