# generated using pymatgen
data_Th2Ti3P7Rh9
_symmetry_space_group_name_H-M   'P 1'
_cell_length_a   3.90803600
_cell_length_b   9.71165362
_cell_length_c   9.71211942
_cell_angle_alpha   119.98025735
_cell_angle_beta   89.99959762
_cell_angle_gamma   90.00036234
_symmetry_Int_Tables_number   1
_chemical_formula_structural   Th2Ti3P7Rh9
_chemical_formula_sum   'Th2 Ti3 P7 Rh9'
_cell_volume   319.28811273
_cell_formula_units_Z   1
loop_
 _symmetry_equiv_pos_site_id
 _symmetry_equiv_pos_as_xyz
  1  'x, y, z'
loop_
 _atom_site_type_symbol
 _atom_site_label
 _atom_site_symmetry_multiplicity
 _atom_site_fract_x
 _atom_site_fract_y
 _atom_site_fract_z
 _atom_site_occupancy
  Th  Th0  1  0.261814  0.666626  0.333338  1
  Th  Th1  1  0.761832  0.333389  0.666674  1
  Ti  Ti2  1  0.761996  0.099133  0.879361  1
  Ti  Ti3  1  0.761998  0.120708  0.219729  1
  Ti  Ti4  1  0.762000  0.780252  0.901000  1
  P  P5  1  0.262454  0.999938  0.000027  1
  P  P6  1  0.761837  0.884801  0.597569  1
  P  P7  1  0.761841  0.402182  0.287171  1
  P  P8  1  0.761836  0.712805  0.115195  1
  P  P9  1  0.261814  0.111400  0.409422  1
  P  P10  1  0.261828  0.590573  0.701922  1
  P  P11  1  0.261822  0.298135  0.888644  1
  Rh  Rh12  1  0.261849  0.883103  0.159668  1
  Rh  Rh13  1  0.261894  0.840395  0.723464  1
  Rh  Rh14  1  0.261869  0.276437  0.116817  1
  Rh  Rh15  1  0.761913  0.610638  0.558671  1
  Rh  Rh16  1  0.761881  0.441304  0.051935  1
  Rh  Rh17  1  0.761849  0.948098  0.389419  1
  Rh  Rh18  1  0.261926  0.366963  0.438238  1
  Rh  Rh19  1  0.261894  0.561728  0.928660  1
  Rh  Rh20  1  0.261851  0.071388  0.633077  1
