# generated using pymatgen
data_Pr3Nd2FeReO12
_symmetry_space_group_name_H-M   'P 1'
_cell_length_a   7.08593328
_cell_length_b   7.08593464
_cell_length_c   7.63174600
_cell_angle_alpha   74.35371487
_cell_angle_beta   74.35371179
_cell_angle_gamma   50.80853322
_symmetry_Int_Tables_number   1
_chemical_formula_structural   Pr3Nd2FeReO12
_chemical_formula_sum   'Pr3 Nd2 Fe1 Re1 O12'
_cell_volume   283.44351605
_cell_formula_units_Z   1
loop_
 _symmetry_equiv_pos_site_id
 _symmetry_equiv_pos_as_xyz
  1  'x, y, z'
loop_
 _atom_site_type_symbol
 _atom_site_label
 _atom_site_symmetry_multiplicity
 _atom_site_fract_x
 _atom_site_fract_y
 _atom_site_fract_z
 _atom_site_occupancy
  Pr  Pr0  1  0.691715  0.692141  0.167994  1
  Pr  Pr1  1  0.307859  0.308285  0.832006  1
  Pr  Pr2  1  0.008233  0.991767  0.500000  1
  Nd  Nd3  1  0.318049  0.294016  0.357888  1
  Nd  Nd4  1  0.705984  0.681951  0.642112  1
  Fe  Fe5  1  0.753272  0.246728  0.000000  1
  Re  Re6  1  0.232629  0.767371  0.000000  1
  O  O7  1  0.100812  0.592464  0.572651  1
  O  O8  1  0.009551  0.990627  0.178366  1
  O  O9  1  0.407536  0.899188  0.427349  1
  O  O10  1  0.480068  0.520667  0.176106  1
  O  O11  1  0.102450  0.589874  0.079067  1
  O  O12  1  0.912697  0.401549  0.420264  1
  O  O13  1  0.009373  0.990449  0.821634  1
  O  O14  1  0.598451  0.087302  0.579736  1
  O  O15  1  0.479333  0.519932  0.823894  1
  O  O16  1  0.573798  0.101935  0.079802  1
  O  O17  1  0.410126  0.897550  0.920933  1
  O  O18  1  0.898065  0.426202  0.920198  1
