# generated using pymatgen
data_La3PrC2Br5
_symmetry_space_group_name_H-M   'P 1'
_cell_length_a   4.01750297
_cell_length_b   8.41564116
_cell_length_c   10.09472426
_cell_angle_alpha   106.11868210
_cell_angle_beta   78.52207562
_cell_angle_gamma   90.00000510
_symmetry_Int_Tables_number   1
_chemical_formula_structural   La3PrC2Br5
_chemical_formula_sum   'La3 Pr1 C2 Br5'
_cell_volume   320.77335088
_cell_formula_units_Z   1
loop_
 _symmetry_equiv_pos_site_id
 _symmetry_equiv_pos_as_xyz
  1  'x, y, z'
loop_
 _atom_site_type_symbol
 _atom_site_label
 _atom_site_symmetry_multiplicity
 _atom_site_fract_x
 _atom_site_fract_y
 _atom_site_fract_z
 _atom_site_occupancy
  La  La0  1  0.002250  0.201581  0.995498  1
  La  La1  1  0.003771  0.794959  0.992458  1
  La  La2  1  0.662375  0.888460  0.675250  1
  Pr  Pr3  1  0.346117  0.105595  0.307766  1
  C  C4  1  0.466984  0.022913  0.066031  1
  C  C5  1  0.541392  0.972122  0.917216  1
  Br  Br6  1  0.165996  0.618782  0.668008  1
  Br  Br7  1  0.839841  0.372804  0.320317  1
  Br  Br8  1  0.501914  0.499201  0.996173  1
  Br  Br9  1  0.169437  0.161817  0.661126  1
  Br  Br10  1  0.837522  0.837066  0.324955  1
