# generated using pymatgen
data_Tb3In4CoIr
_symmetry_space_group_name_H-M   'P 1'
_cell_length_a   7.94035300
_cell_length_b   7.94035339
_cell_length_c   3.71784300
_cell_angle_alpha   90.00000000
_cell_angle_beta   90.00000000
_cell_angle_gamma   120.00001086
_symmetry_Int_Tables_number   1
_chemical_formula_structural   Tb3In4CoIr
_chemical_formula_sum   'Tb3 In4 Co1 Ir1'
_cell_volume   203.00244647
_cell_formula_units_Z   1
loop_
 _symmetry_equiv_pos_site_id
 _symmetry_equiv_pos_as_xyz
  1  'x, y, z'
loop_
 _atom_site_type_symbol
 _atom_site_label
 _atom_site_symmetry_multiplicity
 _atom_site_fract_x
 _atom_site_fract_y
 _atom_site_fract_z
 _atom_site_occupancy
  Tb  Tb0  1  0.045009  0.298511  0.500000  1
  Tb  Tb1  1  0.701489  0.746497  0.500000  1
  Tb  Tb2  1  0.253503  0.954991  0.500000  1
  In  In3  1  0.662736  0.082727  0.000000  1
  In  In4  1  0.917273  0.580010  0.000000  1
  In  In5  1  0.419990  0.337264  0.000000  1
  In  In6  1  0.333333  0.666667  0.000000  1
  Co  Co7  1  0.666667  0.333333  0.500000  1
  Ir  Ir8  1  0.000000  0.000000  0.000000  1
