# generated using pymatgen
data_DyNiPH
_symmetry_space_group_name_H-M   'P 1'
_cell_length_a   3.87365700
_cell_length_b   8.06561600
_cell_length_c   6.74113900
_cell_angle_alpha   90.00000000
_cell_angle_beta   90.00000000
_cell_angle_gamma   90.00000000
_symmetry_Int_Tables_number   1
_chemical_formula_structural   DyNiPH
_chemical_formula_sum   'Dy4 Ni4 P4 H4'
_cell_volume   210.61630364
_cell_formula_units_Z   4
loop_
 _symmetry_equiv_pos_site_id
 _symmetry_equiv_pos_as_xyz
  1  'x, y, z'
loop_
 _atom_site_type_symbol
 _atom_site_label
 _atom_site_symmetry_multiplicity
 _atom_site_fract_x
 _atom_site_fract_y
 _atom_site_fract_z
 _atom_site_occupancy
  Dy  Dy0  1  0.750000  0.505224  0.749258  1
  Dy  Dy1  1  0.250000  0.494776  0.250742  1
  Dy  Dy2  1  0.250000  0.994776  0.249258  1
  Dy  Dy3  1  0.750000  0.005224  0.750742  1
  Ni  Ni4  1  0.750000  0.237579  0.414633  1
  Ni  Ni5  1  0.250000  0.762421  0.585367  1
  Ni  Ni6  1  0.250000  0.262421  0.914633  1
  Ni  Ni7  1  0.750000  0.737579  0.085367  1
  P  P8  1  0.750000  0.237399  0.080435  1
  P  P9  1  0.250000  0.762601  0.919565  1
  P  P10  1  0.250000  0.262601  0.580435  1
  P  P11  1  0.750000  0.737399  0.419565  1
  H  H12  1  0.250000  0.959393  0.582795  1
  H  H13  1  0.750000  0.040607  0.417205  1
  H  H14  1  0.750000  0.540607  0.082795  1
  H  H15  1  0.250000  0.459393  0.917205  1
