# generated using pymatgen
data_TbEu2Er(Ga2Ag)4
_symmetry_space_group_name_H-M   'P 1'
_cell_length_a   4.42199100
_cell_length_b   7.04411957
_cell_length_c   10.41870801
_cell_angle_alpha   89.77309951
_cell_angle_beta   90.00000000
_cell_angle_gamma   90.00000000
_symmetry_Int_Tables_number   1
_chemical_formula_structural   TbEu2Er(Ga2Ag)4
_chemical_formula_sum   'Tb1 Eu2 Er1 Ga8 Ag4'
_cell_volume   324.53013812
_cell_formula_units_Z   1
loop_
 _symmetry_equiv_pos_site_id
 _symmetry_equiv_pos_as_xyz
  1  'x, y, z'
loop_
 _atom_site_type_symbol
 _atom_site_label
 _atom_site_symmetry_multiplicity
 _atom_site_fract_x
 _atom_site_fract_y
 _atom_site_fract_z
 _atom_site_occupancy
  Tb  Tb0  1  0.250000  0.283255  0.671231  1
  Eu  Eu1  1  0.750000  0.218310  0.171845  1
  Eu  Eu2  1  0.750000  0.717376  0.328007  1
  Er  Er3  1  0.250000  0.783993  0.828474  1
  Ga  Ga4  1  0.250000  0.921341  0.146949  1
  Ga  Ga5  1  0.750000  0.077829  0.844553  1
  Ga  Ga6  1  0.750000  0.577881  0.655657  1
  Ga  Ga7  1  0.250000  0.419144  0.352952  1
  Ga  Ga8  1  0.250000  0.701756  0.539873  1
  Ga  Ga9  1  0.750000  0.295033  0.468078  1
  Ga  Ga10  1  0.750000  0.798045  0.030780  1
  Ga  Ga11  1  0.250000  0.204141  0.960459  1
  Ag  Ag12  1  0.250000  0.541522  0.094331  1
  Ag  Ag13  1  0.750000  0.462871  0.898500  1
  Ag  Ag14  1  0.750000  0.959254  0.602064  1
  Ag  Ag15  1  0.250000  0.038248  0.406249  1
