# generated using pymatgen
data_PrNdGa12Pd
_symmetry_space_group_name_H-M   'P 1'
_cell_length_a   6.21139500
_cell_length_b   6.21139500
_cell_length_c   15.46835200
_cell_angle_alpha   90.00000000
_cell_angle_beta   90.00000000
_cell_angle_gamma   90.00000000
_symmetry_Int_Tables_number   1
_chemical_formula_structural   PrNdGa12Pd
_chemical_formula_sum   'Pr2 Nd2 Ga24 Pd2'
_cell_volume   596.79110658
_cell_formula_units_Z   2
loop_
 _symmetry_equiv_pos_site_id
 _symmetry_equiv_pos_as_xyz
  1  'x, y, z'
loop_
 _atom_site_type_symbol
 _atom_site_label
 _atom_site_symmetry_multiplicity
 _atom_site_fract_x
 _atom_site_fract_y
 _atom_site_fract_z
 _atom_site_occupancy
  Pr  Pr0  1  0.750000  0.250000  0.245114  1
  Pr  Pr1  1  0.250000  0.750000  0.245114  1
  Nd  Nd2  1  0.250000  0.750000  0.755328  1
  Nd  Nd3  1  0.750000  0.250000  0.755328  1
  Ga  Ga4  1  0.250000  0.250000  0.184764  1
  Ga  Ga5  1  0.750000  0.750000  0.184764  1
  Ga  Ga6  1  0.750000  0.750000  0.814735  1
  Ga  Ga7  1  0.250000  0.250000  0.814735  1
  Ga  Ga8  1  0.250000  0.250000  0.345676  1
  Ga  Ga9  1  0.750000  0.750000  0.345676  1
  Ga  Ga10  1  0.750000  0.750000  0.654588  1
  Ga  Ga11  1  0.250000  0.250000  0.654588  1
  Ga  Ga12  1  0.499867  0.999867  0.911874  1
  Ga  Ga13  1  0.999867  0.000133  0.911874  1
  Ga  Ga14  1  0.500133  0.499867  0.911874  1
  Ga  Ga15  1  0.000133  0.500133  0.911874  1
  Ga  Ga16  1  0.500129  0.000129  0.087324  1
  Ga  Ga17  1  0.000129  0.999871  0.087324  1
  Ga  Ga18  1  0.499871  0.500129  0.087324  1
  Ga  Ga19  1  0.999871  0.499871  0.087324  1
  Ga  Ga20  1  0.580627  0.080627  0.431593  1
  Ga  Ga21  1  0.080627  0.919373  0.431593  1
  Ga  Ga22  1  0.419373  0.580627  0.431593  1
  Ga  Ga23  1  0.919373  0.419373  0.431593  1
  Ga  Ga24  1  0.418318  0.918318  0.569292  1
  Ga  Ga25  1  0.918318  0.081682  0.569292  1
  Ga  Ga26  1  0.581682  0.418318  0.569292  1
  Ga  Ga27  1  0.081682  0.581682  0.569292  1
  Pd  Pd28  1  0.750000  0.250000  0.999630  1
  Pd  Pd29  1  0.250000  0.750000  0.999630  1
