# generated using pymatgen
data_Zr12AlV3(Os2N)4
_symmetry_space_group_name_H-M   'P 1'
_cell_length_a   8.60689039
_cell_length_b   8.60689028
_cell_length_c   8.60688978
_cell_angle_alpha   59.74969997
_cell_angle_beta   59.74969810
_cell_angle_gamma   59.74970249
_symmetry_Int_Tables_number   1
_chemical_formula_structural   Zr12AlV3(Os2N)4
_chemical_formula_sum   'Zr12 Al1 V3 Os8 N4'
_cell_volume   448.27890386
_cell_formula_units_Z   1
loop_
 _symmetry_equiv_pos_site_id
 _symmetry_equiv_pos_as_xyz
  1  'x, y, z'
loop_
 _atom_site_type_symbol
 _atom_site_label
 _atom_site_symmetry_multiplicity
 _atom_site_fract_x
 _atom_site_fract_y
 _atom_site_fract_z
 _atom_site_occupancy
  Zr  Zr0  1  0.807617  0.807617  0.193559  1
  Zr  Zr1  1  0.191327  0.191327  0.808987  1
  Zr  Zr2  1  0.807617  0.193559  0.807617  1
  Zr  Zr3  1  0.191327  0.808987  0.191327  1
  Zr  Zr4  1  0.193559  0.807617  0.807617  1
  Zr  Zr5  1  0.808987  0.191327  0.191327  1
  Zr  Zr6  1  0.442383  0.442383  0.056441  1
  Zr  Zr7  1  0.058673  0.058673  0.441013  1
  Zr  Zr8  1  0.442383  0.056441  0.442383  1
  Zr  Zr9  1  0.058673  0.441013  0.058673  1
  Zr  Zr10  1  0.056441  0.442383  0.442383  1
  Zr  Zr11  1  0.441013  0.058673  0.058673  1
  Al  Al12  1  0.625000  0.625000  0.625000  1
  V  V13  1  0.125000  0.625000  0.625000  1
  V  V14  1  0.625000  0.125000  0.625000  1
  V  V15  1  0.625000  0.625000  0.125000  1
  Os  Os16  1  0.742685  0.416738  0.416738  1
  Os  Os17  1  0.416738  0.742685  0.416738  1
  Os  Os18  1  0.416738  0.416738  0.742685  1
  Os  Os19  1  0.419229  0.419229  0.419229  1
  Os  Os20  1  0.507315  0.833262  0.833262  1
  Os  Os21  1  0.833262  0.507315  0.833262  1
  Os  Os22  1  0.833262  0.833262  0.507315  1
  Os  Os23  1  0.830771  0.830771  0.830771  1
  N  N24  1  0.625000  0.125000  0.125000  1
  N  N25  1  0.125000  0.625000  0.125000  1
  N  N26  1  0.125000  0.125000  0.625000  1
  N  N27  1  0.125000  0.125000  0.125000  1
