# generated using pymatgen
data_Ho2SiRh6
_symmetry_space_group_name_H-M   'P 1'
_cell_length_a   5.97791165
_cell_length_b   5.97803442
_cell_length_c   5.97748600
_cell_angle_alpha   60.00170613
_cell_angle_beta   60.00373162
_cell_angle_gamma   59.99477586
_symmetry_Int_Tables_number   1
_chemical_formula_structural   Ho2SiRh6
_chemical_formula_sum   'Ho2 Si1 Rh6'
_cell_volume   151.04702262
_cell_formula_units_Z   1
loop_
 _symmetry_equiv_pos_site_id
 _symmetry_equiv_pos_as_xyz
  1  'x, y, z'
loop_
 _atom_site_type_symbol
 _atom_site_label
 _atom_site_symmetry_multiplicity
 _atom_site_fract_x
 _atom_site_fract_y
 _atom_site_fract_z
 _atom_site_occupancy
  Ho  Ho0  1  0.250002  0.249998  0.250000  1
  Ho  Ho1  1  0.750003  0.749998  0.750000  1
  Si  Si2  1  0.000004  0.999996  0.000000  1
  Rh  Rh3  1  0.729672  0.270329  0.270327  1
  Rh  Rh4  1  0.270323  0.729677  0.270325  1
  Rh  Rh5  1  0.729664  0.729669  0.270333  1
  Rh  Rh6  1  0.270330  0.270335  0.729668  1
  Rh  Rh7  1  0.729676  0.270325  0.729677  1
  Rh  Rh8  1  0.270326  0.729674  0.729671  1
