# generated using pymatgen
data_Nb12IrOsPt2
_symmetry_space_group_name_H-M   'P 1'
_cell_length_a   5.19922100
_cell_length_b   5.19855800
_cell_length_c   10.39673500
_cell_angle_alpha   90.00000000
_cell_angle_beta   90.00000000
_cell_angle_gamma   90.00000000
_symmetry_Int_Tables_number   1
_chemical_formula_structural   Nb12IrOsPt2
_chemical_formula_sum   'Nb12 Ir1 Os1 Pt2'
_cell_volume   281.00765211
_cell_formula_units_Z   1
loop_
 _symmetry_equiv_pos_site_id
 _symmetry_equiv_pos_as_xyz
  1  'x, y, z'
loop_
 _atom_site_type_symbol
 _atom_site_label
 _atom_site_symmetry_multiplicity
 _atom_site_fract_x
 _atom_site_fract_y
 _atom_site_fract_z
 _atom_site_occupancy
  Nb  Nb0  1  0.500000  0.000000  0.376094  1
  Nb  Nb1  1  0.500000  0.000000  0.875546  1
  Nb  Nb2  1  0.752280  0.500000  0.000000  1
  Nb  Nb3  1  0.751072  0.500000  0.500000  1
  Nb  Nb4  1  0.000000  0.751713  0.248957  1
  Nb  Nb5  1  0.000000  0.751713  0.751043  1
  Nb  Nb6  1  0.500000  0.000000  0.124454  1
  Nb  Nb7  1  0.500000  0.000000  0.623906  1
  Nb  Nb8  1  0.247720  0.500000  0.000000  1
  Nb  Nb9  1  0.248928  0.500000  0.500000  1
  Nb  Nb10  1  0.000000  0.248287  0.248957  1
  Nb  Nb11  1  0.000000  0.248287  0.751043  1
  Ir  Ir12  1  0.000000  0.000000  0.500000  1
  Os  Os13  1  0.000000  0.000000  0.000000  1
  Pt  Pt14  1  0.500000  0.500000  0.250426  1
  Pt  Pt15  1  0.500000  0.500000  0.749574  1
