# generated using pymatgen
data_NdSbH2Pd
_symmetry_space_group_name_H-M   'P 1'
_cell_length_a   4.56715300
_cell_length_b   4.56715280
_cell_length_c   8.50625100
_cell_angle_alpha   90.00000000
_cell_angle_beta   90.00000000
_cell_angle_gamma   120.00000870
_symmetry_Int_Tables_number   1
_chemical_formula_structural   NdSbH2Pd
_chemical_formula_sum   'Nd2 Sb2 H4 Pd2'
_cell_volume   153.65966768
_cell_formula_units_Z   2
loop_
 _symmetry_equiv_pos_site_id
 _symmetry_equiv_pos_as_xyz
  1  'x, y, z'
loop_
 _atom_site_type_symbol
 _atom_site_label
 _atom_site_symmetry_multiplicity
 _atom_site_fract_x
 _atom_site_fract_y
 _atom_site_fract_z
 _atom_site_occupancy
  Nd  Nd0  1  0.000000  0.000000  0.000000  1
  Nd  Nd1  1  0.000000  0.000000  0.500000  1
  Sb  Sb2  1  0.333333  0.666667  0.250000  1
  Sb  Sb3  1  0.666667  0.333333  0.750000  1
  H  H4  1  0.333333  0.666667  0.957957  1
  H  H5  1  0.666667  0.333333  0.042043  1
  H  H6  1  0.333333  0.666667  0.542043  1
  H  H7  1  0.666667  0.333333  0.457957  1
  Pd  Pd8  1  0.666667  0.333333  0.250000  1
  Pd  Pd9  1  0.333333  0.666667  0.750000  1
