# generated using pymatgen
data_Ba2Cd4Au3
_symmetry_space_group_name_H-M   'P 1'
_cell_length_a   15.86273400
_cell_length_b   15.86273620
_cell_length_c   4.56374600
_cell_angle_alpha   90.00000000
_cell_angle_beta   90.00000000
_cell_angle_gamma   120.00000376
_symmetry_Int_Tables_number   1
_chemical_formula_structural   Ba2Cd4Au3
_chemical_formula_sum   'Ba8 Cd16 Au12'
_cell_volume   994.50786955
_cell_formula_units_Z   4
loop_
 _symmetry_equiv_pos_site_id
 _symmetry_equiv_pos_as_xyz
  1  'x, y, z'
loop_
 _atom_site_type_symbol
 _atom_site_label
 _atom_site_symmetry_multiplicity
 _atom_site_fract_x
 _atom_site_fract_y
 _atom_site_fract_z
 _atom_site_occupancy
  Ba  Ba0  1  0.452063  0.000000  0.000000  1
  Ba  Ba1  1  0.000000  0.452063  0.000000  1
  Ba  Ba2  1  0.547937  0.547937  0.000000  1
  Ba  Ba3  1  0.333333  0.666667  0.000000  1
  Ba  Ba4  1  0.666667  0.333333  0.000000  1
  Ba  Ba5  1  0.820619  0.000000  0.500000  1
  Ba  Ba6  1  0.000000  0.820619  0.500000  1
  Ba  Ba7  1  0.179381  0.179381  0.500000  1
  Cd  Cd8  1  0.178015  0.373959  0.000000  1
  Cd  Cd9  1  0.626041  0.804057  0.000000  1
  Cd  Cd10  1  0.373959  0.178015  0.000000  1
  Cd  Cd11  1  0.195943  0.821985  0.000000  1
  Cd  Cd12  1  0.804057  0.626041  0.000000  1
  Cd  Cd13  1  0.821985  0.195943  0.000000  1
  Cd  Cd14  1  0.281029  0.000000  0.500000  1
  Cd  Cd15  1  0.000000  0.281029  0.500000  1
  Cd  Cd16  1  0.718971  0.718971  0.500000  1
  Cd  Cd17  1  0.344132  0.471541  0.500000  1
  Cd  Cd18  1  0.528459  0.872591  0.500000  1
  Cd  Cd19  1  0.471541  0.344132  0.500000  1
  Cd  Cd20  1  0.127409  0.655868  0.500000  1
  Cd  Cd21  1  0.872591  0.528459  0.500000  1
  Cd  Cd22  1  0.655868  0.127409  0.500000  1
  Cd  Cd23  1  0.000000  0.000000  0.000000  1
  Au  Au24  1  0.171952  0.491947  0.500000  1
  Au  Au25  1  0.508053  0.680005  0.500000  1
  Au  Au26  1  0.491947  0.171952  0.500000  1
  Au  Au27  1  0.319995  0.828048  0.500000  1
  Au  Au28  1  0.680005  0.508053  0.500000  1
  Au  Au29  1  0.828048  0.319995  0.500000  1
  Au  Au30  1  0.176017  0.000000  0.000000  1
  Au  Au31  1  0.000000  0.176017  0.000000  1
  Au  Au32  1  0.823983  0.823983  0.000000  1
  Au  Au33  1  0.655313  0.000000  0.000000  1
  Au  Au34  1  0.000000  0.655313  0.000000  1
  Au  Au35  1  0.344687  0.344687  0.000000  1
