# generated using pymatgen
data_Dy4HoEr5Sb6
_symmetry_space_group_name_H-M   'P 1'
_cell_length_a   8.95806800
_cell_length_b   8.96256518
_cell_length_c   6.27105800
_cell_angle_alpha   90.00000000
_cell_angle_beta   90.00000000
_cell_angle_gamma   120.01660597
_symmetry_Int_Tables_number   1
_chemical_formula_structural   Dy4HoEr5Sb6
_chemical_formula_sum   'Dy4 Ho1 Er5 Sb6'
_cell_volume   435.95878666
_cell_formula_units_Z   1
loop_
 _symmetry_equiv_pos_site_id
 _symmetry_equiv_pos_as_xyz
  1  'x, y, z'
loop_
 _atom_site_type_symbol
 _atom_site_label
 _atom_site_symmetry_multiplicity
 _atom_site_fract_x
 _atom_site_fract_y
 _atom_site_fract_z
 _atom_site_occupancy
  Dy  Dy0  1  0.754136  0.753249  0.250000  1
  Dy  Dy1  1  0.754134  0.000950  0.750000  1
  Dy  Dy2  1  0.245866  0.246816  0.750000  1
  Dy  Dy3  1  0.245864  0.999113  0.250000  1
  Ho  Ho4  1  0.000000  0.752300  0.750000  1
  Er  Er5  1  0.000000  0.247441  0.250000  1
  Er  Er6  1  0.334061  0.667047  0.500028  1
  Er  Er7  1  0.665939  0.332986  0.999972  1
  Er  Er8  1  0.665939  0.332986  0.500028  1
  Er  Er9  1  0.334061  0.667047  0.999972  1
  Sb  Sb10  1  0.388843  0.999450  0.750000  1
  Sb  Sb11  1  0.388433  0.389401  0.250000  1
  Sb  Sb12  1  0.000000  0.608851  0.250000  1
  Sb  Sb13  1  0.000000  0.390787  0.750000  1
  Sb  Sb14  1  0.611157  0.610607  0.750000  1
  Sb  Sb15  1  0.611567  0.000970  0.250000  1
