# generated using pymatgen
data_Lu12Tc3Ag2
_symmetry_space_group_name_H-M   'P 1'
_cell_length_a   8.19495482
_cell_length_b   8.19495512
_cell_length_c   8.19495505
_cell_angle_alpha   109.32770188
_cell_angle_beta   109.32770820
_cell_angle_gamma   109.75863035
_symmetry_Int_Tables_number   1
_chemical_formula_structural   Lu12Tc3Ag2
_chemical_formula_sum   'Lu12 Tc3 Ag2'
_cell_volume   423.65238008
_cell_formula_units_Z   1
loop_
 _symmetry_equiv_pos_site_id
 _symmetry_equiv_pos_as_xyz
  1  'x, y, z'
loop_
 _atom_site_type_symbol
 _atom_site_label
 _atom_site_symmetry_multiplicity
 _atom_site_fract_x
 _atom_site_fract_y
 _atom_site_fract_z
 _atom_site_occupancy
  Lu  Lu0  1  0.307539  0.307539  0.615080  1
  Lu  Lu1  1  0.692461  0.692461  0.384920  1
  Lu  Lu2  1  0.692461  0.307539  0.000000  1
  Lu  Lu3  1  0.307539  0.692461  0.000000  1
  Lu  Lu4  1  0.188692  0.433165  0.244473  1
  Lu  Lu5  1  0.811308  0.566835  0.755527  1
  Lu  Lu6  1  0.188692  0.944219  0.755527  1
  Lu  Lu7  1  0.944219  0.188692  0.755527  1
  Lu  Lu8  1  0.811308  0.055781  0.244473  1
  Lu  Lu9  1  0.055781  0.811308  0.244473  1
  Lu  Lu10  1  0.433165  0.188692  0.244473  1
  Lu  Lu11  1  0.566835  0.811308  0.755527  1
  Tc  Tc12  1  0.364950  0.364950  0.000000  1
  Tc  Tc13  1  0.635050  0.635050  0.000000  1
  Tc  Tc14  1  0.000000  0.000000  0.000000  1
  Ag  Ag15  1  0.000000  0.500000  0.500000  1
  Ag  Ag16  1  0.500000  0.000000  0.500000  1
