# generated using pymatgen
data_Ho3Tm(Ir2O7)2
_symmetry_space_group_name_H-M   'P 1'
_cell_length_a   7.20590792
_cell_length_b   7.22581388
_cell_length_c   7.22581300
_cell_angle_alpha   59.99999947
_cell_angle_beta   59.90857617
_cell_angle_gamma   59.90857942
_symmetry_Int_Tables_number   1
_chemical_formula_structural   Ho3Tm(Ir2O7)2
_chemical_formula_sum   'Ho3 Tm1 Ir4 O14'
_cell_volume   265.67193897
_cell_formula_units_Z   1
loop_
 _symmetry_equiv_pos_site_id
 _symmetry_equiv_pos_as_xyz
  1  'x, y, z'
loop_
 _atom_site_type_symbol
 _atom_site_label
 _atom_site_symmetry_multiplicity
 _atom_site_fract_x
 _atom_site_fract_y
 _atom_site_fract_z
 _atom_site_occupancy
  Ho  Ho0  1  0.125000  0.625000  0.125000  1
  Ho  Ho1  1  0.125000  0.125000  0.625000  1
  Ho  Ho2  1  0.125000  0.125000  0.125000  1
  Tm  Tm3  1  0.625000  0.125000  0.125000  1
  Ir  Ir4  1  0.125000  0.625000  0.625000  1
  Ir  Ir5  1  0.625000  0.125000  0.625000  1
  Ir  Ir6  1  0.625000  0.625000  0.125000  1
  Ir  Ir7  1  0.625000  0.625000  0.625000  1
  O  O8  1  0.710076  0.716499  0.286713  1
  O  O9  1  0.286235  0.286051  0.713857  1
  O  O10  1  0.710076  0.286713  0.716499  1
  O  O11  1  0.286235  0.713857  0.286051  1
  O  O12  1  0.286235  0.713857  0.713857  1
  O  O13  1  0.710076  0.286713  0.286713  1
  O  O14  1  0.539924  0.533501  0.963287  1
  O  O15  1  0.963765  0.963949  0.536143  1
  O  O16  1  0.539924  0.963287  0.533501  1
  O  O17  1  0.963765  0.536143  0.963949  1
  O  O18  1  0.963765  0.536143  0.536143  1
  O  O19  1  0.539924  0.963287  0.963287  1
  O  O20  1  0.252243  0.249252  0.249252  1
  O  O21  1  0.997757  0.000748  0.000748  1
