# generated using pymatgen
data_EuHoSc3Si7Pt9
_symmetry_space_group_name_H-M   'P 1'
_cell_length_a   10.09085000
_cell_length_b   10.09085098
_cell_length_c   3.99872900
_cell_angle_alpha   90.00000000
_cell_angle_beta   90.00000000
_cell_angle_gamma   120.00000334
_symmetry_Int_Tables_number   1
_chemical_formula_structural   EuHoSc3Si7Pt9
_chemical_formula_sum   'Eu1 Ho1 Sc3 Si7 Pt9'
_cell_volume   352.62096733
_cell_formula_units_Z   1
loop_
 _symmetry_equiv_pos_site_id
 _symmetry_equiv_pos_as_xyz
  1  'x, y, z'
loop_
 _atom_site_type_symbol
 _atom_site_label
 _atom_site_symmetry_multiplicity
 _atom_site_fract_x
 _atom_site_fract_y
 _atom_site_fract_z
 _atom_site_occupancy
  Eu  Eu0  1  0.000000  0.000000  0.000000  1
  Ho  Ho1  1  0.333333  0.666667  0.500000  1
  Sc  Sc2  1  0.894524  0.455747  0.500000  1
  Sc  Sc3  1  0.561223  0.105476  0.500000  1
  Sc  Sc4  1  0.544253  0.438777  0.500000  1
  Si  Si5  1  0.247197  0.196279  0.500000  1
  Si  Si6  1  0.803721  0.050919  0.500000  1
  Si  Si7  1  0.949081  0.752803  0.500000  1
  Si  Si8  1  0.556296  0.647076  0.000000  1
  Si  Si9  1  0.352924  0.909219  0.000000  1
  Si  Si10  1  0.090781  0.443704  0.000000  1
  Si  Si11  1  0.666667  0.333333  0.000000  1
  Pt  Pt12  1  0.222213  0.935044  0.500000  1
  Pt  Pt13  1  0.064956  0.287170  0.500000  1
  Pt  Pt14  1  0.712830  0.777787  0.500000  1
  Pt  Pt15  1  0.314024  0.412694  0.000000  1
  Pt  Pt16  1  0.587306  0.901330  0.000000  1
  Pt  Pt17  1  0.098670  0.685976  0.000000  1
  Pt  Pt18  1  0.385762  0.172966  0.000000  1
  Pt  Pt19  1  0.827034  0.212795  0.000000  1
  Pt  Pt20  1  0.787205  0.614238  0.000000  1
