# generated using pymatgen
data_Y2Er2MgSn4
_symmetry_space_group_name_H-M   'P 1'
_cell_length_a   7.65901300
_cell_length_b   8.22536400
_cell_length_c   15.23603800
_cell_angle_alpha   90.00000000
_cell_angle_beta   90.00000000
_cell_angle_gamma   90.00000000
_symmetry_Int_Tables_number   1
_chemical_formula_structural   Y2Er2MgSn4
_chemical_formula_sum   'Y8 Er8 Mg4 Sn16'
_cell_volume   959.84250909
_cell_formula_units_Z   4
loop_
 _symmetry_equiv_pos_site_id
 _symmetry_equiv_pos_as_xyz
  1  'x, y, z'
loop_
 _atom_site_type_symbol
 _atom_site_label
 _atom_site_symmetry_multiplicity
 _atom_site_fract_x
 _atom_site_fract_y
 _atom_site_fract_z
 _atom_site_occupancy
  Y  Y0  1  0.998811  0.184618  0.090821  1
  Y  Y1  1  0.001189  0.815382  0.909179  1
  Y  Y2  1  0.501189  0.684618  0.909179  1
  Y  Y3  1  0.001189  0.815382  0.590821  1
  Y  Y4  1  0.498811  0.315382  0.090821  1
  Y  Y5  1  0.998811  0.184618  0.409179  1
  Y  Y6  1  0.498811  0.315382  0.409179  1
  Y  Y7  1  0.501189  0.684618  0.590821  1
  Er  Er8  1  0.335197  0.169109  0.628845  1
  Er  Er9  1  0.664803  0.830891  0.371155  1
  Er  Er10  1  0.164803  0.669109  0.371155  1
  Er  Er11  1  0.664803  0.830891  0.128845  1
  Er  Er12  1  0.835197  0.330891  0.628845  1
  Er  Er13  1  0.335197  0.169109  0.871155  1
  Er  Er14  1  0.835197  0.330891  0.871155  1
  Er  Er15  1  0.164803  0.669109  0.128845  1
  Mg  Mg16  1  0.159193  0.505006  0.750000  1
  Mg  Mg17  1  0.840807  0.494994  0.250000  1
  Mg  Mg18  1  0.340807  0.005006  0.250000  1
  Mg  Mg19  1  0.659193  0.994994  0.750000  1
  Sn  Sn20  1  0.022085  0.092665  0.750000  1
  Sn  Sn21  1  0.977915  0.907335  0.250000  1
  Sn  Sn22  1  0.477915  0.592665  0.250000  1
  Sn  Sn23  1  0.522085  0.407335  0.750000  1
  Sn  Sn24  1  0.181813  0.462383  0.538544  1
  Sn  Sn25  1  0.818187  0.537617  0.461456  1
  Sn  Sn26  1  0.318187  0.962383  0.461456  1
  Sn  Sn27  1  0.818187  0.537617  0.038544  1
  Sn  Sn28  1  0.681813  0.037617  0.538544  1
  Sn  Sn29  1  0.181813  0.462383  0.961456  1
  Sn  Sn30  1  0.681813  0.037617  0.961456  1
  Sn  Sn31  1  0.318187  0.962383  0.038544  1
  Sn  Sn32  1  0.302357  0.848062  0.750000  1
  Sn  Sn33  1  0.697643  0.151938  0.250000  1
  Sn  Sn34  1  0.197643  0.348062  0.250000  1
  Sn  Sn35  1  0.802357  0.651938  0.750000  1
