# generated using pymatgen
data_La3Yb5Zn3Si12Rh
_symmetry_space_group_name_H-M   'P 1'
_cell_length_a   8.22284505
_cell_length_b   8.22284479
_cell_length_c   8.58033500
_cell_angle_alpha   89.99387524
_cell_angle_beta   90.00612476
_cell_angle_gamma   120.01682263
_symmetry_Int_Tables_number   1
_chemical_formula_structural   La3Yb5Zn3Si12Rh
_chemical_formula_sum   'La3 Yb5 Zn3 Si12 Rh1'
_cell_volume   502.34886672
_cell_formula_units_Z   1
loop_
 _symmetry_equiv_pos_site_id
 _symmetry_equiv_pos_as_xyz
  1  'x, y, z'
loop_
 _atom_site_type_symbol
 _atom_site_label
 _atom_site_symmetry_multiplicity
 _atom_site_fract_x
 _atom_site_fract_y
 _atom_site_fract_z
 _atom_site_occupancy
  La  La0  1  0.999831  0.000169  0.752187  1
  La  La1  1  0.000159  0.999841  0.248710  1
  La  La2  1  0.496434  0.503566  0.754888  1
  Yb  Yb3  1  0.496467  0.992732  0.756765  1
  Yb  Yb4  1  0.007268  0.503533  0.756765  1
  Yb  Yb5  1  0.496066  0.503934  0.243687  1
  Yb  Yb6  1  0.007342  0.503703  0.243112  1
  Yb  Yb7  1  0.496297  0.992658  0.243112  1
  Zn  Zn8  1  0.667727  0.332273  0.001209  1
  Zn  Zn9  1  0.667931  0.332069  0.499005  1
  Zn  Zn10  1  0.332000  0.668000  0.494366  1
  Si  Si11  1  0.837084  0.162916  0.000738  1
  Si  Si12  1  0.837301  0.674285  0.002071  1
  Si  Si13  1  0.325715  0.162699  0.002071  1
  Si  Si14  1  0.834223  0.165777  0.498614  1
  Si  Si15  1  0.834121  0.668023  0.498073  1
  Si  Si16  1  0.331977  0.165879  0.498073  1
  Si  Si17  1  0.165896  0.834104  0.500621  1
  Si  Si18  1  0.667529  0.834034  0.499228  1
  Si  Si19  1  0.165966  0.332471  0.499228  1
  Si  Si20  1  0.170085  0.829915  0.999913  1
  Si  Si21  1  0.661144  0.831649  0.002531  1
  Si  Si22  1  0.168351  0.338856  0.002531  1
  Rh  Rh23  1  0.333087  0.666913  0.002505  1
