# generated using pymatgen
data_HoTm11Os4
_symmetry_space_group_name_H-M   'P 1'
_cell_length_a   7.34720418
_cell_length_b   8.89814000
_cell_length_c   6.23068480
_cell_angle_alpha   90.00000000
_cell_angle_beta   90.01629434
_cell_angle_gamma   90.00000000
_symmetry_Int_Tables_number   1
_chemical_formula_structural   HoTm11Os4
_chemical_formula_sum   'Ho1 Tm11 Os4'
_cell_volume   407.34004530
_cell_formula_units_Z   1
loop_
 _symmetry_equiv_pos_site_id
 _symmetry_equiv_pos_as_xyz
  1  'x, y, z'
loop_
 _atom_site_type_symbol
 _atom_site_label
 _atom_site_symmetry_multiplicity
 _atom_site_fract_x
 _atom_site_fract_y
 _atom_site_fract_z
 _atom_site_occupancy
  Ho  Ho0  1  0.960439  0.750000  0.371753  1
  Tm  Tm1  1  0.674921  0.062371  0.333549  1
  Tm  Tm2  1  0.174749  0.437662  0.166524  1
  Tm  Tm3  1  0.325094  0.562384  0.666352  1
  Tm  Tm4  1  0.825155  0.937744  0.833516  1
  Tm  Tm5  1  0.325094  0.937616  0.666352  1
  Tm  Tm6  1  0.825155  0.562256  0.833516  1
  Tm  Tm7  1  0.674921  0.437629  0.333549  1
  Tm  Tm8  1  0.174749  0.062338  0.166524  1
  Tm  Tm9  1  0.539583  0.250000  0.871651  1
  Tm  Tm10  1  0.039682  0.250000  0.628368  1
  Tm  Tm11  1  0.460448  0.750000  0.128360  1
  Os  Os12  1  0.882847  0.250000  0.038297  1
  Os  Os13  1  0.382918  0.250000  0.461652  1
  Os  Os14  1  0.117419  0.750000  0.961763  1
  Os  Os15  1  0.616827  0.750000  0.538275  1
