# generated using pymatgen
data_Cs5Mn2CoS7
_symmetry_space_group_name_H-M   'P 1'
_cell_length_a   10.70174879
_cell_length_b   10.70174895
_cell_length_c   9.12196303
_cell_angle_alpha   78.52352585
_cell_angle_beta   78.52352743
_cell_angle_gamma   73.10969005
_symmetry_Int_Tables_number   1
_chemical_formula_structural   Cs5Mn2CoS7
_chemical_formula_sum   'Cs10 Mn4 Co2 S14'
_cell_volume   968.49931080
_cell_formula_units_Z   2
loop_
 _symmetry_equiv_pos_site_id
 _symmetry_equiv_pos_as_xyz
  1  'x, y, z'
loop_
 _atom_site_type_symbol
 _atom_site_label
 _atom_site_symmetry_multiplicity
 _atom_site_fract_x
 _atom_site_fract_y
 _atom_site_fract_z
 _atom_site_occupancy
  Cs  Cs0  1  0.034386  0.424162  0.729827  1
  Cs  Cs1  1  0.424162  0.034386  0.729827  1
  Cs  Cs2  1  0.965614  0.575838  0.270173  1
  Cs  Cs3  1  0.575838  0.965614  0.270173  1
  Cs  Cs4  1  0.287794  0.712206  0.000000  1
  Cs  Cs5  1  0.712206  0.287794  0.000000  1
  Cs  Cs6  1  0.845056  0.154944  0.500000  1
  Cs  Cs7  1  0.154944  0.845056  0.500000  1
  Cs  Cs8  1  0.426808  0.426808  0.700210  1
  Cs  Cs9  1  0.573192  0.573192  0.299790  1
  Mn  Mn10  1  0.077558  0.077558  0.066175  1
  Mn  Mn11  1  0.922442  0.922442  0.933825  1
  Mn  Mn12  1  0.331843  0.331843  0.325452  1
  Mn  Mn13  1  0.668157  0.668157  0.674548  1
  Co  Co14  1  0.206961  0.206961  0.190193  1
  Co  Co15  1  0.793039  0.793039  0.809807  1
  S  S16  1  0.003853  0.281021  0.126321  1
  S  S17  1  0.281021  0.003853  0.126321  1
  S  S18  1  0.996147  0.718979  0.873679  1
  S  S19  1  0.718979  0.996147  0.873679  1
  S  S20  1  0.203373  0.203373  0.436366  1
  S  S21  1  0.796627  0.796627  0.563634  1
  S  S22  1  0.058144  0.058144  0.825594  1
  S  S23  1  0.941856  0.941856  0.174406  1
  S  S24  1  0.338876  0.338876  0.081154  1
  S  S25  1  0.661124  0.661124  0.918846  1
  S  S26  1  0.259821  0.530086  0.393210  1
  S  S27  1  0.530086  0.259821  0.393210  1
  S  S28  1  0.740179  0.469914  0.606790  1
  S  S29  1  0.469914  0.740179  0.606790  1
