# generated using pymatgen
data_TlV(CO3)2
_symmetry_space_group_name_H-M   'P 1'
_cell_length_a   7.05992965
_cell_length_b   7.06014323
_cell_length_c   7.05989500
_cell_angle_alpha   40.43409054
_cell_angle_beta   40.43405839
_cell_angle_gamma   40.43329482
_symmetry_Int_Tables_number   1
_chemical_formula_structural   TlV(CO3)2
_chemical_formula_sum   'Tl1 V1 C2 O6'
_cell_volume   133.48313834
_cell_formula_units_Z   1
loop_
 _symmetry_equiv_pos_site_id
 _symmetry_equiv_pos_as_xyz
  1  'x, y, z'
loop_
 _atom_site_type_symbol
 _atom_site_label
 _atom_site_symmetry_multiplicity
 _atom_site_fract_x
 _atom_site_fract_y
 _atom_site_fract_z
 _atom_site_occupancy
  Tl  Tl0  1  0.000000  0.000000  0.000000  1
  V  V1  1  0.500000  0.500000  0.500000  1
  C  C2  1  0.227158  0.225069  0.224803  1
  C  C3  1  0.772842  0.774931  0.775197  1
  O  O4  1  0.717658  0.538502  0.062739  1
  O  O5  1  0.465770  0.940701  0.277360  1
  O  O6  1  0.941659  0.281147  0.460795  1
  O  O7  1  0.058341  0.718853  0.539205  1
  O  O8  1  0.534231  0.059299  0.722640  1
  O  O9  1  0.282343  0.461499  0.937261  1
