# generated using pymatgen
data_Hf2TiRh5
_symmetry_space_group_name_H-M   'P 1'
_cell_length_a   4.22143300
_cell_length_b   5.56036200
_cell_length_c   10.80853700
_cell_angle_alpha   90.00000000
_cell_angle_beta   90.00000000
_cell_angle_gamma   90.00000000
_symmetry_Int_Tables_number   1
_chemical_formula_structural   Hf2TiRh5
_chemical_formula_sum   'Hf4 Ti2 Rh10'
_cell_volume   253.70549930
_cell_formula_units_Z   2
loop_
 _symmetry_equiv_pos_site_id
 _symmetry_equiv_pos_as_xyz
  1  'x, y, z'
loop_
 _atom_site_type_symbol
 _atom_site_label
 _atom_site_symmetry_multiplicity
 _atom_site_fract_x
 _atom_site_fract_y
 _atom_site_fract_z
 _atom_site_occupancy
  Hf  Hf0  1  0.500000  0.158877  0.643869  1
  Hf  Hf1  1  0.500000  0.841123  0.356131  1
  Hf  Hf2  1  0.500000  0.658877  0.856131  1
  Hf  Hf3  1  0.500000  0.341123  0.143869  1
  Ti  Ti4  1  0.000000  0.500000  0.500000  1
  Ti  Ti5  1  0.000000  0.000000  0.000000  1
  Rh  Rh6  1  0.500000  0.176081  0.896072  1
  Rh  Rh7  1  0.500000  0.823919  0.103928  1
  Rh  Rh8  1  0.500000  0.676081  0.603928  1
  Rh  Rh9  1  0.500000  0.323919  0.396072  1
  Rh  Rh10  1  0.000000  0.403978  0.738406  1
  Rh  Rh11  1  0.000000  0.596022  0.261594  1
  Rh  Rh12  1  0.000000  0.000000  0.500000  1
  Rh  Rh13  1  0.000000  0.500000  0.000000  1
  Rh  Rh14  1  0.000000  0.096022  0.238406  1
  Rh  Rh15  1  0.000000  0.903978  0.761594  1
