# generated using pymatgen
data_TmLu7(B6Ir)4
_symmetry_space_group_name_H-M   'P 1'
_cell_length_a   3.58603500
_cell_length_b   9.07556503
_cell_length_c   11.41369504
_cell_angle_alpha   90.00982114
_cell_angle_beta   90.00000000
_cell_angle_gamma   90.00000000
_symmetry_Int_Tables_number   1
_chemical_formula_structural   TmLu7(B6Ir)4
_chemical_formula_sum   'Tm1 Lu7 B24 Ir4'
_cell_volume   371.46205365
_cell_formula_units_Z   1
loop_
 _symmetry_equiv_pos_site_id
 _symmetry_equiv_pos_as_xyz
  1  'x, y, z'
loop_
 _atom_site_type_symbol
 _atom_site_label
 _atom_site_symmetry_multiplicity
 _atom_site_fract_x
 _atom_site_fract_y
 _atom_site_fract_z
 _atom_site_occupancy
  Tm  Tm0  1  0.000000  0.320568  0.413368  1
  Lu  Lu1  1  0.000000  0.679583  0.586550  1
  Lu  Lu2  1  0.000000  0.820388  0.086586  1
  Lu  Lu3  1  0.000000  0.179615  0.913435  1
  Lu  Lu4  1  0.000000  0.944169  0.374835  1
  Lu  Lu5  1  0.000000  0.055667  0.625223  1
  Lu  Lu6  1  0.000000  0.444303  0.125123  1
  Lu  Lu7  1  0.000000  0.555735  0.874839  1
  B  B8  1  0.500000  0.552609  0.434808  1
  B  B9  1  0.500000  0.447727  0.565360  1
  B  B10  1  0.500000  0.052379  0.065169  1
  B  B11  1  0.500000  0.947611  0.934822  1
  B  B12  1  0.500000  0.750225  0.421324  1
  B  B13  1  0.500000  0.249688  0.578949  1
  B  B14  1  0.500000  0.250216  0.078663  1
  B  B15  1  0.500000  0.749789  0.921307  1
  B  B16  1  0.500000  0.794035  0.264640  1
  B  B17  1  0.500000  0.205960  0.735376  1
  B  B18  1  0.500000  0.293955  0.235106  1
  B  B19  1  0.500000  0.705961  0.764662  1
  B  B20  1  0.500000  0.631810  0.183492  1
  B  B21  1  0.500000  0.368203  0.816499  1
  B  B22  1  0.500000  0.131579  0.316368  1
  B  B23  1  0.500000  0.868190  0.683518  1
  B  B24  1  0.500000  0.980403  0.212961  1
  B  B25  1  0.500000  0.019554  0.787040  1
  B  B26  1  0.500000  0.480690  0.286865  1
  B  B27  1  0.500000  0.519598  0.712984  1
  B  B28  1  0.500000  0.608645  0.029952  1
  B  B29  1  0.500000  0.391364  0.970035  1
  B  B30  1  0.500000  0.108243  0.470158  1
  B  B31  1  0.500000  0.891387  0.529950  1
  Ir  Ir32  1  0.000000  0.639029  0.321096  1
  Ir  Ir33  1  0.000000  0.361216  0.679008  1
  Ir  Ir34  1  0.000000  0.138630  0.178681  1
  Ir  Ir35  1  0.000000  0.861276  0.821247  1
