# generated using pymatgen
data_TmInFeCo
_symmetry_space_group_name_H-M   'P 1'
_cell_length_a   3.95777100
_cell_length_b   5.04143000
_cell_length_c   7.21623600
_cell_angle_alpha   90.00000000
_cell_angle_beta   90.00000000
_cell_angle_gamma   90.00000000
_symmetry_Int_Tables_number   1
_chemical_formula_structural   TmInFeCo
_chemical_formula_sum   'Tm2 In2 Fe2 Co2'
_cell_volume   143.98429733
_cell_formula_units_Z   2
loop_
 _symmetry_equiv_pos_site_id
 _symmetry_equiv_pos_as_xyz
  1  'x, y, z'
loop_
 _atom_site_type_symbol
 _atom_site_label
 _atom_site_symmetry_multiplicity
 _atom_site_fract_x
 _atom_site_fract_y
 _atom_site_fract_z
 _atom_site_occupancy
  Tm  Tm0  1  0.500000  0.750000  0.717838  1
  Tm  Tm1  1  0.500000  0.250000  0.282162  1
  In  In2  1  0.000000  0.750000  0.352073  1
  In  In3  1  0.000000  0.250000  0.647927  1
  Fe  Fe4  1  0.000000  0.000000  0.000000  1
  Fe  Fe5  1  0.000000  0.500000  0.000000  1
  Co  Co6  1  0.500000  0.750000  0.088227  1
  Co  Co7  1  0.500000  0.250000  0.911773  1
