# generated using pymatgen
data_Sc8TaNb7(Si4W)4
_symmetry_space_group_name_H-M   'P 1'
_cell_length_a   6.61914076
_cell_length_b   6.86501701
_cell_length_c   13.07549639
_cell_angle_alpha   89.98555877
_cell_angle_beta   90.01108736
_cell_angle_gamma   89.94877838
_symmetry_Int_Tables_number   1
_chemical_formula_structural   Sc8TaNb7(Si4W)4
_chemical_formula_sum   'Sc8 Ta1 Nb7 Si16 W4'
_cell_volume   594.15700820
_cell_formula_units_Z   1
loop_
 _symmetry_equiv_pos_site_id
 _symmetry_equiv_pos_as_xyz
  1  'x, y, z'
loop_
 _atom_site_type_symbol
 _atom_site_label
 _atom_site_symmetry_multiplicity
 _atom_site_fract_x
 _atom_site_fract_y
 _atom_site_fract_z
 _atom_site_occupancy
  Sc  Sc0  1  0.499334  0.674304  0.593032  1
  Sc  Sc1  1  0.999400  0.825888  0.906582  1
  Sc  Sc2  1  0.500270  0.325596  0.093457  1
  Sc  Sc3  1  0.000440  0.174730  0.407470  1
  Sc  Sc4  1  0.500835  0.325290  0.406958  1
  Sc  Sc5  1  0.000300  0.174313  0.093182  1
  Sc  Sc6  1  0.499434  0.674241  0.906508  1
  Sc  Sc7  1  0.999463  0.825925  0.593083  1
  Ta  Ta8  1  0.167377  0.332294  0.626047  1
  Nb  Nb9  1  0.667319  0.167872  0.625122  1
  Nb  Nb10  1  0.167362  0.332311  0.874184  1
  Nb  Nb11  1  0.332710  0.832112  0.125687  1
  Nb  Nb12  1  0.833132  0.667219  0.374642  1
  Nb  Nb13  1  0.332511  0.832442  0.374617  1
  Nb  Nb14  1  0.832613  0.667625  0.125704  1
  Nb  Nb15  1  0.667304  0.167790  0.874218  1
  Si  Si16  1  0.669588  0.964830  0.458109  1
  Si  Si17  1  0.169267  0.534746  0.041660  1
  Si  Si18  1  0.330803  0.034652  0.958080  1
  Si  Si19  1  0.831101  0.465450  0.541915  1
  Si  Si20  1  0.329660  0.035085  0.541555  1
  Si  Si21  1  0.830541  0.465246  0.958170  1
  Si  Si22  1  0.669261  0.965078  0.041540  1
  Si  Si23  1  0.170210  0.534937  0.458928  1
  Si  Si24  1  0.468360  0.389771  0.749815  1
  Si  Si25  1  0.967165  0.110542  0.749907  1
  Si  Si26  1  0.532281  0.610688  0.250351  1
  Si  Si27  1  0.032070  0.889153  0.250281  1
  Si  Si28  1  0.703867  0.855043  0.749563  1
  Si  Si29  1  0.204566  0.645484  0.749711  1
  Si  Si30  1  0.295404  0.144852  0.250309  1
  Si  Si31  1  0.795870  0.354427  0.250254  1
  W  W32  1  0.841722  0.495196  0.749447  1
  W  W33  1  0.340160  0.005480  0.749408  1
  W  W34  1  0.159270  0.504618  0.250356  1
  W  W35  1  0.659027  0.994771  0.250148  1
