# generated using pymatgen
data_Hf5Co16(CuP4)3
_symmetry_space_group_name_H-M   'P 1'
_cell_length_a   11.83596300
_cell_length_b   11.83596307
_cell_length_c   3.60683900
_cell_angle_alpha   90.00000000
_cell_angle_beta   90.00000000
_cell_angle_gamma   119.99999702
_symmetry_Int_Tables_number   1
_chemical_formula_structural   Hf5Co16(CuP4)3
_chemical_formula_sum   'Hf5 Co16 Cu3 P12'
_cell_volume   437.58719190
_cell_formula_units_Z   1
loop_
 _symmetry_equiv_pos_site_id
 _symmetry_equiv_pos_as_xyz
  1  'x, y, z'
loop_
 _atom_site_type_symbol
 _atom_site_label
 _atom_site_symmetry_multiplicity
 _atom_site_fract_x
 _atom_site_fract_y
 _atom_site_fract_z
 _atom_site_occupancy
  Hf  Hf0  1  0.666667  0.333333  0.000000  1
  Hf  Hf1  1  0.333333  0.666667  0.000000  1
  Hf  Hf2  1  0.814145  0.814145  0.500000  1
  Hf  Hf3  1  0.185855  0.000000  0.500000  1
  Hf  Hf4  1  0.000000  0.185855  0.500000  1
  Co  Co5  1  0.196522  0.375498  0.000000  1
  Co  Co6  1  0.178976  0.803478  0.000000  1
  Co  Co7  1  0.821024  0.624502  0.000000  1
  Co  Co8  1  0.803478  0.178976  0.000000  1
  Co  Co9  1  0.375498  0.196522  0.000000  1
  Co  Co10  1  0.128700  0.485407  0.500000  1
  Co  Co11  1  0.356706  0.871300  0.500000  1
  Co  Co12  1  0.514593  0.643294  0.500000  1
  Co  Co13  1  0.643294  0.514593  0.500000  1
  Co  Co14  1  0.871300  0.356706  0.500000  1
  Co  Co15  1  0.485407  0.128700  0.500000  1
  Co  Co16  1  0.000000  0.000000  0.000000  1
  Co  Co17  1  0.714464  0.000000  0.500000  1
  Co  Co18  1  0.000000  0.714464  0.500000  1
  Co  Co19  1  0.624502  0.821024  0.000000  1
  Co  Co20  1  0.285536  0.285536  0.500000  1
  Cu  Cu21  1  0.448729  0.448729  0.000000  1
  Cu  Cu22  1  0.551271  0.000000  0.000000  1
  Cu  Cu23  1  0.000000  0.551271  0.000000  1
  P  P24  1  0.641072  0.641072  0.000000  1
  P  P25  1  0.358928  0.000000  0.000000  1
  P  P26  1  0.000000  0.358928  0.000000  1
  P  P27  1  0.484514  0.313015  0.500000  1
  P  P28  1  0.686985  0.171500  0.500000  1
  P  P29  1  0.828500  0.515486  0.500000  1
  P  P30  1  0.515486  0.828500  0.500000  1
  P  P31  1  0.171500  0.686985  0.500000  1
  P  P32  1  0.823094  0.000000  0.000000  1
  P  P33  1  0.000000  0.823094  0.000000  1
  P  P34  1  0.313015  0.484514  0.500000  1
  P  P35  1  0.176906  0.176906  0.000000  1
