# generated using pymatgen
data_Nd4ScP12IrRu18
_symmetry_space_group_name_H-M   'P 1'
_cell_length_a   12.59236411
_cell_length_b   12.59236499
_cell_length_c   4.00106000
_cell_angle_alpha   90.00000000
_cell_angle_beta   90.00000000
_cell_angle_gamma   119.87818458
_symmetry_Int_Tables_number   1
_chemical_formula_structural   Nd4ScP12IrRu18
_chemical_formula_sum   'Nd4 Sc1 P12 Ir1 Ru18'
_cell_volume   550.11318974
_cell_formula_units_Z   1
loop_
 _symmetry_equiv_pos_site_id
 _symmetry_equiv_pos_as_xyz
  1  'x, y, z'
loop_
 _atom_site_type_symbol
 _atom_site_label
 _atom_site_symmetry_multiplicity
 _atom_site_fract_x
 _atom_site_fract_y
 _atom_site_fract_z
 _atom_site_occupancy
  Nd  Nd0  1  0.332310  0.665597  0.000000  1
  Nd  Nd1  1  0.665597  0.332310  0.000000  1
  Nd  Nd2  1  0.814184  0.000346  0.500000  1
  Nd  Nd3  1  0.000346  0.814184  0.500000  1
  Sc  Sc4  1  0.186684  0.186684  0.500000  1
  P  P5  1  0.187276  0.002633  0.000000  1
  P  P6  1  0.002633  0.187276  0.000000  1
  P  P7  1  0.814362  0.814362  0.000000  1
  P  P8  1  0.169654  0.475522  0.500000  1
  P  P9  1  0.522846  0.692478  0.500000  1
  P  P10  1  0.305847  0.831605  0.500000  1
  P  P11  1  0.692478  0.522846  0.500000  1
  P  P12  1  0.831605  0.305847  0.500000  1
  P  P13  1  0.475522  0.169654  0.500000  1
  P  P14  1  0.624769  0.000120  0.000000  1
  P  P15  1  0.000120  0.624769  0.000000  1
  P  P16  1  0.373068  0.373068  0.000000  1
  Ir  Ir17  1  0.005430  0.005430  0.000000  1
  Ru  Ru18  1  0.444643  0.001966  0.000000  1
  Ru  Ru19  1  0.001966  0.444643  0.000000  1
  Ru  Ru20  1  0.554430  0.554430  0.000000  1
  Ru  Ru21  1  0.364356  0.488735  0.500000  1
  Ru  Ru22  1  0.508533  0.875184  0.500000  1
  Ru  Ru23  1  0.124631  0.634204  0.500000  1
  Ru  Ru24  1  0.875184  0.508533  0.500000  1
  Ru  Ru25  1  0.634204  0.124631  0.500000  1
  Ru  Ru26  1  0.488735  0.364356  0.500000  1
  Ru  Ru27  1  0.185596  0.372797  0.000000  1
  Ru  Ru28  1  0.621897  0.806302  0.000000  1
  Ru  Ru29  1  0.194089  0.816939  0.000000  1
  Ru  Ru30  1  0.806302  0.621897  0.000000  1
  Ru  Ru31  1  0.816939  0.194089  0.000000  1
  Ru  Ru32  1  0.372797  0.185596  0.000000  1
  Ru  Ru33  1  0.282185  0.002694  0.500000  1
  Ru  Ru34  1  0.002694  0.282185  0.500000  1
  Ru  Ru35  1  0.716089  0.716089  0.500000  1
