# generated using pymatgen
data_Nd2YHo3Ta2O14
_symmetry_space_group_name_H-M   'P 1'
_cell_length_a   6.49545228
_cell_length_b   6.50029384
_cell_length_c   7.59449600
_cell_angle_alpha   90.00000000
_cell_angle_beta   90.00000000
_cell_angle_gamma   109.29569039
_symmetry_Int_Tables_number   1
_chemical_formula_structural   Nd2YHo3Ta2O14
_chemical_formula_sum   'Nd2 Y1 Ho3 Ta2 O14'
_cell_volume   302.64478317
_cell_formula_units_Z   1
loop_
 _symmetry_equiv_pos_site_id
 _symmetry_equiv_pos_as_xyz
  1  'x, y, z'
loop_
 _atom_site_type_symbol
 _atom_site_label
 _atom_site_symmetry_multiplicity
 _atom_site_fract_x
 _atom_site_fract_y
 _atom_site_fract_z
 _atom_site_occupancy
  Nd  Nd0  1  0.500902  0.500641  0.499528  1
  Nd  Nd1  1  0.500902  0.500641  0.000472  1
  Y  Y2  1  0.999556  0.467023  0.750000  1
  Ho  Ho3  1  0.533151  0.001172  0.750000  1
  Ho  Ho4  1  0.000979  0.533667  0.250000  1
  Ho  Ho5  1  0.466658  0.998973  0.250000  1
  Ta  Ta6  1  0.000142  0.000215  0.499625  1
  Ta  Ta7  1  0.000142  0.000215  0.000375  1
  O  O8  1  0.679424  0.931830  0.467185  1
  O  O9  1  0.929345  0.679020  0.530354  1
  O  O10  1  0.679424  0.931830  0.032815  1
  O  O11  1  0.929345  0.679020  0.969646  1
  O  O12  1  0.320032  0.067910  0.533192  1
  O  O13  1  0.069339  0.320034  0.466162  1
  O  O14  1  0.320032  0.067910  0.966808  1
  O  O15  1  0.069339  0.320034  0.033838  1
  O  O16  1  0.935376  0.063168  0.750000  1
  O  O17  1  0.065881  0.935941  0.250000  1
  O  O18  1  0.365060  0.637509  0.750000  1
  O  O19  1  0.636377  0.363013  0.250000  1
  O  O20  1  0.641740  0.356534  0.750000  1
  O  O21  1  0.356853  0.643700  0.250000  1
