# generated using pymatgen
data_CsKMnBr4
_symmetry_space_group_name_H-M   'P 1'
_cell_length_a   7.93459000
_cell_length_b   7.66922298
_cell_length_c   9.65708100
_cell_angle_alpha   72.61507450
_cell_angle_beta   90.00000000
_cell_angle_gamma   90.00000000
_symmetry_Int_Tables_number   1
_chemical_formula_structural   CsKMnBr4
_chemical_formula_sum   'Cs2 K2 Mn2 Br8'
_cell_volume   560.80940454
_cell_formula_units_Z   2
loop_
 _symmetry_equiv_pos_site_id
 _symmetry_equiv_pos_as_xyz
  1  'x, y, z'
loop_
 _atom_site_type_symbol
 _atom_site_label
 _atom_site_symmetry_multiplicity
 _atom_site_fract_x
 _atom_site_fract_y
 _atom_site_fract_z
 _atom_site_occupancy
  Cs  Cs0  1  0.750000  0.729544  0.070646  1
  Cs  Cs1  1  0.250000  0.270456  0.929354  1
  K  K2  1  0.750000  0.780378  0.550190  1
  K  K3  1  0.250000  0.219622  0.449810  1
  Mn  Mn4  1  0.750000  0.220502  0.692948  1
  Mn  Mn5  1  0.250000  0.779498  0.307052  1
  Br  Br6  1  0.750000  0.406863  0.434827  1
  Br  Br7  1  0.250000  0.593137  0.565173  1
  Br  Br8  1  0.004369  0.993657  0.259632  1
  Br  Br9  1  0.995631  0.006343  0.740368  1
  Br  Br10  1  0.504369  0.006343  0.740368  1
  Br  Br11  1  0.495631  0.993657  0.259632  1
  Br  Br12  1  0.750000  0.418265  0.855819  1
  Br  Br13  1  0.250000  0.581735  0.144181  1
