# generated using pymatgen
data_YTm2Co7(NiP3)2
_symmetry_space_group_name_H-M   'P 1'
_cell_length_a   3.69607100
_cell_length_b   10.46101500
_cell_length_c   12.16216900
_cell_angle_alpha   90.00000000
_cell_angle_beta   90.00000000
_cell_angle_gamma   90.00000000
_symmetry_Int_Tables_number   1
_chemical_formula_structural   YTm2Co7(NiP3)2
_chemical_formula_sum   'Y2 Tm4 Co14 Ni4 P12'
_cell_volume   470.24605837
_cell_formula_units_Z   2
loop_
 _symmetry_equiv_pos_site_id
 _symmetry_equiv_pos_as_xyz
  1  'x, y, z'
loop_
 _atom_site_type_symbol
 _atom_site_label
 _atom_site_symmetry_multiplicity
 _atom_site_fract_x
 _atom_site_fract_y
 _atom_site_fract_z
 _atom_site_occupancy
  Y  Y0  1  0.000000  0.500000  0.521409  1
  Y  Y1  1  0.500000  0.000000  0.478591  1
  Tm  Tm2  1  0.500000  0.816199  0.205567  1
  Tm  Tm3  1  0.500000  0.183801  0.205567  1
  Tm  Tm4  1  0.000000  0.683801  0.794433  1
  Tm  Tm5  1  0.000000  0.316199  0.794433  1
  Co  Co6  1  0.000000  0.500000  0.984966  1
  Co  Co7  1  0.500000  0.000000  0.015034  1
  Co  Co8  1  0.500000  0.333986  0.995962  1
  Co  Co9  1  0.500000  0.666014  0.995962  1
  Co  Co10  1  0.000000  0.166014  0.004038  1
  Co  Co11  1  0.000000  0.833986  0.004038  1
  Co  Co12  1  0.500000  0.298248  0.429928  1
  Co  Co13  1  0.500000  0.701752  0.429928  1
  Co  Co14  1  0.000000  0.201752  0.570072  1
  Co  Co15  1  0.000000  0.798248  0.570072  1
  Co  Co16  1  0.500000  0.878416  0.711084  1
  Co  Co17  1  0.500000  0.121584  0.711084  1
  Co  Co18  1  0.000000  0.621584  0.288916  1
  Co  Co19  1  0.000000  0.378416  0.288916  1
  Ni  Ni20  1  0.500000  0.500000  0.161873  1
  Ni  Ni21  1  0.000000  0.000000  0.838127  1
  Ni  Ni22  1  0.500000  0.500000  0.704593  1
  Ni  Ni23  1  0.000000  0.000000  0.295407  1
  P  P24  1  0.500000  0.500000  0.882907  1
  P  P25  1  0.000000  0.000000  0.117093  1
  P  P26  1  0.500000  0.500000  0.345620  1
  P  P27  1  0.000000  0.000000  0.654380  1
  P  P28  1  0.500000  0.310335  0.616555  1
  P  P29  1  0.500000  0.689665  0.616555  1
  P  P30  1  0.000000  0.189665  0.383445  1
  P  P31  1  0.000000  0.810335  0.383445  1
  P  P32  1  0.500000  0.845592  0.894008  1
  P  P33  1  0.500000  0.154408  0.894008  1
  P  P34  1  0.000000  0.654408  0.105992  1
  P  P35  1  0.000000  0.345592  0.105992  1
