# generated using pymatgen
data_Ta10SnPt4
_symmetry_space_group_name_H-M   'P 1'
_cell_length_a   9.96403200
_cell_length_b   9.96403200
_cell_length_c   5.19559100
_cell_angle_alpha   90.00000000
_cell_angle_beta   90.00000000
_cell_angle_gamma   90.00000000
_symmetry_Int_Tables_number   1
_chemical_formula_structural   Ta10SnPt4
_chemical_formula_sum   'Ta20 Sn2 Pt8'
_cell_volume   515.82832118
_cell_formula_units_Z   2
loop_
 _symmetry_equiv_pos_site_id
 _symmetry_equiv_pos_as_xyz
  1  'x, y, z'
loop_
 _atom_site_type_symbol
 _atom_site_label
 _atom_site_symmetry_multiplicity
 _atom_site_fract_x
 _atom_site_fract_y
 _atom_site_fract_z
 _atom_site_occupancy
  Ta  Ta0  1  0.395269  0.395269  0.000000  1
  Ta  Ta1  1  0.895269  0.104731  0.500000  1
  Ta  Ta2  1  0.104731  0.895269  0.500000  1
  Ta  Ta3  1  0.604731  0.604731  0.000000  1
  Ta  Ta4  1  0.128669  0.463938  0.000000  1
  Ta  Ta5  1  0.963938  0.371331  0.500000  1
  Ta  Ta6  1  0.036062  0.628669  0.500000  1
  Ta  Ta7  1  0.871331  0.536062  0.000000  1
  Ta  Ta8  1  0.371331  0.963938  0.500000  1
  Ta  Ta9  1  0.628669  0.036062  0.500000  1
  Ta  Ta10  1  0.463938  0.128669  0.000000  1
  Ta  Ta11  1  0.536062  0.871331  0.000000  1
  Ta  Ta12  1  0.183392  0.183392  0.252503  1
  Ta  Ta13  1  0.683392  0.316608  0.752503  1
  Ta  Ta14  1  0.316608  0.683392  0.752503  1
  Ta  Ta15  1  0.816608  0.816608  0.252503  1
  Ta  Ta16  1  0.316608  0.683392  0.247497  1
  Ta  Ta17  1  0.683392  0.316608  0.247497  1
  Ta  Ta18  1  0.183392  0.183392  0.747497  1
  Ta  Ta19  1  0.816608  0.816608  0.747497  1
  Sn  Sn20  1  0.000000  0.000000  0.000000  1
  Sn  Sn21  1  0.500000  0.500000  0.500000  1
  Pt  Pt22  1  0.270861  0.935046  0.000000  1
  Pt  Pt23  1  0.435046  0.229139  0.500000  1
  Pt  Pt24  1  0.564954  0.770861  0.500000  1
  Pt  Pt25  1  0.729139  0.064954  0.000000  1
  Pt  Pt26  1  0.229139  0.435046  0.500000  1
  Pt  Pt27  1  0.770861  0.564954  0.500000  1
  Pt  Pt28  1  0.935046  0.270861  0.000000  1
  Pt  Pt29  1  0.064954  0.729139  0.000000  1
