# generated using pymatgen
data_Li4CaCe(ThSi3)2
_symmetry_space_group_name_H-M   'P 1'
_cell_length_a   9.38925996
_cell_length_b   9.38925929
_cell_length_c   6.74054000
_cell_angle_alpha   90.00000000
_cell_angle_beta   90.00000000
_cell_angle_gamma   152.95097752
_symmetry_Int_Tables_number   1
_chemical_formula_structural   Li4CaCe(ThSi3)2
_chemical_formula_sum   'Li4 Ca1 Ce1 Th2 Si6'
_cell_volume   270.22943633
_cell_formula_units_Z   1
loop_
 _symmetry_equiv_pos_site_id
 _symmetry_equiv_pos_as_xyz
  1  'x, y, z'
loop_
 _atom_site_type_symbol
 _atom_site_label
 _atom_site_symmetry_multiplicity
 _atom_site_fract_x
 _atom_site_fract_y
 _atom_site_fract_z
 _atom_site_occupancy
  Li  Li0  1  0.810728  0.189272  0.556351  1
  Li  Li1  1  0.190662  0.809338  0.436663  1
  Li  Li2  1  0.190662  0.809338  0.063337  1
  Li  Li3  1  0.810728  0.189272  0.943649  1
  Ca  Ca4  1  0.342184  0.657816  0.250000  1
  Ce  Ce5  1  0.657755  0.342245  0.750000  1
  Th  Th6  1  0.551023  0.448977  0.250000  1
  Th  Th7  1  0.447915  0.552085  0.750000  1
  Si  Si8  1  0.941811  0.058189  0.071579  1
  Si  Si9  1  0.060468  0.939532  0.926791  1
  Si  Si10  1  0.060468  0.939532  0.573209  1
  Si  Si11  1  0.941811  0.058189  0.428421  1
  Si  Si12  1  0.715695  0.284305  0.250000  1
  Si  Si13  1  0.278090  0.721910  0.750000  1
