# generated using pymatgen
data_Sr2CdTeO6
_symmetry_space_group_name_H-M   'P 1'
_cell_length_a   5.95542600
_cell_length_b   5.81767578
_cell_length_c   10.10462566
_cell_angle_alpha   54.79020788
_cell_angle_beta   90.00000000
_cell_angle_gamma   90.00000000
_symmetry_Int_Tables_number   1
_chemical_formula_structural   Sr2CdTeO6
_chemical_formula_sum   'Sr4 Cd2 Te2 O12'
_cell_volume   286.04165456
_cell_formula_units_Z   2
loop_
 _symmetry_equiv_pos_site_id
 _symmetry_equiv_pos_as_xyz
  1  'x, y, z'
loop_
 _atom_site_type_symbol
 _atom_site_label
 _atom_site_symmetry_multiplicity
 _atom_site_fract_x
 _atom_site_fract_y
 _atom_site_fract_z
 _atom_site_occupancy
  Sr  Sr0  1  0.953800  0.241287  0.248297  1
  Sr  Sr1  1  0.453800  0.758713  0.251703  1
  Sr  Sr2  1  0.046200  0.758713  0.751703  1
  Sr  Sr3  1  0.546200  0.241287  0.748297  1
  Cd  Cd4  1  0.000000  0.500000  0.500000  1
  Cd  Cd5  1  0.500000  0.500000  0.000000  1
  Te  Te6  1  0.500000  0.000000  0.500000  1
  Te  Te7  1  0.000000  0.000000  0.000000  1
  O  O8  1  0.230077  0.870291  0.448936  1
  O  O9  1  0.730077  0.129709  0.051064  1
  O  O10  1  0.769923  0.129709  0.551064  1
  O  O11  1  0.269923  0.870291  0.948936  1
  O  O12  1  0.685420  0.767523  0.459218  1
  O  O13  1  0.185420  0.232477  0.040782  1
  O  O14  1  0.314580  0.232477  0.540782  1
  O  O15  1  0.814580  0.767523  0.959218  1
  O  O16  1  0.031853  0.684165  0.228571  1
  O  O17  1  0.531853  0.315835  0.271429  1
  O  O18  1  0.968147  0.315835  0.771429  1
  O  O19  1  0.468147  0.684165  0.728571  1
