# generated using pymatgen
data_Dy2Al3Zn5
_symmetry_space_group_name_H-M   'P 1'
_cell_length_a   6.22007691
_cell_length_b   6.22007777
_cell_length_c   5.76995241
_cell_angle_alpha   89.95429806
_cell_angle_beta   90.04569351
_cell_angle_gamma   124.75408664
_symmetry_Int_Tables_number   1
_chemical_formula_structural   Dy2Al3Zn5
_chemical_formula_sum   'Dy2 Al3 Zn5'
_cell_volume   183.41184319
_cell_formula_units_Z   1
loop_
 _symmetry_equiv_pos_site_id
 _symmetry_equiv_pos_as_xyz
  1  'x, y, z'
loop_
 _atom_site_type_symbol
 _atom_site_label
 _atom_site_symmetry_multiplicity
 _atom_site_fract_x
 _atom_site_fract_y
 _atom_site_fract_z
 _atom_site_occupancy
  Dy  Dy0  1  0.749802  0.249715  0.248588  1
  Dy  Dy1  1  0.249715  0.749802  0.751413  1
  Al  Al2  1  0.249865  0.249865  0.000000  1
  Al  Al3  1  0.750225  0.750225  0.000000  1
  Al  Al4  1  0.246461  0.246461  0.500000  1
  Zn  Zn5  1  0.363244  0.643593  0.255051  1
  Zn  Zn6  1  0.139369  0.853833  0.251258  1
  Zn  Zn7  1  0.753896  0.753896  0.500000  1
  Zn  Zn8  1  0.853833  0.139369  0.748743  1
  Zn  Zn9  1  0.643593  0.363244  0.744950  1
