# generated using pymatgen
data_Zr10Tl5Ga2Sb
_symmetry_space_group_name_H-M   'P 1'
_cell_length_a   8.79190300
_cell_length_b   8.77080068
_cell_length_c   5.90927000
_cell_angle_alpha   90.00000000
_cell_angle_beta   90.00000000
_cell_angle_gamma   120.07961716
_symmetry_Int_Tables_number   1
_chemical_formula_structural   Zr10Tl5Ga2Sb
_chemical_formula_sum   'Zr10 Tl5 Ga2 Sb1'
_cell_volume   394.30983727
_cell_formula_units_Z   1
loop_
 _symmetry_equiv_pos_site_id
 _symmetry_equiv_pos_as_xyz
  1  'x, y, z'
loop_
 _atom_site_type_symbol
 _atom_site_label
 _atom_site_symmetry_multiplicity
 _atom_site_fract_x
 _atom_site_fract_y
 _atom_site_fract_z
 _atom_site_occupancy
  Zr  Zr0  1  0.993313  0.257690  0.250000  1
  Zr  Zr1  1  0.736390  0.000000  0.750000  1
  Zr  Zr2  1  0.735622  0.742310  0.250000  1
  Zr  Zr3  1  0.666287  0.331184  0.499330  1
  Zr  Zr4  1  0.000175  0.735906  0.750000  1
  Zr  Zr5  1  0.264269  0.264094  0.750000  1
  Zr  Zr6  1  0.335102  0.668816  0.000670  1
  Zr  Zr7  1  0.666287  0.331184  0.000670  1
  Zr  Zr8  1  0.335102  0.668816  0.499330  1
  Zr  Zr9  1  0.267204  0.000000  0.250000  1
  Tl  Tl10  1  0.384151  0.000000  0.750000  1
  Tl  Tl11  1  0.384578  0.386405  0.250000  1
  Tl  Tl12  1  0.998173  0.613595  0.250000  1
  Tl  Tl13  1  0.001518  0.386939  0.750000  1
  Tl  Tl14  1  0.614577  0.613061  0.750000  1
  Ga  Ga15  1  0.002988  0.000000  0.998192  1
  Ga  Ga16  1  0.002988  0.000000  0.501808  1
  Sb  Sb17  1  0.611272  0.000000  0.250000  1
