# generated using pymatgen
data_ErTa2Bi5O14
_symmetry_space_group_name_H-M   'P 1'
_cell_length_a   6.75630918
_cell_length_b   6.72507090
_cell_length_c   7.65269900
_cell_angle_alpha   90.00000000
_cell_angle_beta   90.00000000
_cell_angle_gamma   107.51794463
_symmetry_Int_Tables_number   1
_chemical_formula_structural   ErTa2Bi5O14
_chemical_formula_sum   'Er1 Ta2 Bi5 O14'
_cell_volume   331.58708458
_cell_formula_units_Z   1
loop_
 _symmetry_equiv_pos_site_id
 _symmetry_equiv_pos_as_xyz
  1  'x, y, z'
loop_
 _atom_site_type_symbol
 _atom_site_label
 _atom_site_symmetry_multiplicity
 _atom_site_fract_x
 _atom_site_fract_y
 _atom_site_fract_z
 _atom_site_occupancy
  Er  Er0  1  0.005502  0.535623  0.250000  1
  Ta  Ta1  1  0.004609  0.005627  0.496742  1
  Ta  Ta2  1  0.004609  0.005627  0.003258  1
  Bi  Bi3  1  0.553940  0.550344  0.497831  1
  Bi  Bi4  1  0.553940  0.550344  0.002169  1
  Bi  Bi5  1  0.000503  0.480166  0.750000  1
  Bi  Bi6  1  0.512785  0.007437  0.750000  1
  Bi  Bi7  1  0.472793  0.994057  0.250000  1
  O  O8  1  0.954641  0.034109  0.750000  1
  O  O9  1  0.056643  0.919775  0.250000  1
  O  O10  1  0.347881  0.657654  0.250000  1
  O  O11  1  0.642494  0.381441  0.750000  1
  O  O12  1  0.360435  0.659197  0.750000  1
  O  O13  1  0.658791  0.415181  0.250000  1
  O  O14  1  0.298997  0.038510  0.962432  1
  O  O15  1  0.686616  0.909256  0.458226  1
  O  O16  1  0.298997  0.038510  0.537568  1
  O  O17  1  0.686616  0.909256  0.041774  1
  O  O18  1  0.026123  0.285006  0.444179  1
  O  O19  1  0.923482  0.668936  0.972464  1
  O  O20  1  0.923482  0.668936  0.527536  1
  O  O21  1  0.026123  0.285006  0.055821  1
