# generated using pymatgen
data_CaNb3B4(Ru5W)2
_symmetry_space_group_name_H-M   'P 1'
_cell_length_a   9.53713796
_cell_length_b   9.53713796
_cell_length_c   3.00261900
_cell_angle_alpha   90.00000000
_cell_angle_beta   90.00000000
_cell_angle_gamma   90.40634623
_symmetry_Int_Tables_number   1
_chemical_formula_structural   CaNb3B4(Ru5W)2
_chemical_formula_sum   'Ca1 Nb3 B4 Ru10 W2'
_cell_volume   273.10234955
_cell_formula_units_Z   1
loop_
 _symmetry_equiv_pos_site_id
 _symmetry_equiv_pos_as_xyz
  1  'x, y, z'
loop_
 _atom_site_type_symbol
 _atom_site_label
 _atom_site_symmetry_multiplicity
 _atom_site_fract_x
 _atom_site_fract_y
 _atom_site_fract_z
 _atom_site_occupancy
  Ca  Ca0  1  0.824275  0.675725  0.000000  1
  Nb  Nb1  1  0.177101  0.322899  0.000000  1
  Nb  Nb2  1  0.324597  0.822608  0.000000  1
  Nb  Nb3  1  0.677392  0.175403  0.000000  1
  B  B4  1  0.618707  0.881293  0.000000  1
  B  B5  1  0.376954  0.123046  0.000000  1
  B  B6  1  0.122252  0.618984  0.000000  1
  B  B7  1  0.881016  0.377748  0.000000  1
  Ru  Ru8  1  0.556236  0.723976  0.500000  1
  Ru  Ru9  1  0.426506  0.285126  0.500000  1
  Ru  Ru10  1  0.084327  0.785105  0.500000  1
  Ru  Ru11  1  0.932209  0.214027  0.500000  1
  Ru  Ru12  1  0.285973  0.567791  0.500000  1
  Ru  Ru13  1  0.714895  0.415673  0.500000  1
  Ru  Ru14  1  0.214874  0.073494  0.500000  1
  Ru  Ru15  1  0.776024  0.943764  0.500000  1
  Ru  Ru16  1  0.495332  0.004668  0.500000  1
  Ru  Ru17  1  0.009231  0.490769  0.500000  1
  W  W18  1  0.504097  0.501996  0.000000  1
  W  W19  1  0.998004  0.995903  0.000000  1
