# generated using pymatgen
data_K4Hf6PI18
_symmetry_space_group_name_H-M   'P 1'
_cell_length_a   11.17496095
_cell_length_b   11.31868363
_cell_length_c   11.43282042
_cell_angle_alpha   118.55314883
_cell_angle_beta   100.10343673
_cell_angle_gamma   103.77501633
_symmetry_Int_Tables_number   1
_chemical_formula_structural   K4Hf6PI18
_chemical_formula_sum   'K4 Hf6 P1 I18'
_cell_volume   1160.60770046
_cell_formula_units_Z   1
loop_
 _symmetry_equiv_pos_site_id
 _symmetry_equiv_pos_as_xyz
  1  'x, y, z'
loop_
 _atom_site_type_symbol
 _atom_site_label
 _atom_site_symmetry_multiplicity
 _atom_site_fract_x
 _atom_site_fract_y
 _atom_site_fract_z
 _atom_site_occupancy
  K  K0  1  0.650314  0.537904  0.226369  1
  K  K1  1  0.349686  0.462096  0.773631  1
  K  K2  1  0.683817  0.223974  0.563453  1
  K  K3  1  0.316183  0.776026  0.436547  1
  Hf  Hf4  1  0.145522  0.054006  0.223301  1
  Hf  Hf5  1  0.854478  0.945994  0.776699  1
  Hf  Hf6  1  0.866234  0.123481  0.129514  1
  Hf  Hf7  1  0.133766  0.876519  0.870486  1
  Hf  Hf8  1  0.140987  0.232023  0.043857  1
  Hf  Hf9  1  0.859013  0.767977  0.956143  1
  P  P10  1  0.000000  0.000000  0.000000  1
  I  I11  1  0.007739  0.411675  0.198089  1
  I  I12  1  0.992261  0.588325  0.801911  1
  I  I13  1  0.329761  0.334094  0.312477  1
  I  I14  1  0.670239  0.665906  0.687523  1
  I  I15  1  0.320699  0.520901  0.099556  1
  I  I16  1  0.679301  0.479099  0.900444  1
  I  I17  1  0.004172  0.794778  0.210018  1
  I  I18  1  0.995828  0.205222  0.789982  1
  I  I19  1  0.703355  0.276042  0.288422  1
  I  I20  1  0.296645  0.723958  0.711578  1
  I  I21  1  0.317774  0.127059  0.902139  1
  I  I22  1  0.682226  0.872941  0.097861  1
  I  I23  1  0.014608  0.205353  0.409699  1
  I  I24  1  0.985392  0.794647  0.590301  1
  I  I25  1  0.322026  0.921882  0.109726  1
  I  I26  1  0.677974  0.078118  0.890274  1
  I  I27  1  0.331886  0.120616  0.501202  1
  I  I28  1  0.668114  0.879384  0.498798  1
