# generated using pymatgen
data_Hf2Mn8AsP3
_symmetry_space_group_name_H-M   'P 1'
_cell_length_a   6.90094654
_cell_length_b   6.90094654
_cell_length_c   3.68311800
_cell_angle_alpha   90.00000000
_cell_angle_beta   90.00000000
_cell_angle_gamma   90.19049488
_symmetry_Int_Tables_number   1
_chemical_formula_structural   Hf2Mn8AsP3
_chemical_formula_sum   'Hf2 Mn8 As1 P3'
_cell_volume   175.40039142
_cell_formula_units_Z   1
loop_
 _symmetry_equiv_pos_site_id
 _symmetry_equiv_pos_as_xyz
  1  'x, y, z'
loop_
 _atom_site_type_symbol
 _atom_site_label
 _atom_site_symmetry_multiplicity
 _atom_site_fract_x
 _atom_site_fract_y
 _atom_site_fract_z
 _atom_site_occupancy
  Hf  Hf0  1  0.495544  0.495544  0.000000  1
  Hf  Hf1  1  0.002074  0.002074  0.500000  1
  Mn  Mn2  1  0.584130  0.157611  0.500000  1
  Mn  Mn3  1  0.405645  0.849608  0.500000  1
  Mn  Mn4  1  0.086853  0.342480  0.000000  1
  Mn  Mn5  1  0.925089  0.649325  0.000000  1
  Mn  Mn6  1  0.157611  0.584130  0.500000  1
  Mn  Mn7  1  0.849608  0.405645  0.500000  1
  Mn  Mn8  1  0.342480  0.086853  0.000000  1
  Mn  Mn9  1  0.649325  0.925089  0.000000  1
  As  As10  1  0.714651  0.714651  0.500000  1
  P  P11  1  0.284732  0.284732  0.500000  1
  P  P12  1  0.215938  0.786318  0.000000  1
  P  P13  1  0.786318  0.215938  0.000000  1
