# generated using pymatgen
data_Y6Lu10Cd4Ni3Os
_symmetry_space_group_name_H-M   'P 1'
_cell_length_a   9.49007337
_cell_length_b   9.49007436
_cell_length_c   9.49007520
_cell_angle_alpha   59.44314597
_cell_angle_beta   59.44314376
_cell_angle_gamma   59.44314532
_symmetry_Int_Tables_number   1
_chemical_formula_structural   Y6Lu10Cd4Ni3Os
_chemical_formula_sum   'Y6 Lu10 Cd4 Ni3 Os1'
_cell_volume   596.70095180
_cell_formula_units_Z   1
loop_
 _symmetry_equiv_pos_site_id
 _symmetry_equiv_pos_as_xyz
  1  'x, y, z'
loop_
 _atom_site_type_symbol
 _atom_site_label
 _atom_site_symmetry_multiplicity
 _atom_site_fract_x
 _atom_site_fract_y
 _atom_site_fract_z
 _atom_site_occupancy
  Y  Y0  1  0.186161  0.814261  0.814261  1
  Y  Y1  1  0.805837  0.192019  0.192019  1
  Y  Y2  1  0.814261  0.186161  0.814261  1
  Y  Y3  1  0.192019  0.805837  0.192019  1
  Y  Y4  1  0.814261  0.814261  0.186161  1
  Y  Y5  1  0.192019  0.192019  0.805837  1
  Lu  Lu6  1  0.596723  0.596723  0.596723  1
  Lu  Lu7  1  0.600857  0.600857  0.206816  1
  Lu  Lu8  1  0.600857  0.206816  0.600857  1
  Lu  Lu9  1  0.206816  0.600857  0.600857  1
  Lu  Lu10  1  0.061993  0.436452  0.436452  1
  Lu  Lu11  1  0.434265  0.063023  0.063023  1
  Lu  Lu12  1  0.436452  0.061993  0.436452  1
  Lu  Lu13  1  0.063023  0.434265  0.063023  1
  Lu  Lu14  1  0.436452  0.436452  0.061993  1
  Lu  Lu15  1  0.063023  0.063023  0.434265  1
  Cd  Cd16  1  0.828852  0.828852  0.828852  1
  Cd  Cd17  1  0.829023  0.829023  0.507255  1
  Cd  Cd18  1  0.829023  0.507255  0.829023  1
  Cd  Cd19  1  0.507255  0.829023  0.829023  1
  Ni  Ni20  1  0.390738  0.390738  0.825916  1
  Ni  Ni21  1  0.390738  0.825916  0.390738  1
  Ni  Ni22  1  0.825916  0.390738  0.390738  1
  Os  Os23  1  0.393435  0.393435  0.393435  1
