# generated using pymatgen
data_CeNdY(InPt)3
_symmetry_space_group_name_H-M   'P 1'
_cell_length_a   7.70211645
_cell_length_b   7.71844199
_cell_length_c   4.00868400
_cell_angle_alpha   90.00000000
_cell_angle_beta   90.00000000
_cell_angle_gamma   120.31899646
_symmetry_Int_Tables_number   1
_chemical_formula_structural   CeNdY(InPt)3
_chemical_formula_sum   'Ce1 Nd1 Y1 In3 Pt3'
_cell_volume   205.71557801
_cell_formula_units_Z   1
loop_
 _symmetry_equiv_pos_site_id
 _symmetry_equiv_pos_as_xyz
  1  'x, y, z'
loop_
 _atom_site_type_symbol
 _atom_site_label
 _atom_site_symmetry_multiplicity
 _atom_site_fract_x
 _atom_site_fract_y
 _atom_site_fract_z
 _atom_site_occupancy
  Ce  Ce0  1  0.000582  0.410268  0.500000  1
  Nd  Nd1  1  0.592542  0.590830  0.500000  1
  Y  Y2  1  0.406341  0.999038  0.500000  1
  In  In3  1  0.003598  0.750298  0.000000  1
  In  In4  1  0.740031  0.998181  0.000000  1
  In  In5  1  0.257736  0.252252  0.000000  1
  Pt  Pt6  1  0.001179  0.004283  0.500000  1
  Pt  Pt7  1  0.674418  0.332475  0.000000  1
  Pt  Pt8  1  0.323573  0.662375  0.000000  1
