# generated using pymatgen
data_KNd(SmB12)2
_symmetry_space_group_name_H-M   'P 1'
_cell_length_a   7.15702250
_cell_length_b   7.15702292
_cell_length_c   5.88248400
_cell_angle_alpha   90.00000000
_cell_angle_beta   90.00000000
_cell_angle_gamma   109.24146965
_symmetry_Int_Tables_number   1
_chemical_formula_structural   KNd(SmB12)2
_chemical_formula_sum   'K1 Nd1 Sm2 B24'
_cell_volume   284.48610972
_cell_formula_units_Z   1
loop_
 _symmetry_equiv_pos_site_id
 _symmetry_equiv_pos_as_xyz
  1  'x, y, z'
loop_
 _atom_site_type_symbol
 _atom_site_label
 _atom_site_symmetry_multiplicity
 _atom_site_fract_x
 _atom_site_fract_y
 _atom_site_fract_z
 _atom_site_occupancy
  K  K0  1  0.749264  0.250736  0.500000  1
  Nd  Nd1  1  0.998642  0.001358  0.000000  1
  Sm  Sm2  1  0.500945  0.499055  0.000000  1
  Sm  Sm3  1  0.251196  0.748804  0.500000  1
  B  B4  1  0.175185  0.326025  0.648513  1
  B  B5  1  0.925656  0.575291  0.149990  1
  B  B6  1  0.673975  0.824815  0.648513  1
  B  B7  1  0.424709  0.074344  0.149990  1
  B  B8  1  0.175185  0.326025  0.351487  1
  B  B9  1  0.925656  0.575291  0.850010  1
  B  B10  1  0.673975  0.824815  0.351487  1
  B  B11  1  0.424709  0.074344  0.850010  1
  B  B12  1  0.400781  0.399176  0.500000  1
  B  B13  1  0.150132  0.650420  0.000000  1
  B  B14  1  0.898774  0.900314  0.500000  1
  B  B15  1  0.649238  0.148973  0.000000  1
  B  B16  1  0.325472  0.174619  0.648504  1
  B  B17  1  0.075857  0.426281  0.150049  1
  B  B18  1  0.825381  0.674528  0.648504  1
  B  B19  1  0.573719  0.924143  0.150049  1
  B  B20  1  0.099686  0.101226  0.500000  1
  B  B21  1  0.851027  0.350762  0.000000  1
  B  B22  1  0.600824  0.599219  0.500000  1
  B  B23  1  0.349580  0.849868  0.000000  1
  B  B24  1  0.325472  0.174619  0.351496  1
  B  B25  1  0.075857  0.426281  0.849951  1
  B  B26  1  0.825381  0.674528  0.351496  1
  B  B27  1  0.573719  0.924143  0.849951  1
