# generated using pymatgen
data_Tm4Al4IrPt3
_symmetry_space_group_name_H-M   'P 1'
_cell_length_a   4.38365500
_cell_length_b   6.75030108
_cell_length_c   7.76042011
_cell_angle_alpha   90.01867306
_cell_angle_beta   90.00000000
_cell_angle_gamma   90.00000000
_symmetry_Int_Tables_number   1
_chemical_formula_structural   Tm4Al4IrPt3
_chemical_formula_sum   'Tm4 Al4 Ir1 Pt3'
_cell_volume   229.63851019
_cell_formula_units_Z   1
loop_
 _symmetry_equiv_pos_site_id
 _symmetry_equiv_pos_as_xyz
  1  'x, y, z'
loop_
 _atom_site_type_symbol
 _atom_site_label
 _atom_site_symmetry_multiplicity
 _atom_site_fract_x
 _atom_site_fract_y
 _atom_site_fract_z
 _atom_site_occupancy
  Tm  Tm0  1  0.250000  0.031185  0.678123  1
  Tm  Tm1  1  0.250000  0.529332  0.819689  1
  Tm  Tm2  1  0.750000  0.976300  0.320468  1
  Tm  Tm3  1  0.750000  0.469298  0.182451  1
  Al  Al4  1  0.250000  0.146466  0.063262  1
  Al  Al5  1  0.250000  0.640067  0.437690  1
  Al  Al6  1  0.750000  0.854711  0.938800  1
  Al  Al7  1  0.750000  0.354881  0.560420  1
  Ir  Ir8  1  0.250000  0.265727  0.381434  1
  Pt  Pt9  1  0.250000  0.770216  0.117729  1
  Pt  Pt10  1  0.750000  0.731203  0.618662  1
  Pt  Pt11  1  0.750000  0.230614  0.881273  1
