# generated using pymatgen
data_MgBiRh4(PbO7)2
_symmetry_space_group_name_H-M   'P 1'
_cell_length_a   7.30054108
_cell_length_b   7.14273011
_cell_length_c   7.23797100
_cell_angle_alpha   59.55792244
_cell_angle_beta   60.28310624
_cell_angle_gamma   59.72493743
_symmetry_Int_Tables_number   1
_chemical_formula_structural   MgBiRh4(PbO7)2
_chemical_formula_sum   'Mg1 Bi1 Rh4 Pb2 O14'
_cell_volume   265.98335047
_cell_formula_units_Z   1
loop_
 _symmetry_equiv_pos_site_id
 _symmetry_equiv_pos_as_xyz
  1  'x, y, z'
loop_
 _atom_site_type_symbol
 _atom_site_label
 _atom_site_symmetry_multiplicity
 _atom_site_fract_x
 _atom_site_fract_y
 _atom_site_fract_z
 _atom_site_occupancy
  Mg  Mg0  1  0.125000  0.625000  0.125000  1
  Bi  Bi1  1  0.625000  0.125000  0.125000  1
  Rh  Rh2  1  0.625000  0.625000  0.625000  1
  Rh  Rh3  1  0.625000  0.625000  0.125000  1
  Rh  Rh4  1  0.125000  0.625000  0.625000  1
  Rh  Rh5  1  0.625000  0.125000  0.625000  1
  Pb  Pb6  1  0.125000  0.125000  0.125000  1
  Pb  Pb7  1  0.125000  0.125000  0.625000  1
  O  O8  1  0.246229  0.278525  0.237624  1
  O  O9  1  0.293986  0.708658  0.293527  1
  O  O10  1  0.957941  0.962996  0.539532  1
  O  O11  1  0.540692  0.961438  0.538735  1
  O  O12  1  0.709732  0.708182  0.291042  1
  O  O13  1  0.956014  0.541342  0.546173  1
  O  O14  1  0.709308  0.288562  0.711265  1
  O  O15  1  0.292059  0.287004  0.710468  1
  O  O16  1  0.709308  0.288562  0.290865  1
  O  O17  1  0.293986  0.708658  0.703827  1
  O  O18  1  0.956014  0.541342  0.956473  1
  O  O19  1  0.540268  0.541818  0.958958  1
  O  O20  1  0.003771  0.971475  0.012376  1
  O  O21  1  0.540692  0.961438  0.959135  1
