# generated using pymatgen
data_Nd2Y(Ga2Ni3)3
_symmetry_space_group_name_H-M   'P 1'
_cell_length_a   8.84042200
_cell_length_b   8.84042197
_cell_length_c   4.12535600
_cell_angle_alpha   90.00000000
_cell_angle_beta   90.00000000
_cell_angle_gamma   120.00000010
_symmetry_Int_Tables_number   1
_chemical_formula_structural   Nd2Y(Ga2Ni3)3
_chemical_formula_sum   'Nd2 Y1 Ga6 Ni9'
_cell_volume   279.21455617
_cell_formula_units_Z   1
loop_
 _symmetry_equiv_pos_site_id
 _symmetry_equiv_pos_as_xyz
  1  'x, y, z'
loop_
 _atom_site_type_symbol
 _atom_site_label
 _atom_site_symmetry_multiplicity
 _atom_site_fract_x
 _atom_site_fract_y
 _atom_site_fract_z
 _atom_site_occupancy
  Nd  Nd0  1  0.333333  0.666667  0.500000  1
  Nd  Nd1  1  0.666667  0.333333  0.500000  1
  Y  Y2  1  0.000000  0.000000  0.000000  1
  Ga  Ga3  1  0.481183  0.000000  0.000000  1
  Ga  Ga4  1  0.000000  0.481183  0.000000  1
  Ga  Ga5  1  0.518817  0.518817  0.000000  1
  Ga  Ga6  1  0.731245  0.000000  0.500000  1
  Ga  Ga7  1  0.000000  0.731245  0.500000  1
  Ga  Ga8  1  0.268755  0.268755  0.500000  1
  Ni  Ni9  1  0.195468  0.368169  0.000000  1
  Ni  Ni10  1  0.631831  0.827299  0.000000  1
  Ni  Ni11  1  0.172701  0.804532  0.000000  1
  Ni  Ni12  1  0.827299  0.631831  0.000000  1
  Ni  Ni13  1  0.804532  0.172701  0.000000  1
  Ni  Ni14  1  0.368169  0.195468  0.000000  1
  Ni  Ni15  1  0.290037  0.000000  0.500000  1
  Ni  Ni16  1  0.000000  0.290037  0.500000  1
  Ni  Ni17  1  0.709963  0.709963  0.500000  1
