# generated using pymatgen
data_Ac3Si2
_symmetry_space_group_name_H-M   'P 1'
_cell_length_a   8.22287300
_cell_length_b   8.22287300
_cell_length_c   4.66665900
_cell_angle_alpha   90.00000000
_cell_angle_beta   90.00000000
_cell_angle_gamma   90.00000000
_symmetry_Int_Tables_number   1
_chemical_formula_structural   Ac3Si2
_chemical_formula_sum   'Ac6 Si4'
_cell_volume   315.53913669
_cell_formula_units_Z   2
loop_
 _symmetry_equiv_pos_site_id
 _symmetry_equiv_pos_as_xyz
  1  'x, y, z'
loop_
 _atom_site_type_symbol
 _atom_site_label
 _atom_site_symmetry_multiplicity
 _atom_site_fract_x
 _atom_site_fract_y
 _atom_site_fract_z
 _atom_site_occupancy
  Ac  Ac0  1  0.500000  0.500000  0.000000  1
  Ac  Ac1  1  0.000000  0.000000  0.000000  1
  Ac  Ac2  1  0.675532  0.175532  0.500000  1
  Ac  Ac3  1  0.324468  0.824468  0.500000  1
  Ac  Ac4  1  0.175532  0.324468  0.500000  1
  Ac  Ac5  1  0.824468  0.675532  0.500000  1
  Si  Si6  1  0.106867  0.606867  0.000000  1
  Si  Si7  1  0.893133  0.393133  0.000000  1
  Si  Si8  1  0.606867  0.893133  0.000000  1
  Si  Si9  1  0.393133  0.106867  0.000000  1
