# generated using pymatgen
data_Tm3Lu5Re(B8Ir)3
_symmetry_space_group_name_H-M   'P 1'
_cell_length_a   3.61000800
_cell_length_b   9.07502744
_cell_length_c   11.41129000
_cell_angle_alpha   90.14398031
_cell_angle_beta   90.00000000
_cell_angle_gamma   90.00000000
_symmetry_Int_Tables_number   1
_chemical_formula_structural   Tm3Lu5Re(B8Ir)3
_chemical_formula_sum   'Tm3 Lu5 Re1 B24 Ir3'
_cell_volume   373.84319727
_cell_formula_units_Z   1
loop_
 _symmetry_equiv_pos_site_id
 _symmetry_equiv_pos_as_xyz
  1  'x, y, z'
loop_
 _atom_site_type_symbol
 _atom_site_label
 _atom_site_symmetry_multiplicity
 _atom_site_fract_x
 _atom_site_fract_y
 _atom_site_fract_z
 _atom_site_occupancy
  Tm  Tm0  1  0.000000  0.319749  0.413926  1
  Tm  Tm1  1  0.000000  0.684246  0.590404  1
  Tm  Tm2  1  0.000000  0.819640  0.082475  1
  Lu  Lu3  1  0.000000  0.176617  0.912369  1
  Lu  Lu4  1  0.000000  0.943791  0.373442  1
  Lu  Lu5  1  0.000000  0.053614  0.626441  1
  Lu  Lu6  1  0.000000  0.443425  0.125821  1
  Lu  Lu7  1  0.000000  0.557373  0.874891  1
  Re  Re8  1  0.000000  0.862540  0.821244  1
  B  B9  1  0.500000  0.553862  0.434740  1
  B  B10  1  0.500000  0.447386  0.566096  1
  B  B11  1  0.500000  0.053846  0.065645  1
  B  B12  1  0.500000  0.947108  0.933842  1
  B  B13  1  0.500000  0.751339  0.420802  1
  B  B14  1  0.500000  0.249278  0.579018  1
  B  B15  1  0.500000  0.249925  0.078357  1
  B  B16  1  0.500000  0.750614  0.920081  1
  B  B17  1  0.500000  0.793037  0.264243  1
  B  B18  1  0.500000  0.206948  0.734438  1
  B  B19  1  0.500000  0.293721  0.235518  1
  B  B20  1  0.500000  0.707215  0.765592  1
  B  B21  1  0.500000  0.630598  0.183502  1
  B  B22  1  0.500000  0.368355  0.816707  1
  B  B23  1  0.500000  0.131517  0.316358  1
  B  B24  1  0.500000  0.869550  0.684715  1
  B  B25  1  0.500000  0.980906  0.213196  1
  B  B26  1  0.500000  0.018733  0.786566  1
  B  B27  1  0.500000  0.480457  0.287027  1
  B  B28  1  0.500000  0.518721  0.714228  1
  B  B29  1  0.500000  0.605391  0.030085  1
  B  B30  1  0.500000  0.391622  0.970845  1
  B  B31  1  0.500000  0.106865  0.470277  1
  B  B32  1  0.500000  0.894142  0.528025  1
  Ir  Ir33  1  0.000000  0.637756  0.321760  1
  Ir  Ir34  1  0.000000  0.362224  0.678639  1
  Ir  Ir35  1  0.000000  0.137885  0.178684  1
