# generated using pymatgen
data_Pr3ThSiI6
_symmetry_space_group_name_H-M   'P 1'
_cell_length_a   4.37540800
_cell_length_b   14.50028229
_cell_length_c   15.32925987
_cell_angle_alpha   90.12987048
_cell_angle_beta   90.00000000
_cell_angle_gamma   90.00000000
_symmetry_Int_Tables_number   1
_chemical_formula_structural   Pr3ThSiI6
_chemical_formula_sum   'Pr6 Th2 Si2 I12'
_cell_volume   972.55704610
_cell_formula_units_Z   2
loop_
 _symmetry_equiv_pos_site_id
 _symmetry_equiv_pos_as_xyz
  1  'x, y, z'
loop_
 _atom_site_type_symbol
 _atom_site_label
 _atom_site_symmetry_multiplicity
 _atom_site_fract_x
 _atom_site_fract_y
 _atom_site_fract_z
 _atom_site_occupancy
  Pr  Pr0  1  0.500000  0.113519  0.348866  1
  Pr  Pr1  1  0.500000  0.886481  0.651134  1
  Pr  Pr2  1  0.500000  0.615388  0.153958  1
  Pr  Pr3  1  0.500000  0.384612  0.846042  1
  Pr  Pr4  1  0.000000  0.614037  0.923414  1
  Pr  Pr5  1  0.000000  0.385963  0.076586  1
  Th  Th6  1  0.000000  0.107030  0.571391  1
  Th  Th7  1  0.000000  0.892970  0.428609  1
  Si  Si8  1  0.500000  0.000000  0.500000  1
  Si  Si9  1  0.500000  0.500000  0.000000  1
  I  I10  1  0.500000  0.242877  0.163567  1
  I  I11  1  0.500000  0.757123  0.836433  1
  I  I12  1  0.500000  0.748995  0.340495  1
  I  I13  1  0.500000  0.251005  0.659505  1
  I  I14  1  0.000000  0.259432  0.417626  1
  I  I15  1  0.000000  0.740568  0.582374  1
  I  I16  1  0.000000  0.759927  0.085310  1
  I  I17  1  0.000000  0.240073  0.914690  1
  I  I18  1  0.000000  0.995612  0.241655  1
  I  I19  1  0.000000  0.004388  0.758345  1
  I  I20  1  0.000000  0.498748  0.260901  1
  I  I21  1  0.000000  0.501252  0.739099  1
