# generated using pymatgen
data_UAg2(MoO5)2
_symmetry_space_group_name_H-M   'P 1'
_cell_length_a   5.93508113
_cell_length_b   6.07645060
_cell_length_c   8.82589594
_cell_angle_alpha   108.74742248
_cell_angle_beta   98.01764618
_cell_angle_gamma   101.94485712
_symmetry_Int_Tables_number   1
_chemical_formula_structural   UAg2(MoO5)2
_chemical_formula_sum   'U1 Ag2 Mo2 O10'
_cell_volume   287.50308691
_cell_formula_units_Z   1
loop_
 _symmetry_equiv_pos_site_id
 _symmetry_equiv_pos_as_xyz
  1  'x, y, z'
loop_
 _atom_site_type_symbol
 _atom_site_label
 _atom_site_symmetry_multiplicity
 _atom_site_fract_x
 _atom_site_fract_y
 _atom_site_fract_z
 _atom_site_occupancy
  U  U0  1  0.000000  0.000000  0.000000  1
  Ag  Ag1  1  0.484728  0.188525  0.402216  1
  Ag  Ag2  1  0.515270  0.811475  0.597784  1
  Mo  Mo3  1  0.922076  0.643432  0.287518  1
  Mo  Mo4  1  0.077924  0.356568  0.712482  1
  O  O5  1  0.836260  0.803009  0.154281  1
  O  O6  1  0.288167  0.051758  0.134560  1
  O  O7  1  0.968660  0.358328  0.165282  1
  O  O8  1  0.699893  0.583107  0.395120  1
  O  O9  1  0.189920  0.827426  0.430885  1
  O  O10  1  0.810079  0.172573  0.569114  1
  O  O11  1  0.300108  0.416893  0.604881  1
  O  O12  1  0.031341  0.641673  0.834719  1
  O  O13  1  0.711834  0.948242  0.865440  1
  O  O14  1  0.163740  0.196991  0.845719  1
