# generated using pymatgen
data_HfZr2B2Ru4Pt
_symmetry_space_group_name_H-M   'P 1'
_cell_length_a   9.54556605
_cell_length_b   9.58586705
_cell_length_c   3.17401000
_cell_angle_alpha   90.00000000
_cell_angle_beta   90.00000000
_cell_angle_gamma   90.01168607
_symmetry_Int_Tables_number   1
_chemical_formula_structural   HfZr2B2Ru4Pt
_chemical_formula_sum   'Hf2 Zr4 B4 Ru8 Pt2'
_cell_volume   290.42992990
_cell_formula_units_Z   2
loop_
 _symmetry_equiv_pos_site_id
 _symmetry_equiv_pos_as_xyz
  1  'x, y, z'
loop_
 _atom_site_type_symbol
 _atom_site_label
 _atom_site_symmetry_multiplicity
 _atom_site_fract_x
 _atom_site_fract_y
 _atom_site_fract_z
 _atom_site_occupancy
  Hf  Hf0  1  0.000000  0.000000  0.000000  1
  Hf  Hf1  1  0.500000  0.500000  0.000000  1
  Zr  Zr2  1  0.674014  0.182463  0.000000  1
  Zr  Zr3  1  0.325986  0.817537  0.000000  1
  Zr  Zr4  1  0.174455  0.332064  0.000000  1
  Zr  Zr5  1  0.825545  0.667936  0.000000  1
  B  B6  1  0.121051  0.622903  0.000000  1
  B  B7  1  0.878949  0.377097  0.000000  1
  B  B8  1  0.609474  0.871836  0.000000  1
  B  B9  1  0.390526  0.128164  0.000000  1
  Ru  Ru10  1  0.069445  0.779908  0.500000  1
  Ru  Ru11  1  0.721326  0.427094  0.500000  1
  Ru  Ru12  1  0.930555  0.220092  0.500000  1
  Ru  Ru13  1  0.278674  0.572906  0.500000  1
  Ru  Ru14  1  0.574314  0.721353  0.500000  1
  Ru  Ru15  1  0.425686  0.278647  0.500000  1
  Ru  Ru16  1  0.500000  0.000000  0.500000  1
  Ru  Ru17  1  0.000000  0.500000  0.500000  1
  Pt  Pt18  1  0.222699  0.070176  0.500000  1
  Pt  Pt19  1  0.777301  0.929824  0.500000  1
