# generated using pymatgen
data_KBaBi2(SbAu2)2
_symmetry_space_group_name_H-M   'P 1'
_cell_length_a   4.91548000
_cell_length_b   5.02122673
_cell_length_c   11.56932798
_cell_angle_alpha   88.90918943
_cell_angle_beta   90.00000000
_cell_angle_gamma   90.00000000
_symmetry_Int_Tables_number   1
_chemical_formula_structural   KBaBi2(SbAu2)2
_chemical_formula_sum   'K1 Ba1 Bi2 Sb2 Au4'
_cell_volume   285.49939206
_cell_formula_units_Z   1
loop_
 _symmetry_equiv_pos_site_id
 _symmetry_equiv_pos_as_xyz
  1  'x, y, z'
loop_
 _atom_site_type_symbol
 _atom_site_label
 _atom_site_symmetry_multiplicity
 _atom_site_fract_x
 _atom_site_fract_y
 _atom_site_fract_z
 _atom_site_occupancy
  K  K0  1  0.250000  0.736134  0.764629  1
  Ba  Ba1  1  0.750000  0.262822  0.234701  1
  Bi  Bi2  1  0.750000  0.750965  0.500905  1
  Bi  Bi3  1  0.250000  0.249343  0.500448  1
  Sb  Sb4  1  0.250000  0.805019  0.116149  1
  Sb  Sb5  1  0.750000  0.195369  0.883062  1
  Au  Au6  1  0.750000  0.691238  0.999985  1
  Au  Au7  1  0.750000  0.249075  0.648780  1
  Au  Au8  1  0.250000  0.751114  0.352460  1
  Au  Au9  1  0.250000  0.308920  0.998880  1
