# generated using pymatgen
data_Ca6Co3Ni17As13
_symmetry_space_group_name_H-M   'P 1'
_cell_length_a   13.20290700
_cell_length_b   13.20290650
_cell_length_c   3.86049100
_cell_angle_alpha   90.00000000
_cell_angle_beta   90.00000000
_cell_angle_gamma   120.00000376
_symmetry_Int_Tables_number   1
_chemical_formula_structural   Ca6Co3Ni17As13
_chemical_formula_sum   'Ca6 Co3 Ni17 As13'
_cell_volume   582.79024193
_cell_formula_units_Z   1
loop_
 _symmetry_equiv_pos_site_id
 _symmetry_equiv_pos_as_xyz
  1  'x, y, z'
loop_
 _atom_site_type_symbol
 _atom_site_label
 _atom_site_symmetry_multiplicity
 _atom_site_fract_x
 _atom_site_fract_y
 _atom_site_fract_z
 _atom_site_occupancy
  Ca  Ca0  1  0.529631  0.811918  0.000000  1
  Ca  Ca1  1  0.282285  0.470369  0.000000  1
  Ca  Ca2  1  0.188082  0.717715  0.000000  1
  Ca  Ca3  1  0.810832  0.280931  0.500000  1
  Ca  Ca4  1  0.470099  0.189168  0.500000  1
  Ca  Ca5  1  0.719069  0.529901  0.500000  1
  Co  Co6  1  0.803452  0.909959  0.000000  1
  Co  Co7  1  0.106507  0.196548  0.000000  1
  Co  Co8  1  0.090041  0.893493  0.000000  1
  Ni  Ni9  1  0.333333  0.666667  0.500000  1
  Ni  Ni10  1  0.931271  0.081492  0.500000  1
  Ni  Ni11  1  0.150221  0.068729  0.500000  1
  Ni  Ni12  1  0.918508  0.849779  0.500000  1
  Ni  Ni13  1  0.666667  0.333333  0.000000  1
  Ni  Ni14  1  0.563227  0.584758  0.000000  1
  Ni  Ni15  1  0.021530  0.436773  0.000000  1
  Ni  Ni16  1  0.415242  0.978470  0.000000  1
  Ni  Ni17  1  0.685196  0.754159  0.500000  1
  Ni  Ni18  1  0.068963  0.314804  0.500000  1
  Ni  Ni19  1  0.245841  0.931037  0.500000  1
  Ni  Ni20  1  0.980265  0.564999  0.500000  1
  Ni  Ni21  1  0.584735  0.019735  0.500000  1
  Ni  Ni22  1  0.435001  0.415265  0.500000  1
  Ni  Ni23  1  0.753222  0.075131  0.000000  1
  Ni  Ni24  1  0.321909  0.246778  0.000000  1
  Ni  Ni25  1  0.924869  0.678091  0.000000  1
  As  As26  1  0.477895  0.615746  0.500000  1
  As  As27  1  0.137851  0.522105  0.500000  1
  As  As28  1  0.384254  0.862149  0.500000  1
  As  As29  1  0.723797  0.953420  0.500000  1
  As  As30  1  0.229625  0.276203  0.500000  1
  As  As31  1  0.046580  0.770375  0.500000  1
  As  As32  1  0.861632  0.476711  0.000000  1
  As  As33  1  0.615079  0.138368  0.000000  1
  As  As34  1  0.523289  0.384921  0.000000  1
  As  As35  1  0.949646  0.228937  0.000000  1
  As  As36  1  0.279291  0.050354  0.000000  1
  As  As37  1  0.771063  0.720709  0.000000  1
  As  As38  1  0.000000  0.000000  0.000000  1
