# generated using pymatgen
data_Tb20Ir3(Ru2Rh)3
_symmetry_space_group_name_H-M   'P 1'
_cell_length_a   10.90618929
_cell_length_b   10.90275616
_cell_length_c   6.42838154
_cell_angle_alpha   90.02617426
_cell_angle_beta   89.93509258
_cell_angle_gamma   89.95399286
_symmetry_Int_Tables_number   1
_chemical_formula_structural   Tb20Ir3(Ru2Rh)3
_chemical_formula_sum   'Tb20 Ir3 Ru6 Rh3'
_cell_volume   764.38210617
_cell_formula_units_Z   1
loop_
 _symmetry_equiv_pos_site_id
 _symmetry_equiv_pos_as_xyz
  1  'x, y, z'
loop_
 _atom_site_type_symbol
 _atom_site_label
 _atom_site_symmetry_multiplicity
 _atom_site_fract_x
 _atom_site_fract_y
 _atom_site_fract_z
 _atom_site_occupancy
  Tb  Tb0  1  0.294072  0.087370  0.378984  1
  Tb  Tb1  1  0.294081  0.912426  0.878908  1
  Tb  Tb2  1  0.708302  0.085751  0.879058  1
  Tb  Tb3  1  0.708118  0.913115  0.378775  1
  Tb  Tb4  1  0.587819  0.793214  0.879940  1
  Tb  Tb5  1  0.587479  0.205858  0.378524  1
  Tb  Tb6  1  0.414207  0.793359  0.378984  1
  Tb  Tb7  1  0.412926  0.205911  0.879486  1
  Tb  Tb8  1  0.206594  0.414251  0.620092  1
  Tb  Tb9  1  0.206457  0.585887  0.120526  1
  Tb  Tb10  1  0.794061  0.412741  0.121854  1
  Tb  Tb11  1  0.793972  0.589044  0.620367  1
  Tb  Tb12  1  0.911748  0.706894  0.120074  1
  Tb  Tb13  1  0.912622  0.293152  0.620004  1
  Tb  Tb14  1  0.085820  0.707341  0.622084  1
  Tb  Tb15  1  0.085870  0.292765  0.122235  1
  Tb  Tb16  1  0.998043  0.000840  0.500026  1
  Tb  Tb17  1  0.998107  0.999267  0.999921  1
  Tb  Tb18  1  0.499682  0.500292  0.000139  1
  Tb  Tb19  1  0.499807  0.499953  0.499989  1
  Ir  Ir20  1  0.652049  0.651472  0.249734  1
  Ir  Ir21  1  0.347768  0.346906  0.250319  1
  Ir  Ir22  1  0.347178  0.653330  0.750419  1
  Ru  Ru23  1  0.847706  0.152787  0.249705  1
  Ru  Ru24  1  0.847829  0.847449  0.749633  1
  Ru  Ru25  1  0.499450  0.000429  0.122586  1
  Ru  Ru26  1  0.499509  0.000327  0.622890  1
  Ru  Ru27  1  0.999792  0.500063  0.877139  1
  Ru  Ru28  1  0.999828  0.499453  0.377491  1
  Rh  Rh29  1  0.153557  0.153025  0.750234  1
  Rh  Rh30  1  0.153512  0.847176  0.250228  1
  Rh  Rh31  1  0.652034  0.348152  0.749651  1
