# generated using pymatgen
data_DyHo3Pd3Pt
_symmetry_space_group_name_H-M   'P 1'
_cell_length_a   4.55083700
_cell_length_b   5.59584134
_cell_length_c   6.98616700
_cell_angle_alpha   90.03969658
_cell_angle_beta   90.00000000
_cell_angle_gamma   90.00000000
_symmetry_Int_Tables_number   1
_chemical_formula_structural   DyHo3Pd3Pt
_chemical_formula_sum   'Dy1 Ho3 Pd3 Pt1'
_cell_volume   177.90802223
_cell_formula_units_Z   1
loop_
 _symmetry_equiv_pos_site_id
 _symmetry_equiv_pos_as_xyz
  1  'x, y, z'
loop_
 _atom_site_type_symbol
 _atom_site_label
 _atom_site_symmetry_multiplicity
 _atom_site_fract_x
 _atom_site_fract_y
 _atom_site_fract_z
 _atom_site_occupancy
  Dy  Dy0  1  0.750000  0.639922  0.317908  1
  Ho  Ho1  1  0.250000  0.356090  0.686004  1
  Ho  Ho2  1  0.250000  0.144556  0.179250  1
  Ho  Ho3  1  0.750000  0.859081  0.818037  1
  Pd  Pd4  1  0.250000  0.847819  0.542717  1
  Pd  Pd5  1  0.250000  0.656341  0.043146  1
  Pd  Pd6  1  0.750000  0.150493  0.457217  1
  Pt  Pt7  1  0.750000  0.345702  0.955719  1
