# generated using pymatgen
data_Tm2Fe4Co6Ni2P7
_symmetry_space_group_name_H-M   'P 1'
_cell_length_a   8.95983916
_cell_length_b   8.97536511
_cell_length_c   3.61653800
_cell_angle_alpha   90.00000000
_cell_angle_beta   90.00000000
_cell_angle_gamma   119.84443479
_symmetry_Int_Tables_number   1
_chemical_formula_structural   Tm2Fe4Co6Ni2P7
_chemical_formula_sum   'Tm2 Fe4 Co6 Ni2 P7'
_cell_volume   252.26364161
_cell_formula_units_Z   1
loop_
 _symmetry_equiv_pos_site_id
 _symmetry_equiv_pos_as_xyz
  1  'x, y, z'
loop_
 _atom_site_type_symbol
 _atom_site_label
 _atom_site_symmetry_multiplicity
 _atom_site_fract_x
 _atom_site_fract_y
 _atom_site_fract_z
 _atom_site_occupancy
  Tm  Tm0  1  0.332043  0.666246  0.000000  1
  Tm  Tm1  1  0.000203  0.998655  0.500000  1
  Fe  Fe2  1  0.547845  0.490923  0.000000  1
  Fe  Fe3  1  0.759203  0.209026  0.500000  1
  Fe  Fe4  1  0.448221  0.238663  0.500000  1
  Fe  Fe5  1  0.790884  0.552049  0.500000  1
  Co  Co6  1  0.037725  0.764850  0.000000  1
  Co  Co7  1  0.940580  0.450810  0.000000  1
  Co  Co8  1  0.509821  0.057569  0.000000  1
  Co  Co9  1  0.102430  0.383738  0.500000  1
  Co  Co10  1  0.281371  0.898257  0.500000  1
  Co  Co11  1  0.619044  0.722175  0.500000  1
  Ni  Ni12  1  0.729914  0.962897  0.000000  1
  Ni  Ni13  1  0.233736  0.269979  0.000000  1
  P  P14  1  0.965157  0.222956  0.000000  1
  P  P15  1  0.255715  0.032294  0.000000  1
  P  P16  1  0.780155  0.739497  0.000000  1
  P  P17  1  0.069176  0.622966  0.500000  1
  P  P18  1  0.548853  0.928692  0.500000  1
  P  P19  1  0.382947  0.453490  0.500000  1
  P  P20  1  0.664981  0.334265  0.000000  1
