# generated using pymatgen
data_Li3La4HoPt4
_symmetry_space_group_name_H-M   'P 1'
_cell_length_a   4.19962800
_cell_length_b   7.46834361
_cell_length_c   9.02594137
_cell_angle_alpha   91.80831957
_cell_angle_beta   90.00000000
_cell_angle_gamma   90.00000000
_symmetry_Int_Tables_number   1
_chemical_formula_structural   Li3La4HoPt4
_chemical_formula_sum   'Li3 La4 Ho1 Pt4'
_cell_volume   282.95103324
_cell_formula_units_Z   1
loop_
 _symmetry_equiv_pos_site_id
 _symmetry_equiv_pos_as_xyz
  1  'x, y, z'
loop_
 _atom_site_type_symbol
 _atom_site_label
 _atom_site_symmetry_multiplicity
 _atom_site_fract_x
 _atom_site_fract_y
 _atom_site_fract_z
 _atom_site_occupancy
  Li  Li0  1  0.250000  0.129738  0.054458  1
  Li  Li1  1  0.250000  0.644771  0.434089  1
  Li  Li2  1  0.750000  0.876353  0.948617  1
  La  La3  1  0.250000  0.016686  0.697451  1
  La  La4  1  0.250000  0.551813  0.834989  1
  La  La5  1  0.750000  0.956816  0.306374  1
  La  La6  1  0.750000  0.462458  0.176591  1
  Ho  Ho7  1  0.750000  0.372718  0.556897  1
  Pt  Pt8  1  0.250000  0.237219  0.382697  1
  Pt  Pt9  1  0.250000  0.752848  0.118784  1
  Pt  Pt10  1  0.750000  0.743808  0.618357  1
  Pt  Pt11  1  0.750000  0.254769  0.870699  1
