# generated using pymatgen
data_Hf3TaOs2N
_symmetry_space_group_name_H-M   'P 1'
_cell_length_a   8.65470801
_cell_length_b   8.65470760
_cell_length_c   8.65470900
_cell_angle_alpha   59.99999847
_cell_angle_beta   60.00000003
_cell_angle_gamma   59.99999846
_symmetry_Int_Tables_number   1
_chemical_formula_structural   Hf3TaOs2N
_chemical_formula_sum   'Hf12 Ta4 Os8 N4'
_cell_volume   458.39754421
_cell_formula_units_Z   4
loop_
 _symmetry_equiv_pos_site_id
 _symmetry_equiv_pos_as_xyz
  1  'x, y, z'
loop_
 _atom_site_type_symbol
 _atom_site_label
 _atom_site_symmetry_multiplicity
 _atom_site_fract_x
 _atom_site_fract_y
 _atom_site_fract_z
 _atom_site_occupancy
  Hf  Hf0  1  0.813759  0.813759  0.186241  1
  Hf  Hf1  1  0.186241  0.186241  0.813759  1
  Hf  Hf2  1  0.813759  0.186241  0.813759  1
  Hf  Hf3  1  0.186241  0.813759  0.186241  1
  Hf  Hf4  1  0.186241  0.813759  0.813759  1
  Hf  Hf5  1  0.813759  0.186241  0.186241  1
  Hf  Hf6  1  0.436241  0.436241  0.063759  1
  Hf  Hf7  1  0.063759  0.063759  0.436241  1
  Hf  Hf8  1  0.436241  0.063759  0.436241  1
  Hf  Hf9  1  0.063759  0.436241  0.063759  1
  Hf  Hf10  1  0.063759  0.436241  0.436241  1
  Hf  Hf11  1  0.436241  0.063759  0.063759  1
  Ta  Ta12  1  0.125000  0.625000  0.625000  1
  Ta  Ta13  1  0.625000  0.125000  0.625000  1
  Ta  Ta14  1  0.625000  0.625000  0.125000  1
  Ta  Ta15  1  0.625000  0.625000  0.625000  1
  Os  Os16  1  0.753092  0.415636  0.415636  1
  Os  Os17  1  0.415636  0.753092  0.415636  1
  Os  Os18  1  0.415636  0.415636  0.753092  1
  Os  Os19  1  0.415636  0.415636  0.415636  1
  Os  Os20  1  0.496908  0.834364  0.834364  1
  Os  Os21  1  0.834364  0.496908  0.834364  1
  Os  Os22  1  0.834364  0.834364  0.496908  1
  Os  Os23  1  0.834364  0.834364  0.834364  1
  N  N24  1  0.625000  0.125000  0.125000  1
  N  N25  1  0.125000  0.625000  0.125000  1
  N  N26  1  0.125000  0.125000  0.625000  1
  N  N27  1  0.125000  0.125000  0.125000  1
