# generated using pymatgen
data_CeU3(Si5Pt3)2
_symmetry_space_group_name_H-M   'P 1'
_cell_length_a   8.18000014
_cell_length_b   8.16246882
_cell_length_c   8.16247036
_cell_angle_alpha   135.86343373
_cell_angle_beta   104.90405354
_cell_angle_gamma   91.40456298
_symmetry_Int_Tables_number   1
_chemical_formula_structural   CeU3(Si5Pt3)2
_chemical_formula_sum   'Ce1 U3 Si10 Pt6'
_cell_volume   348.59981856
_cell_formula_units_Z   1
loop_
 _symmetry_equiv_pos_site_id
 _symmetry_equiv_pos_as_xyz
  1  'x, y, z'
loop_
 _atom_site_type_symbol
 _atom_site_label
 _atom_site_symmetry_multiplicity
 _atom_site_fract_x
 _atom_site_fract_y
 _atom_site_fract_z
 _atom_site_occupancy
  Ce  Ce0  1  0.899529  0.129109  0.770421  1
  U  U1  1  0.636884  0.367760  0.269124  1
  U  U2  1  0.361635  0.630836  0.730800  1
  U  U3  1  0.101581  0.871255  0.230326  1
  Si  Si4  1  0.462177  0.112422  0.349756  1
  Si  Si5  1  0.534170  0.884784  0.649385  1
  Si  Si6  1  0.762413  0.612356  0.150057  1
  Si  Si7  1  0.239333  0.389550  0.849783  1
  Si  Si8  1  0.273080  0.523072  0.249930  1
  Si  Si9  1  0.727697  0.478562  0.749563  1
  Si  Si10  1  0.727697  0.978134  0.249135  1
  Si  Si11  1  0.273080  0.023151  0.750008  1
  Si  Si12  1  0.999844  0.251693  0.253461  1
  Si  Si13  1  0.999844  0.746383  0.748152  1
  Pt  Pt14  1  0.501326  0.250170  0.750365  1
  Pt  Pt15  1  0.501326  0.750963  0.251157  1
  Pt  Pt16  1  0.246348  0.136674  0.109673  1
  Pt  Pt17  1  0.752179  0.863218  0.888960  1
  Pt  Pt18  1  0.026870  0.637898  0.388970  1
  Pt  Pt19  1  0.972983  0.362011  0.610973  1
