# generated using pymatgen
data_Nd10Pb6S
_symmetry_space_group_name_H-M   'P 1'
_cell_length_a   6.84663400
_cell_length_b   9.40967980
_cell_length_c   9.40967900
_cell_angle_alpha   119.99929058
_cell_angle_beta   90.00013390
_cell_angle_gamma   90.00038364
_symmetry_Int_Tables_number   1
_chemical_formula_structural   Nd10Pb6S
_chemical_formula_sum   'Nd10 Pb6 S1'
_cell_volume   525.00144893
_cell_formula_units_Z   1
loop_
 _symmetry_equiv_pos_site_id
 _symmetry_equiv_pos_as_xyz
  1  'x, y, z'
loop_
 _atom_site_type_symbol
 _atom_site_label
 _atom_site_symmetry_multiplicity
 _atom_site_fract_x
 _atom_site_fract_y
 _atom_site_fract_z
 _atom_site_occupancy
  Nd  Nd0  1  0.499999  0.333333  0.666649  1
  Nd  Nd1  1  0.499998  0.666658  0.333342  1
  Nd  Nd2  1  0.000000  0.666674  0.333336  1
  Nd  Nd3  1  0.999999  0.333316  0.666659  1
  Nd  Nd4  1  0.748816  0.243823  0.999995  1
  Nd  Nd5  1  0.748813  0.756172  0.756184  1
  Nd  Nd6  1  0.748816  0.000008  0.243826  1
  Nd  Nd7  1  0.251179  0.756171  0.999994  1
  Nd  Nd8  1  0.251172  0.243826  0.243822  1
  Nd  Nd9  1  0.251175  0.000013  0.756181  1
  Pb  Pb10  1  0.750996  0.606242  0.000010  1
  Pb  Pb11  1  0.750996  0.393760  0.393755  1
  Pb  Pb12  1  0.750940  0.999994  0.606250  1
  Pb  Pb13  1  0.249100  0.393755  0.999997  1
  Pb  Pb14  1  0.248970  0.606269  0.606263  1
  Pb  Pb15  1  0.249033  0.999988  0.393737  1
  S  S16  1  0.499994  0.000002  0.000000  1
