# generated using pymatgen
data_Zr(Sc7Te9)2
_symmetry_space_group_name_H-M   'P 1'
_cell_length_a   12.35087400
_cell_length_b   12.35087481
_cell_length_c   6.82045300
_cell_angle_alpha   90.00000000
_cell_angle_beta   90.00000000
_cell_angle_gamma   120.00000319
_symmetry_Int_Tables_number   1
_chemical_formula_structural   Zr(Sc7Te9)2
_chemical_formula_sum   'Zr1 Sc14 Te18'
_cell_volume   901.02999577
_cell_formula_units_Z   1
loop_
 _symmetry_equiv_pos_site_id
 _symmetry_equiv_pos_as_xyz
  1  'x, y, z'
loop_
 _atom_site_type_symbol
 _atom_site_label
 _atom_site_symmetry_multiplicity
 _atom_site_fract_x
 _atom_site_fract_y
 _atom_site_fract_z
 _atom_site_occupancy
  Zr  Zr0  1  0.000000  0.000000  0.000000  1
  Sc  Sc1  1  0.000000  0.340514  0.500000  1
  Sc  Sc2  1  0.340514  0.000000  0.500000  1
  Sc  Sc3  1  0.659486  0.659486  0.500000  1
  Sc  Sc4  1  0.000000  0.659486  0.500000  1
  Sc  Sc5  1  0.659486  0.000000  0.500000  1
  Sc  Sc6  1  0.340514  0.340514  0.500000  1
  Sc  Sc7  1  0.318897  0.318897  0.000000  1
  Sc  Sc8  1  0.000000  0.681103  0.000000  1
  Sc  Sc9  1  0.681103  0.000000  0.000000  1
  Sc  Sc10  1  0.681103  0.681103  0.000000  1
  Sc  Sc11  1  0.000000  0.318897  0.000000  1
  Sc  Sc12  1  0.318897  0.000000  0.000000  1
  Sc  Sc13  1  0.333333  0.666667  0.508481  1
  Sc  Sc14  1  0.666667  0.333333  0.491519  1
  Te  Te15  1  0.224419  0.775581  0.247623  1
  Te  Te16  1  0.551160  0.775581  0.247623  1
  Te  Te17  1  0.224419  0.448840  0.247623  1
  Te  Te18  1  0.775581  0.551160  0.752377  1
  Te  Te19  1  0.775581  0.224419  0.752377  1
  Te  Te20  1  0.448840  0.224419  0.752377  1
  Te  Te21  1  0.114229  0.557115  0.764415  1
  Te  Te22  1  0.442885  0.557115  0.764415  1
  Te  Te23  1  0.442885  0.885771  0.764415  1
  Te  Te24  1  0.557115  0.442885  0.235585  1
  Te  Te25  1  0.885771  0.442885  0.235585  1
  Te  Te26  1  0.557115  0.114229  0.235585  1
  Te  Te27  1  0.107241  0.214483  0.733132  1
  Te  Te28  1  0.785517  0.892759  0.733132  1
  Te  Te29  1  0.107241  0.892759  0.733132  1
  Te  Te30  1  0.892759  0.785517  0.266868  1
  Te  Te31  1  0.892759  0.107241  0.266868  1
  Te  Te32  1  0.214483  0.107241  0.266868  1
