# generated using pymatgen
data_TbCe3(HgPd2)2
_symmetry_space_group_name_H-M   'P 1'
_cell_length_a   7.83153905
_cell_length_b   7.83153905
_cell_length_c   3.79124200
_cell_angle_alpha   90.00000000
_cell_angle_beta   90.00000000
_cell_angle_gamma   90.61023300
_symmetry_Int_Tables_number   1
_chemical_formula_structural   TbCe3(HgPd2)2
_chemical_formula_sum   'Tb1 Ce3 Hg2 Pd4'
_cell_volume   232.51507182
_cell_formula_units_Z   1
loop_
 _symmetry_equiv_pos_site_id
 _symmetry_equiv_pos_as_xyz
  1  'x, y, z'
loop_
 _atom_site_type_symbol
 _atom_site_label
 _atom_site_symmetry_multiplicity
 _atom_site_fract_x
 _atom_site_fract_y
 _atom_site_fract_z
 _atom_site_occupancy
  Tb  Tb0  1  0.673950  0.826050  0.500001  1
  Ce  Ce1  1  0.325978  0.174022  0.500001  1
  Ce  Ce2  1  0.824763  0.325739  0.500001  1
  Ce  Ce3  1  0.174261  0.675237  0.500001  1
  Hg  Hg4  1  0.997593  0.998952  0.000000  1
  Hg  Hg5  1  0.501048  0.502407  0.000000  1
  Pd  Pd6  1  0.627086  0.128832  0.000000  1
  Pd  Pd7  1  0.129479  0.370521  0.000000  1
  Pd  Pd8  1  0.874673  0.625327  0.000000  1
  Pd  Pd9  1  0.371168  0.872914  0.000000  1
