# generated using pymatgen
data_Cs3V7O16
_symmetry_space_group_name_H-M   'P 1'
_cell_length_a   5.22985359
_cell_length_b   7.56639862
_cell_length_c   11.84354882
_cell_angle_alpha   102.89938332
_cell_angle_beta   90.26888618
_cell_angle_gamma   95.34712848
_symmetry_Int_Tables_number   1
_chemical_formula_structural   Cs3V7O16
_chemical_formula_sum   'Cs3 V7 O16'
_cell_volume   454.69060306
_cell_formula_units_Z   1
loop_
 _symmetry_equiv_pos_site_id
 _symmetry_equiv_pos_as_xyz
  1  'x, y, z'
loop_
 _atom_site_type_symbol
 _atom_site_label
 _atom_site_symmetry_multiplicity
 _atom_site_fract_x
 _atom_site_fract_y
 _atom_site_fract_z
 _atom_site_occupancy
  Cs  Cs0  1  0.873211  0.261028  0.516880  1
  Cs  Cs1  1  0.000000  0.000000  0.000000  1
  Cs  Cs2  1  0.126789  0.738972  0.483120  1
  V  V3  1  0.009103  0.556075  0.134671  1
  V  V4  1  0.990897  0.443925  0.865329  1
  V  V5  1  0.500000  0.500000  0.000000  1
  V  V6  1  0.484024  0.673899  0.761690  1
  V  V7  1  0.528892  0.863668  0.231630  1
  V  V8  1  0.515976  0.326101  0.238310  1
  V  V9  1  0.471108  0.136332  0.768370  1
  O  O10  1  0.673757  0.598885  0.865031  1
  O  O11  1  0.787573  0.226857  0.762300  1
  O  O12  1  0.326243  0.401115  0.134969  1
  O  O13  1  0.378684  0.361673  0.366309  1
  O  O14  1  0.305872  0.289827  0.873343  1
  O  O15  1  0.621316  0.638327  0.633691  1
  O  O16  1  0.822098  0.443131  0.254452  1
  O  O17  1  0.335732  0.104900  0.637176  1
  O  O18  1  0.694128  0.710173  0.126657  1
  O  O19  1  0.459685  0.919700  0.813913  1
  O  O20  1  0.186781  0.621233  0.995176  1
  O  O21  1  0.664268  0.895100  0.362824  1
  O  O22  1  0.212427  0.773143  0.237700  1
  O  O23  1  0.540315  0.080300  0.186087  1
  O  O24  1  0.813219  0.378767  0.004824  1
  O  O25  1  0.177902  0.556869  0.745548  1
