# generated using pymatgen
data_Dy7Th(CdIr)2
_symmetry_space_group_name_H-M   'P 1'
_cell_length_a   9.69535419
_cell_length_b   9.69535503
_cell_length_c   9.70351800
_cell_angle_alpha   59.97214473
_cell_angle_beta   59.97214187
_cell_angle_gamma   60.13295091
_symmetry_Int_Tables_number   1
_chemical_formula_structural   Dy7Th(CdIr)2
_chemical_formula_sum   'Dy14 Th2 Cd4 Ir4'
_cell_volume   645.34615295
_cell_formula_units_Z   2
loop_
 _symmetry_equiv_pos_site_id
 _symmetry_equiv_pos_as_xyz
  1  'x, y, z'
loop_
 _atom_site_type_symbol
 _atom_site_label
 _atom_site_symmetry_multiplicity
 _atom_site_fract_x
 _atom_site_fract_y
 _atom_site_fract_z
 _atom_site_occupancy
  Dy  Dy0  1  0.601601  0.197718  0.600340  1
  Dy  Dy1  1  0.197718  0.601601  0.600340  1
  Dy  Dy2  1  0.061876  0.438643  0.439210  1
  Dy  Dy3  1  0.438643  0.061876  0.060271  1
  Dy  Dy4  1  0.438643  0.061876  0.439210  1
  Dy  Dy5  1  0.061876  0.438643  0.060271  1
  Dy  Dy6  1  0.437132  0.437132  0.062868  1
  Dy  Dy7  1  0.060593  0.060593  0.439407  1
  Dy  Dy8  1  0.187583  0.814162  0.813575  1
  Dy  Dy9  1  0.814162  0.187583  0.184679  1
  Dy  Dy10  1  0.814162  0.187583  0.813575  1
  Dy  Dy11  1  0.187583  0.814162  0.184679  1
  Dy  Dy12  1  0.815353  0.815353  0.184647  1
  Dy  Dy13  1  0.189849  0.189849  0.810151  1
  Th  Th14  1  0.596987  0.596987  0.600009  1
  Th  Th15  1  0.596987  0.596987  0.206018  1
  Cd  Cd16  1  0.831831  0.831831  0.829869  1
  Cd  Cd17  1  0.831831  0.831831  0.506468  1
  Cd  Cd18  1  0.832901  0.502994  0.832053  1
  Cd  Cd19  1  0.502994  0.832901  0.832053  1
  Ir  Ir20  1  0.391866  0.391866  0.393911  1
  Ir  Ir21  1  0.391866  0.391866  0.822358  1
  Ir  Ir22  1  0.393584  0.822380  0.392018  1
  Ir  Ir23  1  0.822380  0.393584  0.392018  1
