# generated using pymatgen
data_Ca6TbHo(Si3Pd)4
_symmetry_space_group_name_H-M   'P 1'
_cell_length_a   8.24724600
_cell_length_b   8.24724639
_cell_length_c   8.26535300
_cell_angle_alpha   90.00000000
_cell_angle_beta   90.00000000
_cell_angle_gamma   119.99999843
_symmetry_Int_Tables_number   1
_chemical_formula_structural   Ca6TbHo(Si3Pd)4
_chemical_formula_sum   'Ca6 Tb1 Ho1 Si12 Pd4'
_cell_volume   486.86657908
_cell_formula_units_Z   1
loop_
 _symmetry_equiv_pos_site_id
 _symmetry_equiv_pos_as_xyz
  1  'x, y, z'
loop_
 _atom_site_type_symbol
 _atom_site_label
 _atom_site_symmetry_multiplicity
 _atom_site_fract_x
 _atom_site_fract_y
 _atom_site_fract_z
 _atom_site_occupancy
  Ca  Ca0  1  0.501768  0.003535  0.250000  1
  Ca  Ca1  1  0.498244  0.996490  0.750000  1
  Ca  Ca2  1  0.996465  0.498232  0.250000  1
  Ca  Ca3  1  0.003510  0.501756  0.750000  1
  Ca  Ca4  1  0.501768  0.498232  0.250000  1
  Ca  Ca5  1  0.498244  0.501756  0.750000  1
  Tb  Tb6  1  0.000000  0.000000  0.250000  1
  Ho  Ho7  1  0.000000  0.000000  0.750000  1
  Si  Si8  1  0.164213  0.328424  0.001884  1
  Si  Si9  1  0.835813  0.671628  0.997159  1
  Si  Si10  1  0.671576  0.835787  0.001884  1
  Si  Si11  1  0.835813  0.671628  0.502841  1
  Si  Si12  1  0.328372  0.164187  0.997159  1
  Si  Si13  1  0.164213  0.328424  0.498116  1
  Si  Si14  1  0.164213  0.835787  0.001884  1
  Si  Si15  1  0.328372  0.164187  0.502841  1
  Si  Si16  1  0.835813  0.164187  0.997159  1
  Si  Si17  1  0.671576  0.835787  0.498116  1
  Si  Si18  1  0.835813  0.164187  0.502841  1
  Si  Si19  1  0.164213  0.835787  0.498116  1
  Pd  Pd20  1  0.333333  0.666667  0.002460  1
  Pd  Pd21  1  0.666667  0.333333  0.996898  1
  Pd  Pd22  1  0.666667  0.333333  0.503102  1
  Pd  Pd23  1  0.333333  0.666667  0.497540  1
