# generated using pymatgen
data_Hf3Zr3Ti4(Sn3N)2
_symmetry_space_group_name_H-M   'P 1'
_cell_length_a   8.27473100
_cell_length_b   8.27473053
_cell_length_c   5.59183600
_cell_angle_alpha   90.00000000
_cell_angle_beta   90.00000000
_cell_angle_gamma   119.99999789
_symmetry_Int_Tables_number   1
_chemical_formula_structural   Hf3Zr3Ti4(Sn3N)2
_chemical_formula_sum   'Hf3 Zr3 Ti4 Sn6 N2'
_cell_volume   331.58342311
_cell_formula_units_Z   1
loop_
 _symmetry_equiv_pos_site_id
 _symmetry_equiv_pos_as_xyz
  1  'x, y, z'
loop_
 _atom_site_type_symbol
 _atom_site_label
 _atom_site_symmetry_multiplicity
 _atom_site_fract_x
 _atom_site_fract_y
 _atom_site_fract_z
 _atom_site_occupancy
  Hf  Hf0  1  0.778281  0.778281  0.750000  1
  Hf  Hf1  1  0.221719  0.000000  0.750000  1
  Hf  Hf2  1  0.000000  0.221719  0.750000  1
  Zr  Zr3  1  0.224828  0.224828  0.250000  1
  Zr  Zr4  1  0.775172  0.000000  0.250000  1
  Zr  Zr5  1  0.000000  0.775172  0.250000  1
  Ti  Ti6  1  0.666667  0.333333  0.999698  1
  Ti  Ti7  1  0.333333  0.666667  0.999698  1
  Ti  Ti8  1  0.333333  0.666667  0.500302  1
  Ti  Ti9  1  0.666667  0.333333  0.500302  1
  Sn  Sn10  1  0.410241  0.410241  0.750000  1
  Sn  Sn11  1  0.589759  0.000000  0.750000  1
  Sn  Sn12  1  0.000000  0.589759  0.750000  1
  Sn  Sn13  1  0.589397  0.589397  0.250000  1
  Sn  Sn14  1  0.410603  0.000000  0.250000  1
  Sn  Sn15  1  0.000000  0.410603  0.250000  1
  N  N16  1  0.000000  0.000000  0.993949  1
  N  N17  1  0.000000  0.000000  0.506051  1
