# generated using pymatgen
data_CsAl11O17
_symmetry_space_group_name_H-M   'P 1'
_cell_length_a   12.12283501
_cell_length_b   12.12283469
_cell_length_c   12.12283449
_cell_angle_alpha   26.97498515
_cell_angle_beta   26.97498807
_cell_angle_gamma   26.97498276
_symmetry_Int_Tables_number   1
_chemical_formula_structural   CsAl11O17
_chemical_formula_sum   'Cs1 Al11 O17'
_cell_volume   323.32062490
_cell_formula_units_Z   1
loop_
 _symmetry_equiv_pos_site_id
 _symmetry_equiv_pos_as_xyz
  1  'x, y, z'
loop_
 _atom_site_type_symbol
 _atom_site_label
 _atom_site_symmetry_multiplicity
 _atom_site_fract_x
 _atom_site_fract_y
 _atom_site_fract_z
 _atom_site_occupancy
  Cs  Cs0  1  0.168571  0.168571  0.168571  1
  Al  Al1  1  0.900385  0.407788  0.900385  1
  Al  Al2  1  0.000304  0.000304  0.000304  1
  Al  Al3  1  0.900385  0.900385  0.407788  1
  Al  Al4  1  0.407788  0.900385  0.900385  1
  Al  Al5  1  0.550438  0.550438  0.550438  1
  Al  Al6  1  0.650255  0.650255  0.650255  1
  Al  Al7  1  0.450015  0.450015  0.450015  1
  Al  Al8  1  0.349677  0.349677  0.349677  1
  Al  Al9  1  0.596271  0.098031  0.098031  1
  Al  Al10  1  0.098031  0.098031  0.596271  1
  Al  Al11  1  0.098031  0.596271  0.098031  1
  O  O12  1  0.703001  0.703001  0.703001  1
  O  O13  1  0.907961  0.907961  0.907961  1
  O  O14  1  0.717198  0.189700  0.189700  1
  O  O15  1  0.810789  0.281629  0.810789  1
  O  O16  1  0.906353  0.404945  0.404945  1
  O  O17  1  0.596037  0.093623  0.596037  1
  O  O18  1  0.404945  0.404945  0.906353  1
  O  O19  1  0.810789  0.810789  0.281629  1
  O  O20  1  0.189700  0.189700  0.717198  1
  O  O21  1  0.500342  0.500342  0.500342  1
  O  O22  1  0.596037  0.596037  0.093623  1
  O  O23  1  0.093623  0.596037  0.596037  1
  O  O24  1  0.404945  0.906353  0.404945  1
  O  O25  1  0.189700  0.717198  0.189700  1
  O  O26  1  0.281629  0.810789  0.810789  1
  O  O27  1  0.297007  0.297007  0.297007  1
  O  O28  1  0.090473  0.090473  0.090473  1
