# generated using pymatgen
data_Tc3Te4F
_symmetry_space_group_name_H-M   'P 1'
_cell_length_a   7.05974897
_cell_length_b   7.06421512
_cell_length_c   9.17880033
_cell_angle_alpha   100.74853609
_cell_angle_beta   113.94377975
_cell_angle_gamma   94.23457176
_symmetry_Int_Tables_number   1
_chemical_formula_structural   Tc3Te4F
_chemical_formula_sum   'Tc6 Te8 F2'
_cell_volume   405.28864041
_cell_formula_units_Z   2
loop_
 _symmetry_equiv_pos_site_id
 _symmetry_equiv_pos_as_xyz
  1  'x, y, z'
loop_
 _atom_site_type_symbol
 _atom_site_label
 _atom_site_symmetry_multiplicity
 _atom_site_fract_x
 _atom_site_fract_y
 _atom_site_fract_z
 _atom_site_occupancy
  Tc  Tc0  1  0.437097  0.370668  0.277580  1
  Tc  Tc1  1  0.215427  0.536507  0.430468  1
  Tc  Tc2  1  0.570769  0.745312  0.464218  1
  Tc  Tc3  1  0.429231  0.254688  0.535782  1
  Tc  Tc4  1  0.784574  0.463493  0.569532  1
  Tc  Tc5  1  0.562904  0.629332  0.722419  1
  Te  Te6  1  0.229522  0.660125  0.173374  1
  Te  Te7  1  0.082383  0.164410  0.249749  1
  Te  Te8  1  0.787279  0.586201  0.298852  1
  Te  Te9  1  0.669251  0.093502  0.383820  1
  Te  Te10  1  0.330749  0.906498  0.616180  1
  Te  Te11  1  0.212721  0.413799  0.701147  1
  Te  Te12  1  0.917616  0.835589  0.750251  1
  Te  Te13  1  0.770478  0.339874  0.826625  1
  F  F14  1  0.368841  0.238154  0.046407  1
  F  F15  1  0.631159  0.761845  0.953593  1
