# generated using pymatgen
data_LiSc3S4
_symmetry_space_group_name_H-M   'P 1'
_cell_length_a   3.67893472
_cell_length_b   7.35078889
_cell_length_c   7.34991331
_cell_angle_alpha   90.09664612
_cell_angle_beta   119.81682644
_cell_angle_gamma   60.13158916
_symmetry_Int_Tables_number   1
_chemical_formula_structural   LiSc3S4
_chemical_formula_sum   'Li1 Sc3 S4'
_cell_volume   141.32995576
_cell_formula_units_Z   1
loop_
 _symmetry_equiv_pos_site_id
 _symmetry_equiv_pos_as_xyz
  1  'x, y, z'
loop_
 _atom_site_type_symbol
 _atom_site_label
 _atom_site_symmetry_multiplicity
 _atom_site_fract_x
 _atom_site_fract_y
 _atom_site_fract_z
 _atom_site_occupancy
  Li  Li0  1  0.170971  0.704476  0.274092  1
  Sc  Sc1  1  0.185122  0.701848  0.775740  1
  Sc  Sc2  1  0.186801  0.201505  0.276857  1
  Sc  Sc3  1  0.182109  0.201259  0.776369  1
  S  S4  1  0.185431  0.949704  0.524276  1
  S  S5  1  0.184543  0.451389  0.526545  1
  S  S6  1  0.186352  0.453135  0.028050  1
  S  S7  1  0.180722  0.951220  0.026636  1
