# generated using pymatgen
data_GdTe16
_symmetry_space_group_name_H-M   'P 1'
_cell_length_a   4.54542702
_cell_length_b   4.54542631
_cell_length_c   31.14900600
_cell_angle_alpha   85.81583445
_cell_angle_beta   85.81583510
_cell_angle_gamma   60.00000639
_symmetry_Int_Tables_number   1
_chemical_formula_structural   GdTe16
_chemical_formula_sum   'Gd1 Te16'
_cell_volume   555.36351378
_cell_formula_units_Z   1
loop_
 _symmetry_equiv_pos_site_id
 _symmetry_equiv_pos_as_xyz
  1  'x, y, z'
loop_
 _atom_site_type_symbol
 _atom_site_label
 _atom_site_symmetry_multiplicity
 _atom_site_fract_x
 _atom_site_fract_y
 _atom_site_fract_z
 _atom_site_occupancy
  Gd  Gd0  1  0.000000  0.000000  0.000000  1
  Te  Te1  1  0.290185  0.290185  0.129447  1
  Te  Te2  1  0.709815  0.709815  0.870553  1
  Te  Te3  1  0.232878  0.232878  0.301365  1
  Te  Te4  1  0.767122  0.767122  0.698635  1
  Te  Te5  1  0.470995  0.470995  0.587016  1
  Te  Te6  1  0.529005  0.529005  0.412984  1
  Te  Te7  1  0.351261  0.351261  0.946218  1
  Te  Te8  1  0.648739  0.648739  0.053782  1
  Te  Te9  1  0.060335  0.060335  0.818996  1
  Te  Te10  1  0.939665  0.939665  0.181004  1
  Te  Te11  1  0.412668  0.412668  0.761997  1
  Te  Te12  1  0.587332  0.587332  0.238003  1
  Te  Te13  1  0.118479  0.118479  0.644563  1
  Te  Te14  1  0.881521  0.881521  0.355437  1
  Te  Te15  1  0.175876  0.175876  0.472373  1
  Te  Te16  1  0.824124  0.824124  0.527627  1
