# generated using pymatgen
data_CaAc6NiI12
_symmetry_space_group_name_H-M   'P 1'
_cell_length_a   10.53499602
_cell_length_b   10.53499631
_cell_length_c   10.53499695
_cell_angle_alpha   107.09608995
_cell_angle_beta   107.09609002
_cell_angle_gamma   107.09608388
_symmetry_Int_Tables_number   1
_chemical_formula_structural   CaAc6NiI12
_chemical_formula_sum   'Ca1 Ac6 Ni1 I12'
_cell_volume   971.18949534
_cell_formula_units_Z   1
loop_
 _symmetry_equiv_pos_site_id
 _symmetry_equiv_pos_as_xyz
  1  'x, y, z'
loop_
 _atom_site_type_symbol
 _atom_site_label
 _atom_site_symmetry_multiplicity
 _atom_site_fract_x
 _atom_site_fract_y
 _atom_site_fract_z
 _atom_site_occupancy
  Ca  Ca0  1  0.500000  0.500000  0.500000  1
  Ac  Ac1  1  0.897178  0.974004  0.695177  1
  Ac  Ac2  1  0.695177  0.897178  0.974004  1
  Ac  Ac3  1  0.974004  0.695177  0.897178  1
  Ac  Ac4  1  0.102822  0.025996  0.304823  1
  Ac  Ac5  1  0.304823  0.102822  0.025996  1
  Ac  Ac6  1  0.025996  0.304823  0.102822  1
  Ni  Ni7  1  0.000000  0.000000  0.000000  1
  I  I8  1  0.928062  0.322676  0.777101  1
  I  I9  1  0.777101  0.928062  0.322676  1
  I  I10  1  0.322676  0.777101  0.928062  1
  I  I11  1  0.071938  0.677324  0.222899  1
  I  I12  1  0.222899  0.071938  0.677324  1
  I  I13  1  0.677324  0.222899  0.071938  1
  I  I14  1  0.534478  0.826296  0.612317  1
  I  I15  1  0.612317  0.534478  0.826296  1
  I  I16  1  0.826296  0.612317  0.534478  1
  I  I17  1  0.465522  0.173704  0.387683  1
  I  I18  1  0.387683  0.465522  0.173704  1
  I  I19  1  0.173704  0.387683  0.465522  1
