# generated using pymatgen
data_Rb4ThUTe6
_symmetry_space_group_name_H-M   'P 1'
_cell_length_a   8.31036724
_cell_length_b   8.31036829
_cell_length_c   9.01630849
_cell_angle_alpha   81.07765875
_cell_angle_beta   81.07765528
_cell_angle_gamma   119.99691650
_symmetry_Int_Tables_number   1
_chemical_formula_structural   Rb4ThUTe6
_chemical_formula_sum   'Rb4 Th1 U1 Te6'
_cell_volume   512.68099962
_cell_formula_units_Z   1
loop_
 _symmetry_equiv_pos_site_id
 _symmetry_equiv_pos_as_xyz
  1  'x, y, z'
loop_
 _atom_site_type_symbol
 _atom_site_label
 _atom_site_symmetry_multiplicity
 _atom_site_fract_x
 _atom_site_fract_y
 _atom_site_fract_z
 _atom_site_occupancy
  Rb  Rb0  1  0.499939  0.500061  0.000000  1
  Rb  Rb1  1  0.656046  0.343954  0.500000  1
  Rb  Rb2  1  0.343900  0.656100  0.500000  1
  Rb  Rb3  1  0.000066  0.999934  0.500000  1
  Th  Th4  1  0.832409  0.167591  0.000000  1
  U  U5  1  0.167811  0.832189  0.000000  1
  Te  Te6  1  0.810804  0.805191  0.203012  1
  Te  Te7  1  0.194809  0.189196  0.796988  1
  Te  Te8  1  0.424660  0.049946  0.205430  1
  Te  Te9  1  0.563929  0.944428  0.794426  1
  Te  Te10  1  0.950054  0.575340  0.794570  1
  Te  Te11  1  0.055572  0.436071  0.205574  1
