# generated using pymatgen
data_Ti5AlSnSb2
_symmetry_space_group_name_H-M   'P 1'
_cell_length_a   8.25379822
_cell_length_b   8.27539656
_cell_length_c   5.56158900
_cell_angle_alpha   90.00000000
_cell_angle_beta   90.00000000
_cell_angle_gamma   120.08659788
_symmetry_Int_Tables_number   1
_chemical_formula_structural   Ti5AlSnSb2
_chemical_formula_sum   'Ti10 Al2 Sn2 Sb4'
_cell_volume   328.69458591
_cell_formula_units_Z   2
loop_
 _symmetry_equiv_pos_site_id
 _symmetry_equiv_pos_as_xyz
  1  'x, y, z'
loop_
 _atom_site_type_symbol
 _atom_site_label
 _atom_site_symmetry_multiplicity
 _atom_site_fract_x
 _atom_site_fract_y
 _atom_site_fract_z
 _atom_site_occupancy
  Ti  Ti0  1  0.668137  0.334544  0.499122  1
  Ti  Ti1  1  0.331863  0.666408  0.499122  1
  Ti  Ti2  1  0.331863  0.666408  0.000878  1
  Ti  Ti3  1  0.668137  0.334544  0.000878  1
  Ti  Ti4  1  0.727616  0.726284  0.250000  1
  Ti  Ti5  1  0.272384  0.998670  0.250000  1
  Ti  Ti6  1  0.000000  0.275608  0.250000  1
  Ti  Ti7  1  0.271579  0.270953  0.750000  1
  Ti  Ti8  1  0.728421  0.999374  0.750000  1
  Ti  Ti9  1  0.000000  0.728013  0.750000  1
  Al  Al10  1  0.000000  0.001392  0.002014  1
  Al  Al11  1  0.000000  0.001392  0.497986  1
  Sn  Sn12  1  0.383755  0.383542  0.250000  1
  Sn  Sn13  1  0.616245  0.999787  0.250000  1
  Sb  Sb14  1  0.000000  0.614782  0.250000  1
  Sb  Sb15  1  0.611424  0.612295  0.750000  1
  Sb  Sb16  1  0.388576  0.000871  0.750000  1
  Sb  Sb17  1  0.000000  0.385135  0.750000  1
