# generated using pymatgen
data_La3Sm6HoC4I15
_symmetry_space_group_name_H-M   'P 1'
_cell_length_a   9.76621043
_cell_length_b   10.60775219
_cell_length_c   11.74744080
_cell_angle_alpha   93.67481232
_cell_angle_beta   114.15248995
_cell_angle_gamma   109.51402947
_symmetry_Int_Tables_number   1
_chemical_formula_structural   La3Sm6HoC4I15
_chemical_formula_sum   'La3 Sm6 Ho1 C4 I15'
_cell_volume   1017.76436414
_cell_formula_units_Z   1
loop_
 _symmetry_equiv_pos_site_id
 _symmetry_equiv_pos_as_xyz
  1  'x, y, z'
loop_
 _atom_site_type_symbol
 _atom_site_label
 _atom_site_symmetry_multiplicity
 _atom_site_fract_x
 _atom_site_fract_y
 _atom_site_fract_z
 _atom_site_occupancy
  La  La0  1  0.705995  0.568908  0.045194  1
  La  La1  1  0.293254  0.432575  0.955709  1
  La  La2  1  0.659915  0.253254  0.832251  1
  Sm  Sm3  1  0.348976  0.746178  0.164562  1
  Sm  Sm4  1  0.772867  0.880188  0.255762  1
  Sm  Sm5  1  0.526614  0.185739  0.099718  1
  Sm  Sm6  1  0.229364  0.118541  0.746400  1
  Sm  Sm7  1  0.402934  0.456992  0.659558  1
  Sm  Sm8  1  0.473140  0.814647  0.900487  1
  Ho  Ho9  1  0.592434  0.545531  0.335752  1
  C  C10  1  0.482362  0.298311  0.937131  1
  C  C11  1  0.518360  0.702427  0.063137  1
  C  C12  1  0.452597  0.360971  0.832690  1
  C  C13  1  0.546517  0.638491  0.167401  1
  I  I14  1  0.211478  0.906932  0.939079  1
  I  I15  1  0.106862  0.188294  0.473671  1
  I  I16  1  0.158731  0.561201  0.700483  1
  I  I17  1  0.396747  0.963205  0.647267  1
  I  I18  1  0.705639  0.736173  0.815478  1
  I  I19  1  0.299954  0.268778  0.188753  1
  I  I20  1  0.834385  0.440715  0.302846  1
  I  I21  1  0.884368  0.802499  0.524443  1
  I  I22  1  0.364791  0.628235  0.409904  1
  I  I23  1  0.055176  0.838579  0.224786  1
  I  I24  1  0.790424  0.092079  0.066371  1
  I  I25  1  0.638891  0.378093  0.581311  1
  I  I26  1  0.946039  0.159201  0.776495  1
  I  I27  1  0.594256  0.028287  0.347871  1
  I  I28  1  0.006929  0.504975  0.005488  1
