# generated using pymatgen
data_Y6Er4Si6H
_symmetry_space_group_name_H-M   'P 1'
_cell_length_a   8.43895800
_cell_length_b   8.43895886
_cell_length_c   6.26139500
_cell_angle_alpha   90.00000000
_cell_angle_beta   90.00000000
_cell_angle_gamma   119.99999664
_symmetry_Int_Tables_number   1
_chemical_formula_structural   Y6Er4Si6H
_chemical_formula_sum   'Y6 Er4 Si6 H1'
_cell_volume   386.17081040
_cell_formula_units_Z   1
loop_
 _symmetry_equiv_pos_site_id
 _symmetry_equiv_pos_as_xyz
  1  'x, y, z'
loop_
 _atom_site_type_symbol
 _atom_site_label
 _atom_site_symmetry_multiplicity
 _atom_site_fract_x
 _atom_site_fract_y
 _atom_site_fract_z
 _atom_site_occupancy
  Y  Y0  1  0.000000  0.752556  0.248001  1
  Y  Y1  1  0.247444  0.247444  0.248001  1
  Y  Y2  1  0.752556  0.000000  0.248001  1
  Y  Y3  1  0.000000  0.247444  0.751999  1
  Y  Y4  1  0.752556  0.752556  0.751999  1
  Y  Y5  1  0.247444  0.000000  0.751999  1
  Er  Er6  1  0.333333  0.666667  0.500000  1
  Er  Er7  1  0.666667  0.333333  0.500000  1
  Er  Er8  1  0.666667  0.333333  0.000000  1
  Er  Er9  1  0.333333  0.666667  0.000000  1
  Si  Si10  1  0.000000  0.391760  0.250236  1
  Si  Si11  1  0.608240  0.608240  0.250236  1
  Si  Si12  1  0.391760  0.000000  0.250236  1
  Si  Si13  1  0.000000  0.608240  0.749764  1
  Si  Si14  1  0.391760  0.391760  0.749764  1
  Si  Si15  1  0.608240  0.000000  0.749764  1
  H  H16  1  0.000000  0.000000  0.500000  1
