# generated using pymatgen
data_Tb2SmGa3(Ni3Sn)3
_symmetry_space_group_name_H-M   'P 1'
_cell_length_a   4.07774700
_cell_length_b   9.18725585
_cell_length_c   9.15369107
_cell_angle_alpha   60.05076481
_cell_angle_beta   90.00000000
_cell_angle_gamma   90.00000000
_symmetry_Int_Tables_number   1
_chemical_formula_structural   Tb2SmGa3(Ni3Sn)3
_chemical_formula_sum   'Tb2 Sm1 Ga3 Ni9 Sn3'
_cell_volume   297.13574665
_cell_formula_units_Z   1
loop_
 _symmetry_equiv_pos_site_id
 _symmetry_equiv_pos_as_xyz
  1  'x, y, z'
loop_
 _atom_site_type_symbol
 _atom_site_label
 _atom_site_symmetry_multiplicity
 _atom_site_fract_x
 _atom_site_fract_y
 _atom_site_fract_z
 _atom_site_occupancy
  Tb  Tb0  1  0.500000  0.333130  0.333369  1
  Tb  Tb1  1  0.000000  0.000105  0.000153  1
  Sm  Sm2  1  0.500000  0.666768  0.666422  1
  Ga  Ga3  1  0.500000  0.741655  0.258162  1
  Ga  Ga4  1  0.500000  0.258062  0.000211  1
  Ga  Ga5  1  0.500000  0.000146  0.741584  1
  Ni  Ni6  1  0.000000  0.208163  0.159780  1
  Ni  Ni7  1  0.000000  0.160173  0.632343  1
  Ni  Ni8  1  0.000000  0.632666  0.207566  1
  Ni  Ni9  1  0.000000  0.840626  0.793905  1
  Ni  Ni10  1  0.000000  0.366162  0.840622  1
  Ni  Ni11  1  0.000000  0.793123  0.366368  1
  Ni  Ni12  1  0.500000  0.277542  0.721521  1
  Ni  Ni13  1  0.500000  0.721589  0.000229  1
  Ni  Ni14  1  0.500000  0.000062  0.277979  1
  Sn  Sn15  1  0.000000  0.468177  0.530859  1
  Sn  Sn16  1  0.000000  0.531015  0.000672  1
  Sn  Sn17  1  0.000000  0.000735  0.468355  1
