# generated using pymatgen
data_Tb14Dy2Cd4CoRu3
_symmetry_space_group_name_H-M   'P 1'
_cell_length_a   9.68278879
_cell_length_b   9.68278977
_cell_length_c   9.62030065
_cell_angle_alpha   59.58939798
_cell_angle_beta   59.58938577
_cell_angle_gamma   59.76555110
_symmetry_Int_Tables_number   1
_chemical_formula_structural   Tb14Dy2Cd4CoRu3
_chemical_formula_sum   'Tb14 Dy2 Cd4 Co1 Ru3'
_cell_volume   632.68190300
_cell_formula_units_Z   1
loop_
 _symmetry_equiv_pos_site_id
 _symmetry_equiv_pos_as_xyz
  1  'x, y, z'
loop_
 _atom_site_type_symbol
 _atom_site_label
 _atom_site_symmetry_multiplicity
 _atom_site_fract_x
 _atom_site_fract_y
 _atom_site_fract_z
 _atom_site_occupancy
  Tb  Tb0  1  0.188015  0.814891  0.809922  1
  Tb  Tb1  1  0.060652  0.060652  0.437005  1
  Tb  Tb2  1  0.439387  0.064684  0.057342  1
  Tb  Tb3  1  0.814891  0.188015  0.809922  1
  Tb  Tb4  1  0.440255  0.060584  0.437847  1
  Tb  Tb5  1  0.593741  0.211632  0.600856  1
  Tb  Tb6  1  0.810798  0.810798  0.189357  1
  Tb  Tb7  1  0.211632  0.593741  0.600856  1
  Tb  Tb8  1  0.809829  0.190546  0.189823  1
  Tb  Tb9  1  0.060584  0.440255  0.437847  1
  Tb  Tb10  1  0.190546  0.809829  0.189823  1
  Tb  Tb11  1  0.595856  0.595856  0.210924  1
  Tb  Tb12  1  0.188278  0.188278  0.809689  1
  Tb  Tb13  1  0.064684  0.439387  0.057342  1
  Dy  Dy14  1  0.438360  0.438360  0.057963  1
  Dy  Dy15  1  0.594667  0.594667  0.601015  1
  Cd  Cd16  1  0.830121  0.830121  0.508003  1
  Cd  Cd17  1  0.830414  0.830414  0.829310  1
  Cd  Cd18  1  0.508248  0.830039  0.829638  1
  Cd  Cd19  1  0.830039  0.508248  0.829638  1
  Co  Co20  1  0.390686  0.390686  0.830367  1
  Ru  Ru21  1  0.388213  0.388213  0.390446  1
  Ru  Ru22  1  0.831179  0.388921  0.392533  1
  Ru  Ru23  1  0.388921  0.831179  0.392533  1
