# generated using pymatgen
data_Y4ErRh5
_symmetry_space_group_name_H-M   'P 1'
_cell_length_a   3.43912000
_cell_length_b   3.43912000
_cell_length_c   17.17719100
_cell_angle_alpha   90.00000000
_cell_angle_beta   90.00000000
_cell_angle_gamma   90.00000000
_symmetry_Int_Tables_number   1
_chemical_formula_structural   Y4ErRh5
_chemical_formula_sum   'Y4 Er1 Rh5'
_cell_volume   203.16402313
_cell_formula_units_Z   1
loop_
 _symmetry_equiv_pos_site_id
 _symmetry_equiv_pos_as_xyz
  1  'x, y, z'
loop_
 _atom_site_type_symbol
 _atom_site_label
 _atom_site_symmetry_multiplicity
 _atom_site_fract_x
 _atom_site_fract_y
 _atom_site_fract_z
 _atom_site_occupancy
  Y  Y0  1  0.000000  0.000000  0.199092  1
  Y  Y1  1  0.000000  0.000000  0.399842  1
  Y  Y2  1  0.000000  0.000000  0.600158  1
  Y  Y3  1  0.000000  0.000000  0.800908  1
  Er  Er4  1  0.000000  0.000000  0.000000  1
  Rh  Rh5  1  0.500000  0.500000  0.097113  1
  Rh  Rh6  1  0.500000  0.500000  0.299211  1
  Rh  Rh7  1  0.500000  0.500000  0.500000  1
  Rh  Rh8  1  0.500000  0.500000  0.700789  1
  Rh  Rh9  1  0.500000  0.500000  0.902887  1
