# generated using pymatgen
data_Eu12PdRh3
_symmetry_space_group_name_H-M   'P 1'
_cell_length_a   7.78318297
_cell_length_b   9.97872900
_cell_length_c   6.73678483
_cell_angle_alpha   90.00000000
_cell_angle_beta   89.77581154
_cell_angle_gamma   90.00000000
_symmetry_Int_Tables_number   1
_chemical_formula_structural   Eu12PdRh3
_chemical_formula_sum   'Eu12 Pd1 Rh3'
_cell_volume   523.21696844
_cell_formula_units_Z   1
loop_
 _symmetry_equiv_pos_site_id
 _symmetry_equiv_pos_as_xyz
  1  'x, y, z'
loop_
 _atom_site_type_symbol
 _atom_site_label
 _atom_site_symmetry_multiplicity
 _atom_site_fract_x
 _atom_site_fract_y
 _atom_site_fract_z
 _atom_site_occupancy
  Eu  Eu0  1  0.536490  0.750000  0.147462  1
  Eu  Eu1  1  0.828302  0.070422  0.164895  1
  Eu  Eu2  1  0.828302  0.429578  0.164895  1
  Eu  Eu3  1  0.327367  0.069295  0.335551  1
  Eu  Eu4  1  0.327367  0.430705  0.335551  1
  Eu  Eu5  1  0.044619  0.750000  0.363807  1
  Eu  Eu6  1  0.956754  0.250000  0.644971  1
  Eu  Eu7  1  0.667725  0.564421  0.658484  1
  Eu  Eu8  1  0.667725  0.935580  0.658484  1
  Eu  Eu9  1  0.178304  0.563546  0.836826  1
  Eu  Eu10  1  0.178304  0.936455  0.836826  1
  Eu  Eu11  1  0.458467  0.250000  0.856447  1
  Pd  Pd12  1  0.881809  0.750000  0.947535  1
  Rh  Rh13  1  0.118701  0.250000  0.043566  1
  Rh  Rh14  1  0.619501  0.250000  0.455396  1
  Rh  Rh15  1  0.380264  0.750000  0.549304  1
