# generated using pymatgen
data_SmGdMgMnO6
_symmetry_space_group_name_H-M   'P 1'
_cell_length_a   5.37420543
_cell_length_b   5.60137500
_cell_length_c   7.69094608
_cell_angle_alpha   90.00000000
_cell_angle_beta   89.94980145
_cell_angle_gamma   90.00000000
_symmetry_Int_Tables_number   1
_chemical_formula_structural   SmGdMgMnO6
_chemical_formula_sum   'Sm2 Gd2 Mg2 Mn2 O12'
_cell_volume   231.51999899
_cell_formula_units_Z   2
loop_
 _symmetry_equiv_pos_site_id
 _symmetry_equiv_pos_as_xyz
  1  'x, y, z'
loop_
 _atom_site_type_symbol
 _atom_site_label
 _atom_site_symmetry_multiplicity
 _atom_site_fract_x
 _atom_site_fract_y
 _atom_site_fract_z
 _atom_site_occupancy
  Sm  Sm0  1  0.515014  0.559537  0.249190  1
  Sm  Sm1  1  0.984986  0.059537  0.250810  1
  Gd  Gd2  1  0.484970  0.439171  0.751084  1
  Gd  Gd3  1  0.015030  0.939171  0.748916  1
  Mg  Mg4  1  0.499914  0.999418  0.998632  1
  Mg  Mg5  1  0.000086  0.499418  0.501368  1
  Mn  Mn6  1  0.501230  0.000056  0.500341  1
  Mn  Mn7  1  0.998770  0.500056  0.999659  1
  O  O8  1  0.406118  0.971012  0.259064  1
  O  O9  1  0.093882  0.471012  0.240936  1
  O  O10  1  0.599185  0.033093  0.740860  1
  O  O11  1  0.900815  0.533093  0.759140  1
  O  O12  1  0.809025  0.787246  0.051651  1
  O  O13  1  0.690975  0.287246  0.448349  1
  O  O14  1  0.210017  0.192494  0.549814  1
  O  O15  1  0.289983  0.692494  0.950186  1
  O  O16  1  0.189508  0.211733  0.946031  1
  O  O17  1  0.310492  0.711733  0.553969  1
  O  O18  1  0.789915  0.806242  0.452722  1
  O  O19  1  0.710085  0.306242  0.047278  1
