# generated using pymatgen
data_Er7TmRe2(B12Ir)2
_symmetry_space_group_name_H-M   'P 1'
_cell_length_a   3.64489100
_cell_length_b   9.10824415
_cell_length_c   11.49171827
_cell_angle_alpha   89.68808467
_cell_angle_beta   90.00000000
_cell_angle_gamma   90.00000000
_symmetry_Int_Tables_number   1
_chemical_formula_structural   Er7TmRe2(B12Ir)2
_chemical_formula_sum   'Er7 Tm1 Re2 B24 Ir2'
_cell_volume   381.50281209
_cell_formula_units_Z   1
loop_
 _symmetry_equiv_pos_site_id
 _symmetry_equiv_pos_as_xyz
  1  'x, y, z'
loop_
 _atom_site_type_symbol
 _atom_site_label
 _atom_site_symmetry_multiplicity
 _atom_site_fract_x
 _atom_site_fract_y
 _atom_site_fract_z
 _atom_site_occupancy
  Er  Er0  1  0.000000  0.326152  0.417895  1
  Er  Er1  1  0.000000  0.673898  0.582212  1
  Er  Er2  1  0.000000  0.816376  0.089763  1
  Er  Er3  1  0.000000  0.183708  0.910101  1
  Er  Er4  1  0.000000  0.941513  0.374000  1
  Er  Er5  1  0.000000  0.058499  0.626104  1
  Er  Er6  1  0.000000  0.446096  0.127611  1
  Tm  Tm7  1  0.000000  0.553896  0.872146  1
  Re  Re8  1  0.000000  0.638170  0.319995  1
  Re  Re9  1  0.000000  0.362065  0.680150  1
  B  B10  1  0.500000  0.553145  0.433082  1
  B  B11  1  0.500000  0.446940  0.567060  1
  B  B12  1  0.500000  0.053993  0.065617  1
  B  B13  1  0.500000  0.945790  0.934312  1
  B  B14  1  0.500000  0.748215  0.419421  1
  B  B15  1  0.500000  0.251850  0.580658  1
  B  B16  1  0.500000  0.249803  0.078594  1
  B  B17  1  0.500000  0.749871  0.921241  1
  B  B18  1  0.500000  0.792398  0.265077  1
  B  B19  1  0.500000  0.207738  0.734984  1
  B  B20  1  0.500000  0.291081  0.234331  1
  B  B21  1  0.500000  0.708633  0.765727  1
  B  B22  1  0.500000  0.631300  0.184707  1
  B  B23  1  0.500000  0.368999  0.815356  1
  B  B24  1  0.500000  0.131364  0.316251  1
  B  B25  1  0.500000  0.868563  0.683812  1
  B  B26  1  0.500000  0.981749  0.212451  1
  B  B27  1  0.500000  0.018165  0.787584  1
  B  B28  1  0.500000  0.482175  0.286947  1
  B  B29  1  0.500000  0.518028  0.713297  1
  B  B30  1  0.500000  0.606178  0.028434  1
  B  B31  1  0.500000  0.394020  0.971027  1
  B  B32  1  0.500000  0.105740  0.470346  1
  B  B33  1  0.500000  0.894260  0.529743  1
  Ir  Ir34  1  0.000000  0.136547  0.177635  1
  Ir  Ir35  1  0.000000  0.863083  0.822328  1
