# generated using pymatgen
data_Tb2Nd3Tl3Cl
_symmetry_space_group_name_H-M   'P 1'
_cell_length_a   9.42079500
_cell_length_b   9.42079456
_cell_length_c   6.74698400
_cell_angle_alpha   90.00000000
_cell_angle_beta   90.00000000
_cell_angle_gamma   120.00000505
_symmetry_Int_Tables_number   1
_chemical_formula_structural   Tb2Nd3Tl3Cl
_chemical_formula_sum   'Tb4 Nd6 Tl6 Cl2'
_cell_volume   518.57953824
_cell_formula_units_Z   2
loop_
 _symmetry_equiv_pos_site_id
 _symmetry_equiv_pos_as_xyz
  1  'x, y, z'
loop_
 _atom_site_type_symbol
 _atom_site_label
 _atom_site_symmetry_multiplicity
 _atom_site_fract_x
 _atom_site_fract_y
 _atom_site_fract_z
 _atom_site_occupancy
  Tb  Tb0  1  0.333333  0.666667  0.000000  1
  Tb  Tb1  1  0.666667  0.333333  0.000000  1
  Tb  Tb2  1  0.666667  0.333333  0.500000  1
  Tb  Tb3  1  0.333333  0.666667  0.500000  1
  Nd  Nd4  1  0.260547  0.000000  0.250000  1
  Nd  Nd5  1  0.739453  0.000000  0.750000  1
  Nd  Nd6  1  0.000000  0.260547  0.250000  1
  Nd  Nd7  1  0.000000  0.739453  0.750000  1
  Nd  Nd8  1  0.739453  0.739453  0.250000  1
  Nd  Nd9  1  0.260547  0.260547  0.750000  1
  Tl  Tl10  1  0.604882  0.000000  0.250000  1
  Tl  Tl11  1  0.395118  0.000000  0.750000  1
  Tl  Tl12  1  0.000000  0.604882  0.250000  1
  Tl  Tl13  1  0.000000  0.395118  0.750000  1
  Tl  Tl14  1  0.395118  0.395118  0.250000  1
  Tl  Tl15  1  0.604882  0.604882  0.750000  1
  Cl  Cl16  1  0.000000  0.000000  0.000000  1
  Cl  Cl17  1  0.000000  0.000000  0.500000  1
