# generated using pymatgen
data_TbLu4(In2Ir)2
_symmetry_space_group_name_H-M   'P 1'
_cell_length_a   3.54626800
_cell_length_b   7.97232900
_cell_length_c   18.12114800
_cell_angle_alpha   90.00000000
_cell_angle_beta   90.00000000
_cell_angle_gamma   90.00000000
_symmetry_Int_Tables_number   1
_chemical_formula_structural   TbLu4(In2Ir)2
_chemical_formula_sum   'Tb2 Lu8 In8 Ir4'
_cell_volume   512.32137203
_cell_formula_units_Z   2
loop_
 _symmetry_equiv_pos_site_id
 _symmetry_equiv_pos_as_xyz
  1  'x, y, z'
loop_
 _atom_site_type_symbol
 _atom_site_label
 _atom_site_symmetry_multiplicity
 _atom_site_fract_x
 _atom_site_fract_y
 _atom_site_fract_z
 _atom_site_occupancy
  Tb  Tb0  1  0.000000  0.000000  0.000000  1
  Tb  Tb1  1  0.000000  0.500000  0.500000  1
  Lu  Lu2  1  0.000000  0.117401  0.412896  1
  Lu  Lu3  1  0.000000  0.882599  0.587104  1
  Lu  Lu4  1  0.000000  0.382599  0.912896  1
  Lu  Lu5  1  0.000000  0.617401  0.087104  1
  Lu  Lu6  1  0.000000  0.244913  0.221240  1
  Lu  Lu7  1  0.000000  0.755087  0.778760  1
  Lu  Lu8  1  0.000000  0.255087  0.721240  1
  Lu  Lu9  1  0.000000  0.744913  0.278760  1
  In  In10  1  0.500000  0.425971  0.350426  1
  In  In11  1  0.500000  0.574029  0.649574  1
  In  In12  1  0.500000  0.074029  0.850426  1
  In  In13  1  0.500000  0.925971  0.149574  1
  In  In14  1  0.500000  0.296329  0.066871  1
  In  In15  1  0.500000  0.703671  0.933129  1
  In  In16  1  0.500000  0.203671  0.566871  1
  In  In17  1  0.500000  0.796329  0.433129  1
  Ir  Ir18  1  0.500000  0.024829  0.303876  1
  Ir  Ir19  1  0.500000  0.975171  0.696124  1
  Ir  Ir20  1  0.500000  0.475171  0.803876  1
  Ir  Ir21  1  0.500000  0.524829  0.196124  1
