# generated using pymatgen
data_Tb2HgPtPb
_symmetry_space_group_name_H-M   'P 1'
_cell_length_a   8.14537100
_cell_length_b   8.11353600
_cell_length_c   3.79587200
_cell_angle_alpha   90.00000000
_cell_angle_beta   90.00000000
_cell_angle_gamma   90.00000000
_symmetry_Int_Tables_number   1
_chemical_formula_structural   Tb2HgPtPb
_chemical_formula_sum   'Tb4 Hg2 Pt2 Pb2'
_cell_volume   250.86068092
_cell_formula_units_Z   2
loop_
 _symmetry_equiv_pos_site_id
 _symmetry_equiv_pos_as_xyz
  1  'x, y, z'
loop_
 _atom_site_type_symbol
 _atom_site_label
 _atom_site_symmetry_multiplicity
 _atom_site_fract_x
 _atom_site_fract_y
 _atom_site_fract_z
 _atom_site_occupancy
  Tb  Tb0  1  0.638126  0.175389  0.500000  1
  Tb  Tb1  1  0.192461  0.334941  0.500000  1
  Tb  Tb2  1  0.861874  0.675389  0.500000  1
  Tb  Tb3  1  0.307539  0.834941  0.500000  1
  Hg  Hg4  1  0.624794  0.866944  0.000000  1
  Hg  Hg5  1  0.875206  0.366944  0.000000  1
  Pt  Pt6  1  0.371338  0.121177  0.000000  1
  Pt  Pt7  1  0.128662  0.621177  0.000000  1
  Pb  Pb8  1  0.004619  0.001549  0.000000  1
  Pb  Pb9  1  0.495381  0.501549  0.000000  1
