# generated using pymatgen
data_Nd3HoLuP12Ru19
_symmetry_space_group_name_H-M   'P 1'
_cell_length_a   12.58953300
_cell_length_b   12.58953327
_cell_length_c   4.00526400
_cell_angle_alpha   90.00000000
_cell_angle_beta   90.00000000
_cell_angle_gamma   119.99999666
_symmetry_Int_Tables_number   1
_chemical_formula_structural   Nd3HoLuP12Ru19
_chemical_formula_sum   'Nd3 Ho1 Lu1 P12 Ru19'
_cell_volume   549.77000808
_cell_formula_units_Z   1
loop_
 _symmetry_equiv_pos_site_id
 _symmetry_equiv_pos_as_xyz
  1  'x, y, z'
loop_
 _atom_site_type_symbol
 _atom_site_label
 _atom_site_symmetry_multiplicity
 _atom_site_fract_x
 _atom_site_fract_y
 _atom_site_fract_z
 _atom_site_occupancy
  Nd  Nd0  1  0.999986  0.183986  0.500000  1
  Nd  Nd1  1  0.816014  0.816001  0.500000  1
  Nd  Nd2  1  0.183999  0.000014  0.500000  1
  Ho  Ho3  1  0.333333  0.666667  0.000000  1
  Lu  Lu4  1  0.666667  0.333333  0.000000  1
  P  P5  1  0.999944  0.812004  0.000000  1
  P  P6  1  0.187996  0.187940  0.000000  1
  P  P7  1  0.812060  0.000056  0.000000  1
  P  P8  1  0.694661  0.173981  0.500000  1
  P  P9  1  0.826019  0.520679  0.500000  1
  P  P10  1  0.479321  0.305339  0.500000  1
  P  P11  1  0.173670  0.694780  0.500000  1
  P  P12  1  0.521109  0.826330  0.500000  1
  P  P13  1  0.305220  0.478891  0.500000  1
  P  P14  1  0.000083  0.373852  0.000000  1
  P  P15  1  0.626148  0.626231  0.000000  1
  P  P16  1  0.373769  0.999917  0.000000  1
  Ru  Ru17  1  0.000037  0.553889  0.000000  1
  Ru  Ru18  1  0.446111  0.446148  0.000000  1
  Ru  Ru19  1  0.553852  0.999963  0.000000  1
  Ru  Ru20  1  0.999912  0.713259  0.500000  1
  Ru  Ru21  1  0.286741  0.286653  0.500000  1
  Ru  Ru22  1  0.713347  0.000088  0.500000  1
  Ru  Ru23  1  0.804214  0.185684  0.000000  1
  Ru  Ru24  1  0.814316  0.618530  0.000000  1
  Ru  Ru25  1  0.381470  0.195786  0.000000  1
  Ru  Ru26  1  0.185373  0.804458  0.000000  1
  Ru  Ru27  1  0.619085  0.814627  0.000000  1
  Ru  Ru28  1  0.195542  0.380915  0.000000  1
  Ru  Ru29  1  0.873267  0.367424  0.500000  1
  Ru  Ru30  1  0.632576  0.505843  0.500000  1
  Ru  Ru31  1  0.494157  0.126733  0.500000  1
  Ru  Ru32  1  0.367485  0.874109  0.500000  1
  Ru  Ru33  1  0.506624  0.632515  0.500000  1
  Ru  Ru34  1  0.125891  0.493376  0.500000  1
  Ru  Ru35  1  0.000000  0.000000  0.000000  1
