# generated using pymatgen
data_Sr20Si11Sn
_symmetry_space_group_name_H-M   'P 1'
_cell_length_a   8.11643500
_cell_length_b   8.11643500
_cell_length_c   15.96571400
_cell_angle_alpha   90.00000000
_cell_angle_beta   90.00000000
_cell_angle_gamma   90.00000000
_symmetry_Int_Tables_number   1
_chemical_formula_structural   Sr20Si11Sn
_chemical_formula_sum   'Sr20 Si11 Sn1'
_cell_volume   1051.76563148
_cell_formula_units_Z   1
loop_
 _symmetry_equiv_pos_site_id
 _symmetry_equiv_pos_as_xyz
  1  'x, y, z'
loop_
 _atom_site_type_symbol
 _atom_site_label
 _atom_site_symmetry_multiplicity
 _atom_site_fract_x
 _atom_site_fract_y
 _atom_site_fract_z
 _atom_site_occupancy
  Sr  Sr0  1  0.329623  0.688827  0.112141  1
  Sr  Sr1  1  0.188827  0.170377  0.112141  1
  Sr  Sr2  1  0.500000  0.000000  0.736834  1
  Sr  Sr3  1  0.315959  0.673597  0.392037  1
  Sr  Sr4  1  0.672251  0.686769  0.887851  1
  Sr  Sr5  1  0.173597  0.184041  0.392037  1
  Sr  Sr6  1  0.684041  0.326403  0.392037  1
  Sr  Sr7  1  0.176130  0.818178  0.607919  1
  Sr  Sr8  1  0.327749  0.313231  0.887851  1
  Sr  Sr9  1  0.186769  0.827749  0.887851  1
  Sr  Sr10  1  0.500000  0.000000  0.267900  1
  Sr  Sr11  1  0.823870  0.181822  0.607919  1
  Sr  Sr12  1  0.318178  0.323870  0.607919  1
  Sr  Sr13  1  0.826403  0.815959  0.392037  1
  Sr  Sr14  1  0.813231  0.172251  0.887851  1
  Sr  Sr15  1  0.811173  0.829623  0.112141  1
  Sr  Sr16  1  0.000000  0.500000  0.243875  1
  Sr  Sr17  1  0.000000  0.500000  0.752055  1
  Sr  Sr18  1  0.670377  0.311173  0.112141  1
  Sr  Sr19  1  0.681822  0.676130  0.607919  1
  Si  Si20  1  0.107407  0.107497  0.747879  1
  Si  Si21  1  0.392503  0.607407  0.747879  1
  Si  Si22  1  0.607511  0.607357  0.252060  1
  Si  Si23  1  0.500000  0.000000  0.998885  1
  Si  Si24  1  0.107357  0.892489  0.252060  1
  Si  Si25  1  0.607497  0.392593  0.747879  1
  Si  Si26  1  0.892593  0.892503  0.747879  1
  Si  Si27  1  0.392489  0.392643  0.252060  1
  Si  Si28  1  0.892643  0.107511  0.252060  1
  Si  Si29  1  0.500000  0.000000  0.499253  1
  Si  Si30  1  0.000000  0.500000  0.501153  1
  Sn  Sn31  1  0.000000  0.500000  0.000492  1
