# generated using pymatgen
data_La8SiAsI12
_symmetry_space_group_name_H-M   'P 1'
_cell_length_a   4.47225900
_cell_length_b   14.66755624
_cell_length_c   15.49396293
_cell_angle_alpha   90.06069769
_cell_angle_beta   90.00000000
_cell_angle_gamma   90.00000000
_symmetry_Int_Tables_number   1
_chemical_formula_structural   La8SiAsI12
_chemical_formula_sum   'La8 Si1 As1 I12'
_cell_volume   1016.35862677
_cell_formula_units_Z   1
loop_
 _symmetry_equiv_pos_site_id
 _symmetry_equiv_pos_as_xyz
  1  'x, y, z'
loop_
 _atom_site_type_symbol
 _atom_site_label
 _atom_site_symmetry_multiplicity
 _atom_site_fract_x
 _atom_site_fract_y
 _atom_site_fract_z
 _atom_site_occupancy
  La  La0  1  0.500000  0.115761  0.344789  1
  La  La1  1  0.500000  0.884239  0.655211  1
  La  La2  1  0.500000  0.615812  0.155234  1
  La  La3  1  0.500000  0.384188  0.844766  1
  La  La4  1  0.000000  0.112113  0.574486  1
  La  La5  1  0.000000  0.887887  0.425514  1
  La  La6  1  0.000000  0.614088  0.924088  1
  La  La7  1  0.000000  0.385912  0.075912  1
  Si  Si8  1  0.500000  0.500000  0.000000  1
  As  As9  1  0.500000  0.000000  0.500000  1
  I  I10  1  0.500000  0.243689  0.162529  1
  I  I11  1  0.500000  0.756311  0.837471  1
  I  I12  1  0.500000  0.745263  0.338879  1
  I  I13  1  0.500000  0.254737  0.661121  1
  I  I14  1  0.000000  0.258105  0.413218  1
  I  I15  1  0.000000  0.741895  0.586782  1
  I  I16  1  0.000000  0.758346  0.087034  1
  I  I17  1  0.000000  0.241654  0.912966  1
  I  I18  1  0.000000  0.999146  0.241081  1
  I  I19  1  0.000000  0.000854  0.758919  1
  I  I20  1  0.000000  0.499439  0.259311  1
  I  I21  1  0.000000  0.500561  0.740689  1
