# generated using pymatgen
data_La9Nd3Ni6Hg
_symmetry_space_group_name_H-M   'P 1'
_cell_length_a   8.79421675
_cell_length_b   8.79421594
_cell_length_c   8.80287839
_cell_angle_alpha   108.99914245
_cell_angle_beta   109.64973985
_cell_angle_gamma   109.72613812
_symmetry_Int_Tables_number   1
_chemical_formula_structural   La9Nd3Ni6Hg
_chemical_formula_sum   'La9 Nd3 Ni6 Hg1'
_cell_volume   524.31010621
_cell_formula_units_Z   1
loop_
 _symmetry_equiv_pos_site_id
 _symmetry_equiv_pos_as_xyz
  1  'x, y, z'
loop_
 _atom_site_type_symbol
 _atom_site_label
 _atom_site_symmetry_multiplicity
 _atom_site_fract_x
 _atom_site_fract_y
 _atom_site_fract_z
 _atom_site_occupancy
  La  La0  1  0.817526  0.310760  0.128286  1
  La  La1  1  0.691095  0.508868  0.815670  1
  La  La2  1  0.309889  0.492002  0.183057  1
  La  La3  1  0.691055  0.873168  0.183057  1
  La  La4  1  0.306801  0.124575  0.815670  1
  La  La5  1  0.507748  0.815830  0.691294  1
  La  La6  1  0.489773  0.183298  0.307990  1
  La  La7  1  0.124692  0.818217  0.307990  1
  La  La8  1  0.875463  0.183544  0.691294  1
  Nd  Nd9  1  0.819007  0.691710  0.510716  1
  Nd  Nd10  1  0.182638  0.310535  0.493173  1
  Nd  Nd11  1  0.181820  0.689358  0.871177  1
  Ni  Ni12  1  0.875661  0.375676  0.500265  1
  Ni  Ni13  1  0.124590  0.624604  0.500265  1
  Ni  Ni14  1  0.376884  0.499435  0.876319  1
  Ni  Ni15  1  0.625207  0.499402  0.124610  1
  Ni  Ni16  1  0.500065  0.874754  0.374819  1
  Ni  Ni17  1  0.499480  0.124942  0.624422  1
  Hg  Hg18  1  0.000607  0.999320  0.999927  1
