# generated using pymatgen
data_Zr4InPbC2
_symmetry_space_group_name_H-M   'P 1'
_cell_length_a   3.38879200
_cell_length_b   3.38879290
_cell_length_c   15.11452900
_cell_angle_alpha   90.00000000
_cell_angle_beta   90.00000000
_cell_angle_gamma   119.99999121
_symmetry_Int_Tables_number   1
_chemical_formula_structural   Zr4InPbC2
_chemical_formula_sum   'Zr4 In1 Pb1 C2'
_cell_volume   150.31946803
_cell_formula_units_Z   1
loop_
 _symmetry_equiv_pos_site_id
 _symmetry_equiv_pos_as_xyz
  1  'x, y, z'
loop_
 _atom_site_type_symbol
 _atom_site_label
 _atom_site_symmetry_multiplicity
 _atom_site_fract_x
 _atom_site_fract_y
 _atom_site_fract_z
 _atom_site_occupancy
  Zr  Zr0  1  0.333333  0.666667  0.081543  1
  Zr  Zr1  1  0.333333  0.666667  0.418457  1
  Zr  Zr2  1  0.666667  0.333333  0.581705  1
  Zr  Zr3  1  0.666667  0.333333  0.918295  1
  In  In4  1  0.333333  0.666667  0.750000  1
  Pb  Pb5  1  0.666667  0.333333  0.250000  1
  C  C6  1  0.000000  0.000000  0.999930  1
  C  C7  1  0.000000  0.000000  0.500070  1
