# generated using pymatgen
data_Yb2ErTm7(In2Pt)4
_symmetry_space_group_name_H-M   'P 1'
_cell_length_a   3.62877900
_cell_length_b   8.06620810
_cell_length_c   18.13584722
_cell_angle_alpha   90.01799808
_cell_angle_beta   90.00000000
_cell_angle_gamma   90.00000000
_symmetry_Int_Tables_number   1
_chemical_formula_structural   Yb2ErTm7(In2Pt)4
_chemical_formula_sum   'Yb2 Er1 Tm7 In8 Pt4'
_cell_volume   530.84504624
_cell_formula_units_Z   1
loop_
 _symmetry_equiv_pos_site_id
 _symmetry_equiv_pos_as_xyz
  1  'x, y, z'
loop_
 _atom_site_type_symbol
 _atom_site_label
 _atom_site_symmetry_multiplicity
 _atom_site_fract_x
 _atom_site_fract_y
 _atom_site_fract_z
 _atom_site_occupancy
  Yb  Yb0  1  0.000000  0.000006  0.999995  1
  Yb  Yb1  1  0.000000  0.499934  0.500099  1
  Er  Er2  1  0.000000  0.119434  0.413792  1
  Tm  Tm3  1  0.000000  0.880896  0.586732  1
  Tm  Tm4  1  0.000000  0.380891  0.913475  1
  Tm  Tm5  1  0.000000  0.619108  0.086456  1
  Tm  Tm6  1  0.000000  0.243988  0.220844  1
  Tm  Tm7  1  0.000000  0.756004  0.779095  1
  Tm  Tm8  1  0.000000  0.255995  0.721191  1
  Tm  Tm9  1  0.000000  0.743946  0.278736  1
  In  In10  1  0.500000  0.428117  0.351298  1
  In  In11  1  0.500000  0.572682  0.648633  1
  In  In12  1  0.500000  0.072651  0.851504  1
  In  In13  1  0.500000  0.927190  0.148333  1
  In  In14  1  0.500000  0.295190  0.066532  1
  In  In15  1  0.500000  0.705106  0.933285  1
  In  In16  1  0.500000  0.205359  0.567171  1
  In  In17  1  0.500000  0.794113  0.433128  1
  Pt  Pt18  1  0.500000  0.023593  0.302882  1
  Pt  Pt19  1  0.500000  0.975950  0.696861  1
  Pt  Pt20  1  0.500000  0.476074  0.803400  1
  Pt  Pt21  1  0.500000  0.523772  0.196557  1
