# generated using pymatgen
data_Y4Ga4IrPt3
_symmetry_space_group_name_H-M   'P 1'
_cell_length_a   4.45316500
_cell_length_b   6.90604151
_cell_length_c   7.69362696
_cell_angle_alpha   89.79023557
_cell_angle_beta   90.00000000
_cell_angle_gamma   90.00000000
_symmetry_Int_Tables_number   1
_chemical_formula_structural   Y4Ga4IrPt3
_chemical_formula_sum   'Y4 Ga4 Ir1 Pt3'
_cell_volume   236.60623545
_cell_formula_units_Z   1
loop_
 _symmetry_equiv_pos_site_id
 _symmetry_equiv_pos_as_xyz
  1  'x, y, z'
loop_
 _atom_site_type_symbol
 _atom_site_label
 _atom_site_symmetry_multiplicity
 _atom_site_fract_x
 _atom_site_fract_y
 _atom_site_fract_z
 _atom_site_occupancy
  Y  Y0  1  0.250000  0.986481  0.305433  1
  Y  Y1  1  0.250000  0.480874  0.197728  1
  Y  Y2  1  0.750000  0.022709  0.691210  1
  Y  Y3  1  0.750000  0.518202  0.805448  1
  Ga  Ga4  1  0.250000  0.330844  0.569938  1
  Ga  Ga5  1  0.250000  0.831969  0.929006  1
  Ga  Ga6  1  0.750000  0.661232  0.428230  1
  Ga  Ga7  1  0.750000  0.169856  0.074347  1
  Ir  Ir8  1  0.750000  0.274764  0.396582  1
  Pt  Pt9  1  0.250000  0.222405  0.896833  1
  Pt  Pt10  1  0.250000  0.723238  0.602732  1
  Pt  Pt11  1  0.750000  0.777426  0.102513  1
