# generated using pymatgen
data_CaYPa2(Al3Ir)6
_symmetry_space_group_name_H-M   'P 1'
_cell_length_a   7.60414602
_cell_length_b   7.60018774
_cell_length_c   9.40229200
_cell_angle_alpha   90.00000000
_cell_angle_beta   90.00000000
_cell_angle_gamma   119.62068448
_symmetry_Int_Tables_number   1
_chemical_formula_structural   CaYPa2(Al3Ir)6
_chemical_formula_sum   'Ca1 Y1 Pa2 Al18 Ir6'
_cell_volume   472.37450751
_cell_formula_units_Z   1
loop_
 _symmetry_equiv_pos_site_id
 _symmetry_equiv_pos_as_xyz
  1  'x, y, z'
loop_
 _atom_site_type_symbol
 _atom_site_label
 _atom_site_symmetry_multiplicity
 _atom_site_fract_x
 _atom_site_fract_y
 _atom_site_fract_z
 _atom_site_occupancy
  Ca  Ca0  1  0.670323  0.993919  0.250000  1
  Y  Y1  1  0.330786  0.006640  0.750000  1
  Pa  Pa2  1  0.997465  0.671810  0.250000  1
  Pa  Pa3  1  0.002377  0.328076  0.750000  1
  Al  Al4  1  0.131076  0.126814  0.250000  1
  Al  Al5  1  0.869007  0.872437  0.750000  1
  Al  Al6  1  0.999891  0.331320  0.078132  1
  Al  Al7  1  0.999116  0.667792  0.922175  1
  Al  Al8  1  0.999116  0.667792  0.577825  1
  Al  Al9  1  0.339044  0.003280  0.424691  1
  Al  Al10  1  0.999891  0.331320  0.421868  1
  Al  Al11  1  0.661879  0.996520  0.573581  1
  Al  Al12  1  0.661879  0.996520  0.926419  1
  Al  Al13  1  0.339044  0.003280  0.075309  1
  Al  Al14  1  0.335241  0.333529  0.553297  1
  Al  Al15  1  0.664438  0.666976  0.446585  1
  Al  Al16  1  0.664438  0.666976  0.053415  1
  Al  Al17  1  0.335241  0.333529  0.946703  1
  Al  Al18  1  0.339352  0.547827  0.250000  1
  Al  Al19  1  0.659885  0.452464  0.750000  1
  Al  Al20  1  0.549392  0.343078  0.250000  1
  Al  Al21  1  0.451449  0.658778  0.750000  1
  Ir  Ir22  1  0.675625  0.330982  0.998333  1
  Ir  Ir23  1  0.322702  0.668566  0.999105  1
  Ir  Ir24  1  0.322702  0.668566  0.500895  1
  Ir  Ir25  1  0.675625  0.330982  0.501667  1
  Ir  Ir26  1  0.001509  0.000114  0.998810  1
  Ir  Ir27  1  0.001509  0.000114  0.501190  1
