# generated using pymatgen
data_Ho7Er13(Bi2Os)4
_symmetry_space_group_name_H-M   'P 1'
_cell_length_a   7.90311001
_cell_length_b   9.00076700
_cell_length_c   12.46134501
_cell_angle_alpha   90.00000000
_cell_angle_beta   89.99471730
_cell_angle_gamma   90.00000000
_symmetry_Int_Tables_number   1
_chemical_formula_structural   Ho7Er13(Bi2Os)4
_chemical_formula_sum   'Ho7 Er13 Bi8 Os4'
_cell_volume   886.42595742
_cell_formula_units_Z   1
loop_
 _symmetry_equiv_pos_site_id
 _symmetry_equiv_pos_as_xyz
  1  'x, y, z'
loop_
 _atom_site_type_symbol
 _atom_site_label
 _atom_site_symmetry_multiplicity
 _atom_site_fract_x
 _atom_site_fract_y
 _atom_site_fract_z
 _atom_site_occupancy
  Ho  Ho0  1  0.662779  0.750000  0.708965  1
  Ho  Ho1  1  0.337267  0.250000  0.291048  1
  Ho  Ho2  1  0.162755  0.250000  0.791031  1
  Ho  Ho3  1  0.837207  0.750000  0.208981  1
  Ho  Ho4  1  0.129037  0.750000  0.812092  1
  Ho  Ho5  1  0.870960  0.250000  0.187907  1
  Ho  Ho6  1  0.629042  0.250000  0.687915  1
  Er  Er7  1  0.371175  0.750000  0.312299  1
  Er  Er8  1  0.557737  0.750000  0.994980  1
  Er  Er9  1  0.442228  0.250000  0.005055  1
  Er  Er10  1  0.057864  0.250000  0.505026  1
  Er  Er11  1  0.942158  0.750000  0.494971  1
  Er  Er12  1  0.828416  0.458744  0.933632  1
  Er  Er13  1  0.171637  0.541267  0.066394  1
  Er  Er14  1  0.328482  0.541340  0.566229  1
  Er  Er15  1  0.171637  0.958733  0.066394  1
  Er  Er16  1  0.671436  0.458906  0.433634  1
  Er  Er17  1  0.828416  0.041256  0.933632  1
  Er  Er18  1  0.671436  0.041094  0.433634  1
  Er  Er19  1  0.328482  0.958660  0.566229  1
  Bi  Bi20  1  0.937834  0.004798  0.672375  1
  Bi  Bi21  1  0.062332  0.995103  0.327631  1
  Bi  Bi22  1  0.437813  0.995206  0.827641  1
  Bi  Bi23  1  0.062332  0.504897  0.327631  1
  Bi  Bi24  1  0.562060  0.004698  0.172411  1
  Bi  Bi25  1  0.937834  0.495202  0.672375  1
  Bi  Bi26  1  0.562060  0.495302  0.172411  1
  Bi  Bi27  1  0.437813  0.504794  0.827641  1
  Os  Os28  1  0.925585  0.750000  0.991763  1
  Os  Os29  1  0.074406  0.250000  0.008253  1
  Os  Os30  1  0.425630  0.250000  0.508274  1
  Os  Os31  1  0.574146  0.750000  0.491547  1
