# generated using pymatgen
data_Dy8Y7Sc4Si16Ag
_symmetry_space_group_name_H-M   'P 1'
_cell_length_a   7.16564125
_cell_length_b   7.62728783
_cell_length_c   14.46053143
_cell_angle_alpha   90.18472871
_cell_angle_beta   90.10051576
_cell_angle_gamma   90.08687890
_symmetry_Int_Tables_number   1
_chemical_formula_structural   Dy8Y7Sc4Si16Ag
_chemical_formula_sum   'Dy8 Y7 Sc4 Si16 Ag1'
_cell_volume   790.32554919
_cell_formula_units_Z   1
loop_
 _symmetry_equiv_pos_site_id
 _symmetry_equiv_pos_as_xyz
  1  'x, y, z'
loop_
 _atom_site_type_symbol
 _atom_site_label
 _atom_site_symmetry_multiplicity
 _atom_site_fract_x
 _atom_site_fract_y
 _atom_site_fract_z
 _atom_site_occupancy
  Dy  Dy0  1  0.016388  0.181122  0.097961  1
  Dy  Dy1  1  0.986130  0.807553  0.903380  1
  Dy  Dy2  1  0.477668  0.679914  0.901544  1
  Dy  Dy3  1  0.983996  0.806900  0.598896  1
  Dy  Dy4  1  0.512957  0.318917  0.096280  1
  Dy  Dy5  1  0.017023  0.182439  0.400218  1
  Dy  Dy6  1  0.514182  0.319264  0.401449  1
  Dy  Dy7  1  0.479122  0.678587  0.598271  1
  Y  Y8  1  0.320284  0.184703  0.628281  1
  Y  Y9  1  0.675499  0.822968  0.373097  1
  Y  Y10  1  0.174617  0.682148  0.372017  1
  Y  Y11  1  0.674023  0.822752  0.124404  1
  Y  Y12  1  0.835396  0.324804  0.627860  1
  Y  Y13  1  0.319706  0.186337  0.874094  1
  Y  Y14  1  0.835588  0.327780  0.874664  1
  Sc  Sc15  1  0.840622  0.488037  0.248250  1
  Sc  Sc16  1  0.341939  0.013098  0.247409  1
  Sc  Sc17  1  0.654180  0.984481  0.750573  1
  Sc  Sc18  1  0.174760  0.680737  0.129153  1
  Si  Si19  1  0.016667  0.072827  0.750789  1
  Si  Si20  1  0.979609  0.904678  0.246994  1
  Si  Si21  1  0.472065  0.597005  0.245959  1
  Si  Si22  1  0.529356  0.406316  0.750728  1
  Si  Si23  1  0.282347  0.872267  0.750644  1
  Si  Si24  1  0.717674  0.136398  0.248709  1
  Si  Si25  1  0.216550  0.367544  0.248002  1
  Si  Si26  1  0.768870  0.636426  0.750680  1
  Si  Si27  1  0.160911  0.463079  0.528684  1
  Si  Si28  1  0.844340  0.529385  0.460329  1
  Si  Si29  1  0.347373  0.971549  0.462856  1
  Si  Si30  1  0.855482  0.531186  0.043398  1
  Si  Si31  1  0.654520  0.028586  0.540678  1
  Si  Si32  1  0.165779  0.467958  0.977058  1
  Si  Si33  1  0.653457  0.028720  0.959326  1
  Si  Si34  1  0.337589  0.963180  0.037838  1
  Ag  Ag35  1  0.163328  0.530352  0.749528  1
