# generated using pymatgen
data_YbHoEr8(In2Pd)4
_symmetry_space_group_name_H-M   'P 1'
_cell_length_a   3.62743500
_cell_length_b   8.09421287
_cell_length_c   18.19420922
_cell_angle_alpha   89.92202168
_cell_angle_beta   90.00000000
_cell_angle_gamma   90.00000000
_symmetry_Int_Tables_number   1
_chemical_formula_structural   YbHoEr8(In2Pd)4
_chemical_formula_sum   'Yb1 Ho1 Er8 In8 Pd4'
_cell_volume   534.20388621
_cell_formula_units_Z   1
loop_
 _symmetry_equiv_pos_site_id
 _symmetry_equiv_pos_as_xyz
  1  'x, y, z'
loop_
 _atom_site_type_symbol
 _atom_site_label
 _atom_site_symmetry_multiplicity
 _atom_site_fract_x
 _atom_site_fract_y
 _atom_site_fract_z
 _atom_site_occupancy
  Yb  Yb0  1  0.000000  0.000000  0.000000  1
  Ho  Ho1  1  0.000000  0.500000  0.500000  1
  Er  Er2  1  0.000000  0.743669  0.279805  1
  Er  Er3  1  0.000000  0.256331  0.720195  1
  Er  Er4  1  0.000000  0.756292  0.779948  1
  Er  Er5  1  0.000000  0.243708  0.220052  1
  Er  Er6  1  0.000000  0.621232  0.084282  1
  Er  Er7  1  0.000000  0.378768  0.915718  1
  Er  Er8  1  0.000000  0.879496  0.584719  1
  Er  Er9  1  0.000000  0.120504  0.415281  1
  In  In10  1  0.500000  0.705289  0.932514  1
  In  In11  1  0.500000  0.294711  0.067486  1
  In  In12  1  0.500000  0.794434  0.432769  1
  In  In13  1  0.500000  0.205566  0.567231  1
  In  In14  1  0.500000  0.575169  0.650160  1
  In  In15  1  0.500000  0.424831  0.349840  1
  In  In16  1  0.500000  0.924915  0.150237  1
  In  In17  1  0.500000  0.075085  0.849763  1
  Pd  Pd18  1  0.500000  0.525236  0.195304  1
  Pd  Pd19  1  0.500000  0.474764  0.804696  1
  Pd  Pd20  1  0.500000  0.974735  0.695569  1
  Pd  Pd21  1  0.500000  0.025265  0.304431  1
