# generated using pymatgen
data_LiZn21Pt4
_symmetry_space_group_name_H-M   'P 1'
_cell_length_a   7.93267960
_cell_length_b   7.96702245
_cell_length_c   7.93268007
_cell_angle_alpha   109.58931463
_cell_angle_beta   109.34207387
_cell_angle_gamma   109.58930639
_symmetry_Int_Tables_number   1
_chemical_formula_structural   LiZn21Pt4
_chemical_formula_sum   'Li1 Zn21 Pt4'
_cell_volume   385.42242687
_cell_formula_units_Z   1
loop_
 _symmetry_equiv_pos_site_id
 _symmetry_equiv_pos_as_xyz
  1  'x, y, z'
loop_
 _atom_site_type_symbol
 _atom_site_label
 _atom_site_symmetry_multiplicity
 _atom_site_fract_x
 _atom_site_fract_y
 _atom_site_fract_z
 _atom_site_occupancy
  Li  Li0  1  0.727466  0.377276  0.727466  1
  Zn  Zn1  1  0.623404  0.351350  0.352832  1
  Zn  Zn2  1  0.352832  0.351350  0.623404  1
  Zn  Zn3  1  0.650507  0.273155  0.998462  1
  Zn  Zn4  1  0.218481  0.217012  0.218481  1
  Zn  Zn5  1  0.999926  0.999986  0.782807  1
  Zn  Zn6  1  0.782807  0.999986  0.999926  1
  Zn  Zn7  1  0.997505  0.779296  0.997505  1
  Zn  Zn8  1  0.359386  0.358632  0.000271  1
  Zn  Zn9  1  0.997829  0.640054  0.642537  1
  Zn  Zn10  1  0.000271  0.358632  0.359386  1
  Zn  Zn11  1  0.358593  0.000291  0.358593  1
  Zn  Zn12  1  0.643437  0.004550  0.643437  1
  Zn  Zn13  1  0.642537  0.640054  0.997829  1
  Zn  Zn14  1  0.351135  0.623395  0.351135  1
  Zn  Zn15  1  0.274377  0.000869  0.649147  1
  Zn  Zn16  1  0.649147  0.000869  0.274377  1
  Zn  Zn17  1  0.269466  0.647819  0.998256  1
  Zn  Zn18  1  0.726463  0.727431  0.376103  1
  Zn  Zn19  1  0.376103  0.727431  0.726463  1
  Zn  Zn20  1  0.998256  0.647819  0.269466  1
  Zn  Zn21  1  0.998462  0.273155  0.650507  1
  Pt  Pt22  1  0.000408  0.343851  0.000408  1
  Pt  Pt23  1  0.346530  0.000297  0.999775  1
  Pt  Pt24  1  0.999775  0.000297  0.346530  1
  Pt  Pt25  1  0.654901  0.655143  0.654901  1
