# generated using pymatgen
data_Nd6ScTi(Co4P3)4
_symmetry_space_group_name_H-M   'P 1'
_cell_length_a   3.77289300
_cell_length_b   10.75674000
_cell_length_c   12.53424000
_cell_angle_alpha   90.00000000
_cell_angle_beta   90.00000000
_cell_angle_gamma   90.00000000
_symmetry_Int_Tables_number   1
_chemical_formula_structural   Nd6ScTi(Co4P3)4
_chemical_formula_sum   'Nd6 Sc1 Ti1 Co16 P12'
_cell_volume   508.68996026
_cell_formula_units_Z   1
loop_
 _symmetry_equiv_pos_site_id
 _symmetry_equiv_pos_as_xyz
  1  'x, y, z'
loop_
 _atom_site_type_symbol
 _atom_site_label
 _atom_site_symmetry_multiplicity
 _atom_site_fract_x
 _atom_site_fract_y
 _atom_site_fract_z
 _atom_site_occupancy
  Nd  Nd0  1  0.000000  0.500000  0.526960  1
  Nd  Nd1  1  0.500000  0.000000  0.475216  1
  Nd  Nd2  1  0.500000  0.821437  0.205254  1
  Nd  Nd3  1  0.500000  0.178563  0.205254  1
  Nd  Nd4  1  0.000000  0.679976  0.794691  1
  Nd  Nd5  1  0.000000  0.320024  0.794691  1
  Sc  Sc6  1  0.500000  0.500000  0.153561  1
  Ti  Ti7  1  0.000000  0.000000  0.846584  1
  Co  Co8  1  0.500000  0.500000  0.705186  1
  Co  Co9  1  0.000000  0.000000  0.295649  1
  Co  Co10  1  0.000000  0.500000  0.986470  1
  Co  Co11  1  0.500000  0.000000  0.010432  1
  Co  Co12  1  0.500000  0.329352  0.993241  1
  Co  Co13  1  0.500000  0.670648  0.993241  1
  Co  Co14  1  0.000000  0.165537  0.002489  1
  Co  Co15  1  0.000000  0.834463  0.002489  1
  Co  Co16  1  0.500000  0.294475  0.433489  1
  Co  Co17  1  0.500000  0.705525  0.433489  1
  Co  Co18  1  0.000000  0.203163  0.569052  1
  Co  Co19  1  0.000000  0.796837  0.569052  1
  Co  Co20  1  0.500000  0.881236  0.706150  1
  Co  Co21  1  0.500000  0.118764  0.706150  1
  Co  Co22  1  0.000000  0.620112  0.297133  1
  Co  Co23  1  0.000000  0.379888  0.297133  1
  P  P24  1  0.500000  0.500000  0.887395  1
  P  P25  1  0.000000  0.000000  0.112125  1
  P  P26  1  0.500000  0.500000  0.355304  1
  P  P27  1  0.000000  0.000000  0.650634  1
  P  P28  1  0.500000  0.304277  0.614118  1
  P  P29  1  0.500000  0.695723  0.614118  1
  P  P30  1  0.000000  0.194571  0.387170  1
  P  P31  1  0.000000  0.805429  0.387170  1
  P  P32  1  0.500000  0.845787  0.892777  1
  P  P33  1  0.500000  0.154213  0.892777  1
  P  P34  1  0.000000  0.659640  0.101678  1
  P  P35  1  0.000000  0.340360  0.101678  1
