# generated using pymatgen
data_Nd6Cd(GeS7)2
_symmetry_space_group_name_H-M   'P 1'
_cell_length_a   10.27362900
_cell_length_b   10.27362814
_cell_length_c   5.81082100
_cell_angle_alpha   90.00000000
_cell_angle_beta   90.00000000
_cell_angle_gamma   119.99999955
_symmetry_Int_Tables_number   1
_chemical_formula_structural   Nd6Cd(GeS7)2
_chemical_formula_sum   'Nd6 Cd1 Ge2 S14'
_cell_volume   531.14836839
_cell_formula_units_Z   1
loop_
 _symmetry_equiv_pos_site_id
 _symmetry_equiv_pos_as_xyz
  1  'x, y, z'
loop_
 _atom_site_type_symbol
 _atom_site_label
 _atom_site_symmetry_multiplicity
 _atom_site_fract_x
 _atom_site_fract_y
 _atom_site_fract_z
 _atom_site_occupancy
  Nd  Nd0  1  0.642344  0.768808  0.752075  1
  Nd  Nd1  1  0.126464  0.357656  0.752075  1
  Nd  Nd2  1  0.231192  0.873536  0.752075  1
  Nd  Nd3  1  0.357327  0.230539  0.248549  1
  Nd  Nd4  1  0.873212  0.642673  0.248549  1
  Nd  Nd5  1  0.769461  0.126788  0.248549  1
  Cd  Cd6  1  0.000000  0.000000  0.516863  1
  Ge  Ge7  1  0.333333  0.666667  0.169052  1
  Ge  Ge8  1  0.666667  0.333333  0.663634  1
  S  S9  1  0.481071  0.894508  0.011585  1
  S  S10  1  0.413436  0.518929  0.011585  1
  S  S11  1  0.105492  0.586564  0.011585  1
  S  S12  1  0.519157  0.105253  0.507686  1
  S  S13  1  0.586095  0.480843  0.507686  1
  S  S14  1  0.894747  0.413905  0.507686  1
  S  S15  1  0.333333  0.666667  0.546770  1
  S  S16  1  0.666667  0.333333  0.042232  1
  S  S17  1  0.743326  0.835983  0.276311  1
  S  S18  1  0.092657  0.256674  0.276311  1
  S  S19  1  0.164017  0.907343  0.276311  1
  S  S20  1  0.256414  0.165995  0.764957  1
  S  S21  1  0.909582  0.743586  0.764957  1
  S  S22  1  0.834005  0.090418  0.764957  1
