# generated using pymatgen
data_Tb2CdGa6Ni2Ag
_symmetry_space_group_name_H-M   'P 1'
_cell_length_a   4.16975364
_cell_length_b   6.54865844
_cell_length_c   8.07672536
_cell_angle_alpha   90.01980813
_cell_angle_beta   104.95937993
_cell_angle_gamma   89.99999567
_symmetry_Int_Tables_number   1
_chemical_formula_structural   Tb2CdGa6Ni2Ag
_chemical_formula_sum   'Tb2 Cd1 Ga6 Ni2 Ag1'
_cell_volume   213.07092185
_cell_formula_units_Z   1
loop_
 _symmetry_equiv_pos_site_id
 _symmetry_equiv_pos_as_xyz
  1  'x, y, z'
loop_
 _atom_site_type_symbol
 _atom_site_label
 _atom_site_symmetry_multiplicity
 _atom_site_fract_x
 _atom_site_fract_y
 _atom_site_fract_z
 _atom_site_occupancy
  Tb  Tb0  1  0.872378  0.748737  0.744756  1
  Tb  Tb1  1  0.127622  0.251263  0.255244  1
  Cd  Cd2  1  0.500000  0.500000  0.000000  1
  Ga  Ga3  1  0.069240  0.766382  0.138481  1
  Ga  Ga4  1  0.930760  0.233618  0.861519  1
  Ga  Ga5  1  0.687809  0.550790  0.375617  1
  Ga  Ga6  1  0.312191  0.449210  0.624383  1
  Ga  Ga7  1  0.685254  0.949585  0.370507  1
  Ga  Ga8  1  0.314746  0.050415  0.629493  1
  Ni  Ni9  1  0.221271  0.751157  0.442541  1
  Ni  Ni10  1  0.778729  0.248843  0.557459  1
  Ag  Ag11  1  0.500000  0.000000  0.000000  1
