# generated using pymatgen
data_Ta6Be4Fe7Co3
_symmetry_space_group_name_H-M   'P 1'
_cell_length_a   8.83012825
_cell_length_b   8.80591725
_cell_length_c   3.06871500
_cell_angle_alpha   90.00000000
_cell_angle_beta   90.00000000
_cell_angle_gamma   90.06105784
_symmetry_Int_Tables_number   1
_chemical_formula_structural   Ta6Be4Fe7Co3
_chemical_formula_sum   'Ta6 Be4 Fe7 Co3'
_cell_volume   238.61509891
_cell_formula_units_Z   1
loop_
 _symmetry_equiv_pos_site_id
 _symmetry_equiv_pos_as_xyz
  1  'x, y, z'
loop_
 _atom_site_type_symbol
 _atom_site_label
 _atom_site_symmetry_multiplicity
 _atom_site_fract_x
 _atom_site_fract_y
 _atom_site_fract_z
 _atom_site_occupancy
  Ta  Ta0  1  0.500912  0.499597  0.000000  1
  Ta  Ta1  1  0.999798  0.000519  0.000000  1
  Ta  Ta2  1  0.823136  0.322676  0.000000  1
  Ta  Ta3  1  0.179698  0.675139  0.000000  1
  Ta  Ta4  1  0.322867  0.177280  0.000000  1
  Ta  Ta5  1  0.673808  0.822569  0.000000  1
  Be  Be6  1  0.616690  0.116336  0.000000  1
  Be  Be7  1  0.382486  0.883940  0.000000  1
  Be  Be8  1  0.116440  0.383578  0.000000  1
  Be  Be9  1  0.884146  0.618654  0.000000  1
  Fe  Fe10  1  0.718447  0.570165  0.500000  1
  Fe  Fe11  1  0.282920  0.431646  0.500000  1
  Fe  Fe12  1  0.215623  0.930473  0.500000  1
  Fe  Fe13  1  0.782905  0.065816  0.500000  1
  Fe  Fe14  1  0.431672  0.717166  0.500000  1
  Fe  Fe15  1  0.569224  0.282788  0.500000  1
  Fe  Fe16  1  0.067720  0.217382  0.500000  1
  Co  Co17  1  0.499439  0.999911  0.500000  1
  Co  Co18  1  0.000250  0.501834  0.500000  1
  Co  Co19  1  0.931818  0.782532  0.500000  1
