# generated using pymatgen
data_Tb3Dy7Y6(CdPt)4
_symmetry_space_group_name_H-M   'P 1'
_cell_length_a   9.70715483
_cell_length_b   9.70510699
_cell_length_c   9.70510800
_cell_angle_alpha   60.00000337
_cell_angle_beta   60.00698168
_cell_angle_gamma   60.00698161
_symmetry_Int_Tables_number   1
_chemical_formula_structural   Tb3Dy7Y6(CdPt)4
_chemical_formula_sum   'Tb3 Dy7 Y6 Cd4 Pt4'
_cell_volume   646.58182375
_cell_formula_units_Z   1
loop_
 _symmetry_equiv_pos_site_id
 _symmetry_equiv_pos_as_xyz
  1  'x, y, z'
loop_
 _atom_site_type_symbol
 _atom_site_label
 _atom_site_symmetry_multiplicity
 _atom_site_fract_x
 _atom_site_fract_y
 _atom_site_fract_z
 _atom_site_occupancy
  Tb  Tb0  1  0.352360  0.352407  0.352407  1
  Tb  Tb1  1  0.352360  0.352407  0.942826  1
  Tb  Tb2  1  0.352360  0.942826  0.352407  1
  Dy  Dy3  1  0.943299  0.352234  0.352234  1
  Dy  Dy4  1  0.810853  0.189232  0.189232  1
  Dy  Dy5  1  0.189161  0.810863  0.810863  1
  Dy  Dy6  1  0.189161  0.810863  0.189114  1
  Dy  Dy7  1  0.810853  0.189232  0.810682  1
  Dy  Dy8  1  0.189161  0.189114  0.810863  1
  Dy  Dy9  1  0.810853  0.810682  0.189232  1
  Y  Y10  1  0.935392  0.564558  0.564558  1
  Y  Y11  1  0.564594  0.935390  0.935390  1
  Y  Y12  1  0.564594  0.935390  0.564626  1
  Y  Y13  1  0.935392  0.564558  0.935493  1
  Y  Y14  1  0.564594  0.564626  0.935390  1
  Y  Y15  1  0.935392  0.935493  0.564558  1
  Cd  Cd16  1  0.582316  0.582035  0.582035  1
  Cd  Cd17  1  0.582316  0.582035  0.253616  1
  Cd  Cd18  1  0.582316  0.253616  0.582035  1
  Cd  Cd19  1  0.253600  0.582134  0.582134  1
  Pt  Pt20  1  0.142712  0.143362  0.143362  1
  Pt  Pt21  1  0.142712  0.143362  0.570564  1
  Pt  Pt22  1  0.142712  0.570564  0.143362  1
  Pt  Pt23  1  0.570942  0.143019  0.143019  1
