# generated using pymatgen
data_Y3Cr6InO24
_symmetry_space_group_name_H-M   'P 1'
_cell_length_a   9.35843204
_cell_length_b   9.35843187
_cell_length_c   10.02436346
_cell_angle_alpha   117.82575971
_cell_angle_beta   62.17422807
_cell_angle_gamma   120.00000557
_symmetry_Int_Tables_number   1
_chemical_formula_structural   Y3Cr6InO24
_chemical_formula_sum   'Y3 Cr6 In1 O24'
_cell_volume   640.41961194
_cell_formula_units_Z   1
loop_
 _symmetry_equiv_pos_site_id
 _symmetry_equiv_pos_as_xyz
  1  'x, y, z'
loop_
 _atom_site_type_symbol
 _atom_site_label
 _atom_site_symmetry_multiplicity
 _atom_site_fract_x
 _atom_site_fract_y
 _atom_site_fract_z
 _atom_site_occupancy
  Y  Y0  1  0.647250  0.352751  0.058252  1
  Y  Y1  1  0.857065  0.142936  0.428808  1
  Y  Y2  1  0.140778  0.859223  0.577666  1
  Cr  Cr3  1  0.248954  0.028546  0.244925  1
  Cr  Cr4  1  0.971453  0.465333  0.244925  1
  Cr  Cr5  1  0.534667  0.751045  0.244925  1
  Cr  Cr6  1  0.463145  0.259748  0.753848  1
  Cr  Cr7  1  0.042754  0.536855  0.753848  1
  Cr  Cr8  1  0.740252  0.957246  0.753848  1
  In  In9  1  0.350563  0.649438  0.948311  1
  O  O10  1  0.160549  0.486999  0.101453  1
  O  O11  1  0.513000  0.775003  0.101453  1
  O  O12  1  0.224997  0.839450  0.101453  1
  O  O13  1  0.451189  0.166949  0.198765  1
  O  O14  1  0.833051  0.483005  0.198765  1
  O  O15  1  0.516995  0.548811  0.198765  1
  O  O16  1  0.113063  0.109364  0.268871  1
  O  O17  1  0.890635  0.272569  0.268871  1
  O  O18  1  0.727431  0.886937  0.268871  1
  O  O19  1  0.202711  0.999221  0.413516  1
  O  O20  1  0.000780  0.617006  0.413516  1
  O  O21  1  0.382994  0.797289  0.413516  1
  O  O22  1  0.618778  0.216893  0.586664  1
  O  O23  1  0.011451  0.381222  0.586664  1
  O  O24  1  0.783106  0.988548  0.586664  1
  O  O25  1  0.271660  0.121961  0.728050  1
  O  O26  1  0.122250  0.728340  0.728050  1
  O  O27  1  0.878041  0.877750  0.728050  1
  O  O28  1  0.478659  0.463145  0.805511  1
  O  O29  1  0.178975  0.521341  0.805511  1
  O  O30  1  0.536854  0.821023  0.805511  1
  O  O31  1  0.768814  0.147483  0.894051  1
  O  O32  1  0.484618  0.231186  0.894051  1
  O  O33  1  0.852517  0.515383  0.894051  1
