# generated using pymatgen
data_La2Tm4Ir17Rh
_symmetry_space_group_name_H-M   'P 1'
_cell_length_a   5.33739400
_cell_length_b   5.33736630
_cell_length_c   17.44089300
_cell_angle_alpha   90.00000000
_cell_angle_beta   90.00000000
_cell_angle_gamma   119.99996353
_symmetry_Int_Tables_number   1
_chemical_formula_structural   La2Tm4Ir17Rh
_chemical_formula_sum   'La2 Tm4 Ir17 Rh1'
_cell_volume   430.28457825
_cell_formula_units_Z   1
loop_
 _symmetry_equiv_pos_site_id
 _symmetry_equiv_pos_as_xyz
  1  'x, y, z'
loop_
 _atom_site_type_symbol
 _atom_site_label
 _atom_site_symmetry_multiplicity
 _atom_site_fract_x
 _atom_site_fract_y
 _atom_site_fract_z
 _atom_site_occupancy
  La  La0  1  0.333334  0.666666  0.750000  1
  La  La1  1  0.666666  0.333333  0.250000  1
  Tm  Tm2  1  0.333334  0.666666  0.540208  1
  Tm  Tm3  1  0.666667  0.333333  0.040347  1
  Tm  Tm4  1  0.666667  0.333333  0.459653  1
  Tm  Tm5  1  0.333334  0.666666  0.959792  1
  Ir  Ir6  1  0.167457  0.334914  0.124474  1
  Ir  Ir7  1  0.832082  0.664163  0.624239  1
  Ir  Ir8  1  0.665088  0.832544  0.124474  1
  Ir  Ir9  1  0.167456  0.832544  0.124474  1
  Ir  Ir10  1  0.832082  0.167919  0.624240  1
  Ir  Ir11  1  0.335837  0.167919  0.624239  1
  Ir  Ir12  1  0.832082  0.664163  0.875761  1
  Ir  Ir13  1  0.832082  0.167919  0.875760  1
  Ir  Ir14  1  0.335837  0.167919  0.875761  1
  Ir  Ir15  1  0.665088  0.832544  0.375526  1
  Ir  Ir16  1  0.167456  0.832544  0.375526  1
  Ir  Ir17  1  0.167457  0.334914  0.375526  1
  Ir  Ir18  1  0.999993  0.999996  0.250000  1
  Ir  Ir19  1  0.000003  0.000000  0.750000  1
  Ir  Ir20  1  0.333338  0.666671  0.250000  1
  Ir  Ir21  1  0.999999  0.999999  0.999689  1
  Ir  Ir22  1  0.999999  0.999999  0.500311  1
  Rh  Rh23  1  0.666663  0.333333  0.750000  1
