# generated using pymatgen
data_DyScP7Ru11Rh
_symmetry_space_group_name_H-M   'P 1'
_cell_length_a   9.35771004
_cell_length_b   9.40980603
_cell_length_c   3.92481300
_cell_angle_alpha   90.00000000
_cell_angle_beta   90.00000000
_cell_angle_gamma   119.66646837
_symmetry_Int_Tables_number   1
_chemical_formula_structural   DyScP7Ru11Rh
_chemical_formula_sum   'Dy1 Sc1 P7 Ru11 Rh1'
_cell_volume   300.29609247
_cell_formula_units_Z   1
loop_
 _symmetry_equiv_pos_site_id
 _symmetry_equiv_pos_as_xyz
  1  'x, y, z'
loop_
 _atom_site_type_symbol
 _atom_site_label
 _atom_site_symmetry_multiplicity
 _atom_site_fract_x
 _atom_site_fract_y
 _atom_site_fract_z
 _atom_site_occupancy
  Dy  Dy0  1  0.331110  0.662295  0.000000  1
  Sc  Sc1  1  0.669367  0.335496  0.500000  1
  P  P2  1  0.599919  0.713540  0.500000  1
  P  P3  1  0.997503  0.999644  0.000000  1
  P  P4  1  0.278374  0.880744  0.500000  1
  P  P5  1  0.117888  0.399846  0.500000  1
  P  P6  1  0.884278  0.574227  0.000000  1
  P  P7  1  0.429320  0.310354  0.000000  1
  P  P8  1  0.694805  0.122280  0.000000  1
  Ru  Ru9  1  0.393524  0.441093  0.500000  1
  Ru  Ru10  1  0.912498  0.123904  0.500000  1
  Ru  Ru11  1  0.209477  0.086552  0.500000  1
  Ru  Ru12  1  0.878078  0.794404  0.500000  1
  Ru  Ru13  1  0.723313  0.891092  0.000000  1
  Ru  Ru14  1  0.109800  0.837380  0.000000  1
  Ru  Ru15  1  0.164322  0.271238  0.000000  1
  Ru  Ru16  1  0.430175  0.070146  0.000000  1
  Ru  Ru17  1  0.932594  0.359962  0.000000  1
  Ru  Ru18  1  0.642965  0.573568  0.000000  1
  Ru  Ru19  1  0.049244  0.606430  0.500000  1
  Rh  Rh20  1  0.551446  0.945806  0.500000  1
