# generated using pymatgen
data_La2Y18ZnSi14Pt
_symmetry_space_group_name_H-M   'P 1'
_cell_length_a   7.46226739
_cell_length_b   7.84233077
_cell_length_c   14.73580264
_cell_angle_alpha   89.66312008
_cell_angle_beta   90.01649968
_cell_angle_gamma   89.96204392
_symmetry_Int_Tables_number   1
_chemical_formula_structural   La2Y18ZnSi14Pt
_chemical_formula_sum   'La2 Y18 Zn1 Si14 Pt1'
_cell_volume   862.34716103
_cell_formula_units_Z   1
loop_
 _symmetry_equiv_pos_site_id
 _symmetry_equiv_pos_as_xyz
  1  'x, y, z'
loop_
 _atom_site_type_symbol
 _atom_site_label
 _atom_site_symmetry_multiplicity
 _atom_site_fract_x
 _atom_site_fract_y
 _atom_site_fract_z
 _atom_site_occupancy
  La  La0  1  0.523294  0.568853  0.342283  1
  La  La1  1  0.023289  0.429062  0.658580  1
  Y  Y2  1  0.808497  0.578648  0.874867  1
  Y  Y3  1  0.316916  0.426342  0.125543  1
  Y  Y4  1  0.183401  0.928114  0.373199  1
  Y  Y5  1  0.682950  0.070766  0.626947  1
  Y  Y6  1  0.183012  0.927728  0.628339  1
  Y  Y7  1  0.682204  0.071333  0.371799  1
  Y  Y8  1  0.812398  0.574776  0.125906  1
  Y  Y9  1  0.321276  0.430947  0.873581  1
  Y  Y10  1  0.647706  0.233056  0.999620  1
  Y  Y11  1  0.158388  0.768792  0.000314  1
  Y  Y12  1  0.349038  0.264190  0.500068  1
  Y  Y13  1  0.848843  0.734777  0.499839  1
  Y  Y14  1  0.476515  0.931728  0.846314  1
  Y  Y15  1  0.972589  0.062275  0.154998  1
  Y  Y16  1  0.474152  0.932695  0.152843  1
  Y  Y17  1  0.970857  0.062818  0.845823  1
  Y  Y18  1  0.527732  0.564890  0.652491  1
  Y  Y19  1  0.027259  0.433872  0.346848  1
  Zn  Zn20  1  0.017591  0.349874  0.998941  1
  Si  Si21  1  0.476739  0.858373  0.501059  1
  Si  Si22  1  0.978084  0.140465  0.498892  1
  Si  Si23  1  0.652239  0.275795  0.791131  1
  Si  Si24  1  0.150779  0.721663  0.209337  1
  Si  Si25  1  0.351060  0.216145  0.288072  1
  Si  Si26  1  0.849990  0.783328  0.712175  1
  Si  Si27  1  0.360843  0.219246  0.710572  1
  Si  Si28  1  0.859381  0.780581  0.289206  1
  Si  Si29  1  0.649193  0.269548  0.206106  1
  Si  Si30  1  0.146815  0.728027  0.793271  1
  Si  Si31  1  0.769071  0.880858  0.000813  1
  Si  Si32  1  0.262770  0.126865  0.999405  1
  Si  Si33  1  0.232990  0.626102  0.501809  1
  Si  Si34  1  0.733232  0.373600  0.498386  1
  Pt  Pt35  1  0.518908  0.653867  0.000623  1
