# generated using pymatgen
data_Zr3Al2AuO
_symmetry_space_group_name_H-M   'P 1'
_cell_length_a   8.71204277
_cell_length_b   8.71204375
_cell_length_c   8.71204200
_cell_angle_alpha   59.99999905
_cell_angle_beta   59.99999532
_cell_angle_gamma   60.00000061
_symmetry_Int_Tables_number   1
_chemical_formula_structural   Zr3Al2AuO
_chemical_formula_sum   'Zr12 Al8 Au4 O4'
_cell_volume   467.56822804
_cell_formula_units_Z   4
loop_
 _symmetry_equiv_pos_site_id
 _symmetry_equiv_pos_as_xyz
  1  'x, y, z'
loop_
 _atom_site_type_symbol
 _atom_site_label
 _atom_site_symmetry_multiplicity
 _atom_site_fract_x
 _atom_site_fract_y
 _atom_site_fract_z
 _atom_site_occupancy
  Zr  Zr0  1  0.565042  0.934958  0.565042  1
  Zr  Zr1  1  0.315042  0.684958  0.684958  1
  Zr  Zr2  1  0.684958  0.315042  0.315042  1
  Zr  Zr3  1  0.315042  0.684958  0.315042  1
  Zr  Zr4  1  0.684958  0.684958  0.315042  1
  Zr  Zr5  1  0.315042  0.315042  0.684958  1
  Zr  Zr6  1  0.565042  0.565042  0.934958  1
  Zr  Zr7  1  0.934958  0.565042  0.565042  1
  Zr  Zr8  1  0.565042  0.934958  0.934958  1
  Zr  Zr9  1  0.934958  0.934958  0.565042  1
  Zr  Zr10  1  0.684958  0.315042  0.684958  1
  Zr  Zr11  1  0.934958  0.565042  0.934958  1
  Al  Al12  1  0.334148  0.334148  0.334148  1
  Al  Al13  1  0.252443  0.915852  0.915852  1
  Al  Al14  1  0.915852  0.252443  0.915852  1
  Al  Al15  1  0.915852  0.915852  0.252443  1
  Al  Al16  1  0.334148  0.997557  0.334148  1
  Al  Al17  1  0.334148  0.334148  0.997557  1
  Al  Al18  1  0.997557  0.334148  0.334148  1
  Al  Al19  1  0.915852  0.915852  0.915852  1
  Au  Au20  1  0.125000  0.125000  0.125000  1
  Au  Au21  1  0.625000  0.125000  0.125000  1
  Au  Au22  1  0.125000  0.625000  0.125000  1
  Au  Au23  1  0.125000  0.125000  0.625000  1
  O  O24  1  0.625000  0.625000  0.625000  1
  O  O25  1  0.125000  0.625000  0.625000  1
  O  O26  1  0.625000  0.125000  0.625000  1
  O  O27  1  0.625000  0.625000  0.125000  1
