# generated using pymatgen
data_Li4Dy4AsAu3
_symmetry_space_group_name_H-M   'P 1'
_cell_length_a   4.05809000
_cell_length_b   7.17012073
_cell_length_c   8.69753100
_cell_angle_alpha   89.35755744
_cell_angle_beta   90.00000000
_cell_angle_gamma   90.00000000
_symmetry_Int_Tables_number   1
_chemical_formula_structural   Li4Dy4AsAu3
_chemical_formula_sum   'Li4 Dy4 As1 Au3'
_cell_volume   253.05610937
_cell_formula_units_Z   1
loop_
 _symmetry_equiv_pos_site_id
 _symmetry_equiv_pos_as_xyz
  1  'x, y, z'
loop_
 _atom_site_type_symbol
 _atom_site_label
 _atom_site_symmetry_multiplicity
 _atom_site_fract_x
 _atom_site_fract_y
 _atom_site_fract_z
 _atom_site_occupancy
  Li  Li0  1  0.250000  0.367746  0.550190  1
  Li  Li1  1  0.250000  0.878504  0.943056  1
  Li  Li2  1  0.750000  0.616789  0.440443  1
  Li  Li3  1  0.750000  0.129965  0.063573  1
  Dy  Dy4  1  0.250000  0.948645  0.319278  1
  Dy  Dy5  1  0.250000  0.454956  0.184543  1
  Dy  Dy6  1  0.750000  0.048105  0.682040  1
  Dy  Dy7  1  0.750000  0.553753  0.820575  1
  As  As8  1  0.750000  0.248154  0.375614  1
  Au  Au9  1  0.250000  0.255080  0.877173  1
  Au  Au10  1  0.250000  0.750875  0.621838  1
  Au  Au11  1  0.750000  0.747427  0.121678  1
