# generated using pymatgen
data_Tb10Nd6Cd3Hg(IrPt)2
_symmetry_space_group_name_H-M   'P 1'
_cell_length_a   9.80712723
_cell_length_b   9.80706839
_cell_length_c   9.79946700
_cell_angle_alpha   60.00777252
_cell_angle_beta   60.00815306
_cell_angle_gamma   60.13765380
_symmetry_Int_Tables_number   1
_chemical_formula_structural   Tb10Nd6Cd3Hg(IrPt)2
_chemical_formula_sum   'Tb10 Nd6 Cd3 Hg1 Ir2 Pt2'
_cell_volume   667.22238474
_cell_formula_units_Z   1
loop_
 _symmetry_equiv_pos_site_id
 _symmetry_equiv_pos_as_xyz
  1  'x, y, z'
loop_
 _atom_site_type_symbol
 _atom_site_label
 _atom_site_symmetry_multiplicity
 _atom_site_fract_x
 _atom_site_fract_y
 _atom_site_fract_z
 _atom_site_occupancy
  Tb  Tb0  1  0.348725  0.348706  0.345707  1
  Tb  Tb1  1  0.350912  0.350916  0.953007  1
  Tb  Tb2  1  0.356170  0.946074  0.350284  1
  Tb  Tb3  1  0.946086  0.356163  0.350274  1
  Tb  Tb4  1  0.808019  0.189700  0.186716  1
  Tb  Tb5  1  0.186767  0.807728  0.814659  1
  Tb  Tb6  1  0.189712  0.808020  0.186710  1
  Tb  Tb7  1  0.807732  0.186771  0.814666  1
  Tb  Tb8  1  0.188264  0.188259  0.812306  1
  Tb  Tb9  1  0.812663  0.812668  0.183424  1
  Nd  Nd10  1  0.940569  0.562123  0.558957  1
  Nd  Nd11  1  0.559787  0.940965  0.939821  1
  Nd  Nd12  1  0.562130  0.940562  0.558961  1
  Nd  Nd13  1  0.940960  0.559766  0.939839  1
  Nd  Nd14  1  0.560242  0.560228  0.939726  1
  Nd  Nd15  1  0.940486  0.940517  0.558411  1
  Cd  Cd16  1  0.579599  0.579607  0.259327  1
  Cd  Cd17  1  0.578990  0.260532  0.579738  1
  Cd  Cd18  1  0.260508  0.579012  0.579735  1
  Hg  Hg19  1  0.582805  0.582806  0.582492  1
  Ir  Ir20  1  0.141248  0.573261  0.143771  1
  Ir  Ir21  1  0.573262  0.141250  0.143759  1
  Pt  Pt22  1  0.142710  0.142717  0.145326  1
  Pt  Pt23  1  0.141656  0.141651  0.572384  1
