# generated using pymatgen
data_Hf11Sc7(Si8W)2
_symmetry_space_group_name_H-M   'P 1'
_cell_length_a   7.06782470
_cell_length_b   7.07105128
_cell_length_c   12.88471445
_cell_angle_alpha   89.97027525
_cell_angle_beta   89.99335976
_cell_angle_gamma   89.77021421
_symmetry_Int_Tables_number   1
_chemical_formula_structural   Hf11Sc7(Si8W)2
_chemical_formula_sum   'Hf11 Sc7 Si16 W2'
_cell_volume   643.93347217
_cell_formula_units_Z   1
loop_
 _symmetry_equiv_pos_site_id
 _symmetry_equiv_pos_as_xyz
  1  'x, y, z'
loop_
 _atom_site_type_symbol
 _atom_site_label
 _atom_site_symmetry_multiplicity
 _atom_site_fract_x
 _atom_site_fract_y
 _atom_site_fract_z
 _atom_site_occupancy
  Hf  Hf0  1  0.823394  0.823520  0.499911  1
  Hf  Hf1  1  0.176099  0.177208  0.000632  1
  Hf  Hf2  1  0.000244  0.348512  0.216069  1
  Hf  Hf3  1  0.497058  0.356900  0.127523  1
  Hf  Hf4  1  0.503004  0.642286  0.626927  1
  Hf  Hf5  1  0.853598  0.003610  0.874688  1
  Hf  Hf6  1  0.145393  0.996338  0.373623  1
  Hf  Hf7  1  0.642728  0.502535  0.372358  1
  Hf  Hf8  1  0.357584  0.496549  0.873421  1
  Hf  Hf9  1  0.003847  0.853231  0.126268  1
  Hf  Hf10  1  0.996184  0.146238  0.625402  1
  Sc  Sc11  1  0.496043  0.154740  0.533743  1
  Sc  Sc12  1  0.503004  0.845289  0.034905  1
  Sc  Sc13  1  0.653401  0.001785  0.282906  1
  Sc  Sc14  1  0.347284  0.999138  0.784021  1
  Sc  Sc15  1  0.845509  0.503707  0.965990  1
  Sc  Sc16  1  0.153937  0.496512  0.466209  1
  Sc  Sc17  1  0.000975  0.652930  0.716175  1
  Si  Si18  1  0.797213  0.147840  0.071392  1
  Si  Si19  1  0.203573  0.852747  0.570448  1
  Si  Si20  1  0.647653  0.702323  0.819941  1
  Si  Si21  1  0.351263  0.298008  0.320199  1
  Si  Si22  1  0.853358  0.204480  0.427410  1
  Si  Si23  1  0.146984  0.796185  0.929964  1
  Si  Si24  1  0.703892  0.646893  0.179552  1
  Si  Si25  1  0.297745  0.352028  0.680109  1
  Si  Si26  1  0.551349  0.199384  0.933242  1
  Si  Si27  1  0.448553  0.800405  0.432834  1
  Si  Si28  1  0.694603  0.955894  0.685361  1
  Si  Si29  1  0.304853  0.044758  0.185248  1
  Si  Si30  1  0.800768  0.448896  0.566727  1
  Si  Si31  1  0.199828  0.551279  0.066871  1
  Si  Si32  1  0.956066  0.694193  0.315317  1
  Si  Si33  1  0.044360  0.305103  0.814639  1
  W  W34  1  0.676398  0.323382  0.749859  1
  W  W35  1  0.322258  0.675174  0.250117  1
