# generated using pymatgen
data_Hf18CrRe7Se2
_symmetry_space_group_name_H-M   'P 1'
_cell_length_a   8.64846200
_cell_length_b   8.64846218
_cell_length_c   8.56263100
_cell_angle_alpha   90.00000000
_cell_angle_beta   90.00000000
_cell_angle_gamma   119.99999932
_symmetry_Int_Tables_number   1
_chemical_formula_structural   Hf18CrRe7Se2
_chemical_formula_sum   'Hf18 Cr1 Re7 Se2'
_cell_volume   554.64568093
_cell_formula_units_Z   1
loop_
 _symmetry_equiv_pos_site_id
 _symmetry_equiv_pos_as_xyz
  1  'x, y, z'
loop_
 _atom_site_type_symbol
 _atom_site_label
 _atom_site_symmetry_multiplicity
 _atom_site_fract_x
 _atom_site_fract_y
 _atom_site_fract_z
 _atom_site_occupancy
  Hf  Hf0  1  0.190225  0.809775  0.450612  1
  Hf  Hf1  1  0.190225  0.380450  0.450612  1
  Hf  Hf2  1  0.619550  0.809775  0.450612  1
  Hf  Hf3  1  0.809775  0.190225  0.549388  1
  Hf  Hf4  1  0.809775  0.619550  0.549388  1
  Hf  Hf5  1  0.380450  0.190225  0.549388  1
  Hf  Hf6  1  0.808569  0.191431  0.950753  1
  Hf  Hf7  1  0.808569  0.617139  0.950753  1
  Hf  Hf8  1  0.382861  0.191431  0.950753  1
  Hf  Hf9  1  0.191431  0.808569  0.049247  1
  Hf  Hf10  1  0.191431  0.382861  0.049247  1
  Hf  Hf11  1  0.617139  0.808569  0.049247  1
  Hf  Hf12  1  0.544951  0.455049  0.250014  1
  Hf  Hf13  1  0.544951  0.089902  0.250014  1
  Hf  Hf14  1  0.910098  0.455049  0.250014  1
  Hf  Hf15  1  0.455049  0.544951  0.749986  1
  Hf  Hf16  1  0.455049  0.910098  0.749986  1
  Hf  Hf17  1  0.089902  0.544951  0.749986  1
  Cr  Cr18  1  0.000000  0.000000  0.500000  1
  Re  Re19  1  0.891373  0.108627  0.254249  1
  Re  Re20  1  0.891373  0.782746  0.254249  1
  Re  Re21  1  0.217254  0.108627  0.254249  1
  Re  Re22  1  0.108627  0.891373  0.745751  1
  Re  Re23  1  0.108627  0.217254  0.745751  1
  Re  Re24  1  0.782746  0.891373  0.745751  1
  Re  Re25  1  0.000000  0.000000  0.000000  1
  Se  Se26  1  0.333333  0.666667  0.250548  1
  Se  Se27  1  0.666667  0.333333  0.749452  1
