# generated using pymatgen
data_Tb3Dy5(TlRu)2
_symmetry_space_group_name_H-M   'P 1'
_cell_length_a   9.63439677
_cell_length_b   9.63439794
_cell_length_c   9.63439700
_cell_angle_alpha   59.99999979
_cell_angle_beta   59.99999578
_cell_angle_gamma   59.99999921
_symmetry_Int_Tables_number   1
_chemical_formula_structural   Tb3Dy5(TlRu)2
_chemical_formula_sum   'Tb6 Dy10 Tl4 Ru4'
_cell_volume   632.35161402
_cell_formula_units_Z   2
loop_
 _symmetry_equiv_pos_site_id
 _symmetry_equiv_pos_as_xyz
  1  'x, y, z'
loop_
 _atom_site_type_symbol
 _atom_site_label
 _atom_site_symmetry_multiplicity
 _atom_site_fract_x
 _atom_site_fract_y
 _atom_site_fract_z
 _atom_site_occupancy
  Tb  Tb0  1  0.192007  0.807993  0.807993  1
  Tb  Tb1  1  0.807993  0.192007  0.192007  1
  Tb  Tb2  1  0.807993  0.192007  0.807993  1
  Tb  Tb3  1  0.192007  0.807993  0.192007  1
  Tb  Tb4  1  0.807993  0.807993  0.192007  1
  Tb  Tb5  1  0.192007  0.192007  0.807993  1
  Dy  Dy6  1  0.597789  0.597789  0.597789  1
  Dy  Dy7  1  0.597789  0.597789  0.206634  1
  Dy  Dy8  1  0.597789  0.206634  0.597789  1
  Dy  Dy9  1  0.206634  0.597789  0.597789  1
  Dy  Dy10  1  0.059342  0.440658  0.440658  1
  Dy  Dy11  1  0.440658  0.059342  0.059342  1
  Dy  Dy12  1  0.440658  0.059342  0.440658  1
  Dy  Dy13  1  0.059342  0.440658  0.059342  1
  Dy  Dy14  1  0.440658  0.440658  0.059342  1
  Dy  Dy15  1  0.059342  0.059342  0.440658  1
  Tl  Tl16  1  0.834942  0.834942  0.834942  1
  Tl  Tl17  1  0.834942  0.834942  0.495175  1
  Tl  Tl18  1  0.834942  0.495175  0.834942  1
  Tl  Tl19  1  0.495175  0.834942  0.834942  1
  Ru  Ru20  1  0.389098  0.389098  0.389098  1
  Ru  Ru21  1  0.389098  0.389098  0.832708  1
  Ru  Ru22  1  0.389098  0.832708  0.389098  1
  Ru  Ru23  1  0.832708  0.389098  0.389098  1
