# generated using pymatgen
data_HoLuNb4(B2Ru5)2
_symmetry_space_group_name_H-M   'P 1'
_cell_length_a   9.54068932
_cell_length_b   9.54068942
_cell_length_c   3.08705100
_cell_angle_alpha   90.00000000
_cell_angle_beta   90.00000000
_cell_angle_gamma   90.58744240
_symmetry_Int_Tables_number   1
_chemical_formula_structural   HoLuNb4(B2Ru5)2
_chemical_formula_sum   'Ho1 Lu1 Nb4 B4 Ru10'
_cell_volume   280.98328761
_cell_formula_units_Z   1
loop_
 _symmetry_equiv_pos_site_id
 _symmetry_equiv_pos_as_xyz
  1  'x, y, z'
loop_
 _atom_site_type_symbol
 _atom_site_label
 _atom_site_symmetry_multiplicity
 _atom_site_fract_x
 _atom_site_fract_y
 _atom_site_fract_z
 _atom_site_occupancy
  Ho  Ho0  1  0.824603  0.675397  0.000000  1
  Lu  Lu1  1  0.175988  0.324012  0.000000  1
  Nb  Nb2  1  0.323982  0.824212  0.000000  1
  Nb  Nb3  1  0.675788  0.176018  0.000000  1
  Nb  Nb4  1  0.499271  0.499769  0.000000  1
  Nb  Nb5  1  0.000231  0.000729  0.000000  1
  B  B6  1  0.620813  0.879187  0.000000  1
  B  B7  1  0.378100  0.121900  0.000000  1
  B  B8  1  0.121178  0.620246  0.000000  1
  B  B9  1  0.879754  0.378822  0.000000  1
  Ru  Ru10  1  0.560217  0.722813  0.500000  1
  Ru  Ru11  1  0.438276  0.277945  0.500000  1
  Ru  Ru12  1  0.080840  0.784727  0.500000  1
  Ru  Ru13  1  0.920696  0.215255  0.500000  1
  Ru  Ru14  1  0.284745  0.579304  0.500000  1
  Ru  Ru15  1  0.715273  0.419160  0.500000  1
  Ru  Ru16  1  0.222055  0.061724  0.500000  1
  Ru  Ru17  1  0.777187  0.939783  0.500000  1
  Ru  Ru18  1  0.499550  0.000450  0.500000  1
  Ru  Ru19  1  0.001454  0.498546  0.500000  1
