# generated using pymatgen
data_La4Al4Zn3Au
_symmetry_space_group_name_H-M   'P 1'
_cell_length_a   4.69569100
_cell_length_b   7.77343986
_cell_length_c   7.64876676
_cell_angle_alpha   89.57996856
_cell_angle_beta   90.00000000
_cell_angle_gamma   90.00000000
_symmetry_Int_Tables_number   1
_chemical_formula_structural   La4Al4Zn3Au
_chemical_formula_sum   'La4 Al4 Zn3 Au1'
_cell_volume   279.18527008
_cell_formula_units_Z   1
loop_
 _symmetry_equiv_pos_site_id
 _symmetry_equiv_pos_as_xyz
  1  'x, y, z'
loop_
 _atom_site_type_symbol
 _atom_site_label
 _atom_site_symmetry_multiplicity
 _atom_site_fract_x
 _atom_site_fract_y
 _atom_site_fract_z
 _atom_site_occupancy
  La  La0  1  0.250000  0.009210  0.302616  1
  La  La1  1  0.250000  0.503673  0.202067  1
  La  La2  1  0.750000  0.994832  0.699670  1
  La  La3  1  0.750000  0.493453  0.798214  1
  Al  Al4  1  0.250000  0.180622  0.912227  1
  Al  Al5  1  0.250000  0.685144  0.588269  1
  Al  Al6  1  0.750000  0.814369  0.086832  1
  Al  Al7  1  0.750000  0.313744  0.411862  1
  Zn  Zn8  1  0.250000  0.313507  0.588406  1
  Zn  Zn9  1  0.250000  0.811658  0.911892  1
  Zn  Zn10  1  0.750000  0.686975  0.412249  1
  Au  Au11  1  0.750000  0.192812  0.085696  1
