# generated using pymatgen
data_Pr3NdSn16(IrRh)4
_symmetry_space_group_name_H-M   'P 1'
_cell_length_a   4.54590000
_cell_length_b   7.25457501
_cell_length_c   18.70365301
_cell_angle_alpha   89.99563908
_cell_angle_beta   90.00000000
_cell_angle_gamma   90.00000000
_symmetry_Int_Tables_number   1
_chemical_formula_structural   Pr3NdSn16(IrRh)4
_chemical_formula_sum   'Pr3 Nd1 Sn16 Ir4 Rh4'
_cell_volume   616.81977544
_cell_formula_units_Z   1
loop_
 _symmetry_equiv_pos_site_id
 _symmetry_equiv_pos_as_xyz
  1  'x, y, z'
loop_
 _atom_site_type_symbol
 _atom_site_label
 _atom_site_symmetry_multiplicity
 _atom_site_fract_x
 _atom_site_fract_y
 _atom_site_fract_z
 _atom_site_occupancy
  Pr  Pr0  1  0.250000  0.501162  0.358382  1
  Pr  Pr1  1  0.750000  0.001154  0.141610  1
  Pr  Pr2  1  0.750000  0.498835  0.641629  1
  Nd  Nd3  1  0.250000  0.998874  0.858409  1
  Sn  Sn4  1  0.250000  0.302572  0.182159  1
  Sn  Sn5  1  0.250000  0.197392  0.682179  1
  Sn  Sn6  1  0.750000  0.697829  0.817910  1
  Sn  Sn7  1  0.750000  0.802569  0.317840  1
  Sn  Sn8  1  0.250000  0.722043  0.194771  1
  Sn  Sn9  1  0.250000  0.778045  0.694831  1
  Sn  Sn10  1  0.750000  0.277512  0.805315  1
  Sn  Sn11  1  0.750000  0.222047  0.305228  1
  Sn  Sn12  1  0.250000  0.865115  0.031809  1
  Sn  Sn13  1  0.250000  0.634941  0.531879  1
  Sn  Sn14  1  0.750000  0.134747  0.967946  1
  Sn  Sn15  1  0.750000  0.365050  0.468114  1
  Sn  Sn16  1  0.250000  0.519176  0.931755  1
  Sn  Sn17  1  0.250000  0.980864  0.431751  1
  Sn  Sn18  1  0.750000  0.480868  0.068240  1
  Sn  Sn19  1  0.750000  0.019139  0.568250  1
  Ir  Ir20  1  0.250000  0.250629  0.034789  1
  Ir  Ir21  1  0.250000  0.249353  0.534816  1
  Ir  Ir22  1  0.750000  0.749510  0.965089  1
  Ir  Ir23  1  0.750000  0.750655  0.465182  1
  Rh  Rh24  1  0.250000  0.017473  0.286883  1
  Rh  Rh25  1  0.250000  0.482450  0.786895  1
  Rh  Rh26  1  0.750000  0.982515  0.713204  1
  Rh  Rh27  1  0.750000  0.517483  0.213136  1
