# generated using pymatgen
data_Rb2SmDy5F20
_symmetry_space_group_name_H-M   'P 1'
_cell_length_a   8.33069496
_cell_length_b   8.33069502
_cell_length_c   8.30597600
_cell_angle_alpha   60.09810647
_cell_angle_beta   60.09810624
_cell_angle_gamma   59.80378505
_symmetry_Int_Tables_number   1
_chemical_formula_structural   Rb2SmDy5F20
_chemical_formula_sum   'Rb2 Sm1 Dy5 F20'
_cell_volume   407.59656017
_cell_formula_units_Z   1
loop_
 _symmetry_equiv_pos_site_id
 _symmetry_equiv_pos_as_xyz
  1  'x, y, z'
loop_
 _atom_site_type_symbol
 _atom_site_label
 _atom_site_symmetry_multiplicity
 _atom_site_fract_x
 _atom_site_fract_y
 _atom_site_fract_z
 _atom_site_occupancy
  Rb  Rb0  1  0.249751  0.249751  0.250249  1
  Rb  Rb1  1  0.749751  0.749751  0.750249  1
  Sm  Sm2  1  0.759497  0.759497  0.240503  1
  Dy  Dy3  1  0.759386  0.239923  0.240614  1
  Dy  Dy4  1  0.239923  0.759386  0.760077  1
  Dy  Dy5  1  0.239923  0.759386  0.240614  1
  Dy  Dy6  1  0.759386  0.239923  0.760077  1
  Dy  Dy7  1  0.240189  0.240189  0.759811  1
  F  F8  1  0.831036  0.495456  0.504544  1
  F  F9  1  0.171125  0.500087  0.499913  1
  F  F10  1  0.495456  0.831036  0.168964  1
  F  F11  1  0.500087  0.171125  0.828875  1
  F  F12  1  0.495456  0.831036  0.504544  1
  F  F13  1  0.171125  0.500087  0.828875  1
  F  F14  1  0.500087  0.171125  0.499913  1
  F  F15  1  0.831036  0.495456  0.168964  1
  F  F16  1  0.499940  0.499940  0.828609  1
  F  F17  1  0.499940  0.499940  0.171510  1
  F  F18  1  0.171391  0.828490  0.500060  1
  F  F19  1  0.828490  0.171391  0.500060  1
  F  F20  1  0.110436  0.110436  0.110030  1
  F  F21  1  0.891319  0.891319  0.885039  1
  F  F22  1  0.110436  0.110436  0.669097  1
  F  F23  1  0.114961  0.667678  0.108681  1
  F  F24  1  0.891319  0.891319  0.332322  1
  F  F25  1  0.889970  0.330903  0.889564  1
  F  F26  1  0.667678  0.114961  0.108681  1
  F  F27  1  0.330903  0.889970  0.889564  1
