# generated using pymatgen
data_Lu6Si24Os3Ru5
_symmetry_space_group_name_H-M   'P 1'
_cell_length_a   10.08645441
_cell_length_b   10.08645375
_cell_length_c   8.09126509
_cell_angle_alpha   89.99324656
_cell_angle_beta   89.99325244
_cell_angle_gamma   132.71088485
_symmetry_Int_Tables_number   1
_chemical_formula_structural   Lu6Si24Os3Ru5
_chemical_formula_sum   'Lu6 Si24 Os3 Ru5'
_cell_volume   604.85902616
_cell_formula_units_Z   1
loop_
 _symmetry_equiv_pos_site_id
 _symmetry_equiv_pos_as_xyz
  1  'x, y, z'
loop_
 _atom_site_type_symbol
 _atom_site_label
 _atom_site_symmetry_multiplicity
 _atom_site_fract_x
 _atom_site_fract_y
 _atom_site_fract_z
 _atom_site_occupancy
  Lu  Lu0  1  0.499981  0.500019  0.500000  1
  Lu  Lu1  1  0.000074  0.999926  0.000000  1
  Lu  Lu2  1  0.501955  0.002181  0.750283  1
  Lu  Lu3  1  0.997819  0.498045  0.249717  1
  Lu  Lu4  1  0.497765  0.997453  0.249599  1
  Lu  Lu5  1  0.002547  0.502235  0.750401  1
  Si  Si6  1  0.796060  0.203940  0.500000  1
  Si  Si7  1  0.295846  0.704154  0.000000  1
  Si  Si8  1  0.204037  0.795963  0.500000  1
  Si  Si9  1  0.704822  0.295178  0.000000  1
  Si  Si10  1  0.332096  0.331848  0.833242  1
  Si  Si11  1  0.668152  0.667904  0.166758  1
  Si  Si12  1  0.167037  0.167198  0.332040  1
  Si  Si13  1  0.832802  0.832963  0.667960  1
  Si  Si14  1  0.121496  0.888322  0.728597  1
  Si  Si15  1  0.111678  0.878504  0.271403  1
  Si  Si16  1  0.612988  0.379073  0.227340  1
  Si  Si17  1  0.620927  0.387012  0.772660  1
  Si  Si18  1  0.878020  0.111699  0.270109  1
  Si  Si19  1  0.888301  0.121980  0.729891  1
  Si  Si20  1  0.388017  0.621807  0.772294  1
  Si  Si21  1  0.378193  0.611983  0.227706  1
  Si  Si22  1  0.344791  0.111715  0.505552  1
  Si  Si23  1  0.888285  0.655209  0.494448  1
  Si  Si24  1  0.388471  0.155511  0.004034  1
  Si  Si25  1  0.844489  0.611529  0.995966  1
  Si  Si26  1  0.655373  0.888498  0.494282  1
  Si  Si27  1  0.111502  0.344627  0.505718  1
  Si  Si28  1  0.613088  0.846336  0.995014  1
  Si  Si29  1  0.153664  0.386912  0.004986  1
  Os  Os30  1  0.670475  0.329525  0.500000  1
  Os  Os31  1  0.170287  0.829713  0.000000  1
  Os  Os32  1  0.329543  0.670457  0.500000  1
  Ru  Ru33  1  0.829596  0.170404  0.000000  1
  Ru  Ru34  1  0.128269  0.128200  0.627265  1
  Ru  Ru35  1  0.871800  0.871731  0.372735  1
  Ru  Ru36  1  0.373333  0.373574  0.128502  1
  Ru  Ru37  1  0.626426  0.626667  0.871498  1
