# generated using pymatgen
data_MgSbAuF12
_symmetry_space_group_name_H-M   'P 1'
_cell_length_a   5.45833543
_cell_length_b   11.10622690
_cell_length_c   5.47451400
_cell_angle_alpha   58.32932683
_cell_angle_beta   58.00247671
_cell_angle_gamma   58.72915767
_symmetry_Int_Tables_number   1
_chemical_formula_structural   MgSbAuF12
_chemical_formula_sum   'Mg1 Sb1 Au1 F12'
_cell_volume   225.80542796
_cell_formula_units_Z   1
loop_
 _symmetry_equiv_pos_site_id
 _symmetry_equiv_pos_as_xyz
  1  'x, y, z'
loop_
 _atom_site_type_symbol
 _atom_site_label
 _atom_site_symmetry_multiplicity
 _atom_site_fract_x
 _atom_site_fract_y
 _atom_site_fract_z
 _atom_site_occupancy
  Mg  Mg0  1  0.491440  0.751683  0.505457  1
  Sb  Sb1  1  0.006666  0.005531  0.987713  1
  Au  Au2  1  0.988418  0.504624  0.003890  1
  F  F3  1  0.372636  0.050324  0.777203  1
  F  F4  1  0.354067  0.570872  0.758323  1
  F  F5  1  0.116115  0.389129  0.351773  1
  F  F6  1  0.141352  0.872716  0.345193  1
  F  F7  1  0.221179  0.335923  0.868043  1
  F  F8  1  0.240181  0.825421  0.863856  1
  F  F9  1  0.887527  0.105992  0.644635  1
  F  F10  1  0.860566  0.627707  0.638477  1
  F  F11  1  0.635732  0.442124  0.237521  1
  F  F12  1  0.672202  0.920408  0.241104  1
  F  F13  1  0.763459  0.163852  0.141783  1
  F  F14  1  0.748459  0.683693  0.135030  1
