# generated using pymatgen
data_Tb4Co7Ni9(MoP3)4
_symmetry_space_group_name_H-M   'P 1'
_cell_length_a   3.69303600
_cell_length_b   10.49314573
_cell_length_c   12.05044512
_cell_angle_alpha   89.94011304
_cell_angle_beta   90.00000000
_cell_angle_gamma   90.00000000
_symmetry_Int_Tables_number   1
_chemical_formula_structural   Tb4Co7Ni9(MoP3)4
_chemical_formula_sum   'Tb4 Co7 Ni9 Mo4 P12'
_cell_volume   466.97335127
_cell_formula_units_Z   1
loop_
 _symmetry_equiv_pos_site_id
 _symmetry_equiv_pos_as_xyz
  1  'x, y, z'
loop_
 _atom_site_type_symbol
 _atom_site_label
 _atom_site_symmetry_multiplicity
 _atom_site_fract_x
 _atom_site_fract_y
 _atom_site_fract_z
 _atom_site_occupancy
  Tb  Tb0  1  0.250000  0.581265  0.706849  1
  Tb  Tb1  1  0.250000  0.918138  0.207227  1
  Tb  Tb2  1  0.750000  0.417927  0.292775  1
  Tb  Tb3  1  0.750000  0.083138  0.793160  1
  Co  Co4  1  0.250000  0.618225  0.201027  1
  Co  Co5  1  0.750000  0.118887  0.298840  1
  Co  Co6  1  0.750000  0.382048  0.799073  1
  Co  Co7  1  0.250000  0.464815  0.933372  1
  Co  Co8  1  0.250000  0.034658  0.433425  1
  Co  Co9  1  0.750000  0.535089  0.066737  1
  Co  Co10  1  0.750000  0.964785  0.566537  1
  Ni  Ni11  1  0.250000  0.408601  0.486402  1
  Ni  Ni12  1  0.250000  0.091636  0.987228  1
  Ni  Ni13  1  0.750000  0.589660  0.511905  1
  Ni  Ni14  1  0.750000  0.908837  0.013345  1
  Ni  Ni15  1  0.250000  0.223231  0.176262  1
  Ni  Ni16  1  0.250000  0.278281  0.676738  1
  Ni  Ni17  1  0.750000  0.776828  0.823104  1
  Ni  Ni18  1  0.750000  0.723314  0.323353  1
  Ni  Ni19  1  0.250000  0.882563  0.702759  1
  Mo  Mo20  1  0.250000  0.705540  0.988991  1
  Mo  Mo21  1  0.250000  0.793101  0.488814  1
  Mo  Mo22  1  0.750000  0.293928  0.011625  1
  Mo  Mo23  1  0.750000  0.205963  0.511428  1
  P  P24  1  0.250000  0.425196  0.113659  1
  P  P25  1  0.250000  0.077067  0.613134  1
  P  P26  1  0.750000  0.575060  0.886473  1
  P  P27  1  0.750000  0.925645  0.386104  1
  P  P28  1  0.250000  0.270386  0.865033  1
  P  P29  1  0.250000  0.229721  0.364528  1
  P  P30  1  0.750000  0.729523  0.135388  1
  P  P31  1  0.750000  0.766893  0.632546  1
  P  P32  1  0.250000  0.598850  0.388060  1
  P  P33  1  0.250000  0.901267  0.890898  1
  P  P34  1  0.750000  0.400687  0.611434  1
  P  P35  1  0.750000  0.099245  0.111771  1
