# generated using pymatgen
data_Er5Zn2P10Ir19
_symmetry_space_group_name_H-M   'P 1'
_cell_length_a   12.78146031
_cell_length_b   12.79318357
_cell_length_c   3.95682000
_cell_angle_alpha   90.00000000
_cell_angle_beta   90.00000000
_cell_angle_gamma   120.03034329
_symmetry_Int_Tables_number   1
_chemical_formula_structural   Er5Zn2P10Ir19
_chemical_formula_sum   'Er5 Zn2 P10 Ir19'
_cell_volume   560.14848082
_cell_formula_units_Z   1
loop_
 _symmetry_equiv_pos_site_id
 _symmetry_equiv_pos_as_xyz
  1  'x, y, z'
loop_
 _atom_site_type_symbol
 _atom_site_label
 _atom_site_symmetry_multiplicity
 _atom_site_fract_x
 _atom_site_fract_y
 _atom_site_fract_z
 _atom_site_occupancy
  Er  Er0  1  0.338953  0.671219  0.500000  1
  Er  Er1  1  0.661047  0.332265  0.500000  1
  Er  Er2  1  0.178836  0.182633  0.000000  1
  Er  Er3  1  0.821164  0.003797  0.000000  1
  Er  Er4  1  0.000000  0.815798  0.000000  1
  Zn  Zn5  1  0.352794  0.352678  0.500000  1
  Zn  Zn6  1  0.647206  0.999883  0.500000  1
  P  P7  1  0.317893  0.833989  0.000000  1
  P  P8  1  0.183488  0.489943  0.000000  1
  P  P9  1  0.520638  0.689863  0.000000  1
  P  P10  1  0.816512  0.306455  0.000000  1
  P  P11  1  0.479362  0.169225  0.000000  1
  P  P12  1  0.682107  0.516094  0.000000  1
  P  P13  1  0.000000  0.642083  0.500000  1
  P  P14  1  0.824465  0.824200  0.500000  1
  P  P15  1  0.175535  0.999737  0.500000  1
  P  P16  1  0.000000  0.185699  0.500000  1
  Ir  Ir17  1  0.185348  0.816519  0.500000  1
  Ir  Ir18  1  0.173803  0.389063  0.500000  1
  Ir  Ir19  1  0.621038  0.787969  0.500000  1
  Ir  Ir20  1  0.826197  0.215260  0.500000  1
  Ir  Ir21  1  0.378962  0.166931  0.500000  1
  Ir  Ir22  1  0.814652  0.631171  0.500000  1
  Ir  Ir23  1  0.139717  0.643210  0.000000  1
  Ir  Ir24  1  0.370544  0.496828  0.000000  1
  Ir  Ir25  1  0.509172  0.864561  0.000000  1
  Ir  Ir26  1  0.629456  0.126285  0.000000  1
  Ir  Ir27  1  0.490828  0.355390  0.000000  1
  Ir  Ir28  1  0.860283  0.503493  0.000000  1
  Ir  Ir29  1  0.563083  0.541781  0.500000  1
  Ir  Ir30  1  0.436917  0.978699  0.500000  1
  Ir  Ir31  1  0.000000  0.464882  0.500000  1
  Ir  Ir32  1  0.724409  0.717225  0.000000  1
  Ir  Ir33  1  0.275591  0.992816  0.000000  1
  Ir  Ir34  1  0.000000  0.286559  0.000000  1
  Ir  Ir35  1  0.000000  0.005797  0.500000  1
