# generated using pymatgen
data_CsSb3(TeO6)2
_symmetry_space_group_name_H-M   'P 1'
_cell_length_a   7.37495300
_cell_length_b   7.37495269
_cell_length_c   12.35848100
_cell_angle_alpha   90.00000000
_cell_angle_beta   90.00000000
_cell_angle_gamma   120.00000589
_symmetry_Int_Tables_number   1
_chemical_formula_structural   CsSb3(TeO6)2
_chemical_formula_sum   'Cs2 Sb6 Te4 O24'
_cell_volume   582.12224506
_cell_formula_units_Z   2
loop_
 _symmetry_equiv_pos_site_id
 _symmetry_equiv_pos_as_xyz
  1  'x, y, z'
loop_
 _atom_site_type_symbol
 _atom_site_label
 _atom_site_symmetry_multiplicity
 _atom_site_fract_x
 _atom_site_fract_y
 _atom_site_fract_z
 _atom_site_occupancy
  Cs  Cs0  1  0.666667  0.333333  0.506663  1
  Cs  Cs1  1  0.333333  0.666667  0.006663  1
  Sb  Sb2  1  0.832664  0.165571  0.836256  1
  Sb  Sb3  1  0.834429  0.667093  0.836256  1
  Sb  Sb4  1  0.667093  0.832664  0.336256  1
  Sb  Sb5  1  0.332907  0.167336  0.836256  1
  Sb  Sb6  1  0.165571  0.332907  0.336256  1
  Sb  Sb7  1  0.167336  0.834429  0.336256  1
  Te  Te8  1  0.333333  0.666667  0.575721  1
  Te  Te9  1  0.666667  0.333333  0.075721  1
  Te  Te10  1  0.000000  0.000000  0.601426  1
  Te  Te11  1  0.000000  0.000000  0.101426  1
  O  O12  1  0.199123  0.403819  0.503394  1
  O  O13  1  0.129876  0.871739  0.874936  1
  O  O14  1  0.865644  0.128653  0.676500  1
  O  O15  1  0.932922  0.466027  0.809967  1
  O  O16  1  0.871347  0.736991  0.676500  1
  O  O17  1  0.800877  0.596181  0.003394  1
  O  O18  1  0.403819  0.204697  0.003394  1
  O  O19  1  0.204697  0.800877  0.503394  1
  O  O20  1  0.795303  0.199123  0.003394  1
  O  O21  1  0.128261  0.258138  0.874936  1
  O  O22  1  0.067078  0.533973  0.309967  1
  O  O23  1  0.533973  0.466895  0.809967  1
  O  O24  1  0.741862  0.870124  0.874936  1
  O  O25  1  0.258138  0.129876  0.374936  1
  O  O26  1  0.466027  0.533105  0.309967  1
  O  O27  1  0.871739  0.741862  0.374936  1
  O  O28  1  0.533105  0.067078  0.809967  1
  O  O29  1  0.466895  0.932922  0.309967  1
  O  O30  1  0.134356  0.871347  0.176500  1
  O  O31  1  0.736991  0.865644  0.176500  1
  O  O32  1  0.263009  0.134356  0.676500  1
  O  O33  1  0.596181  0.795303  0.503394  1
  O  O34  1  0.128653  0.263009  0.176500  1
  O  O35  1  0.870124  0.128261  0.374936  1
