# generated using pymatgen
data_Mn7NiW4
_symmetry_space_group_name_H-M   'P 1'
_cell_length_a   4.67932000
_cell_length_b   4.67932001
_cell_length_c   7.84747800
_cell_angle_alpha   90.00000000
_cell_angle_beta   90.00000000
_cell_angle_gamma   119.99999995
_symmetry_Int_Tables_number   1
_chemical_formula_structural   Mn7NiW4
_chemical_formula_sum   'Mn7 Ni1 W4'
_cell_volume   148.80798333
_cell_formula_units_Z   1
loop_
 _symmetry_equiv_pos_site_id
 _symmetry_equiv_pos_as_xyz
  1  'x, y, z'
loop_
 _atom_site_type_symbol
 _atom_site_label
 _atom_site_symmetry_multiplicity
 _atom_site_fract_x
 _atom_site_fract_y
 _atom_site_fract_z
 _atom_site_occupancy
  Mn  Mn0  1  0.172731  0.345462  0.250989  1
  Mn  Mn1  1  0.172731  0.827268  0.250989  1
  Mn  Mn2  1  0.654536  0.827268  0.250989  1
  Mn  Mn3  1  0.000000  0.000000  0.500000  1
  Mn  Mn4  1  0.345463  0.172732  0.749011  1
  Mn  Mn5  1  0.827268  0.172732  0.749011  1
  Mn  Mn6  1  0.827268  0.654538  0.749011  1
  Ni  Ni7  1  0.000000  0.000000  0.000000  1
  W  W8  1  0.666666  0.333333  0.068509  1
  W  W9  1  0.666666  0.333333  0.434979  1
  W  W10  1  0.333334  0.666668  0.565020  1
  W  W11  1  0.333334  0.666668  0.931491  1
