# generated using pymatgen
data_LaYbReC2
_symmetry_space_group_name_H-M   'P 1'
_cell_length_a   5.28204600
_cell_length_b   6.57411200
_cell_length_c   10.68138000
_cell_angle_alpha   90.00000000
_cell_angle_beta   90.00000000
_cell_angle_gamma   90.00000000
_symmetry_Int_Tables_number   1
_chemical_formula_structural   LaYbReC2
_chemical_formula_sum   'La4 Yb4 Re4 C8'
_cell_volume   370.90837826
_cell_formula_units_Z   4
loop_
 _symmetry_equiv_pos_site_id
 _symmetry_equiv_pos_as_xyz
  1  'x, y, z'
loop_
 _atom_site_type_symbol
 _atom_site_label
 _atom_site_symmetry_multiplicity
 _atom_site_fract_x
 _atom_site_fract_y
 _atom_site_fract_z
 _atom_site_occupancy
  La  La0  1  0.250000  0.713933  0.547943  1
  La  La1  1  0.750000  0.286067  0.452057  1
  La  La2  1  0.750000  0.786067  0.047943  1
  La  La3  1  0.250000  0.213933  0.952057  1
  Yb  Yb4  1  0.250000  0.532066  0.232655  1
  Yb  Yb5  1  0.750000  0.467934  0.767345  1
  Yb  Yb6  1  0.750000  0.967934  0.732655  1
  Yb  Yb7  1  0.250000  0.032066  0.267345  1
  Re  Re8  1  0.250000  0.733295  0.852641  1
  Re  Re9  1  0.750000  0.266705  0.147359  1
  Re  Re10  1  0.750000  0.766705  0.352641  1
  Re  Re11  1  0.250000  0.233295  0.647359  1
  C  C12  1  0.250000  0.473643  0.755139  1
  C  C13  1  0.750000  0.526357  0.244861  1
  C  C14  1  0.750000  0.026357  0.255139  1
  C  C15  1  0.250000  0.973643  0.744861  1
  C  C16  1  0.250000  0.793735  0.026776  1
  C  C17  1  0.750000  0.206265  0.973224  1
  C  C18  1  0.750000  0.706265  0.526776  1
  C  C19  1  0.250000  0.293735  0.473224  1
