# generated using pymatgen
data_Ho3Sc7(Si5Pt2)4
_symmetry_space_group_name_H-M   'P 1'
_cell_length_a   12.49284600
_cell_length_b   12.49284578
_cell_length_c   4.16668500
_cell_angle_alpha   90.00000000
_cell_angle_beta   90.00000000
_cell_angle_gamma   90.06011248
_symmetry_Int_Tables_number   1
_chemical_formula_structural   Ho3Sc7(Si5Pt2)4
_chemical_formula_sum   'Ho3 Sc7 Si20 Pt8'
_cell_volume   650.29916331
_cell_formula_units_Z   1
loop_
 _symmetry_equiv_pos_site_id
 _symmetry_equiv_pos_as_xyz
  1  'x, y, z'
loop_
 _atom_site_type_symbol
 _atom_site_label
 _atom_site_symmetry_multiplicity
 _atom_site_fract_x
 _atom_site_fract_y
 _atom_site_fract_z
 _atom_site_occupancy
  Ho  Ho0  1  0.114036  0.613965  0.500000  1
  Ho  Ho1  1  0.886035  0.385964  0.500000  1
  Ho  Ho2  1  0.613686  0.886314  0.500000  1
  Sc  Sc3  1  0.386853  0.113147  0.500000  1
  Sc  Sc4  1  0.674282  0.174998  0.500000  1
  Sc  Sc5  1  0.325002  0.825718  0.500000  1
  Sc  Sc6  1  0.175541  0.324459  0.500000  1
  Sc  Sc7  1  0.824957  0.675043  0.500000  1
  Sc  Sc8  1  0.000405  0.000022  0.000000  1
  Sc  Sc9  1  0.499978  0.499595  0.000000  1
  Si  Si10  1  0.564958  0.066695  0.000000  1
  Si  Si11  1  0.433305  0.935042  0.000000  1
  Si  Si12  1  0.066583  0.433417  0.000000  1
  Si  Si13  1  0.933754  0.566246  0.000000  1
  Si  Si14  1  0.203081  0.166067  0.000000  1
  Si  Si15  1  0.798099  0.833608  0.000000  1
  Si  Si16  1  0.166923  0.798813  0.000000  1
  Si  Si17  1  0.701187  0.333077  0.000000  1
  Si  Si18  1  0.833347  0.201992  0.000000  1
  Si  Si19  1  0.298008  0.666653  0.000000  1
  Si  Si20  1  0.666392  0.701901  0.000000  1
  Si  Si21  1  0.333933  0.296919  0.000000  1
  Si  Si22  1  0.007441  0.147314  0.500000  1
  Si  Si23  1  0.993062  0.852996  0.500000  1
  Si  Si24  1  0.148543  0.994251  0.500000  1
  Si  Si25  1  0.505749  0.351457  0.500000  1
  Si  Si26  1  0.852647  0.007653  0.500000  1
  Si  Si27  1  0.492347  0.647353  0.500000  1
  Si  Si28  1  0.647004  0.506938  0.500000  1
  Si  Si29  1  0.352686  0.492559  0.500000  1
  Pt  Pt30  1  0.021706  0.241930  0.000000  1
  Pt  Pt31  1  0.978989  0.758014  0.000000  1
  Pt  Pt32  1  0.243549  0.979801  0.000000  1
  Pt  Pt33  1  0.520199  0.256451  0.000000  1
  Pt  Pt34  1  0.757192  0.021515  0.000000  1
  Pt  Pt35  1  0.478485  0.742808  0.000000  1
  Pt  Pt36  1  0.741986  0.521011  0.000000  1
  Pt  Pt37  1  0.258070  0.478294  0.000000  1
