# generated using pymatgen
data_Rb16HfBi9
_symmetry_space_group_name_H-M   'P 1'
_cell_length_a   12.31928905
_cell_length_b   12.31928966
_cell_length_c   12.31929000
_cell_angle_alpha   59.99999910
_cell_angle_beta   59.99999745
_cell_angle_gamma   60.00000150
_symmetry_Int_Tables_number   1
_chemical_formula_structural   Rb16HfBi9
_chemical_formula_sum   'Rb16 Hf1 Bi9'
_cell_volume   1322.03205875
_cell_formula_units_Z   1
loop_
 _symmetry_equiv_pos_site_id
 _symmetry_equiv_pos_as_xyz
  1  'x, y, z'
loop_
 _atom_site_type_symbol
 _atom_site_label
 _atom_site_symmetry_multiplicity
 _atom_site_fract_x
 _atom_site_fract_y
 _atom_site_fract_z
 _atom_site_occupancy
  Rb  Rb0  1  0.622905  0.131586  0.622895  1
  Rb  Rb1  1  0.622892  0.622885  0.131590  1
  Rb  Rb2  1  0.131559  0.622909  0.622909  1
  Rb  Rb3  1  0.622782  0.622767  0.622785  1
  Rb  Rb4  1  0.022441  0.022472  0.477590  1
  Rb  Rb5  1  0.779605  0.220460  0.220450  1
  Rb  Rb6  1  0.220358  0.779537  0.779530  1
  Rb  Rb7  1  0.779534  0.779512  0.220382  1
  Rb  Rb8  1  0.779542  0.220375  0.779519  1
  Rb  Rb9  1  0.220454  0.779599  0.220443  1
  Rb  Rb10  1  0.477454  0.022427  0.477492  1
  Rb  Rb11  1  0.477582  0.022443  0.022440  1
  Rb  Rb12  1  0.022434  0.477440  0.477446  1
  Rb  Rb13  1  0.022453  0.477577  0.022487  1
  Rb  Rb14  1  0.220441  0.220464  0.779599  1
  Rb  Rb15  1  0.477482  0.477511  0.022404  1
  Hf  Hf16  1  0.749973  0.750039  0.750027  1
  Bi  Bi17  1  0.500023  0.500184  0.500175  1
  Bi  Bi18  1  0.395023  0.814648  0.395025  1
  Bi  Bi19  1  0.848018  0.848016  0.455893  1
  Bi  Bi20  1  0.455931  0.847996  0.848004  1
  Bi  Bi21  1  0.848069  0.848062  0.848050  1
  Bi  Bi22  1  0.814769  0.394978  0.394989  1
  Bi  Bi23  1  0.395220  0.395212  0.395202  1
  Bi  Bi24  1  0.395036  0.395022  0.814652  1
  Bi  Bi25  1  0.848018  0.455875  0.848020  1
