# generated using pymatgen
data_KRbSrI4
_symmetry_space_group_name_H-M   'P 1'
_cell_length_a   9.06537200
_cell_length_b   10.11794900
_cell_length_c   15.04776300
_cell_angle_alpha   90.00000000
_cell_angle_beta   90.00000000
_cell_angle_gamma   90.00000000
_symmetry_Int_Tables_number   1
_chemical_formula_structural   KRbSrI4
_chemical_formula_sum   'K4 Rb4 Sr4 I16'
_cell_volume   1380.22553772
_cell_formula_units_Z   4
loop_
 _symmetry_equiv_pos_site_id
 _symmetry_equiv_pos_as_xyz
  1  'x, y, z'
loop_
 _atom_site_type_symbol
 _atom_site_label
 _atom_site_symmetry_multiplicity
 _atom_site_fract_x
 _atom_site_fract_y
 _atom_site_fract_z
 _atom_site_occupancy
  K  K0  1  0.581387  0.500000  0.190820  1
  K  K1  1  0.081387  0.500000  0.309181  1
  K  K2  1  0.918613  0.000000  0.690819  1
  K  K3  1  0.418613  0.000000  0.809180  1
  Rb  Rb4  1  0.576900  0.000000  0.178471  1
  Rb  Rb5  1  0.076898  0.000000  0.321530  1
  Rb  Rb6  1  0.923102  0.500000  0.678470  1
  Rb  Rb7  1  0.423102  0.500000  0.821529  1
  Sr  Sr8  1  0.000000  0.250000  0.000000  1
  Sr  Sr9  1  0.000000  0.750000  0.000000  1
  Sr  Sr10  1  0.500000  0.250000  0.500000  1
  Sr  Sr11  1  0.500000  0.750000  0.500000  1
  I  I12  1  0.228194  0.000000  0.048825  1
  I  I13  1  0.233027  0.500000  0.051932  1
  I  I14  1  0.862363  0.255465  0.200786  1
  I  I15  1  0.862363  0.744535  0.200786  1
  I  I16  1  0.362363  0.255465  0.299213  1
  I  I17  1  0.362363  0.744535  0.299213  1
  I  I18  1  0.733027  0.500000  0.448068  1
  I  I19  1  0.728195  0.000000  0.451175  1
  I  I20  1  0.271805  0.500000  0.548825  1
  I  I21  1  0.266975  0.000000  0.551931  1
  I  I22  1  0.637638  0.244535  0.700787  1
  I  I23  1  0.637638  0.755466  0.700787  1
  I  I24  1  0.137637  0.244535  0.799213  1
  I  I25  1  0.137637  0.755466  0.799213  1
  I  I26  1  0.766975  0.000000  0.948068  1
  I  I27  1  0.771805  0.500000  0.951175  1
