# generated using pymatgen
data_Al4GePbI16
_symmetry_space_group_name_H-M   'P 1'
_cell_length_a   8.36168608
_cell_length_b   8.40368232
_cell_length_c   15.50870833
_cell_angle_alpha   87.66865184
_cell_angle_beta   89.86404560
_cell_angle_gamma   90.81217147
_symmetry_Int_Tables_number   1
_chemical_formula_structural   Al4GePbI16
_chemical_formula_sum   'Al4 Ge1 Pb1 I16'
_cell_volume   1088.76454207
_cell_formula_units_Z   1
loop_
 _symmetry_equiv_pos_site_id
 _symmetry_equiv_pos_as_xyz
  1  'x, y, z'
loop_
 _atom_site_type_symbol
 _atom_site_label
 _atom_site_symmetry_multiplicity
 _atom_site_fract_x
 _atom_site_fract_y
 _atom_site_fract_z
 _atom_site_occupancy
  Al  Al0  1  0.931536  0.212782  0.586418  1
  Al  Al1  1  0.058829  0.221574  0.073006  1
  Al  Al2  1  0.576517  0.643126  0.778789  1
  Al  Al3  1  0.431099  0.642298  0.278556  1
  Ge  Ge4  1  0.756626  0.064958  0.804332  1
  Pb  Pb5  1  0.241908  0.076881  0.309722  1
  I  I6  1  0.430080  0.616767  0.639493  1
  I  I7  1  0.573618  0.616698  0.138230  1
  I  I8  1  0.872570  0.751494  0.759652  1
  I  I9  1  0.132263  0.720390  0.260596  1
  I  I10  1  0.938123  0.471427  0.501290  1
  I  I11  1  0.065045  0.486809  0.994100  1
  I  I12  1  0.916190  0.999794  0.989924  1
  I  I13  1  0.069637  0.987041  0.507523  1
  I  I14  1  0.638423  0.122499  0.626526  1
  I  I15  1  0.348147  0.126706  0.110858  1
  I  I16  1  0.580890  0.383464  0.872195  1
  I  I17  1  0.444870  0.389537  0.379600  1
  I  I18  1  0.456380  0.873007  0.864890  1
  I  I19  1  0.557726  0.870419  0.366029  1
  I  I20  1  0.920974  0.228897  0.223640  1
  I  I21  1  0.058550  0.228232  0.739036  1
