# generated using pymatgen
data_Th4Zn4SiGe3
_symmetry_space_group_name_H-M   'P 1'
_cell_length_a   4.21909700
_cell_length_b   4.21909659
_cell_length_c   16.90484700
_cell_angle_alpha   90.00000000
_cell_angle_beta   90.00000000
_cell_angle_gamma   119.99999536
_symmetry_Int_Tables_number   1
_chemical_formula_structural   Th4Zn4SiGe3
_chemical_formula_sum   'Th4 Zn4 Si1 Ge3'
_cell_volume   260.60387847
_cell_formula_units_Z   1
loop_
 _symmetry_equiv_pos_site_id
 _symmetry_equiv_pos_as_xyz
  1  'x, y, z'
loop_
 _atom_site_type_symbol
 _atom_site_label
 _atom_site_symmetry_multiplicity
 _atom_site_fract_x
 _atom_site_fract_y
 _atom_site_fract_z
 _atom_site_occupancy
  Th  Th0  1  0.000000  0.000000  0.497837  1
  Th  Th1  1  0.000000  0.000000  0.000389  1
  Th  Th2  1  0.000000  0.000000  0.252148  1
  Th  Th3  1  0.000000  0.000000  0.749583  1
  Zn  Zn4  1  0.333333  0.666667  0.373658  1
  Zn  Zn5  1  0.666667  0.333333  0.626383  1
  Zn  Zn6  1  0.666667  0.333333  0.873367  1
  Zn  Zn7  1  0.333333  0.666667  0.126775  1
  Si  Si8  1  0.666667  0.333333  0.375804  1
  Ge  Ge9  1  0.333333  0.666667  0.623592  1
  Ge  Ge10  1  0.333333  0.666667  0.875961  1
  Ge  Ge11  1  0.666667  0.333333  0.124502  1
