# generated using pymatgen
data_Ba2NpZnSb
_symmetry_space_group_name_H-M   'P 1'
_cell_length_a   15.42978060
_cell_length_b   15.55241314
_cell_length_c   15.55241265
_cell_angle_alpha   131.65495047
_cell_angle_beta   129.29099659
_cell_angle_gamma   72.82825475
_symmetry_Int_Tables_number   1
_chemical_formula_structural   Ba2NpZnSb
_chemical_formula_sum   'Ba4 Np2 Zn2 Sb2'
_cell_volume   2106.55728193
_cell_formula_units_Z   2
loop_
 _symmetry_equiv_pos_site_id
 _symmetry_equiv_pos_as_xyz
  1  'x, y, z'
loop_
 _atom_site_type_symbol
 _atom_site_label
 _atom_site_symmetry_multiplicity
 _atom_site_fract_x
 _atom_site_fract_y
 _atom_site_fract_z
 _atom_site_occupancy
  Ba  Ba0  1  0.661601  0.865021  0.796578  1
  Ba  Ba1  1  0.339104  0.135951  0.203154  1
  Ba  Ba2  1  0.929652  0.637735  0.291917  1
  Ba  Ba3  1  0.068879  0.363019  0.705860  1
  Np  Np4  1  0.407695  0.608864  0.798833  1
  Np  Np5  1  0.593925  0.388491  0.205433  1
  Zn  Zn6  1  0.499733  0.245919  0.745486  1
  Zn  Zn7  1  0.499733  0.754246  0.253814  1
  Sb  Sb8  1  0.185683  0.890283  0.295400  1
  Sb  Sb9  1  0.813994  0.110469  0.703525  1
