# generated using pymatgen
data_K7RbNb4V4(PO5)8
_symmetry_space_group_name_H-M   'P 1'
_cell_length_a   6.55366600
_cell_length_b   10.94595500
_cell_length_c   13.15462500
_cell_angle_alpha   90.00000000
_cell_angle_beta   90.00000000
_cell_angle_gamma   90.00000000
_symmetry_Int_Tables_number   1
_chemical_formula_structural   K7RbNb4V4(PO5)8
_chemical_formula_sum   'K7 Rb1 Nb4 V4 P8 O40'
_cell_volume   943.66193016
_cell_formula_units_Z   1
loop_
 _symmetry_equiv_pos_site_id
 _symmetry_equiv_pos_as_xyz
  1  'x, y, z'
loop_
 _atom_site_type_symbol
 _atom_site_label
 _atom_site_symmetry_multiplicity
 _atom_site_fract_x
 _atom_site_fract_y
 _atom_site_fract_z
 _atom_site_occupancy
  K  K0  1  0.277379  0.803277  0.125653  1
  K  K1  1  0.222518  0.803320  0.625446  1
  K  K2  1  0.777456  0.303170  0.374456  1
  K  K3  1  0.808769  0.066319  0.603715  1
  K  K4  1  0.190917  0.566540  0.396105  1
  K  K5  1  0.308020  0.567088  0.896062  1
  K  K6  1  0.691028  0.065888  0.104032  1
  Rb  Rb7  1  0.717729  0.308479  0.878935  1
  Nb  Nb8  1  0.005543  0.002156  0.869594  1
  Nb  Nb9  1  0.995066  0.502879  0.131196  1
  Nb  Nb10  1  0.505237  0.503513  0.629472  1
  Nb  Nb11  1  0.494524  0.002692  0.369460  1
  V  V12  1  0.246845  0.250584  0.745301  1
  V  V13  1  0.751935  0.751406  0.253785  1
  V  V14  1  0.748264  0.751091  0.753690  1
  V  V15  1  0.252249  0.251226  0.246371  1
  P  P16  1  0.002126  0.505114  0.682340  1
  P  P17  1  0.998770  0.004386  0.316628  1
  P  P18  1  0.501163  0.003657  0.816524  1
  P  P19  1  0.499097  0.504460  0.183543  1
  P  P20  1  0.164759  0.253932  0.999202  1
  P  P21  1  0.836034  0.754794  0.001664  1
  P  P22  1  0.664179  0.755343  0.501469  1
  P  P23  1  0.336149  0.254932  0.498073  1
  O  O24  1  0.455181  0.380822  0.722638  1
  O  O25  1  0.539929  0.880531  0.274773  1
  O  O26  1  0.960443  0.880039  0.774882  1
  O  O27  1  0.040429  0.380750  0.225911  1
  O  O28  1  0.034643  0.373345  0.012210  1
  O  O29  1  0.969496  0.873186  0.990415  1
  O  O30  1  0.531068  0.873900  0.490321  1
  O  O31  1  0.468868  0.373636  0.509135  1
  O  O32  1  0.303235  0.232604  0.092572  1
  O  O33  1  0.700228  0.733307  0.907391  1
  O  O34  1  0.800129  0.733805  0.407312  1
  O  O35  1  0.199740  0.233033  0.592089  1
  O  O36  1  0.038912  0.391577  0.748737  1
  O  O37  1  0.963939  0.890869  0.249665  1
  O  O38  1  0.535757  0.890179  0.749445  1
  O  O39  1  0.464155  0.390834  0.250331  1
  O  O40  1  0.533458  0.627017  0.726210  1
  O  O41  1  0.466879  0.127419  0.273948  1
  O  O42  1  0.033229  0.126580  0.773866  1
  O  O43  1  0.967288  0.627783  0.226579  1
  O  O44  1  0.968873  0.616831  0.752129  1
  O  O45  1  0.031552  0.116825  0.247686  1
  O  O46  1  0.468177  0.116133  0.747691  1
  O  O47  1  0.532056  0.616754  0.252588  1
  O  O48  1  0.813140  0.482075  0.611695  1
  O  O49  1  0.186798  0.981848  0.388012  1
  O  O50  1  0.313351  0.981256  0.888071  1
  O  O51  1  0.687175  0.481853  0.112110  1
  O  O52  1  0.295183  0.270827  0.902058  1
  O  O53  1  0.700153  0.771383  0.097280  1
  O  O54  1  0.799729  0.771414  0.597209  1
  O  O55  1  0.200131  0.271237  0.402506  1
  O  O56  1  0.187147  0.532543  0.610573  1
  O  O57  1  0.812349  0.030347  0.387881  1
  O  O58  1  0.687791  0.028904  0.887852  1
  O  O59  1  0.312783  0.530868  0.112369  1
  O  O60  1  0.012604  0.144830  0.986616  1
  O  O61  1  0.988135  0.645683  0.015148  1
  O  O62  1  0.511449  0.646486  0.514515  1
  O  O63  1  0.488662  0.146048  0.484868  1
