# generated using pymatgen
data_Pr4HgPt3Pb2
_symmetry_space_group_name_H-M   'P 1'
_cell_length_a   8.35012232
_cell_length_b   8.35012232
_cell_length_c   3.76424200
_cell_angle_alpha   90.00000000
_cell_angle_beta   90.00000000
_cell_angle_gamma   89.13422748
_symmetry_Int_Tables_number   1
_chemical_formula_structural   Pr4HgPt3Pb2
_chemical_formula_sum   'Pr4 Hg1 Pt3 Pb2'
_cell_volume   262.43008924
_cell_formula_units_Z   1
loop_
 _symmetry_equiv_pos_site_id
 _symmetry_equiv_pos_as_xyz
  1  'x, y, z'
loop_
 _atom_site_type_symbol
 _atom_site_label
 _atom_site_symmetry_multiplicity
 _atom_site_fract_x
 _atom_site_fract_y
 _atom_site_fract_z
 _atom_site_occupancy
  Pr  Pr0  1  0.304670  0.161388  0.499999  1
  Pr  Pr1  1  0.850896  0.350897  0.499999  1
  Pr  Pr2  1  0.173269  0.673268  0.499999  1
  Pr  Pr3  1  0.661387  0.804669  0.499999  1
  Hg  Hg4  1  0.627469  0.127468  0.000000  1
  Pt  Pt5  1  0.133752  0.382095  0.000000  1
  Pt  Pt6  1  0.882096  0.633753  0.000000  1
  Pt  Pt7  1  0.379359  0.879360  0.000000  1
  Pb  Pb8  1  0.995711  0.991391  0.000000  1
  Pb  Pb9  1  0.491392  0.495712  0.000000  1
