# generated using pymatgen
data_Nd3Ho5(AgIr)2
_symmetry_space_group_name_H-M   'P 1'
_cell_length_a   9.65431881
_cell_length_b   9.65431864
_cell_length_c   9.65431800
_cell_angle_alpha   59.99999533
_cell_angle_beta   59.99999592
_cell_angle_gamma   60.00000065
_symmetry_Int_Tables_number   1
_chemical_formula_structural   Nd3Ho5(AgIr)2
_chemical_formula_sum   'Nd6 Ho10 Ag4 Ir4'
_cell_volume   636.28229658
_cell_formula_units_Z   2
loop_
 _symmetry_equiv_pos_site_id
 _symmetry_equiv_pos_as_xyz
  1  'x, y, z'
loop_
 _atom_site_type_symbol
 _atom_site_label
 _atom_site_symmetry_multiplicity
 _atom_site_fract_x
 _atom_site_fract_y
 _atom_site_fract_z
 _atom_site_occupancy
  Nd  Nd0  1  0.939843  0.560157  0.560157  1
  Nd  Nd1  1  0.560157  0.939843  0.939843  1
  Nd  Nd2  1  0.560157  0.939843  0.560157  1
  Nd  Nd3  1  0.939843  0.560157  0.939843  1
  Nd  Nd4  1  0.560157  0.560157  0.939843  1
  Nd  Nd5  1  0.939843  0.939843  0.560157  1
  Ho  Ho6  1  0.349509  0.349509  0.349509  1
  Ho  Ho7  1  0.349509  0.349509  0.951472  1
  Ho  Ho8  1  0.349509  0.951472  0.349509  1
  Ho  Ho9  1  0.951472  0.349509  0.349509  1
  Ho  Ho10  1  0.813031  0.186969  0.186969  1
  Ho  Ho11  1  0.186969  0.813031  0.813031  1
  Ho  Ho12  1  0.186969  0.813031  0.186969  1
  Ho  Ho13  1  0.813031  0.186969  0.813031  1
  Ho  Ho14  1  0.186969  0.186969  0.813031  1
  Ho  Ho15  1  0.813031  0.813031  0.186969  1
  Ag  Ag16  1  0.579707  0.579707  0.579707  1
  Ag  Ag17  1  0.579707  0.579707  0.260879  1
  Ag  Ag18  1  0.579707  0.260879  0.579707  1
  Ag  Ag19  1  0.260879  0.579707  0.579707  1
  Ir  Ir20  1  0.141928  0.141928  0.141928  1
  Ir  Ir21  1  0.141928  0.141928  0.574214  1
  Ir  Ir22  1  0.141928  0.574214  0.141928  1
  Ir  Ir23  1  0.574214  0.141928  0.141928  1
