# generated using pymatgen
data_Tb3Y5Ti3Si16W9
_symmetry_space_group_name_H-M   'P 1'
_cell_length_a   6.91242351
_cell_length_b   6.91114393
_cell_length_c   12.83831042
_cell_angle_alpha   89.94537369
_cell_angle_beta   90.03448860
_cell_angle_gamma   89.84528029
_symmetry_Int_Tables_number   1
_chemical_formula_structural   Tb3Y5Ti3Si16W9
_chemical_formula_sum   'Tb3 Y5 Ti3 Si16 W9'
_cell_volume   613.31881590
_cell_formula_units_Z   1
loop_
 _symmetry_equiv_pos_site_id
 _symmetry_equiv_pos_as_xyz
  1  'x, y, z'
loop_
 _atom_site_type_symbol
 _atom_site_label
 _atom_site_symmetry_multiplicity
 _atom_site_fract_x
 _atom_site_fract_y
 _atom_site_fract_z
 _atom_site_occupancy
  Tb  Tb0  1  0.660789  0.998968  0.968868  1
  Tb  Tb1  1  0.001677  0.338778  0.531407  1
  Tb  Tb2  1  0.999227  0.660960  0.031271  1
  Y  Y3  1  0.338783  0.001331  0.468466  1
  Y  Y4  1  0.497517  0.837428  0.718978  1
  Y  Y5  1  0.499086  0.162369  0.217576  1
  Y  Y6  1  0.837512  0.497676  0.281017  1
  Y  Y7  1  0.162411  0.499240  0.782397  1
  Ti  Ti8  1  0.170213  0.831989  0.248602  1
  Ti  Ti9  1  0.832011  0.170201  0.751378  1
  Ti  Ti10  1  0.668721  0.668591  0.499937  1
  Si  Si11  1  0.200693  0.127872  0.683537  1
  Si  Si12  1  0.374404  0.698066  0.933757  1
  Si  Si13  1  0.627600  0.299204  0.433730  1
  Si  Si14  1  0.698086  0.374679  0.066425  1
  Si  Si15  1  0.299245  0.628132  0.566265  1
  Si  Si16  1  0.797116  0.873158  0.184437  1
  Si  Si17  1  0.128005  0.200174  0.316440  1
  Si  Si18  1  0.873248  0.796847  0.815541  1
  Si  Si19  1  0.288880  0.963492  0.062295  1
  Si  Si20  1  0.539166  0.791364  0.313799  1
  Si  Si21  1  0.459440  0.209412  0.813989  1
  Si  Si22  1  0.791408  0.539405  0.686194  1
  Si  Si23  1  0.209493  0.460018  0.186083  1
  Si  Si24  1  0.709439  0.040003  0.563741  1
  Si  Si25  1  0.963788  0.288819  0.937590  1
  Si  Si26  1  0.040227  0.709888  0.436045  1
  W  W27  1  0.332113  0.332123  0.000040  1
  W  W28  1  0.159176  0.002766  0.873483  1
  W  W29  1  0.493818  0.666110  0.125504  1
  W  W30  1  0.505966  0.339608  0.624869  1
  W  W31  1  0.665512  0.493755  0.874819  1
  W  W32  1  0.339715  0.506226  0.375091  1
  W  W33  1  0.838757  0.993376  0.374468  1
  W  W34  1  0.003364  0.159207  0.126513  1
  W  W35  1  0.993393  0.838766  0.625446  1
