# generated using pymatgen
data_Tb5Er7Al2(NiRu)2
_symmetry_space_group_name_H-M   'P 1'
_cell_length_a   8.33668829
_cell_length_b   8.33652362
_cell_length_c   8.34336200
_cell_angle_alpha   113.01095901
_cell_angle_beta   110.17454350
_cell_angle_gamma   105.28145819
_symmetry_Int_Tables_number   1
_chemical_formula_structural   Tb5Er7Al2(NiRu)2
_chemical_formula_sum   'Tb5 Er7 Al2 Ni2 Ru2'
_cell_volume   444.53367966
_cell_formula_units_Z   1
loop_
 _symmetry_equiv_pos_site_id
 _symmetry_equiv_pos_as_xyz
  1  'x, y, z'
loop_
 _atom_site_type_symbol
 _atom_site_label
 _atom_site_symmetry_multiplicity
 _atom_site_fract_x
 _atom_site_fract_y
 _atom_site_fract_z
 _atom_site_occupancy
  Tb  Tb0  1  0.437969  0.242277  0.194802  1
  Tb  Tb1  1  0.563399  0.758435  0.806290  1
  Tb  Tb2  1  0.047756  0.242835  0.806224  1
  Tb  Tb3  1  0.952502  0.756855  0.194775  1
  Tb  Tb4  1  0.180750  0.280848  0.461530  1
  Er  Er5  1  0.818713  0.719889  0.538772  1
  Er  Er6  1  0.180380  0.719679  0.900009  1
  Er  Er7  1  0.818426  0.279888  0.098464  1
  Er  Er8  1  0.329662  0.642395  0.313032  1
  Er  Er9  1  0.671915  0.358199  0.687651  1
  Er  Er10  1  0.329437  0.015991  0.687824  1
  Er  Er11  1  0.670629  0.983281  0.313155  1
  Al  Al12  1  0.500446  0.499768  0.000262  1
  Al  Al13  1  0.999593  0.998882  0.998499  1
  Ni  Ni14  1  0.115961  0.618167  0.500022  1
  Ni  Ni15  1  0.881933  0.383688  0.499169  1
  Ru  Ru16  1  0.327603  0.999033  0.326622  1
  Ru  Ru17  1  0.672928  0.999894  0.672898  1
