# generated using pymatgen
data_Gd2AlRu3
_symmetry_space_group_name_H-M   'P 1'
_cell_length_a   5.52448135
_cell_length_b   5.24965914
_cell_length_c   5.52448100
_cell_angle_alpha   58.25260206
_cell_angle_beta   59.99999609
_cell_angle_gamma   58.25260716
_symmetry_Int_Tables_number   1
_chemical_formula_structural   Gd2AlRu3
_chemical_formula_sum   'Gd2 Al1 Ru3'
_cell_volume   110.20688659
_cell_formula_units_Z   1
loop_
 _symmetry_equiv_pos_site_id
 _symmetry_equiv_pos_as_xyz
  1  'x, y, z'
loop_
 _atom_site_type_symbol
 _atom_site_label
 _atom_site_symmetry_multiplicity
 _atom_site_fract_x
 _atom_site_fract_y
 _atom_site_fract_z
 _atom_site_occupancy
  Gd  Gd0  1  0.251553  0.245342  0.251553  1
  Gd  Gd1  1  0.998447  0.004658  0.998447  1
  Al  Al2  1  0.625000  0.125000  0.625000  1
  Ru  Ru3  1  0.125000  0.625000  0.625000  1
  Ru  Ru4  1  0.625000  0.625000  0.125000  1
  Ru  Ru5  1  0.625000  0.625000  0.625000  1
