# generated using pymatgen
data_Sc10Bi3Te7
_symmetry_space_group_name_H-M   'P 1'
_cell_length_a   8.06591811
_cell_length_b   8.06591747
_cell_length_c   10.91736327
_cell_angle_alpha   70.67557517
_cell_angle_beta   70.67557688
_cell_angle_gamma   54.20305762
_symmetry_Int_Tables_number   1
_chemical_formula_structural   Sc10Bi3Te7
_chemical_formula_sum   'Sc10 Bi3 Te7'
_cell_volume   534.81559379
_cell_formula_units_Z   1
loop_
 _symmetry_equiv_pos_site_id
 _symmetry_equiv_pos_as_xyz
  1  'x, y, z'
loop_
 _atom_site_type_symbol
 _atom_site_label
 _atom_site_symmetry_multiplicity
 _atom_site_fract_x
 _atom_site_fract_y
 _atom_site_fract_z
 _atom_site_occupancy
  Sc  Sc0  1  0.000497  0.799035  0.950128  1
  Sc  Sc1  1  0.399195  0.200597  0.149643  1
  Sc  Sc2  1  0.799830  0.599366  0.350217  1
  Sc  Sc3  1  0.200965  0.999503  0.049872  1
  Sc  Sc4  1  0.200643  0.999021  0.550025  1
  Sc  Sc5  1  0.599064  0.400879  0.250352  1
  Sc  Sc6  1  0.599121  0.400936  0.749648  1
  Sc  Sc7  1  0.000979  0.799357  0.449975  1
  Sc  Sc8  1  0.400634  0.200170  0.649783  1
  Sc  Sc9  1  0.799403  0.600805  0.850357  1
  Bi  Bi10  1  0.433352  0.566648  0.000000  1
  Bi  Bi11  1  0.233089  0.366282  0.400215  1
  Bi  Bi12  1  0.633718  0.766911  0.599785  1
  Te  Te13  1  0.965910  0.433137  0.100068  1
  Te  Te14  1  0.833848  0.966837  0.199451  1
  Te  Te15  1  0.366452  0.834185  0.299661  1
  Te  Te16  1  0.767461  0.232539  0.500000  1
  Te  Te17  1  0.165815  0.633548  0.700339  1
  Te  Te18  1  0.033163  0.166152  0.800549  1
  Te  Te19  1  0.566863  0.034090  0.899932  1
