# generated using pymatgen
data_Hf3Nb(GaRh5)2
_symmetry_space_group_name_H-M   'P 1'
_cell_length_a   4.08319300
_cell_length_b   5.51916778
_cell_length_c   10.91733250
_cell_angle_alpha   89.90805879
_cell_angle_beta   90.00000000
_cell_angle_gamma   90.00000000
_symmetry_Int_Tables_number   1
_chemical_formula_structural   Hf3Nb(GaRh5)2
_chemical_formula_sum   'Hf3 Nb1 Ga2 Rh10'
_cell_volume   246.03080259
_cell_formula_units_Z   1
loop_
 _symmetry_equiv_pos_site_id
 _symmetry_equiv_pos_as_xyz
  1  'x, y, z'
loop_
 _atom_site_type_symbol
 _atom_site_label
 _atom_site_symmetry_multiplicity
 _atom_site_fract_x
 _atom_site_fract_y
 _atom_site_fract_z
 _atom_site_occupancy
  Hf  Hf0  1  0.500000  0.813720  0.360643  1
  Hf  Hf1  1  0.500000  0.684341  0.862750  1
  Hf  Hf2  1  0.500000  0.314888  0.139545  1
  Nb  Nb3  1  0.500000  0.182738  0.639832  1
  Ga  Ga4  1  0.000000  0.499543  0.501007  1
  Ga  Ga5  1  0.000000  0.000727  0.999366  1
  Rh  Rh6  1  0.500000  0.191398  0.886177  1
  Rh  Rh7  1  0.500000  0.808766  0.109416  1
  Rh  Rh8  1  0.500000  0.696577  0.609991  1
  Rh  Rh9  1  0.500000  0.306961  0.394096  1
  Rh  Rh10  1  0.000000  0.432493  0.743224  1
  Rh  Rh11  1  0.000000  0.562603  0.254244  1
  Rh  Rh12  1  0.000000  0.004695  0.502543  1
  Rh  Rh13  1  0.000000  0.498827  0.998982  1
  Rh  Rh14  1  0.000000  0.063246  0.247505  1
  Rh  Rh15  1  0.000000  0.938477  0.750680  1
