# generated using pymatgen
data_La5DyAl24Os5Pt3
_symmetry_space_group_name_H-M   'P 1'
_cell_length_a   8.94381812
_cell_length_b   8.96439100
_cell_length_c   9.70544746
_cell_angle_alpha   90.06128870
_cell_angle_beta   89.86852899
_cell_angle_gamma   119.56252954
_symmetry_Int_Tables_number   1
_chemical_formula_structural   La5DyAl24Os5Pt3
_chemical_formula_sum   'La5 Dy1 Al24 Os5 Pt3'
_cell_volume   676.84066804
_cell_formula_units_Z   1
loop_
 _symmetry_equiv_pos_site_id
 _symmetry_equiv_pos_as_xyz
  1  'x, y, z'
loop_
 _atom_site_type_symbol
 _atom_site_label
 _atom_site_symmetry_multiplicity
 _atom_site_fract_x
 _atom_site_fract_y
 _atom_site_fract_z
 _atom_site_occupancy
  La  La0  1  0.187491  0.378575  0.250559  1
  La  La1  1  0.813204  0.621881  0.750066  1
  La  La2  1  0.619646  0.814000  0.251520  1
  La  La3  1  0.380309  0.185702  0.748374  1
  La  La4  1  0.191916  0.810610  0.250453  1
  Dy  Dy5  1  0.804182  0.191175  0.748734  1
  Al  Al6  1  0.336153  0.671383  0.017888  1
  Al  Al7  1  0.666106  0.327563  0.973954  1
  Al  Al8  1  0.670599  0.329871  0.524603  1
  Al  Al9  1  0.331165  0.668690  0.482398  1
  Al  Al10  1  0.155071  0.324042  0.574836  1
  Al  Al11  1  0.841127  0.673187  0.427992  1
  Al  Al12  1  0.674984  0.843778  0.575787  1
  Al  Al13  1  0.836109  0.674909  0.075140  1
  Al  Al14  1  0.327613  0.159459  0.426746  1
  Al  Al15  1  0.160442  0.323054  0.922641  1
  Al  Al16  1  0.164506  0.834669  0.576667  1
  Al  Al17  1  0.327082  0.158933  0.074047  1
  Al  Al18  1  0.835333  0.164809  0.427801  1
  Al  Al19  1  0.675822  0.844913  0.923253  1
  Al  Al20  1  0.831572  0.159493  0.074281  1
  Al  Al21  1  0.168880  0.841212  0.921253  1
  Al  Al22  1  0.563848  0.128081  0.249721  1
  Al  Al23  1  0.440408  0.875101  0.750141  1
  Al  Al24  1  0.870270  0.434291  0.253553  1
  Al  Al25  1  0.126018  0.560871  0.747350  1
  Al  Al26  1  0.564527  0.434848  0.249717  1
  Al  Al27  1  0.435688  0.564903  0.750525  1
  Al  Al28  1  0.998649  0.003540  0.250116  1
  Al  Al29  1  0.997428  0.000850  0.749746  1
  Os  Os30  1  0.501856  0.000650  0.998714  1
  Os  Os31  1  0.501675  0.000451  0.501147  1
  Os  Os32  1  0.999593  0.498298  0.501102  1
  Os  Os33  1  0.999991  0.000233  0.999456  1
  Os  Os34  1  0.999973  0.999815  0.500397  1
  Pt  Pt35  1  0.999446  0.497914  0.999003  1
  Pt  Pt36  1  0.500570  0.499004  0.999171  1
  Pt  Pt37  1  0.500747  0.499242  0.501146  1
