# generated using pymatgen
data_Li2Nd3MgAu3
_symmetry_space_group_name_H-M   'P 1'
_cell_length_a   7.73719785
_cell_length_b   7.73719843
_cell_length_c   4.13040900
_cell_angle_alpha   90.00000000
_cell_angle_beta   90.00000000
_cell_angle_gamma   119.94629223
_symmetry_Int_Tables_number   1
_chemical_formula_structural   Li2Nd3MgAu3
_chemical_formula_sum   'Li2 Nd3 Mg1 Au3'
_cell_volume   214.25250658
_cell_formula_units_Z   1
loop_
 _symmetry_equiv_pos_site_id
 _symmetry_equiv_pos_as_xyz
  1  'x, y, z'
loop_
 _atom_site_type_symbol
 _atom_site_label
 _atom_site_symmetry_multiplicity
 _atom_site_fract_x
 _atom_site_fract_y
 _atom_site_fract_z
 _atom_site_occupancy
  Li  Li0  1  0.235522  0.997881  0.500000  1
  Li  Li1  1  0.997881  0.235522  0.500000  1
  Nd  Nd2  1  0.587498  0.002720  0.000000  1
  Nd  Nd3  1  0.002720  0.587498  0.000000  1
  Nd  Nd4  1  0.404967  0.404967  0.000000  1
  Mg  Mg5  1  0.762283  0.762283  0.500000  1
  Au  Au6  1  0.339029  0.667817  0.500000  1
  Au  Au7  1  0.667817  0.339029  0.500000  1
  Au  Au8  1  0.002283  0.002283  0.000000  1
