# generated using pymatgen
data_La8Er3Tm9Pt16
_symmetry_space_group_name_H-M   'P 1'
_cell_length_a   7.66401315
_cell_length_b   7.80774515
_cell_length_c   14.83088500
_cell_angle_alpha   90.00894542
_cell_angle_beta   89.92743841
_cell_angle_gamma   89.94929619
_symmetry_Int_Tables_number   1
_chemical_formula_structural   La8Er3Tm9Pt16
_chemical_formula_sum   'La8 Er3 Tm9 Pt16'
_cell_volume   887.45923710
_cell_formula_units_Z   1
loop_
 _symmetry_equiv_pos_site_id
 _symmetry_equiv_pos_as_xyz
  1  'x, y, z'
loop_
 _atom_site_type_symbol
 _atom_site_label
 _atom_site_symmetry_multiplicity
 _atom_site_fract_x
 _atom_site_fract_y
 _atom_site_fract_z
 _atom_site_occupancy
  La  La0  1  0.495649  0.324896  0.901764  1
  La  La1  1  0.996045  0.175382  0.598207  1
  La  La2  1  0.504075  0.675261  0.401608  1
  La  La3  1  0.004246  0.824337  0.098207  1
  La  La4  1  0.504293  0.675468  0.098353  1
  La  La5  1  0.004486  0.823948  0.401649  1
  La  La6  1  0.495471  0.323959  0.598295  1
  La  La7  1  0.995381  0.176492  0.902122  1
  Er  Er8  1  0.338914  0.832412  0.876826  1
  Er  Er9  1  0.839020  0.667699  0.623142  1
  Er  Er10  1  0.660939  0.167657  0.376848  1
  Tm  Tm11  1  0.161087  0.332379  0.123436  1
  Tm  Tm12  1  0.660513  0.167790  0.123219  1
  Tm  Tm13  1  0.160614  0.332281  0.376816  1
  Tm  Tm14  1  0.339722  0.832092  0.623170  1
  Tm  Tm15  1  0.839394  0.667990  0.876682  1
  Tm  Tm16  1  0.173960  0.497380  0.749916  1
  Tm  Tm17  1  0.674217  0.002992  0.750204  1
  Tm  Tm18  1  0.826603  0.502136  0.249763  1
  Tm  Tm19  1  0.326079  0.997701  0.249909  1
  Pt  Pt20  1  0.326308  0.036424  0.045789  1
  Pt  Pt21  1  0.826437  0.463599  0.454721  1
  Pt  Pt22  1  0.673603  0.963824  0.545190  1
  Pt  Pt23  1  0.172999  0.535919  0.954848  1
  Pt  Pt24  1  0.673095  0.964735  0.954297  1
  Pt  Pt25  1  0.173208  0.535610  0.545510  1
  Pt  Pt26  1  0.326939  0.035598  0.454436  1
  Pt  Pt27  1  0.827254  0.464137  0.045770  1
  Pt  Pt28  1  0.542356  0.632205  0.750016  1
  Pt  Pt29  1  0.042596  0.867970  0.749855  1
  Pt  Pt30  1  0.456992  0.367757  0.249867  1
  Pt  Pt31  1  0.957510  0.132372  0.249816  1
  Pt  Pt32  1  0.307223  0.134485  0.750050  1
  Pt  Pt33  1  0.807426  0.365537  0.750065  1
  Pt  Pt34  1  0.692590  0.865311  0.249741  1
  Pt  Pt35  1  0.192758  0.634266  0.249894  1
