# generated using pymatgen
data_CsRb2DyBr6
_symmetry_space_group_name_H-M   'P 1'
_cell_length_a   9.81219244
_cell_length_b   9.80931944
_cell_length_c   8.17453200
_cell_angle_alpha   90.00000000
_cell_angle_beta   90.00000000
_cell_angle_gamma   90.06214449
_symmetry_Int_Tables_number   1
_chemical_formula_structural   CsRb2DyBr6
_chemical_formula_sum   'Cs2 Rb4 Dy2 Br12'
_cell_volume   786.80584536
_cell_formula_units_Z   2
loop_
 _symmetry_equiv_pos_site_id
 _symmetry_equiv_pos_as_xyz
  1  'x, y, z'
loop_
 _atom_site_type_symbol
 _atom_site_label
 _atom_site_symmetry_multiplicity
 _atom_site_fract_x
 _atom_site_fract_y
 _atom_site_fract_z
 _atom_site_occupancy
  Cs  Cs0  1  0.415302  0.235123  0.000000  1
  Cs  Cs1  1  0.584698  0.764877  0.000000  1
  Rb  Rb2  1  0.000000  0.000000  0.500000  1
  Rb  Rb3  1  0.000000  0.000000  0.000000  1
  Rb  Rb4  1  0.235396  0.583504  0.500000  1
  Rb  Rb5  1  0.764604  0.416496  0.500000  1
  Dy  Dy6  1  0.500000  0.000000  0.500000  1
  Dy  Dy7  1  0.000000  0.500000  0.000000  1
  Br  Br8  1  0.698009  0.057567  0.740947  1
  Br  Br9  1  0.301991  0.942433  0.740947  1
  Br  Br10  1  0.944233  0.696028  0.244356  1
  Br  Br11  1  0.055767  0.303972  0.244356  1
  Br  Br12  1  0.301991  0.942433  0.259053  1
  Br  Br13  1  0.698009  0.057567  0.259053  1
  Br  Br14  1  0.055767  0.303972  0.755644  1
  Br  Br15  1  0.944233  0.696028  0.755644  1
  Br  Br16  1  0.568611  0.722277  0.500000  1
  Br  Br17  1  0.431389  0.277723  0.500000  1
  Br  Br18  1  0.274829  0.571889  0.000000  1
  Br  Br19  1  0.725171  0.428111  0.000000  1
