# generated using pymatgen
data_Zn2Fe5(AsO4)6
_symmetry_space_group_name_H-M   'P 1'
_cell_length_a   6.67058838
_cell_length_b   8.17673542
_cell_length_c   9.82442447
_cell_angle_alpha   104.55202169
_cell_angle_beta   107.71310354
_cell_angle_gamma   101.40668318
_symmetry_Int_Tables_number   1
_chemical_formula_structural   Zn2Fe5(AsO4)6
_chemical_formula_sum   'Zn2 Fe5 As6 O24'
_cell_volume   471.72379829
_cell_formula_units_Z   1
loop_
 _symmetry_equiv_pos_site_id
 _symmetry_equiv_pos_as_xyz
  1  'x, y, z'
loop_
 _atom_site_type_symbol
 _atom_site_label
 _atom_site_symmetry_multiplicity
 _atom_site_fract_x
 _atom_site_fract_y
 _atom_site_fract_z
 _atom_site_occupancy
  Zn  Zn0  1  0.284128  0.302244  0.792537  1
  Zn  Zn1  1  0.715872  0.697756  0.207463  1
  Fe  Fe2  1  0.045970  0.219892  0.024838  1
  Fe  Fe3  1  0.954030  0.780108  0.975162  1
  Fe  Fe4  1  0.000000  0.500000  0.500000  1
  Fe  Fe5  1  0.619757  0.047080  0.389200  1
  Fe  Fe6  1  0.380243  0.952920  0.610800  1
  As  As7  1  0.229693  0.651112  0.269920  1
  As  As8  1  0.770307  0.348888  0.730080  1
  As  As9  1  0.605548  0.275100  0.130684  1
  As  As10  1  0.394452  0.724900  0.869316  1
  As  As11  1  0.095333  0.096243  0.332206  1
  As  As12  1  0.904667  0.903757  0.667794  1
  O  O13  1  0.131421  0.039012  0.656167  1
  O  O14  1  0.868579  0.960988  0.343833  1
  O  O15  1  0.067200  0.046886  0.143499  1
  O  O16  1  0.932800  0.953114  0.856501  1
  O  O17  1  0.323474  0.033034  0.418607  1
  O  O18  1  0.676526  0.966966  0.581393  1
  O  O19  1  0.211022  0.435815  0.198396  1
  O  O20  1  0.788978  0.564185  0.801604  1
  O  O21  1  0.125625  0.307307  0.421855  1
  O  O22  1  0.874375  0.692693  0.578145  1
  O  O23  1  0.474985  0.775495  0.273787  1
  O  O24  1  0.525015  0.224505  0.726213  1
  O  O25  1  0.225752  0.701927  0.451886  1
  O  O26  1  0.774248  0.298073  0.548114  1
  O  O27  1  0.554238  0.131730  0.223615  1
  O  O28  1  0.445762  0.868270  0.776385  1
  O  O29  1  0.007869  0.698913  0.156996  1
  O  O30  1  0.992131  0.301087  0.843004  1
  O  O31  1  0.757706  0.217613  0.026350  1
  O  O32  1  0.242294  0.782387  0.973650  1
  O  O33  1  0.355266  0.260603  0.998319  1
  O  O34  1  0.644734  0.739397  0.001681  1
  O  O35  1  0.736129  0.483081  0.265021  1
  O  O36  1  0.263871  0.516919  0.734979  1
