# generated using pymatgen
data_CaAc(Ni2B)12
_symmetry_space_group_name_H-M   'P 1'
_cell_length_a   6.05770625
_cell_length_b   6.05770495
_cell_length_c   11.08141729
_cell_angle_alpha   90.07347081
_cell_angle_beta   90.07347210
_cell_angle_gamma   104.66703796
_symmetry_Int_Tables_number   1
_chemical_formula_structural   CaAc(Ni2B)12
_chemical_formula_sum   'Ca1 Ac1 Ni24 B12'
_cell_volume   393.38958522
_cell_formula_units_Z   1
loop_
 _symmetry_equiv_pos_site_id
 _symmetry_equiv_pos_as_xyz
  1  'x, y, z'
loop_
 _atom_site_type_symbol
 _atom_site_label
 _atom_site_symmetry_multiplicity
 _atom_site_fract_x
 _atom_site_fract_y
 _atom_site_fract_z
 _atom_site_occupancy
  Ca  Ca0  1  0.165858  0.165858  0.000415  1
  Ac  Ac1  1  0.832753  0.832753  0.501686  1
  Ni  Ni2  1  0.568350  0.568350  0.916481  1
  Ni  Ni3  1  0.426520  0.426520  0.413742  1
  Ni  Ni4  1  0.779111  0.779111  0.098556  1
  Ni  Ni5  1  0.225190  0.225190  0.601539  1
  Ni  Ni6  1  0.538473  0.805955  0.736776  1
  Ni  Ni7  1  0.805955  0.538473  0.736776  1
  Ni  Ni8  1  0.459876  0.195315  0.232687  1
  Ni  Ni9  1  0.195315  0.459876  0.232687  1
  Ni  Ni10  1  0.145454  0.882248  0.758228  1
  Ni  Ni11  1  0.882248  0.145454  0.758228  1
  Ni  Ni12  1  0.853878  0.120965  0.254692  1
  Ni  Ni13  1  0.120965  0.853878  0.254692  1
  Ni  Ni14  1  0.654672  0.276556  0.567333  1
  Ni  Ni15  1  0.276556  0.654672  0.567333  1
  Ni  Ni16  1  0.342602  0.726576  0.066093  1
  Ni  Ni17  1  0.726576  0.342602  0.066093  1
  Ni  Ni18  1  0.630223  0.995227  0.937434  1
  Ni  Ni19  1  0.995227  0.630223  0.937434  1
  Ni  Ni20  1  0.371031  0.006033  0.436822  1
  Ni  Ni21  1  0.006033  0.371031  0.436822  1
  Ni  Ni22  1  0.475258  0.208457  0.775860  1
  Ni  Ni23  1  0.208457  0.475258  0.775860  1
  Ni  Ni24  1  0.523948  0.789124  0.271937  1
  Ni  Ni25  1  0.789124  0.523948  0.271937  1
  B  B26  1  0.833858  0.833858  0.836666  1
  B  B27  1  0.165869  0.165869  0.329499  1
  B  B28  1  0.484917  0.484917  0.667023  1
  B  B29  1  0.514430  0.514430  0.156580  1
  B  B30  1  0.324566  0.752483  0.886322  1
  B  B31  1  0.752483  0.324566  0.886322  1
  B  B32  1  0.675757  0.252506  0.384257  1
  B  B33  1  0.252506  0.675757  0.384257  1
  B  B34  1  0.395818  0.985626  0.622166  1
  B  B35  1  0.985626  0.395818  0.622166  1
  B  B36  1  0.601835  0.012682  0.121299  1
  B  B37  1  0.012682  0.601835  0.121299  1
