# generated using pymatgen
data_Hf6Co3Si6Ni
_symmetry_space_group_name_H-M   'P 1'
_cell_length_a   5.32246243
_cell_length_b   5.32246222
_cell_length_c   12.85877750
_cell_angle_alpha   89.71897290
_cell_angle_beta   90.28102675
_cell_angle_gamma   137.59487122
_symmetry_Int_Tables_number   1
_chemical_formula_structural   Hf6Co3Si6Ni
_chemical_formula_sum   'Hf6 Co3 Si6 Ni1'
_cell_volume   245.64963967
_cell_formula_units_Z   1
loop_
 _symmetry_equiv_pos_site_id
 _symmetry_equiv_pos_as_xyz
  1  'x, y, z'
loop_
 _atom_site_type_symbol
 _atom_site_label
 _atom_site_symmetry_multiplicity
 _atom_site_fract_x
 _atom_site_fract_y
 _atom_site_fract_z
 _atom_site_occupancy
  Hf  Hf0  1  0.135159  0.864841  0.250991  1
  Hf  Hf1  1  0.864932  0.135068  0.750189  1
  Hf  Hf2  1  0.574017  0.425983  0.617630  1
  Hf  Hf3  1  0.425504  0.574496  0.381528  1
  Hf  Hf4  1  0.424310  0.575690  0.116457  1
  Hf  Hf5  1  0.574634  0.425366  0.883327  1
  Co  Co6  1  0.278064  0.721936  0.919528  1
  Co  Co7  1  0.722093  0.277907  0.079740  1
  Co  Co8  1  0.718895  0.281105  0.414835  1
  Si  Si9  1  0.835162  0.164838  0.248904  1
  Si  Si10  1  0.163067  0.836933  0.751865  1
  Si  Si11  1  0.890925  0.109075  0.539965  1
  Si  Si12  1  0.110736  0.889264  0.458600  1
  Si  Si13  1  0.110404  0.889596  0.043115  1
  Si  Si14  1  0.890055  0.109945  0.957012  1
  Ni  Ni15  1  0.282044  0.717956  0.586315  1
