# generated using pymatgen
data_Sc7FeBr12
_symmetry_space_group_name_H-M   'P 1'
_cell_length_a   8.74398302
_cell_length_b   8.74398324
_cell_length_c   8.74398330
_cell_angle_alpha   107.11207819
_cell_angle_beta   107.11207640
_cell_angle_gamma   107.11208925
_symmetry_Int_Tables_number   1
_chemical_formula_structural   Sc7FeBr12
_chemical_formula_sum   'Sc7 Fe1 Br12'
_cell_volume   555.05612265
_cell_formula_units_Z   1
loop_
 _symmetry_equiv_pos_site_id
 _symmetry_equiv_pos_as_xyz
  1  'x, y, z'
loop_
 _atom_site_type_symbol
 _atom_site_label
 _atom_site_symmetry_multiplicity
 _atom_site_fract_x
 _atom_site_fract_y
 _atom_site_fract_z
 _atom_site_occupancy
  Sc  Sc0  1  0.297868  0.094246  0.022443  1
  Sc  Sc1  1  0.094246  0.022443  0.297868  1
  Sc  Sc2  1  0.022443  0.297868  0.094246  1
  Sc  Sc3  1  0.702132  0.905754  0.977557  1
  Sc  Sc4  1  0.905754  0.977557  0.702132  1
  Sc  Sc5  1  0.977557  0.702132  0.905754  1
  Sc  Sc6  1  0.500000  0.500000  0.500000  1
  Fe  Fe7  1  0.000000  0.000000  0.000000  1
  Br  Br8  1  0.220186  0.069914  0.680622  1
  Br  Br9  1  0.069914  0.680622  0.220186  1
  Br  Br10  1  0.680622  0.220186  0.069914  1
  Br  Br11  1  0.779814  0.930086  0.319378  1
  Br  Br12  1  0.930086  0.319378  0.779814  1
  Br  Br13  1  0.319378  0.779814  0.930086  1
  Br  Br14  1  0.384943  0.458106  0.163827  1
  Br  Br15  1  0.458106  0.163827  0.384943  1
  Br  Br16  1  0.163827  0.384943  0.458106  1
  Br  Br17  1  0.615057  0.541894  0.836173  1
  Br  Br18  1  0.541894  0.836173  0.615057  1
  Br  Br19  1  0.836173  0.615057  0.541894  1
