# generated using pymatgen
data_POs2Cl13
_symmetry_space_group_name_H-M   'P 1'
_cell_length_a   11.26057900
_cell_length_b   9.21287952
_cell_length_c   9.60314012
_cell_angle_alpha   83.28725866
_cell_angle_beta   90.00000000
_cell_angle_gamma   90.00000000
_symmetry_Int_Tables_number   1
_chemical_formula_structural   POs2Cl13
_chemical_formula_sum   'P2 Os4 Cl26'
_cell_volume   989.42276827
_cell_formula_units_Z   2
loop_
 _symmetry_equiv_pos_site_id
 _symmetry_equiv_pos_as_xyz
  1  'x, y, z'
loop_
 _atom_site_type_symbol
 _atom_site_label
 _atom_site_symmetry_multiplicity
 _atom_site_fract_x
 _atom_site_fract_y
 _atom_site_fract_z
 _atom_site_occupancy
  P  P0  1  0.250000  0.261967  0.509651  1
  P  P1  1  0.750000  0.738033  0.490349  1
  Os  Os2  1  0.250000  0.824874  0.085896  1
  Os  Os3  1  0.750000  0.175126  0.914104  1
  Os  Os4  1  0.250000  0.685057  0.871428  1
  Os  Os5  1  0.750000  0.314943  0.128572  1
  Cl  Cl6  1  0.608238  0.808841  0.580381  1
  Cl  Cl7  1  0.108238  0.191159  0.419619  1
  Cl  Cl8  1  0.750000  0.440777  0.893083  1
  Cl  Cl9  1  0.250000  0.559223  0.106917  1
  Cl  Cl10  1  0.909498  0.148654  0.084440  1
  Cl  Cl11  1  0.409498  0.851346  0.915560  1
  Cl  Cl12  1  0.090502  0.851346  0.915560  1
  Cl  Cl13  1  0.590502  0.148654  0.084440  1
  Cl  Cl14  1  0.750000  0.204043  0.357852  1
  Cl  Cl15  1  0.250000  0.795957  0.642148  1
  Cl  Cl16  1  0.896623  0.474230  0.178272  1
  Cl  Cl17  1  0.396623  0.525770  0.821728  1
  Cl  Cl18  1  0.103377  0.525770  0.821728  1
  Cl  Cl19  1  0.603377  0.474230  0.178272  1
  Cl  Cl20  1  0.750000  0.923486  0.929277  1
  Cl  Cl21  1  0.250000  0.076514  0.070723  1
  Cl  Cl22  1  0.895079  0.192659  0.743734  1
  Cl  Cl23  1  0.395079  0.807341  0.256266  1
  Cl  Cl24  1  0.104921  0.807341  0.256266  1
  Cl  Cl25  1  0.604921  0.192659  0.743734  1
  Cl  Cl26  1  0.750000  0.809578  0.290930  1
  Cl  Cl27  1  0.250000  0.190422  0.709070  1
  Cl  Cl28  1  0.750000  0.524292  0.516211  1
  Cl  Cl29  1  0.250000  0.475708  0.483789  1
  Cl  Cl30  1  0.891762  0.808841  0.580381  1
  Cl  Cl31  1  0.391762  0.191159  0.419619  1
