# generated using pymatgen
data_NaHo3As6Ir7
_symmetry_space_group_name_H-M   'P 1'
_cell_length_a   7.27072144
_cell_length_b   7.24963240
_cell_length_c   7.24963297
_cell_angle_alpha   109.41223171
_cell_angle_beta   109.53015320
_cell_angle_gamma   109.53015027
_symmetry_Int_Tables_number   1
_chemical_formula_structural   NaHo3As6Ir7
_chemical_formula_sum   'Na1 Ho3 As6 Ir7'
_cell_volume   293.94847543
_cell_formula_units_Z   1
loop_
 _symmetry_equiv_pos_site_id
 _symmetry_equiv_pos_as_xyz
  1  'x, y, z'
loop_
 _atom_site_type_symbol
 _atom_site_label
 _atom_site_symmetry_multiplicity
 _atom_site_fract_x
 _atom_site_fract_y
 _atom_site_fract_z
 _atom_site_occupancy
  Na  Na0  1  0.500000  0.000000  0.000000  1
  Ho  Ho1  1  0.000000  0.000000  0.500000  1
  Ho  Ho2  1  0.000000  0.500000  0.000000  1
  Ho  Ho3  1  0.500000  0.500000  0.500000  1
  As  As4  1  0.322196  0.000000  0.314280  1
  As  As5  1  0.992085  0.314280  0.314280  1
  As  As6  1  0.007915  0.685720  0.685720  1
  As  As7  1  0.322196  0.314280  0.000000  1
  As  As8  1  0.677804  0.685720  0.000000  1
  As  As9  1  0.677804  0.000000  0.685720  1
  Ir  Ir10  1  0.752316  0.504632  0.252316  1
  Ir  Ir11  1  0.500000  0.747684  0.252316  1
  Ir  Ir12  1  0.500000  0.252316  0.747684  1
  Ir  Ir13  1  0.752316  0.252316  0.504632  1
  Ir  Ir14  1  0.247684  0.747684  0.495368  1
  Ir  Ir15  1  0.247684  0.495368  0.747684  1
  Ir  Ir16  1  0.000000  0.000000  0.000000  1
