# generated using pymatgen
data_CaZnCdPd3
_symmetry_space_group_name_H-M   'P 1'
_cell_length_a   5.21032895
_cell_length_b   5.21032862
_cell_length_c   5.21032883
_cell_angle_alpha   64.49479661
_cell_angle_beta   64.49480028
_cell_angle_gamma   64.49479808
_symmetry_Int_Tables_number   1
_chemical_formula_structural   CaZnCdPd3
_chemical_formula_sum   'Ca1 Zn1 Cd1 Pd3'
_cell_volume   109.87858610
_cell_formula_units_Z   1
loop_
 _symmetry_equiv_pos_site_id
 _symmetry_equiv_pos_as_xyz
  1  'x, y, z'
loop_
 _atom_site_type_symbol
 _atom_site_label
 _atom_site_symmetry_multiplicity
 _atom_site_fract_x
 _atom_site_fract_y
 _atom_site_fract_z
 _atom_site_occupancy
  Ca  Ca0  1  0.124482  0.124482  0.124482  1
  Zn  Zn1  1  0.500618  0.500618  0.500618  1
  Cd  Cd2  1  0.871144  0.871144  0.871144  1
  Pd  Pd3  1  0.502091  0.502091  0.999574  1
  Pd  Pd4  1  0.999574  0.502091  0.502091  1
  Pd  Pd5  1  0.502091  0.999574  0.502091  1
