# generated using pymatgen
data_Ho20Fe3NiBi8
_symmetry_space_group_name_H-M   'P 1'
_cell_length_a   7.95386982
_cell_length_b   8.90264500
_cell_length_c   12.37297877
_cell_angle_alpha   90.00000000
_cell_angle_beta   90.07711730
_cell_angle_gamma   90.00000000
_symmetry_Int_Tables_number   1
_chemical_formula_structural   Ho20Fe3NiBi8
_chemical_formula_sum   'Ho20 Fe3 Ni1 Bi8'
_cell_volume   876.13576470
_cell_formula_units_Z   1
loop_
 _symmetry_equiv_pos_site_id
 _symmetry_equiv_pos_as_xyz
  1  'x, y, z'
loop_
 _atom_site_type_symbol
 _atom_site_label
 _atom_site_symmetry_multiplicity
 _atom_site_fract_x
 _atom_site_fract_y
 _atom_site_fract_z
 _atom_site_occupancy
  Ho  Ho0  1  0.348405  0.750000  0.698817  1
  Ho  Ho1  1  0.652194  0.250000  0.298522  1
  Ho  Ho2  1  0.847175  0.250000  0.799664  1
  Ho  Ho3  1  0.156479  0.750000  0.204873  1
  Ho  Ho4  1  0.880027  0.750000  0.809145  1
  Ho  Ho5  1  0.115881  0.250000  0.188083  1
  Ho  Ho6  1  0.386487  0.250000  0.688242  1
  Ho  Ho7  1  0.617681  0.750000  0.309249  1
  Ho  Ho8  1  0.675258  0.539899  0.562302  1
  Ho  Ho9  1  0.326722  0.466025  0.438592  1
  Ho  Ho10  1  0.176539  0.457031  0.936641  1
  Ho  Ho11  1  0.326722  0.033975  0.438592  1
  Ho  Ho12  1  0.824927  0.533334  0.063895  1
  Ho  Ho13  1  0.675258  0.960101  0.562302  1
  Ho  Ho14  1  0.824927  0.966666  0.063895  1
  Ho  Ho15  1  0.176539  0.042969  0.936641  1
  Ho  Ho16  1  0.052604  0.750000  0.496927  1
  Ho  Ho17  1  0.941274  0.250000  0.505003  1
  Ho  Ho18  1  0.552009  0.250000  0.003224  1
  Ho  Ho19  1  0.450714  0.750000  0.996670  1
  Fe  Fe20  1  0.929447  0.250000  0.009417  1
  Fe  Fe21  1  0.569524  0.250000  0.508143  1
  Fe  Fe22  1  0.426116  0.750000  0.487577  1
  Ni  Ni23  1  0.067421  0.750000  0.991559  1
  Bi  Bi24  1  0.570865  0.508072  0.826776  1
  Bi  Bi25  1  0.427679  0.491646  0.172891  1
  Bi  Bi26  1  0.072157  0.491238  0.673816  1
  Bi  Bi27  1  0.427679  0.008354  0.172891  1
  Bi  Bi28  1  0.929135  0.507216  0.327529  1
  Bi  Bi29  1  0.570865  0.991928  0.826776  1
  Bi  Bi30  1  0.929135  0.992784  0.327529  1
  Bi  Bi31  1  0.072157  0.008762  0.673816  1
