# generated using pymatgen
data_Y12ZnCo3SiBi
_symmetry_space_group_name_H-M   'P 1'
_cell_length_a   8.45384106
_cell_length_b   8.45384192
_cell_length_c   8.45384119
_cell_angle_alpha   110.26605431
_cell_angle_beta   112.87885158
_cell_angle_gamma   105.35721284
_symmetry_Int_Tables_number   1
_chemical_formula_structural   Y12ZnCo3SiBi
_chemical_formula_sum   'Y12 Zn1 Co3 Si1 Bi1'
_cell_volume   463.05167372
_cell_formula_units_Z   1
loop_
 _symmetry_equiv_pos_site_id
 _symmetry_equiv_pos_as_xyz
  1  'x, y, z'
loop_
 _atom_site_type_symbol
 _atom_site_label
 _atom_site_symmetry_multiplicity
 _atom_site_fract_x
 _atom_site_fract_y
 _atom_site_fract_z
 _atom_site_occupancy
  Y  Y0  1  0.285304  0.182533  0.467837  1
  Y  Y1  1  0.716813  0.816303  0.533116  1
  Y  Y2  1  0.283187  0.816303  0.099492  1
  Y  Y3  1  0.714696  0.182533  0.897228  1
  Y  Y4  1  0.621890  0.310898  0.314388  1
  Y  Y5  1  0.378110  0.692498  0.689008  1
  Y  Y6  1  0.996510  0.310898  0.689008  1
  Y  Y7  1  0.003490  0.692498  0.314388  1
  Y  Y8  1  0.227238  0.424000  0.196762  1
  Y  Y9  1  0.778187  0.576237  0.798049  1
  Y  Y10  1  0.221813  0.019862  0.798049  1
  Y  Y11  1  0.772762  0.969523  0.196762  1
  Zn  Zn12  1  0.000000  0.997788  0.997788  1
  Co  Co13  1  0.000000  0.639078  0.639078  1
  Co  Co14  1  0.391009  0.891569  0.500560  1
  Co  Co15  1  0.608991  0.109551  0.500560  1
  Si  Si16  1  0.000000  0.371718  0.371718  1
  Bi  Bi17  1  0.500000  0.496209  0.996209  1
