# generated using pymatgen
data_LiTb2(ScSi2)2
_symmetry_space_group_name_H-M   'P 1'
_cell_length_a   6.92242700
_cell_length_b   7.41664800
_cell_length_c   14.10776900
_cell_angle_alpha   90.00000000
_cell_angle_beta   90.00000000
_cell_angle_gamma   90.00000000
_symmetry_Int_Tables_number   1
_chemical_formula_structural   LiTb2(ScSi2)2
_chemical_formula_sum   'Li4 Tb8 Sc8 Si16'
_cell_volume   724.30985136
_cell_formula_units_Z   4
loop_
 _symmetry_equiv_pos_site_id
 _symmetry_equiv_pos_as_xyz
  1  'x, y, z'
loop_
 _atom_site_type_symbol
 _atom_site_label
 _atom_site_symmetry_multiplicity
 _atom_site_fract_x
 _atom_site_fract_y
 _atom_site_fract_z
 _atom_site_occupancy
  Li  Li0  1  0.159296  0.504285  0.750000  1
  Li  Li1  1  0.840704  0.495715  0.250000  1
  Li  Li2  1  0.340704  0.004285  0.250000  1
  Li  Li3  1  0.659296  0.995715  0.750000  1
  Tb  Tb4  1  0.014084  0.181195  0.099583  1
  Tb  Tb5  1  0.985916  0.818805  0.900417  1
  Tb  Tb6  1  0.485916  0.681195  0.900417  1
  Tb  Tb7  1  0.985916  0.818805  0.599583  1
  Tb  Tb8  1  0.514084  0.318805  0.099583  1
  Tb  Tb9  1  0.014084  0.181195  0.400417  1
  Tb  Tb10  1  0.514084  0.318805  0.400417  1
  Tb  Tb11  1  0.485916  0.681195  0.599583  1
  Sc  Sc12  1  0.330404  0.179096  0.626311  1
  Sc  Sc13  1  0.669596  0.820904  0.373689  1
  Sc  Sc14  1  0.169596  0.679096  0.373689  1
  Sc  Sc15  1  0.669596  0.820904  0.126311  1
  Sc  Sc16  1  0.830404  0.320904  0.626311  1
  Sc  Sc17  1  0.330404  0.179096  0.873689  1
  Sc  Sc18  1  0.830404  0.320904  0.873689  1
  Sc  Sc19  1  0.169596  0.679096  0.126311  1
  Si  Si20  1  0.032382  0.105864  0.750000  1
  Si  Si21  1  0.967618  0.894136  0.250000  1
  Si  Si22  1  0.467618  0.605864  0.250000  1
  Si  Si23  1  0.532382  0.394136  0.750000  1
  Si  Si24  1  0.282341  0.883016  0.750000  1
  Si  Si25  1  0.717659  0.116984  0.250000  1
  Si  Si26  1  0.217659  0.383016  0.250000  1
  Si  Si27  1  0.782341  0.616984  0.750000  1
  Si  Si28  1  0.157281  0.462978  0.535314  1
  Si  Si29  1  0.842719  0.537022  0.464686  1
  Si  Si30  1  0.342719  0.962978  0.464686  1
  Si  Si31  1  0.842719  0.537022  0.035314  1
  Si  Si32  1  0.657281  0.037022  0.535314  1
  Si  Si33  1  0.157281  0.462978  0.964686  1
  Si  Si34  1  0.657281  0.037022  0.964686  1
  Si  Si35  1  0.342719  0.962978  0.035314  1
