# generated using pymatgen
data_Dy4Zn5Ag8Ru
_symmetry_space_group_name_H-M   'P 1'
_cell_length_a   5.26261300
_cell_length_b   5.26261356
_cell_length_c   14.12967800
_cell_angle_alpha   90.00000000
_cell_angle_beta   90.00000000
_cell_angle_gamma   118.81049372
_symmetry_Int_Tables_number   1
_chemical_formula_structural   Dy4Zn5Ag8Ru
_chemical_formula_sum   'Dy4 Zn5 Ag8 Ru1'
_cell_volume   342.88427154
_cell_formula_units_Z   1
loop_
 _symmetry_equiv_pos_site_id
 _symmetry_equiv_pos_as_xyz
  1  'x, y, z'
loop_
 _atom_site_type_symbol
 _atom_site_label
 _atom_site_symmetry_multiplicity
 _atom_site_fract_x
 _atom_site_fract_y
 _atom_site_fract_z
 _atom_site_occupancy
  Dy  Dy0  1  0.815927  0.815927  0.126197  1
  Dy  Dy1  1  0.179177  0.179177  0.883746  1
  Dy  Dy2  1  0.815927  0.815927  0.373803  1
  Dy  Dy3  1  0.179177  0.179177  0.616254  1
  Zn  Zn4  1  0.171827  0.674739  0.750000  1
  Zn  Zn5  1  0.674739  0.171827  0.750000  1
  Zn  Zn6  1  0.672409  0.672409  0.750000  1
  Zn  Zn7  1  0.325132  0.828392  0.250000  1
  Zn  Zn8  1  0.828392  0.325132  0.250000  1
  Ag  Ag9  1  0.160650  0.487766  0.077376  1
  Ag  Ag10  1  0.515250  0.840620  0.921803  1
  Ag  Ag11  1  0.487766  0.160650  0.077376  1
  Ag  Ag12  1  0.840620  0.515250  0.578197  1
  Ag  Ag13  1  0.487766  0.160650  0.422624  1
  Ag  Ag14  1  0.840620  0.515250  0.921803  1
  Ag  Ag15  1  0.515250  0.840620  0.578197  1
  Ag  Ag16  1  0.160650  0.487766  0.422624  1
  Ru  Ru17  1  0.328721  0.328721  0.250000  1
