# generated using pymatgen
data_InAg(SeO4)2
_symmetry_space_group_name_H-M   'P 1'
_cell_length_a   5.14481520
_cell_length_b   5.14481512
_cell_length_c   7.63234674
_cell_angle_alpha   90.30282245
_cell_angle_beta   90.30282246
_cell_angle_gamma   67.35687402
_symmetry_Int_Tables_number   1
_chemical_formula_structural   InAg(SeO4)2
_chemical_formula_sum   'In1 Ag1 Se2 O8'
_cell_volume   186.44608660
_cell_formula_units_Z   1
loop_
 _symmetry_equiv_pos_site_id
 _symmetry_equiv_pos_as_xyz
  1  'x, y, z'
loop_
 _atom_site_type_symbol
 _atom_site_label
 _atom_site_symmetry_multiplicity
 _atom_site_fract_x
 _atom_site_fract_y
 _atom_site_fract_z
 _atom_site_occupancy
  In  In0  1  0.000000  0.000000  0.000000  1
  Ag  Ag1  1  0.000000  0.000000  0.500000  1
  Se  Se2  1  0.358559  0.358559  0.775742  1
  Se  Se3  1  0.641441  0.641441  0.224258  1
  O  O4  1  0.265190  0.265190  0.587237  1
  O  O5  1  0.734810  0.734810  0.412763  1
  O  O6  1  0.716480  0.236392  0.787105  1
  O  O7  1  0.283520  0.763608  0.212895  1
  O  O8  1  0.763608  0.283520  0.212895  1
  O  O9  1  0.236392  0.716480  0.787105  1
  O  O10  1  0.249254  0.249254  0.958342  1
  O  O11  1  0.750746  0.750746  0.041658  1
