# generated using pymatgen
data_ErTm3Zn4IrPt3
_symmetry_space_group_name_H-M   'P 1'
_cell_length_a   4.10406300
_cell_length_b   6.87237468
_cell_length_c   8.14410950
_cell_angle_alpha   89.88368110
_cell_angle_beta   90.00000000
_cell_angle_gamma   90.00000000
_symmetry_Int_Tables_number   1
_chemical_formula_structural   ErTm3Zn4IrPt3
_chemical_formula_sum   'Er1 Tm3 Zn4 Ir1 Pt3'
_cell_volume   229.70135523
_cell_formula_units_Z   1
loop_
 _symmetry_equiv_pos_site_id
 _symmetry_equiv_pos_as_xyz
  1  'x, y, z'
loop_
 _atom_site_type_symbol
 _atom_site_label
 _atom_site_symmetry_multiplicity
 _atom_site_fract_x
 _atom_site_fract_y
 _atom_site_fract_z
 _atom_site_occupancy
  Er  Er0  1  0.250000  0.542567  0.183804  1
  Tm  Tm1  1  0.250000  0.044936  0.320171  1
  Tm  Tm2  1  0.750000  0.963118  0.682459  1
  Tm  Tm3  1  0.750000  0.453106  0.812510  1
  Zn  Zn4  1  0.250000  0.635212  0.563589  1
  Zn  Zn5  1  0.250000  0.138755  0.934515  1
  Zn  Zn6  1  0.750000  0.360060  0.439763  1
  Zn  Zn7  1  0.750000  0.862236  0.062857  1
  Ir  Ir8  1  0.250000  0.250564  0.622085  1
  Pt  Pt9  1  0.250000  0.752113  0.878308  1
  Pt  Pt10  1  0.750000  0.748800  0.377617  1
  Pt  Pt11  1  0.750000  0.248535  0.122322  1
