# generated using pymatgen
data_Tm4Sb6Ru2Rh5
_symmetry_space_group_name_H-M   'P 1'
_cell_length_a   7.54049806
_cell_length_b   7.54039218
_cell_length_c   7.54039083
_cell_angle_alpha   109.26043422
_cell_angle_beta   109.57681528
_cell_angle_gamma   109.57681804
_symmetry_Int_Tables_number   1
_chemical_formula_structural   Tm4Sb6Ru2Rh5
_chemical_formula_sum   'Tm4 Sb6 Ru2 Rh5'
_cell_volume   330.03534316
_cell_formula_units_Z   1
loop_
 _symmetry_equiv_pos_site_id
 _symmetry_equiv_pos_as_xyz
  1  'x, y, z'
loop_
 _atom_site_type_symbol
 _atom_site_label
 _atom_site_symmetry_multiplicity
 _atom_site_fract_x
 _atom_site_fract_y
 _atom_site_fract_z
 _atom_site_occupancy
  Tm  Tm0  1  0.500000  0.999065  0.000935  1
  Tm  Tm1  1  0.001860  0.500929  0.000932  1
  Tm  Tm2  1  0.998140  0.999068  0.499071  1
  Tm  Tm3  1  0.500000  0.500935  0.499065  1
  Sb  Sb4  1  0.000004  0.313840  0.313841  1
  Sb  Sb5  1  0.685569  0.998955  0.684522  1
  Sb  Sb6  1  0.685569  0.686616  0.001048  1
  Sb  Sb7  1  0.999996  0.686159  0.686160  1
  Sb  Sb8  1  0.314431  0.998952  0.313384  1
  Sb  Sb9  1  0.314431  0.315478  0.001045  1
  Ru  Ru10  1  0.000000  0.000000  0.000000  1
  Ru  Ru11  1  0.500000  0.750004  0.249996  1
  Rh  Rh12  1  0.750690  0.499836  0.250520  1
  Rh  Rh13  1  0.249310  0.749480  0.500164  1
  Rh  Rh14  1  0.249319  0.499831  0.749150  1
  Rh  Rh15  1  0.500000  0.250003  0.749997  1
  Rh  Rh16  1  0.750681  0.250850  0.500169  1
