# generated using pymatgen
data_Hf6Fe2Sn6RuRh3
_symmetry_space_group_name_H-M   'P 1'
_cell_length_a   7.46681800
_cell_length_b   7.46681830
_cell_length_c   6.88548900
_cell_angle_alpha   90.00000000
_cell_angle_beta   90.00000000
_cell_angle_gamma   119.99998980
_symmetry_Int_Tables_number   1
_chemical_formula_structural   Hf6Fe2Sn6RuRh3
_chemical_formula_sum   'Hf6 Fe2 Sn6 Ru1 Rh3'
_cell_volume   332.45786703
_cell_formula_units_Z   1
loop_
 _symmetry_equiv_pos_site_id
 _symmetry_equiv_pos_as_xyz
  1  'x, y, z'
loop_
 _atom_site_type_symbol
 _atom_site_label
 _atom_site_symmetry_multiplicity
 _atom_site_fract_x
 _atom_site_fract_y
 _atom_site_fract_z
 _atom_site_occupancy
  Hf  Hf0  1  0.005869  0.392258  0.747548  1
  Hf  Hf1  1  0.607742  0.613610  0.747548  1
  Hf  Hf2  1  0.386390  0.994131  0.747548  1
  Hf  Hf3  1  0.003984  0.391455  0.252422  1
  Hf  Hf4  1  0.608545  0.612529  0.252422  1
  Hf  Hf5  1  0.387471  0.996016  0.252422  1
  Fe  Fe6  1  0.000000  0.000000  0.750268  1
  Fe  Fe7  1  0.000000  0.000000  0.249567  1
  Sn  Sn8  1  0.268467  0.266133  0.499904  1
  Sn  Sn9  1  0.997666  0.731533  0.499904  1
  Sn  Sn10  1  0.997514  0.730913  0.000079  1
  Sn  Sn11  1  0.733867  0.002334  0.499904  1
  Sn  Sn12  1  0.733398  0.002486  0.000079  1
  Sn  Sn13  1  0.269087  0.266602  0.000079  1
  Ru  Ru14  1  0.333333  0.666667  0.499139  1
  Rh  Rh15  1  0.666667  0.333333  0.502262  1
  Rh  Rh16  1  0.333333  0.666667  0.001391  1
  Rh  Rh17  1  0.666667  0.333333  0.997512  1
