# generated using pymatgen
data_DyHo7Zn2(Si6Rh)2
_symmetry_space_group_name_H-M   'P 1'
_cell_length_a   8.12149200
_cell_length_b   8.12149216
_cell_length_c   8.03801500
_cell_angle_alpha   90.00000000
_cell_angle_beta   90.00000000
_cell_angle_gamma   120.00000748
_symmetry_Int_Tables_number   1
_chemical_formula_structural   DyHo7Zn2(Si6Rh)2
_chemical_formula_sum   'Dy1 Ho7 Zn2 Si12 Rh2'
_cell_volume   459.14627121
_cell_formula_units_Z   1
loop_
 _symmetry_equiv_pos_site_id
 _symmetry_equiv_pos_as_xyz
  1  'x, y, z'
loop_
 _atom_site_type_symbol
 _atom_site_label
 _atom_site_symmetry_multiplicity
 _atom_site_fract_x
 _atom_site_fract_y
 _atom_site_fract_z
 _atom_site_occupancy
  Dy  Dy0  1  0.000000  0.000000  0.249119  1
  Ho  Ho1  1  0.000000  0.000000  0.751062  1
  Ho  Ho2  1  0.506553  0.493447  0.243118  1
  Ho  Ho3  1  0.506553  0.013106  0.243118  1
  Ho  Ho4  1  0.986894  0.493447  0.243118  1
  Ho  Ho5  1  0.493451  0.506549  0.756790  1
  Ho  Ho6  1  0.493451  0.986900  0.756790  1
  Ho  Ho7  1  0.013100  0.506549  0.756790  1
  Zn  Zn8  1  0.333333  0.666667  0.464348  1
  Zn  Zn9  1  0.666667  0.333333  0.535628  1
  Si  Si10  1  0.166609  0.833391  0.507180  1
  Si  Si11  1  0.166609  0.333216  0.507180  1
  Si  Si12  1  0.666784  0.833391  0.507180  1
  Si  Si13  1  0.833360  0.166640  0.493354  1
  Si  Si14  1  0.833360  0.666721  0.493354  1
  Si  Si15  1  0.333279  0.166640  0.493354  1
  Si  Si16  1  0.833121  0.166879  0.993467  1
  Si  Si17  1  0.833121  0.666242  0.993467  1
  Si  Si18  1  0.333758  0.166879  0.993467  1
  Si  Si19  1  0.166892  0.833108  0.006032  1
  Si  Si20  1  0.166892  0.333783  0.006032  1
  Si  Si21  1  0.666217  0.833108  0.006032  1
  Rh  Rh22  1  0.666667  0.333333  0.986601  1
  Rh  Rh23  1  0.333333  0.666667  0.013417  1
