# generated using pymatgen
data_LiHf4Ir3
_symmetry_space_group_name_H-M   'P 1'
_cell_length_a   7.86989800
_cell_length_b   7.86989835
_cell_length_c   5.31354000
_cell_angle_alpha   90.00000000
_cell_angle_beta   90.00000000
_cell_angle_gamma   119.99999852
_symmetry_Int_Tables_number   1
_chemical_formula_structural   LiHf4Ir3
_chemical_formula_sum   'Li2 Hf8 Ir6'
_cell_volume   285.00522309
_cell_formula_units_Z   2
loop_
 _symmetry_equiv_pos_site_id
 _symmetry_equiv_pos_as_xyz
  1  'x, y, z'
loop_
 _atom_site_type_symbol
 _atom_site_label
 _atom_site_symmetry_multiplicity
 _atom_site_fract_x
 _atom_site_fract_y
 _atom_site_fract_z
 _atom_site_occupancy
  Li  Li0  1  0.666667  0.333333  0.000000  1
  Li  Li1  1  0.333333  0.666667  0.000000  1
  Hf  Hf2  1  0.333333  0.666667  0.500000  1
  Hf  Hf3  1  0.666667  0.333333  0.500000  1
  Hf  Hf4  1  0.755849  0.755849  0.751032  1
  Hf  Hf5  1  0.244151  0.000000  0.751032  1
  Hf  Hf6  1  0.000000  0.244151  0.751032  1
  Hf  Hf7  1  0.244151  0.244151  0.248968  1
  Hf  Hf8  1  0.755849  0.000000  0.248968  1
  Hf  Hf9  1  0.000000  0.755849  0.248968  1
  Ir  Ir10  1  0.397370  0.397370  0.759649  1
  Ir  Ir11  1  0.602630  0.000000  0.759649  1
  Ir  Ir12  1  0.000000  0.602630  0.759649  1
  Ir  Ir13  1  0.602630  0.602630  0.240351  1
  Ir  Ir14  1  0.397370  0.000000  0.240351  1
  Ir  Ir15  1  0.000000  0.397370  0.240351  1
