# generated using pymatgen
data_Nd10IrRuPt4
_symmetry_space_group_name_H-M   'P 1'
_cell_length_a   11.44160700
_cell_length_b   11.44160700
_cell_length_c   6.56218400
_cell_angle_alpha   90.00000000
_cell_angle_beta   90.00000000
_cell_angle_gamma   90.00000000
_symmetry_Int_Tables_number   1
_chemical_formula_structural   Nd10IrRuPt4
_chemical_formula_sum   'Nd20 Ir2 Ru2 Pt8'
_cell_volume   859.05794032
_cell_formula_units_Z   2
loop_
 _symmetry_equiv_pos_site_id
 _symmetry_equiv_pos_as_xyz
  1  'x, y, z'
loop_
 _atom_site_type_symbol
 _atom_site_label
 _atom_site_symmetry_multiplicity
 _atom_site_fract_x
 _atom_site_fract_y
 _atom_site_fract_z
 _atom_site_occupancy
  Nd  Nd0  1  0.089043  0.296155  0.123270  1
  Nd  Nd1  1  0.796155  0.410957  0.123270  1
  Nd  Nd2  1  0.203845  0.589043  0.123270  1
  Nd  Nd3  1  0.910957  0.703845  0.123270  1
  Nd  Nd4  1  0.410957  0.796155  0.376730  1
  Nd  Nd5  1  0.589043  0.203845  0.376730  1
  Nd  Nd6  1  0.296155  0.089043  0.376730  1
  Nd  Nd7  1  0.703845  0.910957  0.376730  1
  Nd  Nd8  1  0.410850  0.203933  0.878895  1
  Nd  Nd9  1  0.703933  0.089150  0.878895  1
  Nd  Nd10  1  0.296067  0.910850  0.878895  1
  Nd  Nd11  1  0.589150  0.796067  0.878895  1
  Nd  Nd12  1  0.089150  0.703933  0.621105  1
  Nd  Nd13  1  0.910850  0.296067  0.621105  1
  Nd  Nd14  1  0.203933  0.410850  0.621105  1
  Nd  Nd15  1  0.796067  0.589150  0.621105  1
  Nd  Nd16  1  0.000000  0.000000  0.000206  1
  Nd  Nd17  1  0.500000  0.500000  0.000206  1
  Nd  Nd18  1  0.500000  0.500000  0.499794  1
  Nd  Nd19  1  0.000000  0.000000  0.499794  1
  Ir  Ir20  1  0.500000  0.000000  0.622234  1
  Ir  Ir21  1  0.000000  0.500000  0.877766  1
  Ru  Ru22  1  0.000000  0.500000  0.377360  1
  Ru  Ru23  1  0.500000  0.000000  0.122640  1
  Pt  Pt24  1  0.153930  0.846070  0.250000  1
  Pt  Pt25  1  0.346070  0.346070  0.250000  1
  Pt  Pt26  1  0.653930  0.653930  0.250000  1
  Pt  Pt27  1  0.846070  0.153930  0.250000  1
  Pt  Pt28  1  0.346512  0.653488  0.750000  1
  Pt  Pt29  1  0.153488  0.153488  0.750000  1
  Pt  Pt30  1  0.846512  0.846512  0.750000  1
  Pt  Pt31  1  0.653488  0.346512  0.750000  1
