# generated using pymatgen
data_HoTm(GePt2)2
_symmetry_space_group_name_H-M   'P 1'
_cell_length_a   5.52517809
_cell_length_b   5.52517659
_cell_length_c   7.19417700
_cell_angle_alpha   90.00000000
_cell_angle_beta   90.00000000
_cell_angle_gamma   138.64925812
_symmetry_Int_Tables_number   1
_chemical_formula_structural   HoTm(GePt2)2
_chemical_formula_sum   'Ho1 Tm1 Ge2 Pt4'
_cell_volume   145.09618865
_cell_formula_units_Z   1
loop_
 _symmetry_equiv_pos_site_id
 _symmetry_equiv_pos_as_xyz
  1  'x, y, z'
loop_
 _atom_site_type_symbol
 _atom_site_label
 _atom_site_symmetry_multiplicity
 _atom_site_fract_x
 _atom_site_fract_y
 _atom_site_fract_z
 _atom_site_occupancy
  Ho  Ho0  1  0.049848  0.950150  0.750000  1
  Tm  Tm1  1  0.950373  0.049625  0.250000  1
  Ge  Ge2  1  0.232884  0.767114  0.250000  1
  Ge  Ge3  1  0.767139  0.232859  0.750000  1
  Pt  Pt4  1  0.635242  0.364756  0.051117  1
  Pt  Pt5  1  0.635242  0.364756  0.448883  1
  Pt  Pt6  1  0.364632  0.635366  0.550318  1
  Pt  Pt7  1  0.364632  0.635366  0.949681  1
