# generated using pymatgen
data_Hf6Al16CuNiIr5
_symmetry_space_group_name_H-M   'P 1'
_cell_length_a   8.63800100
_cell_length_b   8.69619375
_cell_length_c   8.63798691
_cell_angle_alpha   59.77698254
_cell_angle_beta   60.56351790
_cell_angle_gamma   59.77682638
_symmetry_Int_Tables_number   1
_chemical_formula_structural   Hf6Al16CuNiIr5
_chemical_formula_sum   'Hf6 Al16 Cu1 Ni1 Ir5'
_cell_volume   459.16631666
_cell_formula_units_Z   1
loop_
 _symmetry_equiv_pos_site_id
 _symmetry_equiv_pos_as_xyz
  1  'x, y, z'
loop_
 _atom_site_type_symbol
 _atom_site_label
 _atom_site_symmetry_multiplicity
 _atom_site_fract_x
 _atom_site_fract_y
 _atom_site_fract_z
 _atom_site_occupancy
  Hf  Hf0  1  0.693336  0.307306  0.306668  1
  Hf  Hf1  1  0.306664  0.692694  0.693332  1
  Hf  Hf2  1  0.328506  0.671504  0.328506  1
  Hf  Hf3  1  0.671494  0.328496  0.671494  1
  Hf  Hf4  1  0.306669  0.307306  0.693335  1
  Hf  Hf5  1  0.693331  0.692694  0.306665  1
  Al  Al6  1  0.338713  0.331217  0.338713  1
  Al  Al7  1  0.661287  0.668783  0.661287  1
  Al  Al8  1  0.327433  0.340836  0.990841  1
  Al  Al9  1  0.338682  0.991408  0.338682  1
  Al  Al10  1  0.672567  0.659164  0.009159  1
  Al  Al11  1  0.661318  0.008592  0.661318  1
  Al  Al12  1  0.990841  0.340836  0.327433  1
  Al  Al13  1  0.009159  0.659164  0.672567  1
  Al  Al14  1  0.121401  0.117547  0.121401  1
  Al  Al15  1  0.878599  0.882453  0.878599  1
  Al  Al16  1  0.109370  0.124971  0.640728  1
  Al  Al17  1  0.121408  0.639641  0.121408  1
  Al  Al18  1  0.890630  0.875029  0.359272  1
  Al  Al19  1  0.878592  0.360359  0.878592  1
  Al  Al20  1  0.640728  0.124971  0.109371  1
  Al  Al21  1  0.359272  0.875029  0.890629  1
  Cu  Cu22  1  0.500000  0.000000  0.500000  1
  Ni  Ni23  1  0.000000  0.500000  0.000000  1
  Ir  Ir24  1  0.500000  0.000000  0.000000  1
  Ir  Ir25  1  0.000000  0.500000  0.500000  1
  Ir  Ir26  1  0.000000  0.000000  0.500000  1
  Ir  Ir27  1  0.500000  0.500000  0.000000  1
  Ir  Ir28  1  0.000000  0.000000  0.000000  1
