# generated using pymatgen
data_CaAc6(SiSe7)2
_symmetry_space_group_name_H-M   'P 1'
_cell_length_a   11.10939500
_cell_length_b   11.10939463
_cell_length_c   6.20385500
_cell_angle_alpha   90.00000000
_cell_angle_beta   90.00000000
_cell_angle_gamma   120.00001003
_symmetry_Int_Tables_number   1
_chemical_formula_structural   CaAc6(SiSe7)2
_chemical_formula_sum   'Ca1 Ac6 Si2 Se14'
_cell_volume   663.09084114
_cell_formula_units_Z   1
loop_
 _symmetry_equiv_pos_site_id
 _symmetry_equiv_pos_as_xyz
  1  'x, y, z'
loop_
 _atom_site_type_symbol
 _atom_site_label
 _atom_site_symmetry_multiplicity
 _atom_site_fract_x
 _atom_site_fract_y
 _atom_site_fract_z
 _atom_site_occupancy
  Ca  Ca0  1  0.666667  0.333333  0.517269  1
  Ac  Ac1  1  0.305879  0.100320  0.756432  1
  Ac  Ac2  1  0.794442  0.694121  0.756432  1
  Ac  Ac3  1  0.899680  0.205558  0.756432  1
  Ac  Ac4  1  0.026660  0.565022  0.246096  1
  Ac  Ac5  1  0.538361  0.973340  0.246096  1
  Ac  Ac6  1  0.434978  0.461639  0.246096  1
  Si  Si7  1  0.000000  0.000000  0.168184  1
  Si  Si8  1  0.333333  0.666667  0.659838  1
  Se  Se9  1  0.000000  0.000000  0.534145  1
  Se  Se10  1  0.333333  0.666667  0.026642  1
  Se  Se11  1  0.141837  0.219230  0.028667  1
  Se  Se12  1  0.077392  0.858163  0.028667  1
  Se  Se13  1  0.780770  0.922608  0.028667  1
  Se  Se14  1  0.191685  0.447040  0.522087  1
  Se  Se15  1  0.255355  0.808315  0.522087  1
  Se  Se16  1  0.552960  0.744645  0.522087  1
  Se  Se17  1  0.411527  0.168346  0.271577  1
  Se  Se18  1  0.756821  0.588473  0.271577  1
  Se  Se19  1  0.831654  0.243179  0.271577  1
  Se  Se20  1  0.921034  0.499447  0.761130  1
  Se  Se21  1  0.578413  0.078966  0.761130  1
  Se  Se22  1  0.500553  0.421587  0.761130  1
