# generated using pymatgen
data_YbGe2IrRu
_symmetry_space_group_name_H-M   'P 1'
_cell_length_a   5.87223290
_cell_length_b   5.87223230
_cell_length_c   5.87223183
_cell_angle_alpha   137.70746060
_cell_angle_beta   137.70744606
_cell_angle_gamma   61.35134288
_symmetry_Int_Tables_number   1
_chemical_formula_structural   YbGe2IrRu
_chemical_formula_sum   'Yb1 Ge2 Ir1 Ru1'
_cell_volume   90.66006836
_cell_formula_units_Z   1
loop_
 _symmetry_equiv_pos_site_id
 _symmetry_equiv_pos_as_xyz
  1  'x, y, z'
loop_
 _atom_site_type_symbol
 _atom_site_label
 _atom_site_symmetry_multiplicity
 _atom_site_fract_x
 _atom_site_fract_y
 _atom_site_fract_z
 _atom_site_occupancy
  Yb  Yb0  1  0.000000  0.000000  0.000000  1
  Ge  Ge1  1  0.627879  0.627879  0.000000  1
  Ge  Ge2  1  0.372121  0.372121  0.000000  1
  Ir  Ir3  1  0.250000  0.750000  0.500000  1
  Ru  Ru4  1  0.750000  0.250000  0.500000  1
