# generated using pymatgen
data_Ho3Pa(SnPd2)2
_symmetry_space_group_name_H-M   'P 1'
_cell_length_a   7.78936097
_cell_length_b   7.78936097
_cell_length_c   3.64764200
_cell_angle_alpha   90.00000000
_cell_angle_beta   90.00000000
_cell_angle_gamma   88.51850226
_symmetry_Int_Tables_number   1
_chemical_formula_structural   Ho3Pa(SnPd2)2
_chemical_formula_sum   'Ho3 Pa1 Sn2 Pd4'
_cell_volume   221.24357658
_cell_formula_units_Z   1
loop_
 _symmetry_equiv_pos_site_id
 _symmetry_equiv_pos_as_xyz
  1  'x, y, z'
loop_
 _atom_site_type_symbol
 _atom_site_label
 _atom_site_symmetry_multiplicity
 _atom_site_fract_x
 _atom_site_fract_y
 _atom_site_fract_z
 _atom_site_occupancy
  Ho  Ho0  1  0.827231  0.328950  0.500000  1
  Ho  Ho1  1  0.171050  0.672769  0.500000  1
  Ho  Ho2  1  0.675152  0.824848  0.500000  1
  Pa  Pa3  1  0.329501  0.170499  0.500000  1
  Sn  Sn4  1  0.995476  0.997387  0.000000  1
  Sn  Sn5  1  0.502612  0.504523  0.000000  1
  Pd  Pd6  1  0.620288  0.131332  0.000000  1
  Pd  Pd7  1  0.134549  0.365450  0.000000  1
  Pd  Pd8  1  0.875472  0.624529  0.000000  1
  Pd  Pd9  1  0.368667  0.879713  0.000000  1
