# generated using pymatgen
data_CaZrBr6
_symmetry_space_group_name_H-M   'P 1'
_cell_length_a   8.54485458
_cell_length_b   8.53972881
_cell_length_c   8.54739791
_cell_angle_alpha   49.92676370
_cell_angle_beta   49.93629760
_cell_angle_gamma   49.90674579
_symmetry_Int_Tables_number   1
_chemical_formula_structural   CaZrBr6
_chemical_formula_sum   'Ca1 Zr1 Br6'
_cell_volume   336.01080765
_cell_formula_units_Z   1
loop_
 _symmetry_equiv_pos_site_id
 _symmetry_equiv_pos_as_xyz
  1  'x, y, z'
loop_
 _atom_site_type_symbol
 _atom_site_label
 _atom_site_symmetry_multiplicity
 _atom_site_fract_x
 _atom_site_fract_y
 _atom_site_fract_z
 _atom_site_occupancy
  Ca  Ca0  1  0.333420  0.333601  0.333063  1
  Zr  Zr1  1  0.666722  0.666610  0.666811  1
  Br  Br2  1  0.044496  0.449084  0.717159  1
  Br  Br3  1  0.309174  0.903911  0.575962  1
  Br  Br4  1  0.449286  0.717662  0.044061  1
  Br  Br5  1  0.576157  0.308868  0.903928  1
  Br  Br6  1  0.717011  0.044591  0.449525  1
  Br  Br7  1  0.903734  0.575672  0.309493  1
