# generated using pymatgen
data_Dy8Sc12Si7Ge9
_symmetry_space_group_name_H-M   'P 1'
_cell_length_a   7.17975280
_cell_length_b   7.42029283
_cell_length_c   14.06828500
_cell_angle_alpha   90.00000000
_cell_angle_beta   90.00000000
_cell_angle_gamma   90.25584722
_symmetry_Int_Tables_number   1
_chemical_formula_structural   Dy8Sc12Si7Ge9
_chemical_formula_sum   'Dy8 Sc12 Si7 Ge9'
_cell_volume   749.49262497
_cell_formula_units_Z   1
loop_
 _symmetry_equiv_pos_site_id
 _symmetry_equiv_pos_as_xyz
  1  'x, y, z'
loop_
 _atom_site_type_symbol
 _atom_site_label
 _atom_site_symmetry_multiplicity
 _atom_site_fract_x
 _atom_site_fract_y
 _atom_site_fract_z
 _atom_site_occupancy
  Dy  Dy0  1  0.003812  0.177441  0.098539  1
  Dy  Dy1  1  0.997015  0.820853  0.901817  1
  Dy  Dy2  1  0.496886  0.676687  0.901915  1
  Dy  Dy3  1  0.997015  0.820853  0.598183  1
  Dy  Dy4  1  0.503227  0.322863  0.098686  1
  Dy  Dy5  1  0.003812  0.177441  0.401461  1
  Dy  Dy6  1  0.503227  0.322863  0.401314  1
  Dy  Dy7  1  0.496886  0.676687  0.598085  1
  Sc  Sc8  1  0.172067  0.502988  0.750000  1
  Sc  Sc9  1  0.828375  0.499004  0.250000  1
  Sc  Sc10  1  0.328592  0.000888  0.250000  1
  Sc  Sc11  1  0.668725  0.998342  0.750000  1
  Sc  Sc12  1  0.342913  0.172499  0.626526  1
  Sc  Sc13  1  0.658766  0.827599  0.373177  1
  Sc  Sc14  1  0.158983  0.672020  0.373597  1
  Sc  Sc15  1  0.658766  0.827599  0.126823  1
  Sc  Sc16  1  0.838224  0.330457  0.624836  1
  Sc  Sc17  1  0.342913  0.172499  0.873474  1
  Sc  Sc18  1  0.838224  0.330457  0.875164  1
  Sc  Sc19  1  0.158983  0.672020  0.126403  1
  Si  Si20  1  0.957376  0.883189  0.250000  1
  Si  Si21  1  0.456301  0.616988  0.250000  1
  Si  Si22  1  0.543337  0.382205  0.750000  1
  Si  Si23  1  0.298485  0.868030  0.750000  1
  Si  Si24  1  0.705447  0.128184  0.250000  1
  Si  Si25  1  0.205152  0.372159  0.250000  1
  Si  Si26  1  0.795590  0.628346  0.750000  1
  Ge  Ge27  1  0.039106  0.120568  0.750000  1
  Ge  Ge28  1  0.175522  0.459661  0.540782  1
  Ge  Ge29  1  0.824659  0.539976  0.458413  1
  Ge  Ge30  1  0.325442  0.960240  0.459594  1
  Ge  Ge31  1  0.824659  0.539976  0.041587  1
  Ge  Ge32  1  0.675276  0.039257  0.540284  1
  Ge  Ge33  1  0.175522  0.459661  0.959218  1
  Ge  Ge34  1  0.675276  0.039257  0.959716  1
  Ge  Ge35  1  0.325442  0.960240  0.040406  1
