# generated using pymatgen
data_YEr2(Al3Os)4
_symmetry_space_group_name_H-M   'P 1'
_cell_length_a   8.81097100
_cell_length_b   8.80953047
_cell_length_c   9.58012600
_cell_angle_alpha   90.00000000
_cell_angle_beta   90.00000000
_cell_angle_gamma   120.00541309
_symmetry_Int_Tables_number   1
_chemical_formula_structural   YEr2(Al3Os)4
_chemical_formula_sum   'Y2 Er4 Al24 Os8'
_cell_volume   643.95377709
_cell_formula_units_Z   2
loop_
 _symmetry_equiv_pos_site_id
 _symmetry_equiv_pos_as_xyz
  1  'x, y, z'
loop_
 _atom_site_type_symbol
 _atom_site_label
 _atom_site_symmetry_multiplicity
 _atom_site_fract_x
 _atom_site_fract_y
 _atom_site_fract_z
 _atom_site_occupancy
  Y  Y0  1  0.193245  0.386492  0.250000  1
  Y  Y1  1  0.806755  0.613508  0.750000  1
  Er  Er2  1  0.611675  0.805999  0.250000  1
  Er  Er3  1  0.388325  0.194001  0.750000  1
  Er  Er4  1  0.194323  0.805999  0.250000  1
  Er  Er5  1  0.805677  0.194001  0.750000  1
  Al  Al6  1  0.333428  0.666857  0.017115  1
  Al  Al7  1  0.666572  0.333143  0.982885  1
  Al  Al8  1  0.666572  0.333143  0.517115  1
  Al  Al9  1  0.333428  0.666857  0.482885  1
  Al  Al10  1  0.163499  0.326997  0.575983  1
  Al  Al11  1  0.836501  0.673003  0.424017  1
  Al  Al12  1  0.672837  0.836411  0.574707  1
  Al  Al13  1  0.836501  0.673003  0.075983  1
  Al  Al14  1  0.327163  0.163589  0.425293  1
  Al  Al15  1  0.163499  0.326997  0.924017  1
  Al  Al16  1  0.163574  0.836411  0.574707  1
  Al  Al17  1  0.327163  0.163589  0.074707  1
  Al  Al18  1  0.836426  0.163589  0.425293  1
  Al  Al19  1  0.672837  0.836411  0.925293  1
  Al  Al20  1  0.836426  0.163589  0.074707  1
  Al  Al21  1  0.163574  0.836411  0.925293  1
  Al  Al22  1  0.561095  0.122191  0.250000  1
  Al  Al23  1  0.438905  0.877809  0.750000  1
  Al  Al24  1  0.877506  0.439274  0.250000  1
  Al  Al25  1  0.122494  0.560726  0.750000  1
  Al  Al26  1  0.561769  0.439274  0.250000  1
  Al  Al27  1  0.438231  0.560726  0.750000  1
  Al  Al28  1  0.999221  0.998443  0.250000  1
  Al  Al29  1  0.000779  0.001557  0.750000  1
  Os  Os30  1  0.500000  0.000000  0.000000  1
  Os  Os31  1  0.000000  0.500000  0.000000  1
  Os  Os32  1  0.500000  0.000000  0.500000  1
  Os  Os33  1  0.500000  0.500000  0.000000  1
  Os  Os34  1  0.000000  0.500000  0.500000  1
  Os  Os35  1  0.500000  0.500000  0.500000  1
  Os  Os36  1  0.000000  0.000000  0.000000  1
  Os  Os37  1  0.000000  0.000000  0.500000  1
