# generated using pymatgen
data_LaNd15AlCd3Ir4
_symmetry_space_group_name_H-M   'P 1'
_cell_length_a   9.96822380
_cell_length_b   9.96822307
_cell_length_c   9.96822425
_cell_angle_alpha   59.85683354
_cell_angle_beta   59.85683124
_cell_angle_gamma   59.85683477
_symmetry_Int_Tables_number   1
_chemical_formula_structural   LaNd15AlCd3Ir4
_chemical_formula_sum   'La1 Nd15 Al1 Cd3 Ir4'
_cell_volume   698.11194717
_cell_formula_units_Z   1
loop_
 _symmetry_equiv_pos_site_id
 _symmetry_equiv_pos_as_xyz
  1  'x, y, z'
loop_
 _atom_site_type_symbol
 _atom_site_label
 _atom_site_symmetry_multiplicity
 _atom_site_fract_x
 _atom_site_fract_y
 _atom_site_fract_z
 _atom_site_occupancy
  La  La0  1  0.346493  0.346493  0.346493  1
  Nd  Nd1  1  0.350465  0.350465  0.950609  1
  Nd  Nd2  1  0.350465  0.950609  0.350465  1
  Nd  Nd3  1  0.950609  0.350465  0.350465  1
  Nd  Nd4  1  0.810685  0.189676  0.189676  1
  Nd  Nd5  1  0.191885  0.807133  0.807133  1
  Nd  Nd6  1  0.189676  0.810685  0.189676  1
  Nd  Nd7  1  0.807133  0.191885  0.807133  1
  Nd  Nd8  1  0.189676  0.189676  0.810685  1
  Nd  Nd9  1  0.807133  0.807133  0.191885  1
  Nd  Nd10  1  0.936763  0.562510  0.562510  1
  Nd  Nd11  1  0.560292  0.939418  0.939418  1
  Nd  Nd12  1  0.562510  0.936763  0.562510  1
  Nd  Nd13  1  0.939418  0.560292  0.939418  1
  Nd  Nd14  1  0.562510  0.562510  0.936763  1
  Nd  Nd15  1  0.939418  0.939418  0.560292  1
  Al  Al16  1  0.579926  0.579926  0.579926  1
  Cd  Cd17  1  0.580702  0.580702  0.262655  1
  Cd  Cd18  1  0.580702  0.262655  0.580702  1
  Cd  Cd19  1  0.262655  0.580702  0.580702  1
  Ir  Ir20  1  0.141903  0.141903  0.141903  1
  Ir  Ir21  1  0.141886  0.141886  0.575207  1
  Ir  Ir22  1  0.141886  0.575207  0.141886  1
  Ir  Ir23  1  0.575207  0.141886  0.141886  1
