# generated using pymatgen
data_La5Er(In4Te)2
_symmetry_space_group_name_H-M   'P 1'
_cell_length_a   8.57426828
_cell_length_b   8.57426673
_cell_length_c   8.57426800
_cell_angle_alpha   119.23132296
_cell_angle_beta   119.23132482
_cell_angle_gamma   91.33662931
_symmetry_Int_Tables_number   1
_chemical_formula_structural   La5Er(In4Te)2
_chemical_formula_sum   'La5 Er1 In8 Te2'
_cell_volume   450.78036052
_cell_formula_units_Z   1
loop_
 _symmetry_equiv_pos_site_id
 _symmetry_equiv_pos_as_xyz
  1  'x, y, z'
loop_
 _atom_site_type_symbol
 _atom_site_label
 _atom_site_symmetry_multiplicity
 _atom_site_fract_x
 _atom_site_fract_y
 _atom_site_fract_z
 _atom_site_occupancy
  La  La0  1  0.249972  0.250019  0.000006  1
  La  La1  1  0.658967  0.158960  0.817860  1
  La  La2  1  0.341027  0.841041  0.182160  1
  La  La3  1  0.159142  0.340872  0.500018  1
  La  La4  1  0.840889  0.659128  0.499987  1
  Er  Er5  1  0.749991  0.750007  0.999997  1
  In  In6  1  0.334430  0.831895  0.791482  1
  In  In7  1  0.668092  0.165577  0.208512  1
  In  In8  1  0.040405  0.542906  0.208500  1
  In  In9  1  0.832030  0.040229  0.497505  1
  In  In10  1  0.459777  0.667976  0.502507  1
  In  In11  1  0.957102  0.459590  0.791495  1
  In  In12  1  0.165446  0.957262  0.497447  1
  In  In13  1  0.542729  0.334543  0.502530  1
  Te  Te14  1  0.506307  0.506304  0.999990  1
  Te  Te15  1  0.993695  0.993690  0.000005  1
