# generated using pymatgen
data_Y6Ga7Pd17
_symmetry_space_group_name_H-M   'P 1'
_cell_length_a   9.06498985
_cell_length_b   9.06535799
_cell_length_c   9.06504200
_cell_angle_alpha   59.99935042
_cell_angle_beta   59.99769315
_cell_angle_gamma   59.99679172
_symmetry_Int_Tables_number   1
_chemical_formula_structural   Y6Ga7Pd17
_chemical_formula_sum   'Y6 Ga7 Pd17'
_cell_volume   526.72856221
_cell_formula_units_Z   1
loop_
 _symmetry_equiv_pos_site_id
 _symmetry_equiv_pos_as_xyz
  1  'x, y, z'
loop_
 _atom_site_type_symbol
 _atom_site_label
 _atom_site_symmetry_multiplicity
 _atom_site_fract_x
 _atom_site_fract_y
 _atom_site_fract_z
 _atom_site_occupancy
  Y  Y0  1  0.720244  0.279730  0.279733  1
  Y  Y1  1  0.279756  0.720270  0.720267  1
  Y  Y2  1  0.279761  0.720263  0.279720  1
  Y  Y3  1  0.720239  0.279737  0.720280  1
  Y  Y4  1  0.279761  0.279715  0.720262  1
  Y  Y5  1  0.720239  0.720285  0.279738  1
  Ga  Ga6  1  0.000000  0.000000  0.000000  1
  Ga  Ga7  1  0.500000  0.000000  0.000000  1
  Ga  Ga8  1  0.000000  0.500000  0.500000  1
  Ga  Ga9  1  0.000000  0.500000  0.000000  1
  Ga  Ga10  1  0.500000  0.000000  0.500000  1
  Ga  Ga11  1  0.000000  0.000000  0.500000  1
  Ga  Ga12  1  0.500000  0.500000  0.000000  1
  Pd  Pd13  1  0.119204  0.119236  0.119240  1
  Pd  Pd14  1  0.880796  0.880764  0.880760  1
  Pd  Pd15  1  0.119211  0.119231  0.642345  1
  Pd  Pd16  1  0.119213  0.642320  0.119245  1
  Pd  Pd17  1  0.880789  0.880769  0.357655  1
  Pd  Pd18  1  0.880787  0.357680  0.880755  1
  Pd  Pd19  1  0.642394  0.119209  0.119212  1
  Pd  Pd20  1  0.357606  0.880791  0.880788  1
  Pd  Pd21  1  0.333673  0.333640  0.333645  1
  Pd  Pd22  1  0.666327  0.666360  0.666355  1
  Pd  Pd23  1  0.333670  0.333661  0.999010  1
  Pd  Pd24  1  0.333672  0.999022  0.333654  1
  Pd  Pd25  1  0.666330  0.666339  0.000990  1
  Pd  Pd26  1  0.666328  0.000978  0.666346  1
  Pd  Pd27  1  0.999069  0.333644  0.333634  1
  Pd  Pd28  1  0.000931  0.666356  0.666366  1
  Pd  Pd29  1  0.500000  0.500000  0.500000  1
