# generated using pymatgen
data_Eu10Hg3Rh
_symmetry_space_group_name_H-M   'P 1'
_cell_length_a   10.33319900
_cell_length_b   10.33319889
_cell_length_c   10.37171000
_cell_angle_alpha   90.00000000
_cell_angle_beta   90.00000000
_cell_angle_gamma   119.99999715
_symmetry_Int_Tables_number   1
_chemical_formula_structural   Eu10Hg3Rh
_chemical_formula_sum   'Eu20 Hg6 Rh2'
_cell_volume   959.07062915
_cell_formula_units_Z   2
loop_
 _symmetry_equiv_pos_site_id
 _symmetry_equiv_pos_as_xyz
  1  'x, y, z'
loop_
 _atom_site_type_symbol
 _atom_site_label
 _atom_site_symmetry_multiplicity
 _atom_site_fract_x
 _atom_site_fract_y
 _atom_site_fract_z
 _atom_site_occupancy
  Eu  Eu0  1  0.000000  0.000000  0.500000  1
  Eu  Eu1  1  0.000000  0.000000  0.000000  1
  Eu  Eu2  1  0.540863  0.459137  0.250000  1
  Eu  Eu3  1  0.540863  0.081727  0.250000  1
  Eu  Eu4  1  0.918273  0.459137  0.250000  1
  Eu  Eu5  1  0.459137  0.540863  0.750000  1
  Eu  Eu6  1  0.459137  0.918273  0.750000  1
  Eu  Eu7  1  0.081727  0.540863  0.750000  1
  Eu  Eu8  1  0.207483  0.792517  0.435232  1
  Eu  Eu9  1  0.207483  0.414966  0.435232  1
  Eu  Eu10  1  0.585034  0.792517  0.435232  1
  Eu  Eu11  1  0.792517  0.207483  0.564768  1
  Eu  Eu12  1  0.792517  0.585034  0.564768  1
  Eu  Eu13  1  0.414966  0.207483  0.564768  1
  Eu  Eu14  1  0.792517  0.207483  0.935232  1
  Eu  Eu15  1  0.792517  0.585034  0.935232  1
  Eu  Eu16  1  0.414966  0.207483  0.935232  1
  Eu  Eu17  1  0.207483  0.792517  0.064768  1
  Eu  Eu18  1  0.207483  0.414966  0.064768  1
  Eu  Eu19  1  0.585034  0.792517  0.064768  1
  Hg  Hg20  1  0.878561  0.121439  0.250000  1
  Hg  Hg21  1  0.878561  0.757123  0.250000  1
  Hg  Hg22  1  0.242877  0.121439  0.250000  1
  Hg  Hg23  1  0.121439  0.878561  0.750000  1
  Hg  Hg24  1  0.121439  0.242877  0.750000  1
  Hg  Hg25  1  0.757123  0.878561  0.750000  1
  Rh  Rh26  1  0.333333  0.666667  0.250000  1
  Rh  Rh27  1  0.666667  0.333333  0.750000  1
