# generated using pymatgen
data_CaDySi7Rh12
_symmetry_space_group_name_H-M   'P 1'
_cell_length_a   9.76285500
_cell_length_b   9.76285487
_cell_length_c   3.85631800
_cell_angle_alpha   90.00000000
_cell_angle_beta   90.00000000
_cell_angle_gamma   120.00000384
_symmetry_Int_Tables_number   1
_chemical_formula_structural   CaDySi7Rh12
_chemical_formula_sum   'Ca1 Dy1 Si7 Rh12'
_cell_volume   318.31501633
_cell_formula_units_Z   1
loop_
 _symmetry_equiv_pos_site_id
 _symmetry_equiv_pos_as_xyz
  1  'x, y, z'
loop_
 _atom_site_type_symbol
 _atom_site_label
 _atom_site_symmetry_multiplicity
 _atom_site_fract_x
 _atom_site_fract_y
 _atom_site_fract_z
 _atom_site_occupancy
  Ca  Ca0  1  0.333333  0.666667  0.748898  1
  Dy  Dy1  1  0.666667  0.333333  0.250688  1
  Si  Si2  1  0.000000  0.000000  0.500159  1
  Si  Si3  1  0.399834  0.290648  0.750734  1
  Si  Si4  1  0.709352  0.109187  0.750734  1
  Si  Si5  1  0.890813  0.600166  0.750734  1
  Si  Si6  1  0.600233  0.710689  0.249288  1
  Si  Si7  1  0.289311  0.889544  0.249288  1
  Si  Si8  1  0.110456  0.399767  0.249288  1
  Rh  Rh9  1  0.443775  0.064158  0.752112  1
  Rh  Rh10  1  0.935842  0.379617  0.752112  1
  Rh  Rh11  1  0.620383  0.556225  0.752112  1
  Rh  Rh12  1  0.557149  0.938768  0.247981  1
  Rh  Rh13  1  0.061232  0.618381  0.247981  1
  Rh  Rh14  1  0.381619  0.442851  0.247981  1
  Rh  Rh15  1  0.142163  0.260724  0.744399  1
  Rh  Rh16  1  0.739276  0.881440  0.744399  1
  Rh  Rh17  1  0.118560  0.857837  0.744399  1
  Rh  Rh18  1  0.856636  0.738453  0.255570  1
  Rh  Rh19  1  0.261547  0.118182  0.255570  1
  Rh  Rh20  1  0.881818  0.143364  0.255570  1
