# generated using pymatgen
data_La3Cr2(ReN4)3
_symmetry_space_group_name_H-M   'P 1'
_cell_length_a   11.18016006
_cell_length_b   11.18016049
_cell_length_c   11.18016100
_cell_angle_alpha   109.47121974
_cell_angle_beta   109.47122052
_cell_angle_gamma   109.47121996
_symmetry_Int_Tables_number   1
_chemical_formula_structural   La3Cr2(ReN4)3
_chemical_formula_sum   'La12 Cr8 Re12 N48'
_cell_volume   1075.77695102
_cell_formula_units_Z   4
loop_
 _symmetry_equiv_pos_site_id
 _symmetry_equiv_pos_as_xyz
  1  'x, y, z'
loop_
 _atom_site_type_symbol
 _atom_site_label
 _atom_site_symmetry_multiplicity
 _atom_site_fract_x
 _atom_site_fract_y
 _atom_site_fract_z
 _atom_site_occupancy
  La  La0  1  0.250000  0.375000  0.125000  1
  La  La1  1  0.375000  0.750000  0.124999  1
  La  La2  1  0.375000  0.125000  0.250000  1
  La  La3  1  0.875000  0.625000  0.250000  1
  La  La4  1  0.750000  0.124999  0.375000  1
  La  La5  1  0.125000  0.250000  0.375000  1
  La  La6  1  0.875000  0.750000  0.625000  1
  La  La7  1  0.250000  0.875000  0.625000  1
  La  La8  1  0.124999  0.375000  0.750000  1
  La  La9  1  0.625000  0.875000  0.750000  1
  La  La10  1  0.625000  0.250000  0.875000  1
  La  La11  1  0.750000  0.625000  0.875000  1
  Cr  Cr12  1  0.000000  0.000000  0.000000  1
  Cr  Cr13  1  0.499999  0.000000  0.000000  1
  Cr  Cr14  1  0.000000  0.499999  0.000000  1
  Cr  Cr15  1  0.500000  0.500000  0.000000  1
  Cr  Cr16  1  0.000000  0.000000  0.499999  1
  Cr  Cr17  1  0.500000  0.000000  0.500000  1
  Cr  Cr18  1  0.000000  0.500000  0.500000  1
  Cr  Cr19  1  0.499999  0.499999  0.499999  1
  Re  Re20  1  0.875000  0.250000  0.125000  1
  Re  Re21  1  0.750000  0.875000  0.125000  1
  Re  Re22  1  0.625000  0.375000  0.250000  1
  Re  Re23  1  0.125000  0.875000  0.250000  1
  Re  Re24  1  0.250000  0.625000  0.375000  1
  Re  Re25  1  0.625000  0.750000  0.375000  1
  Re  Re26  1  0.375000  0.250000  0.625000  1
  Re  Re27  1  0.750000  0.375000  0.625000  1
  Re  Re28  1  0.875000  0.125000  0.750000  1
  Re  Re29  1  0.375000  0.625000  0.750000  1
  Re  Re30  1  0.250000  0.125000  0.875000  1
  Re  Re31  1  0.125000  0.750000  0.875000  1
  N  N32  1  0.315719  0.894550  0.008546  1
  N  N33  1  0.192826  0.113995  0.008545  1
  N  N34  1  0.886004  0.394550  0.078831  1
  N  N35  1  0.692827  0.684281  0.078831  1
  N  N36  1  0.991454  0.684281  0.105450  1
  N  N37  1  0.613995  0.421169  0.105450  1
  N  N38  1  0.605450  0.921169  0.113996  1
  N  N39  1  0.008545  0.192826  0.113995  1
  N  N40  1  0.192827  0.578832  0.184281  1
  N  N41  1  0.491454  0.605449  0.184281  1
  N  N42  1  0.578832  0.184281  0.192827  1
  N  N43  1  0.113995  0.008545  0.192826  1
  N  N44  1  0.491454  0.386004  0.307173  1
  N  N45  1  0.315719  0.921168  0.307173  1
  N  N46  1  0.894550  0.008546  0.315719  1
  N  N47  1  0.921168  0.307173  0.315719  1
  N  N48  1  0.307173  0.491454  0.386004  1
  N  N49  1  0.578832  0.894550  0.386004  1
  N  N50  1  0.815718  0.508545  0.394549  1
  N  N51  1  0.078831  0.886004  0.394550  1
  N  N52  1  0.105450  0.613995  0.421169  1
  N  N53  1  0.815719  0.807173  0.421169  1
  N  N54  1  0.605449  0.184281  0.491454  1
  N  N55  1  0.386004  0.307173  0.491454  1
  N  N56  1  0.613996  0.692827  0.508546  1
  N  N57  1  0.394549  0.815718  0.508545  1
  N  N58  1  0.184281  0.192827  0.578832  1
  N  N59  1  0.894550  0.386004  0.578832  1
  N  N60  1  0.921169  0.113996  0.605450  1
  N  N61  1  0.184281  0.491454  0.605449  1
  N  N62  1  0.421169  0.105450  0.613995  1
  N  N63  1  0.692827  0.508546  0.613996  1
  N  N64  1  0.078831  0.692827  0.684281  1
  N  N65  1  0.105450  0.991454  0.684281  1
  N  N66  1  0.684281  0.078831  0.692827  1
  N  N67  1  0.508546  0.613996  0.692827  1
  N  N68  1  0.886004  0.991453  0.807172  1
  N  N69  1  0.421169  0.815719  0.807173  1
  N  N70  1  0.508545  0.394549  0.815718  1
  N  N71  1  0.807173  0.421169  0.815719  1
  N  N72  1  0.394550  0.078831  0.886004  1
  N  N73  1  0.991453  0.807172  0.886004  1
  N  N74  1  0.386004  0.578832  0.894550  1
  N  N75  1  0.008546  0.315719  0.894550  1
  N  N76  1  0.307173  0.315719  0.921168  1
  N  N77  1  0.113996  0.605450  0.921169  1
  N  N78  1  0.684281  0.105450  0.991454  1
  N  N79  1  0.807172  0.886004  0.991453  1
