# generated using pymatgen
data_ErTm2(LuIn2)2
_symmetry_space_group_name_H-M   'P 1'
_cell_length_a   9.14231400
_cell_length_b   9.14998061
_cell_length_c   6.59443200
_cell_angle_alpha   90.00000000
_cell_angle_beta   90.00000000
_cell_angle_gamma   119.97229416
_symmetry_Int_Tables_number   1
_chemical_formula_structural   ErTm2(LuIn2)2
_chemical_formula_sum   'Er2 Tm4 Lu4 In8'
_cell_volume   477.86531903
_cell_formula_units_Z   2
loop_
 _symmetry_equiv_pos_site_id
 _symmetry_equiv_pos_as_xyz
  1  'x, y, z'
loop_
 _atom_site_type_symbol
 _atom_site_label
 _atom_site_symmetry_multiplicity
 _atom_site_fract_x
 _atom_site_fract_y
 _atom_site_fract_z
 _atom_site_occupancy
  Er  Er0  1  0.289957  0.000000  0.750000  1
  Er  Er1  1  0.710043  0.000000  0.250000  1
  Tm  Tm2  1  0.000025  0.289918  0.750000  1
  Tm  Tm3  1  0.999975  0.710082  0.250000  1
  Tm  Tm4  1  0.710107  0.710082  0.750000  1
  Tm  Tm5  1  0.289893  0.289918  0.250000  1
  Lu  Lu6  1  0.333217  0.666435  0.500000  1
  Lu  Lu7  1  0.666783  0.333565  0.500000  1
  Lu  Lu8  1  0.666783  0.333565  0.000000  1
  Lu  Lu9  1  0.333217  0.666435  0.000000  1
  In  In10  1  0.000000  0.000000  0.500000  1
  In  In11  1  0.000000  0.000000  0.000000  1
  In  In12  1  0.628234  0.000000  0.750000  1
  In  In13  1  0.371766  0.000000  0.250000  1
  In  In14  1  0.999821  0.627654  0.750000  1
  In  In15  1  0.000179  0.372346  0.250000  1
  In  In16  1  0.372167  0.372346  0.750000  1
  In  In17  1  0.627833  0.627654  0.250000  1
