# generated using pymatgen
data_EuZn24Cu2Pb
_symmetry_space_group_name_H-M   'P 1'
_cell_length_a   8.66598821
_cell_length_b   8.66598828
_cell_length_c   8.66598700
_cell_angle_alpha   60.00000105
_cell_angle_beta   60.00000080
_cell_angle_gamma   60.00000299
_symmetry_Int_Tables_number   1
_chemical_formula_structural   EuZn24Cu2Pb
_chemical_formula_sum   'Eu1 Zn24 Cu2 Pb1'
_cell_volume   460.19218833
_cell_formula_units_Z   1
loop_
 _symmetry_equiv_pos_site_id
 _symmetry_equiv_pos_as_xyz
  1  'x, y, z'
loop_
 _atom_site_type_symbol
 _atom_site_label
 _atom_site_symmetry_multiplicity
 _atom_site_fract_x
 _atom_site_fract_y
 _atom_site_fract_z
 _atom_site_occupancy
  Eu  Eu0  1  0.750000  0.750000  0.750000  1
  Zn  Zn1  1  0.057300  0.298108  0.703676  1
  Zn  Zn2  1  0.940917  0.703676  0.298108  1
  Zn  Zn3  1  0.559083  0.796324  0.442700  1
  Zn  Zn4  1  0.201892  0.442700  0.796324  1
  Zn  Zn5  1  0.057300  0.940917  0.298108  1
  Zn  Zn6  1  0.442700  0.559083  0.796324  1
  Zn  Zn7  1  0.940917  0.298108  0.057300  1
  Zn  Zn8  1  0.442700  0.796324  0.201892  1
  Zn  Zn9  1  0.201892  0.796324  0.559083  1
  Zn  Zn10  1  0.298108  0.057300  0.940917  1
  Zn  Zn11  1  0.298108  0.703676  0.057300  1
  Zn  Zn12  1  0.703676  0.940917  0.057300  1
  Zn  Zn13  1  0.796324  0.559083  0.201892  1
  Zn  Zn14  1  0.559083  0.201892  0.796324  1
  Zn  Zn15  1  0.940917  0.057300  0.703676  1
  Zn  Zn16  1  0.796324  0.201892  0.442700  1
  Zn  Zn17  1  0.703676  0.298108  0.940917  1
  Zn  Zn18  1  0.703676  0.057300  0.298108  1
  Zn  Zn19  1  0.298108  0.940917  0.703676  1
  Zn  Zn20  1  0.559083  0.442700  0.201892  1
  Zn  Zn21  1  0.057300  0.703676  0.940917  1
  Zn  Zn22  1  0.442700  0.201892  0.559083  1
  Zn  Zn23  1  0.796324  0.442700  0.559083  1
  Zn  Zn24  1  0.201892  0.559083  0.442700  1
  Cu  Cu25  1  0.500000  0.500000  0.500000  1
  Cu  Cu26  1  0.000000  0.000000  0.000000  1
  Pb  Pb27  1  0.250000  0.250000  0.250000  1
