# generated using pymatgen
data_Mg4As6Ir4Ru3
_symmetry_space_group_name_H-M   'P 1'
_cell_length_a   7.05902229
_cell_length_b   7.06439021
_cell_length_c   7.06439044
_cell_angle_alpha   109.43089677
_cell_angle_beta   109.50681359
_cell_angle_gamma   109.50680472
_symmetry_Int_Tables_number   1
_chemical_formula_structural   Mg4As6Ir4Ru3
_chemical_formula_sum   'Mg4 As6 Ir4 Ru3'
_cell_volume   271.08555075
_cell_formula_units_Z   1
loop_
 _symmetry_equiv_pos_site_id
 _symmetry_equiv_pos_as_xyz
  1  'x, y, z'
loop_
 _atom_site_type_symbol
 _atom_site_label
 _atom_site_symmetry_multiplicity
 _atom_site_fract_x
 _atom_site_fract_y
 _atom_site_fract_z
 _atom_site_occupancy
  Mg  Mg0  1  0.000000  0.000079  0.499942  1
  Mg  Mg1  1  0.500000  0.000001  0.999999  1
  Mg  Mg2  1  0.000000  0.500058  0.999921  1
  Mg  Mg3  1  0.500000  0.500001  0.499999  1
  As  As4  1  0.686199  0.689583  0.996617  1
  As  As5  1  0.306977  0.310240  0.996737  1
  As  As6  1  0.000000  0.685518  0.691682  1
  As  As7  1  0.000000  0.308318  0.314482  1
  As  As8  1  0.693023  0.003263  0.689760  1
  As  As9  1  0.313801  0.003383  0.310417  1
  Ir  Ir10  1  0.500000  0.250013  0.749987  1
  Ir  Ir11  1  0.500000  0.750013  0.249987  1
  Ir  Ir12  1  0.749846  0.500175  0.249671  1
  Ir  Ir13  1  0.250154  0.750329  0.499825  1
  Ru  Ru14  1  0.000000  0.999764  0.000236  1
  Ru  Ru15  1  0.250433  0.499846  0.750587  1
  Ru  Ru16  1  0.749567  0.249413  0.500154  1
