# generated using pymatgen
data_TbEr3(TiIr)4
_symmetry_space_group_name_H-M   'P 1'
_cell_length_a   4.33406800
_cell_length_b   6.90129565
_cell_length_c   8.11907714
_cell_angle_alpha   89.81648025
_cell_angle_beta   90.00000000
_cell_angle_gamma   90.00000000
_symmetry_Int_Tables_number   1
_chemical_formula_structural   TbEr3(TiIr)4
_chemical_formula_sum   'Tb1 Er3 Ti4 Ir4'
_cell_volume   242.84591007
_cell_formula_units_Z   1
loop_
 _symmetry_equiv_pos_site_id
 _symmetry_equiv_pos_as_xyz
  1  'x, y, z'
loop_
 _atom_site_type_symbol
 _atom_site_label
 _atom_site_symmetry_multiplicity
 _atom_site_fract_x
 _atom_site_fract_y
 _atom_site_fract_z
 _atom_site_occupancy
  Tb  Tb0  1  0.250000  0.985189  0.317819  1
  Er  Er1  1  0.250000  0.483620  0.181357  1
  Er  Er2  1  0.750000  0.016417  0.682896  1
  Er  Er3  1  0.750000  0.516075  0.818211  1
  Ti  Ti4  1  0.250000  0.360842  0.568652  1
  Ti  Ti5  1  0.250000  0.859681  0.931429  1
  Ti  Ti6  1  0.750000  0.638977  0.433887  1
  Ti  Ti7  1  0.750000  0.139079  0.064576  1
  Ir  Ir8  1  0.250000  0.222590  0.904437  1
  Ir  Ir9  1  0.250000  0.721936  0.596654  1
  Ir  Ir10  1  0.750000  0.776534  0.093473  1
  Ir  Ir11  1  0.750000  0.279059  0.406609  1
