# generated using pymatgen
data_Ce3Tm(FeSn)4
_symmetry_space_group_name_H-M   'P 1'
_cell_length_a   6.28645097
_cell_length_b   6.28645116
_cell_length_c   9.59784303
_cell_angle_alpha   75.83431321
_cell_angle_beta   75.83431356
_cell_angle_gamma   43.28070888
_symmetry_Int_Tables_number   1
_chemical_formula_structural   Ce3Tm(FeSn)4
_chemical_formula_sum   'Ce3 Tm1 Fe4 Sn4'
_cell_volume   250.86448176
_cell_formula_units_Z   1
loop_
 _symmetry_equiv_pos_site_id
 _symmetry_equiv_pos_as_xyz
  1  'x, y, z'
loop_
 _atom_site_type_symbol
 _atom_site_label
 _atom_site_symmetry_multiplicity
 _atom_site_fract_x
 _atom_site_fract_y
 _atom_site_fract_z
 _atom_site_occupancy
  Ce  Ce0  1  0.857596  0.857596  0.425282  1
  Ce  Ce1  1  0.865774  0.865774  0.925865  1
  Ce  Ce2  1  0.142169  0.142169  0.085518  1
  Tm  Tm3  1  0.117490  0.117490  0.594649  1
  Fe  Fe4  1  0.816402  0.816402  0.152412  1
  Fe  Fe5  1  0.195128  0.195128  0.290781  1
  Fe  Fe6  1  0.188320  0.188320  0.849882  1
  Fe  Fe7  1  0.807810  0.807810  0.653067  1
  Sn  Sn8  1  0.421830  0.421830  0.161726  1
  Sn  Sn9  1  0.403198  0.403198  0.666658  1
  Sn  Sn10  1  0.590971  0.590971  0.838617  1
  Sn  Sn11  1  0.593310  0.593310  0.355543  1
