# generated using pymatgen
data_SrMn4Al2O12
_symmetry_space_group_name_H-M   'P 1'
_cell_length_a   8.08869265
_cell_length_b   8.08869271
_cell_length_c   9.58042096
_cell_angle_alpha   54.58042713
_cell_angle_beta   54.58042549
_cell_angle_gamma   65.04582968
_symmetry_Int_Tables_number   1
_chemical_formula_structural   SrMn4Al2O12
_chemical_formula_sum   'Sr2 Mn8 Al4 O24'
_cell_volume   412.77091660
_cell_formula_units_Z   2
loop_
 _symmetry_equiv_pos_site_id
 _symmetry_equiv_pos_as_xyz
  1  'x, y, z'
loop_
 _atom_site_type_symbol
 _atom_site_label
 _atom_site_symmetry_multiplicity
 _atom_site_fract_x
 _atom_site_fract_y
 _atom_site_fract_z
 _atom_site_occupancy
  Sr  Sr0  1  0.275896  0.724104  0.000000  1
  Sr  Sr1  1  0.724104  0.275896  0.000000  1
  Mn  Mn2  1  0.669227  0.001721  0.817877  1
  Mn  Mn3  1  0.185705  0.518013  0.479768  1
  Mn  Mn4  1  0.814295  0.481987  0.520232  1
  Mn  Mn5  1  0.330773  0.998279  0.182123  1
  Mn  Mn6  1  0.998279  0.330773  0.182123  1
  Mn  Mn7  1  0.001721  0.669227  0.817877  1
  Mn  Mn8  1  0.518013  0.185705  0.479768  1
  Mn  Mn9  1  0.481987  0.814295  0.520232  1
  Al  Al10  1  0.854678  0.854678  0.476795  1
  Al  Al11  1  0.335986  0.335986  0.815914  1
  Al  Al12  1  0.145322  0.145322  0.523205  1
  Al  Al13  1  0.664014  0.664014  0.184086  1
  O  O14  1  0.701875  0.701875  0.946481  1
  O  O15  1  0.011354  0.676757  0.350425  1
  O  O16  1  0.676757  0.011354  0.350425  1
  O  O17  1  0.680697  0.009453  0.611568  1
  O  O18  1  0.009453  0.680697  0.611568  1
  O  O19  1  0.042110  0.042110  0.279945  1
  O  O20  1  0.708241  0.378655  0.274498  1
  O  O21  1  0.378655  0.708241  0.274498  1
  O  O22  1  0.990547  0.319303  0.388432  1
  O  O23  1  0.988646  0.323243  0.649575  1
  O  O24  1  0.036524  0.370455  0.943728  1
  O  O25  1  0.370455  0.036524  0.943728  1
  O  O26  1  0.298125  0.298125  0.053519  1
  O  O27  1  0.963476  0.629545  0.056272  1
  O  O28  1  0.342242  0.342242  0.351788  1
  O  O29  1  0.346976  0.346976  0.612300  1
  O  O30  1  0.291759  0.621345  0.725502  1
  O  O31  1  0.621345  0.291759  0.725502  1
  O  O32  1  0.957890  0.957890  0.720055  1
  O  O33  1  0.653024  0.653024  0.387700  1
  O  O34  1  0.319303  0.990547  0.388432  1
  O  O35  1  0.657758  0.657758  0.648212  1
  O  O36  1  0.323243  0.988646  0.649575  1
  O  O37  1  0.629545  0.963476  0.056272  1
