# generated using pymatgen
data_Y4HoIr2
_symmetry_space_group_name_H-M   'P 1'
_cell_length_a   6.51973606
_cell_length_b   7.24179613
_cell_length_c   8.53983935
_cell_angle_alpha   96.76718040
_cell_angle_beta   112.44055750
_cell_angle_gamma   90.00000622
_symmetry_Int_Tables_number   1
_chemical_formula_structural   Y4HoIr2
_chemical_formula_sum   'Y8 Ho2 Ir4'
_cell_volume   369.63178902
_cell_formula_units_Z   2
loop_
 _symmetry_equiv_pos_site_id
 _symmetry_equiv_pos_as_xyz
  1  'x, y, z'
loop_
 _atom_site_type_symbol
 _atom_site_label
 _atom_site_symmetry_multiplicity
 _atom_site_fract_x
 _atom_site_fract_y
 _atom_site_fract_z
 _atom_site_occupancy
  Y  Y0  1  0.970606  0.917737  0.181637  1
  Y  Y1  1  0.788970  0.582263  0.818363  1
  Y  Y2  1  0.029394  0.082263  0.818363  1
  Y  Y3  1  0.211030  0.417737  0.181637  1
  Y  Y4  1  0.653744  0.817707  0.441217  1
  Y  Y5  1  0.212527  0.682293  0.558783  1
  Y  Y6  1  0.346256  0.182293  0.558783  1
  Y  Y7  1  0.787473  0.317707  0.441217  1
  Ho  Ho8  1  0.428886  0.750000  0.000000  1
  Ho  Ho9  1  0.571114  0.250000  0.000000  1
  Ir  Ir10  1  0.822260  0.572233  0.216958  1
  Ir  Ir11  1  0.605303  0.927767  0.783042  1
  Ir  Ir12  1  0.177740  0.427767  0.783042  1
  Ir  Ir13  1  0.394697  0.072233  0.216958  1
