# generated using pymatgen
data_Rb4Cd4Si3GeAs8
_symmetry_space_group_name_H-M   'P 1'
_cell_length_a   8.53793688
_cell_length_b   8.61354522
_cell_length_c   8.78197208
_cell_angle_alpha   70.69385398
_cell_angle_beta   75.60132544
_cell_angle_gamma   72.78272208
_symmetry_Int_Tables_number   1
_chemical_formula_structural   Rb4Cd4Si3GeAs8
_chemical_formula_sum   'Rb4 Cd4 Si3 Ge1 As8'
_cell_volume   574.00644616
_cell_formula_units_Z   1
loop_
 _symmetry_equiv_pos_site_id
 _symmetry_equiv_pos_as_xyz
  1  'x, y, z'
loop_
 _atom_site_type_symbol
 _atom_site_label
 _atom_site_symmetry_multiplicity
 _atom_site_fract_x
 _atom_site_fract_y
 _atom_site_fract_z
 _atom_site_occupancy
  Rb  Rb0  1  0.448778  0.764294  0.321135  1
  Rb  Rb1  1  0.552260  0.236248  0.678776  1
  Rb  Rb2  1  0.436774  0.799158  0.816766  1
  Rb  Rb3  1  0.562221  0.202023  0.185064  1
  Cd  Cd4  1  0.998285  0.897047  0.687772  1
  Cd  Cd5  1  0.004371  0.102447  0.309791  1
  Cd  Cd6  1  0.959544  0.816520  0.173496  1
  Cd  Cd7  1  0.033332  0.181126  0.831329  1
  Si  Si8  1  0.040886  0.410908  0.397923  1
  Si  Si9  1  0.146096  0.448871  0.977389  1
  Si  Si10  1  0.855994  0.550972  0.021593  1
  Ge  Ge11  1  0.962341  0.581722  0.593800  1
  As  As12  1  0.806136  0.875203  0.465855  1
  As  As13  1  0.190053  0.134707  0.532869  1
  As  As14  1  0.789493  0.414684  0.310813  1
  As  As15  1  0.217262  0.587539  0.691147  1
  As  As16  1  0.766992  0.855044  0.961449  1
  As  As17  1  0.234223  0.144848  0.035827  1
  As  As18  1  0.769282  0.450392  0.835647  1
  As  As19  1  0.225678  0.546247  0.171560  1
