# generated using pymatgen
data_LiTb8Tm(SiB4)4
_symmetry_space_group_name_H-M   'P 1'
_cell_length_a   7.21499200
_cell_length_b   7.21499200
_cell_length_c   8.01877300
_cell_angle_alpha   90.00000000
_cell_angle_beta   90.00000000
_cell_angle_gamma   90.00000000
_symmetry_Int_Tables_number   1
_chemical_formula_structural   LiTb8Tm(SiB4)4
_chemical_formula_sum   'Li1 Tb8 Tm1 Si4 B16'
_cell_volume   417.42612583
_cell_formula_units_Z   1
loop_
 _symmetry_equiv_pos_site_id
 _symmetry_equiv_pos_as_xyz
  1  'x, y, z'
loop_
 _atom_site_type_symbol
 _atom_site_label
 _atom_site_symmetry_multiplicity
 _atom_site_fract_x
 _atom_site_fract_y
 _atom_site_fract_z
 _atom_site_occupancy
  Li  Li0  1  0.000000  0.000000  0.500000  1
  Tb  Tb1  1  0.683077  0.180091  0.231111  1
  Tb  Tb2  1  0.316923  0.819909  0.768889  1
  Tb  Tb3  1  0.316923  0.819909  0.231111  1
  Tb  Tb4  1  0.819909  0.683077  0.231111  1
  Tb  Tb5  1  0.819909  0.683077  0.768889  1
  Tb  Tb6  1  0.683077  0.180091  0.768889  1
  Tb  Tb7  1  0.180091  0.316923  0.768889  1
  Tb  Tb8  1  0.180091  0.316923  0.231111  1
  Tm  Tm9  1  0.500000  0.500000  0.500000  1
  Si  Si10  1  0.115679  0.614776  0.500000  1
  Si  Si11  1  0.884321  0.385224  0.500000  1
  Si  Si12  1  0.385224  0.115679  0.500000  1
  Si  Si13  1  0.614776  0.884321  0.500000  1
  B  B14  1  0.174489  0.038686  0.000000  1
  B  B15  1  0.825511  0.961314  0.000000  1
  B  B16  1  0.961314  0.174489  0.000000  1
  B  B17  1  0.327624  0.540064  0.000000  1
  B  B18  1  0.038686  0.825511  0.000000  1
  B  B19  1  0.672376  0.459936  0.000000  1
  B  B20  1  0.540064  0.672376  0.000000  1
  B  B21  1  0.459936  0.327624  0.000000  1
  B  B22  1  0.089641  0.588953  0.000000  1
  B  B23  1  0.910359  0.411047  0.000000  1
  B  B24  1  0.411047  0.089641  0.000000  1
  B  B25  1  0.588953  0.910359  0.000000  1
  B  B26  1  0.000000  0.000000  0.155925  1
  B  B27  1  0.000000  0.000000  0.844075  1
  B  B28  1  0.500000  0.500000  0.837161  1
  B  B29  1  0.500000  0.500000  0.162839  1
