# generated using pymatgen
data_Ce3Mg2TiIr3
_symmetry_space_group_name_H-M   'P 1'
_cell_length_a   7.43225750
_cell_length_b   7.20734332
_cell_length_c   4.11289700
_cell_angle_alpha   90.00000000
_cell_angle_beta   90.00000000
_cell_angle_gamma   119.00388519
_symmetry_Int_Tables_number   1
_chemical_formula_structural   Ce3Mg2TiIr3
_chemical_formula_sum   'Ce3 Mg2 Ti1 Ir3'
_cell_volume   192.68447536
_cell_formula_units_Z   1
loop_
 _symmetry_equiv_pos_site_id
 _symmetry_equiv_pos_as_xyz
  1  'x, y, z'
loop_
 _atom_site_type_symbol
 _atom_site_label
 _atom_site_symmetry_multiplicity
 _atom_site_fract_x
 _atom_site_fract_y
 _atom_site_fract_z
 _atom_site_occupancy
  Ce  Ce0  1  0.416741  0.419146  0.000000  1
  Ce  Ce1  1  0.583259  0.002405  0.000000  1
  Ce  Ce2  1  0.000000  0.583327  0.000000  1
  Mg  Mg3  1  0.758130  0.759333  0.500000  1
  Mg  Mg4  1  0.241870  0.001202  0.500000  1
  Ti  Ti5  1  0.000000  0.240154  0.500000  1
  Ir  Ir6  1  0.000000  0.038902  0.000000  1
  Ir  Ir7  1  0.688177  0.321854  0.500000  1
  Ir  Ir8  1  0.311823  0.633678  0.500000  1
