# generated using pymatgen
data_AcTb2Cu2Rh7
_symmetry_space_group_name_H-M   'P 1'
_cell_length_a   9.02141328
_cell_length_b   9.02141360
_cell_length_c   9.02141100
_cell_angle_alpha   35.15761492
_cell_angle_beta   35.15761204
_cell_angle_gamma   35.15761220
_symmetry_Int_Tables_number   1
_chemical_formula_structural   AcTb2Cu2Rh7
_chemical_formula_sum   'Ac1 Tb2 Cu2 Rh7'
_cell_volume   217.42990534
_cell_formula_units_Z   1
loop_
 _symmetry_equiv_pos_site_id
 _symmetry_equiv_pos_as_xyz
  1  'x, y, z'
loop_
 _atom_site_type_symbol
 _atom_site_label
 _atom_site_symmetry_multiplicity
 _atom_site_fract_x
 _atom_site_fract_y
 _atom_site_fract_z
 _atom_site_occupancy
  Ac  Ac0  1  0.000000  0.000000  0.000000  1
  Tb  Tb1  1  0.141425  0.141425  0.141425  1
  Tb  Tb2  1  0.858575  0.858575  0.858575  1
  Cu  Cu3  1  0.334104  0.334104  0.334104  1
  Cu  Cu4  1  0.665896  0.665896  0.665896  1
  Rh  Rh5  1  0.585844  0.585844  0.079121  1
  Rh  Rh6  1  0.920879  0.414157  0.414156  1
  Rh  Rh7  1  0.414157  0.920879  0.414156  1
  Rh  Rh8  1  0.500000  0.500000  0.500000  1
  Rh  Rh9  1  0.585844  0.079121  0.585844  1
  Rh  Rh10  1  0.079121  0.585844  0.585844  1
  Rh  Rh11  1  0.414156  0.414156  0.920879  1
