# generated using pymatgen
data_CaNd(Al5Ru)4
_symmetry_space_group_name_H-M   'P 1'
_cell_length_a   6.88520806
_cell_length_b   6.88520746
_cell_length_c   9.16989600
_cell_angle_alpha   90.00000000
_cell_angle_beta   90.00000000
_cell_angle_gamma   96.78712756
_symmetry_Int_Tables_number   1
_chemical_formula_structural   CaNd(Al5Ru)4
_chemical_formula_sum   'Ca1 Nd1 Al20 Ru4'
_cell_volume   431.66247451
_cell_formula_units_Z   1
loop_
 _symmetry_equiv_pos_site_id
 _symmetry_equiv_pos_as_xyz
  1  'x, y, z'
loop_
 _atom_site_type_symbol
 _atom_site_label
 _atom_site_symmetry_multiplicity
 _atom_site_fract_x
 _atom_site_fract_y
 _atom_site_fract_z
 _atom_site_occupancy
  Ca  Ca0  1  0.874553  0.125447  0.750000  1
  Nd  Nd1  1  0.123354  0.876646  0.250000  1
  Al  Al2  1  0.623238  0.376762  0.545786  1
  Al  Al3  1  0.377588  0.622412  0.450125  1
  Al  Al4  1  0.377588  0.622412  0.049875  1
  Al  Al5  1  0.623238  0.376762  0.954214  1
  Al  Al6  1  0.225633  0.227206  0.501097  1
  Al  Al7  1  0.772794  0.774367  0.501097  1
  Al  Al8  1  0.772794  0.774367  0.998903  1
  Al  Al9  1  0.225633  0.227206  0.998903  1
  Al  Al10  1  0.842896  0.157104  0.098498  1
  Al  Al11  1  0.159569  0.840431  0.899244  1
  Al  Al12  1  0.159569  0.840431  0.600756  1
  Al  Al13  1  0.842896  0.157104  0.401502  1
  Al  Al14  1  0.859927  0.587366  0.750000  1
  Al  Al15  1  0.138778  0.411029  0.250000  1
  Al  Al16  1  0.412634  0.140073  0.750000  1
  Al  Al17  1  0.588971  0.861222  0.250000  1
  Al  Al18  1  0.219601  0.476791  0.750000  1
  Al  Al19  1  0.778399  0.519478  0.250000  1
  Al  Al20  1  0.523209  0.780399  0.750000  1
  Al  Al21  1  0.480522  0.221601  0.250000  1
  Ru  Ru22  1  0.999635  0.501327  0.500118  1
  Ru  Ru23  1  0.999635  0.501327  0.999882  1
  Ru  Ru24  1  0.498673  0.000365  0.999882  1
  Ru  Ru25  1  0.498673  0.000365  0.500118  1
