# generated using pymatgen
data_Ho8Ti8Nb3Si16Au
_symmetry_space_group_name_H-M   'P 1'
_cell_length_a   7.06459654
_cell_length_b   7.06459681
_cell_length_c   12.89994613
_cell_angle_alpha   90.22241908
_cell_angle_beta   89.77757883
_cell_angle_gamma   89.56324039
_symmetry_Int_Tables_number   1
_chemical_formula_structural   Ho8Ti8Nb3Si16Au
_chemical_formula_sum   'Ho8 Ti8 Nb3 Si16 Au1'
_cell_volume   643.78881740
_cell_formula_units_Z   1
loop_
 _symmetry_equiv_pos_site_id
 _symmetry_equiv_pos_as_xyz
  1  'x, y, z'
loop_
 _atom_site_type_symbol
 _atom_site_label
 _atom_site_symmetry_multiplicity
 _atom_site_fract_x
 _atom_site_fract_y
 _atom_site_fract_z
 _atom_site_occupancy
  Ho  Ho0  1  0.341848  0.000457  0.467105  1
  Ho  Ho1  1  0.497939  0.841633  0.717291  1
  Ho  Ho2  1  0.501232  0.156944  0.214943  1
  Ho  Ho3  1  0.841633  0.497939  0.282709  1
  Ho  Ho4  1  0.156944  0.501232  0.785057  1
  Ho  Ho5  1  0.656486  0.001627  0.968439  1
  Ho  Ho6  1  0.000457  0.341848  0.532895  1
  Ho  Ho7  1  0.001627  0.656486  0.031561  1
  Ti  Ti8  1  0.147148  0.007552  0.876091  1
  Ti  Ti9  1  0.494269  0.652343  0.123644  1
  Ti  Ti10  1  0.508540  0.351115  0.625745  1
  Ti  Ti11  1  0.652343  0.494269  0.876356  1
  Ti  Ti12  1  0.351115  0.508540  0.374255  1
  Ti  Ti13  1  0.848897  0.990479  0.373547  1
  Ti  Ti14  1  0.007552  0.147148  0.123909  1
  Ti  Ti15  1  0.990479  0.848897  0.626453  1
  Nb  Nb16  1  0.174576  0.825525  0.249047  1
  Nb  Nb17  1  0.825525  0.174576  0.750953  1
  Nb  Nb18  1  0.672446  0.672446  0.500000  1
  Si  Si19  1  0.202525  0.132466  0.683924  1
  Si  Si20  1  0.373744  0.719221  0.928604  1
  Si  Si21  1  0.631194  0.293686  0.432856  1
  Si  Si22  1  0.719221  0.373744  0.071396  1
  Si  Si23  1  0.293686  0.631194  0.567144  1
  Si  Si24  1  0.797380  0.866495  0.182334  1
  Si  Si25  1  0.132466  0.202525  0.316076  1
  Si  Si26  1  0.866495  0.797380  0.817666  1
  Si  Si27  1  0.287580  0.939370  0.063746  1
  Si  Si28  1  0.547960  0.792063  0.313267  1
  Si  Si29  1  0.451918  0.208275  0.810342  1
  Si  Si30  1  0.792063  0.547960  0.686733  1
  Si  Si31  1  0.208275  0.451918  0.189658  1
  Si  Si32  1  0.708176  0.047850  0.563233  1
  Si  Si33  1  0.939370  0.287580  0.936254  1
  Si  Si34  1  0.047850  0.708176  0.436767  1
  Au  Au35  1  0.329038  0.329038  0.000000  1
