# generated using pymatgen
data_Pr3MgIn2Sn2Rh
_symmetry_space_group_name_H-M   'P 1'
_cell_length_a   7.69698576
_cell_length_b   7.69698701
_cell_length_c   4.64013100
_cell_angle_alpha   90.00000000
_cell_angle_beta   90.00000000
_cell_angle_gamma   120.77879433
_symmetry_Int_Tables_number   1
_chemical_formula_structural   Pr3MgIn2Sn2Rh
_chemical_formula_sum   'Pr3 Mg1 In2 Sn2 Rh1'
_cell_volume   236.17849121
_cell_formula_units_Z   1
loop_
 _symmetry_equiv_pos_site_id
 _symmetry_equiv_pos_as_xyz
  1  'x, y, z'
loop_
 _atom_site_type_symbol
 _atom_site_label
 _atom_site_symmetry_multiplicity
 _atom_site_fract_x
 _atom_site_fract_y
 _atom_site_fract_z
 _atom_site_occupancy
  Pr  Pr0  1  0.999827  0.606983  0.500000  1
  Pr  Pr1  1  0.393002  0.393002  0.500000  1
  Pr  Pr2  1  0.606983  0.999827  0.500000  1
  Mg  Mg3  1  0.773015  0.773015  0.000000  1
  In  In4  1  0.993760  0.225858  0.000000  1
  In  In5  1  0.225858  0.993760  0.000000  1
  Sn  Sn6  1  0.337418  0.666769  0.000000  1
  Sn  Sn7  1  0.666769  0.337418  0.000000  1
  Rh  Rh8  1  0.003368  0.003368  0.500000  1
