# generated using pymatgen
data_Ho2Er2Tm(ReO6)2
_symmetry_space_group_name_H-M   'P 1'
_cell_length_a   6.79859896
_cell_length_b   6.79859916
_cell_length_c   7.49137750
_cell_angle_alpha   73.81443715
_cell_angle_beta   73.81443437
_cell_angle_gamma   49.14365505
_symmetry_Int_Tables_number   1
_chemical_formula_structural   Ho2Er2Tm(ReO6)2
_chemical_formula_sum   'Ho2 Er2 Tm1 Re2 O12'
_cell_volume   249.28813293
_cell_formula_units_Z   1
loop_
 _symmetry_equiv_pos_site_id
 _symmetry_equiv_pos_as_xyz
  1  'x, y, z'
loop_
 _atom_site_type_symbol
 _atom_site_label
 _atom_site_symmetry_multiplicity
 _atom_site_fract_x
 _atom_site_fract_y
 _atom_site_fract_z
 _atom_site_occupancy
  Ho  Ho0  1  0.802787  0.802787  0.358884  1
  Ho  Ho1  1  0.197213  0.197213  0.641116  1
  Er  Er2  1  0.185395  0.185395  0.176730  1
  Er  Er3  1  0.814605  0.814605  0.823270  1
  Tm  Tm4  1  0.500000  0.500000  0.500000  1
  Re  Re5  1  0.285731  0.714269  0.000000  1
  Re  Re6  1  0.714269  0.285731  0.000000  1
  O  O7  1  0.413033  0.919712  0.914247  1
  O  O8  1  0.080288  0.586967  0.085753  1
  O  O9  1  0.586967  0.080288  0.085753  1
  O  O10  1  0.919712  0.413033  0.914247  1
  O  O11  1  0.598574  0.096023  0.573181  1
  O  O12  1  0.903977  0.401426  0.426819  1
  O  O13  1  0.401426  0.903977  0.426819  1
  O  O14  1  0.000644  0.000644  0.821316  1
  O  O15  1  0.999356  0.999356  0.178684  1
  O  O16  1  0.498333  0.498333  0.791865  1
  O  O17  1  0.501667  0.501667  0.208135  1
  O  O18  1  0.096023  0.598574  0.573181  1
