# generated using pymatgen
data_Th8Ga(Si4Rh)3
_symmetry_space_group_name_H-M   'P 1'
_cell_length_a   8.24931900
_cell_length_b   8.24931914
_cell_length_c   8.44051500
_cell_angle_alpha   89.99994688
_cell_angle_beta   90.00005493
_cell_angle_gamma   119.99994359
_symmetry_Int_Tables_number   1
_chemical_formula_structural   Th8Ga(Si4Rh)3
_chemical_formula_sum   'Th8 Ga1 Si12 Rh3'
_cell_volume   497.43464336
_cell_formula_units_Z   1
loop_
 _symmetry_equiv_pos_site_id
 _symmetry_equiv_pos_as_xyz
  1  'x, y, z'
loop_
 _atom_site_type_symbol
 _atom_site_label
 _atom_site_symmetry_multiplicity
 _atom_site_fract_x
 _atom_site_fract_y
 _atom_site_fract_z
 _atom_site_occupancy
  Th  Th0  1  0.999999  0.000001  0.751490  1
  Th  Th1  1  0.999998  0.000002  0.248732  1
  Th  Th2  1  0.498691  0.501309  0.750494  1
  Th  Th3  1  0.498686  0.997377  0.750495  1
  Th  Th4  1  0.002623  0.501314  0.750495  1
  Th  Th5  1  0.500057  0.499943  0.249326  1
  Th  Th6  1  0.999885  0.499943  0.249323  1
  Th  Th7  1  0.500057  0.000115  0.249323  1
  Ga  Ga8  1  0.666669  0.333331  0.996674  1
  Si  Si9  1  0.836710  0.163290  0.999996  1
  Si  Si10  1  0.836709  0.673419  0.999995  1
  Si  Si11  1  0.326581  0.163291  0.999995  1
  Si  Si12  1  0.833001  0.166999  0.500936  1
  Si  Si13  1  0.833004  0.666007  0.500937  1
  Si  Si14  1  0.333993  0.166996  0.500937  1
  Si  Si15  1  0.166167  0.833833  0.499108  1
  Si  Si16  1  0.667676  0.833838  0.499108  1
  Si  Si17  1  0.166162  0.332324  0.499108  1
  Si  Si18  1  0.167668  0.832332  0.000412  1
  Si  Si19  1  0.664662  0.832331  0.000412  1
  Si  Si20  1  0.167669  0.335338  0.000412  1
  Rh  Rh21  1  0.666668  0.333332  0.501707  1
  Rh  Rh22  1  0.333336  0.666664  0.498556  1
  Rh  Rh23  1  0.333333  0.666667  0.002026  1
