# generated using pymatgen
data_Th4Mg3AlIr4
_symmetry_space_group_name_H-M   'P 1'
_cell_length_a   7.10537125
_cell_length_b   4.27282900
_cell_length_c   8.58351081
_cell_angle_alpha   90.00000000
_cell_angle_beta   89.49256668
_cell_angle_gamma   90.00000000
_symmetry_Int_Tables_number   1
_chemical_formula_structural   Th4Mg3AlIr4
_chemical_formula_sum   'Th4 Mg3 Al1 Ir4'
_cell_volume   260.58548026
_cell_formula_units_Z   1
loop_
 _symmetry_equiv_pos_site_id
 _symmetry_equiv_pos_as_xyz
  1  'x, y, z'
loop_
 _atom_site_type_symbol
 _atom_site_label
 _atom_site_symmetry_multiplicity
 _atom_site_fract_x
 _atom_site_fract_y
 _atom_site_fract_z
 _atom_site_occupancy
  Th  Th0  1  0.958317  0.250000  0.178960  1
  Th  Th1  1  0.463285  0.250000  0.314354  1
  Th  Th2  1  0.036130  0.750000  0.821891  1
  Th  Th3  1  0.538148  0.750000  0.684811  1
  Mg  Mg4  1  0.866520  0.250000  0.558584  1
  Mg  Mg5  1  0.370893  0.250000  0.943643  1
  Mg  Mg6  1  0.130653  0.750000  0.441746  1
  Al  Al7  1  0.630277  0.750000  0.055119  1
  Ir  Ir8  1  0.755438  0.250000  0.886181  1
  Ir  Ir9  1  0.260298  0.250000  0.626408  1
  Ir  Ir10  1  0.251591  0.750000  0.122894  1
  Ir  Ir11  1  0.738449  0.750000  0.365410  1
