# generated using pymatgen
data_HoEr3Hf3ScRh4
_symmetry_space_group_name_H-M   'P 1'
_cell_length_a   4.55691000
_cell_length_b   6.95132176
_cell_length_c   8.28151121
_cell_angle_alpha   90.15199583
_cell_angle_beta   90.00000000
_cell_angle_gamma   90.00000000
_symmetry_Int_Tables_number   1
_chemical_formula_structural   HoEr3Hf3ScRh4
_chemical_formula_sum   'Ho1 Er3 Hf3 Sc1 Rh4'
_cell_volume   262.32876123
_cell_formula_units_Z   1
loop_
 _symmetry_equiv_pos_site_id
 _symmetry_equiv_pos_as_xyz
  1  'x, y, z'
loop_
 _atom_site_type_symbol
 _atom_site_label
 _atom_site_symmetry_multiplicity
 _atom_site_fract_x
 _atom_site_fract_y
 _atom_site_fract_z
 _atom_site_occupancy
  Ho  Ho0  1  0.250000  0.985659  0.324051  1
  Er  Er1  1  0.250000  0.483267  0.174241  1
  Er  Er2  1  0.750000  0.018859  0.679871  1
  Er  Er3  1  0.750000  0.513031  0.821893  1
  Hf  Hf4  1  0.250000  0.364211  0.574012  1
  Hf  Hf5  1  0.250000  0.856379  0.927130  1
  Hf  Hf6  1  0.750000  0.644867  0.424184  1
  Sc  Sc7  1  0.750000  0.138054  0.076174  1
  Rh  Rh8  1  0.250000  0.232865  0.901520  1
  Rh  Rh9  1  0.250000  0.737633  0.589923  1
  Rh  Rh10  1  0.750000  0.755702  0.089179  1
  Rh  Rh11  1  0.750000  0.269474  0.417823  1
