# generated using pymatgen
data_TbY3ZrIr3
_symmetry_space_group_name_H-M   'P 1'
_cell_length_a   10.89398800
_cell_length_b   10.90382200
_cell_length_c   6.28551000
_cell_angle_alpha   90.00000000
_cell_angle_beta   90.00000000
_cell_angle_gamma   90.00000000
_symmetry_Int_Tables_number   1
_chemical_formula_structural   TbY3ZrIr3
_chemical_formula_sum   'Tb4 Y12 Zr4 Ir12'
_cell_volume   746.63125726
_cell_formula_units_Z   4
loop_
 _symmetry_equiv_pos_site_id
 _symmetry_equiv_pos_as_xyz
  1  'x, y, z'
loop_
 _atom_site_type_symbol
 _atom_site_label
 _atom_site_symmetry_multiplicity
 _atom_site_fract_x
 _atom_site_fract_y
 _atom_site_fract_z
 _atom_site_occupancy
  Tb  Tb0  1  0.913018  0.710046  0.125389  1
  Tb  Tb1  1  0.913018  0.289954  0.625389  1
  Tb  Tb2  1  0.086982  0.710046  0.625389  1
  Tb  Tb3  1  0.086982  0.289954  0.125389  1
  Y  Y4  1  0.289679  0.086872  0.374603  1
  Y  Y5  1  0.289679  0.913128  0.874603  1
  Y  Y6  1  0.710321  0.086872  0.874603  1
  Y  Y7  1  0.710321  0.913128  0.374603  1
  Y  Y8  1  0.586875  0.789649  0.874458  1
  Y  Y9  1  0.586875  0.210351  0.374458  1
  Y  Y10  1  0.413125  0.789649  0.374458  1
  Y  Y11  1  0.413125  0.210351  0.874458  1
  Y  Y12  1  0.210518  0.413006  0.625480  1
  Y  Y13  1  0.210518  0.586994  0.125480  1
  Y  Y14  1  0.789482  0.413006  0.125480  1
  Y  Y15  1  0.789482  0.586994  0.625480  1
  Zr  Zr16  1  0.000000  0.000000  0.499973  1
  Zr  Zr17  1  0.000000  0.000000  0.999973  1
  Zr  Zr18  1  0.500000  0.500000  0.999579  1
  Zr  Zr19  1  0.500000  0.500000  0.499579  1
  Ir  Ir20  1  0.855938  0.144229  0.250449  1
  Ir  Ir21  1  0.855938  0.855771  0.750449  1
  Ir  Ir22  1  0.144062  0.144229  0.750449  1
  Ir  Ir23  1  0.144062  0.855771  0.250449  1
  Ir  Ir24  1  0.644238  0.355907  0.749868  1
  Ir  Ir25  1  0.644238  0.644093  0.249868  1
  Ir  Ir26  1  0.355762  0.355907  0.249868  1
  Ir  Ir27  1  0.355762  0.644093  0.749868  1
  Ir  Ir28  1  0.500000  0.000000  0.120648  1
  Ir  Ir29  1  0.500000  0.000000  0.620648  1
  Ir  Ir30  1  0.000000  0.500000  0.879306  1
  Ir  Ir31  1  0.000000  0.500000  0.379306  1
