# generated using pymatgen
data_CePr5(Co3P2)6
_symmetry_space_group_name_H-M   'P 1'
_cell_length_a   10.65092974
_cell_length_b   3.78154400
_cell_length_c   12.42636281
_cell_angle_alpha   90.00000000
_cell_angle_beta   90.12871802
_cell_angle_gamma   90.00000000
_symmetry_Int_Tables_number   1
_chemical_formula_structural   CePr5(Co3P2)6
_chemical_formula_sum   'Ce1 Pr5 Co18 P12'
_cell_volume   500.49484826
_cell_formula_units_Z   1
loop_
 _symmetry_equiv_pos_site_id
 _symmetry_equiv_pos_as_xyz
  1  'x, y, z'
loop_
 _atom_site_type_symbol
 _atom_site_label
 _atom_site_symmetry_multiplicity
 _atom_site_fract_x
 _atom_site_fract_y
 _atom_site_fract_z
 _atom_site_occupancy
  Ce  Ce0  1  0.068943  0.749999  0.208134  1
  Pr  Pr1  1  0.433600  0.749999  0.205788  1
  Pr  Pr2  1  0.250068  0.749999  0.479939  1
  Pr  Pr3  1  0.750141  0.250000  0.520209  1
  Pr  Pr4  1  0.566696  0.250000  0.794026  1
  Pr  Pr5  1  0.933179  0.250000  0.793951  1
  Co  Co6  1  0.083813  0.250000  0.005048  1
  Co  Co7  1  0.416187  0.250000  0.004077  1
  Co  Co8  1  0.249301  0.749999  0.013440  1
  Co  Co9  1  0.750741  0.749999  0.157285  1
  Co  Co10  1  0.632815  0.250000  0.288245  1
  Co  Co11  1  0.871291  0.250000  0.286277  1
  Co  Co12  1  0.241938  0.250000  0.291385  1
  Co  Co13  1  0.546956  0.749999  0.429365  1
  Co  Co14  1  0.952411  0.749999  0.427818  1
  Co  Co15  1  0.047339  0.250000  0.569876  1
  Co  Co16  1  0.452323  0.250000  0.570059  1
  Co  Co17  1  0.749821  0.749999  0.705413  1
  Co  Co18  1  0.131942  0.749999  0.711785  1
  Co  Co19  1  0.367744  0.749999  0.711732  1
  Co  Co20  1  0.249153  0.250000  0.843781  1
  Co  Co21  1  0.751108  0.250000  0.987927  1
  Co  Co22  1  0.584096  0.749999  0.996390  1
  Co  Co23  1  0.917334  0.749999  0.998046  1
  P  P24  1  0.599424  0.250000  0.103531  1
  P  P25  1  0.903800  0.250000  0.104165  1
  P  P26  1  0.249263  0.250000  0.112147  1
  P  P27  1  0.749767  0.749999  0.338077  1
  P  P28  1  0.054641  0.250000  0.386603  1
  P  P29  1  0.444039  0.250000  0.386316  1
  P  P30  1  0.555137  0.749999  0.613509  1
  P  P31  1  0.944634  0.749999  0.613372  1
  P  P32  1  0.249815  0.250000  0.662152  1
  P  P33  1  0.750517  0.749999  0.887404  1
  P  P34  1  0.098956  0.749999  0.896178  1
  P  P35  1  0.401062  0.749999  0.896547  1
