# generated using pymatgen
data_LiYHo2In3Pt2
_symmetry_space_group_name_H-M   'P 1'
_cell_length_a   7.79218600
_cell_length_b   7.80885683
_cell_length_c   3.72521300
_cell_angle_alpha   90.00000000
_cell_angle_beta   90.00000000
_cell_angle_gamma   119.92940443
_symmetry_Int_Tables_number   1
_chemical_formula_structural   LiYHo2In3Pt2
_chemical_formula_sum   'Li1 Y1 Ho2 In3 Pt2'
_cell_volume   196.44320741
_cell_formula_units_Z   1
loop_
 _symmetry_equiv_pos_site_id
 _symmetry_equiv_pos_as_xyz
  1  'x, y, z'
loop_
 _atom_site_type_symbol
 _atom_site_label
 _atom_site_symmetry_multiplicity
 _atom_site_fract_x
 _atom_site_fract_y
 _atom_site_fract_z
 _atom_site_occupancy
  Li  Li0  1  0.000090  0.000000  0.500000  1
  Y  Y1  1  0.583739  0.000000  0.500000  1
  Ho  Ho2  1  0.416957  0.416961  0.500000  1
  Ho  Ho3  1  0.999996  0.583039  0.500000  1
  In  In4  1  0.745543  0.745082  0.000000  1
  In  In5  1  0.000461  0.254918  0.000000  1
  In  In6  1  0.254150  0.000000  0.000000  1
  Pt  Pt7  1  0.331944  0.664825  0.000000  1
  Pt  Pt8  1  0.667120  0.335175  0.000000  1
