# generated using pymatgen
data_Nd10Si4HgPt
_symmetry_space_group_name_H-M   'P 1'
_cell_length_a   7.73796578
_cell_length_b   7.73796574
_cell_length_c   9.33441100
_cell_angle_alpha   114.48694781
_cell_angle_beta   114.48694767
_cell_angle_gamma   90.00001008
_symmetry_Int_Tables_number   1
_chemical_formula_structural   Nd10Si4HgPt
_chemical_formula_sum   'Nd10 Si4 Hg1 Pt1'
_cell_volume   452.82012895
_cell_formula_units_Z   1
loop_
 _symmetry_equiv_pos_site_id
 _symmetry_equiv_pos_as_xyz
  1  'x, y, z'
loop_
 _atom_site_type_symbol
 _atom_site_label
 _atom_site_symmetry_multiplicity
 _atom_site_fract_x
 _atom_site_fract_y
 _atom_site_fract_z
 _atom_site_occupancy
  Nd  Nd0  1  0.472482  0.472773  0.944709  1
  Nd  Nd1  1  0.027772  0.027227  0.055291  1
  Nd  Nd2  1  0.944668  0.796175  0.278002  1
  Nd  Nd3  1  0.333203  0.481596  0.278225  1
  Nd  Nd4  1  0.796387  0.333164  0.278136  1
  Nd  Nd5  1  0.481719  0.944702  0.278123  1
  Nd  Nd6  1  0.018250  0.166836  0.721864  1
  Nd  Nd7  1  0.703596  0.555298  0.721877  1
  Nd  Nd8  1  0.166666  0.703825  0.721998  1
  Nd  Nd9  1  0.554978  0.018404  0.721775  1
  Si  Si10  1  0.616589  0.883192  0.999938  1
  Si  Si11  1  0.383349  0.116530  0.000080  1
  Si  Si12  1  0.883269  0.383470  0.999920  1
  Si  Si13  1  0.116652  0.616808  0.000062  1
  Hg  Hg14  1  0.249942  0.250000  0.500000  1
  Pt  Pt15  1  0.750477  0.750000  0.500000  1
