# generated using pymatgen
data_Tm16In4Co3Ni
_symmetry_space_group_name_H-M   'P 1'
_cell_length_a   9.43057249
_cell_length_b   9.41924308
_cell_length_c   9.41924300
_cell_angle_alpha   60.00000379
_cell_angle_beta   60.03973614
_cell_angle_gamma   60.03973792
_symmetry_Int_Tables_number   1
_chemical_formula_structural   Tm16In4Co3Ni
_chemical_formula_sum   'Tm16 In4 Co3 Ni1'
_cell_volume   591.99176467
_cell_formula_units_Z   1
loop_
 _symmetry_equiv_pos_site_id
 _symmetry_equiv_pos_as_xyz
  1  'x, y, z'
loop_
 _atom_site_type_symbol
 _atom_site_label
 _atom_site_symmetry_multiplicity
 _atom_site_fract_x
 _atom_site_fract_y
 _atom_site_fract_z
 _atom_site_occupancy
  Tm  Tm0  1  0.343833  0.348543  0.348543  1
  Tm  Tm1  1  0.343833  0.348543  0.959080  1
  Tm  Tm2  1  0.343833  0.959080  0.348543  1
  Tm  Tm3  1  0.960493  0.346503  0.346503  1
  Tm  Tm4  1  0.815518  0.188170  0.188170  1
  Tm  Tm5  1  0.188378  0.811686  0.811686  1
  Tm  Tm6  1  0.188378  0.811686  0.188250  1
  Tm  Tm7  1  0.815518  0.188170  0.808142  1
  Tm  Tm8  1  0.188378  0.188250  0.811686  1
  Tm  Tm9  1  0.815518  0.808142  0.188170  1
  Tm  Tm10  1  0.938606  0.560954  0.560954  1
  Tm  Tm11  1  0.560052  0.938740  0.938740  1
  Tm  Tm12  1  0.560052  0.938740  0.562468  1
  Tm  Tm13  1  0.938606  0.560954  0.939485  1
  Tm  Tm14  1  0.560052  0.562468  0.938740  1
  Tm  Tm15  1  0.938606  0.939485  0.560954  1
  In  In16  1  0.583181  0.583262  0.583262  1
  In  In17  1  0.583181  0.583262  0.250296  1
  In  In18  1  0.583181  0.250296  0.583262  1
  In  In19  1  0.249789  0.583404  0.583404  1
  Co  Co20  1  0.141184  0.141169  0.141169  1
  Co  Co21  1  0.141184  0.141169  0.576478  1
  Co  Co22  1  0.141184  0.576478  0.141169  1
  Ni  Ni23  1  0.577462  0.140846  0.140846  1
