# generated using pymatgen
data_TmPuReC2
_symmetry_space_group_name_H-M   'P 1'
_cell_length_a   5.11107600
_cell_length_b   6.41018300
_cell_length_c   9.85891500
_cell_angle_alpha   90.00000000
_cell_angle_beta   90.00000000
_cell_angle_gamma   90.00000000
_symmetry_Int_Tables_number   1
_chemical_formula_structural   TmPuReC2
_chemical_formula_sum   'Tm4 Pu4 Re4 C8'
_cell_volume   323.00696654
_cell_formula_units_Z   4
loop_
 _symmetry_equiv_pos_site_id
 _symmetry_equiv_pos_as_xyz
  1  'x, y, z'
loop_
 _atom_site_type_symbol
 _atom_site_label
 _atom_site_symmetry_multiplicity
 _atom_site_fract_x
 _atom_site_fract_y
 _atom_site_fract_z
 _atom_site_occupancy
  Tm  Tm0  1  0.250000  0.820618  0.945074  1
  Tm  Tm1  1  0.250000  0.320618  0.554926  1
  Tm  Tm2  1  0.750000  0.179382  0.054926  1
  Tm  Tm3  1  0.750000  0.679382  0.445074  1
  Pu  Pu4  1  0.250000  0.469728  0.219741  1
  Pu  Pu5  1  0.250000  0.969728  0.280259  1
  Pu  Pu6  1  0.750000  0.530272  0.780259  1
  Pu  Pu7  1  0.750000  0.030272  0.719741  1
  Re  Re8  1  0.250000  0.286281  0.869679  1
  Re  Re9  1  0.250000  0.786281  0.630321  1
  Re  Re10  1  0.750000  0.713719  0.130321  1
  Re  Re11  1  0.750000  0.213719  0.369679  1
  C  C12  1  0.250000  0.052950  0.741541  1
  C  C13  1  0.250000  0.552950  0.758459  1
  C  C14  1  0.750000  0.947050  0.258459  1
  C  C15  1  0.750000  0.447050  0.241541  1
  C  C16  1  0.250000  0.677145  0.444013  1
  C  C17  1  0.250000  0.177145  0.055987  1
  C  C18  1  0.750000  0.322855  0.555987  1
  C  C19  1  0.750000  0.822855  0.944013  1
