# generated using pymatgen
data_LaPrAl20(ReIr)2
_symmetry_space_group_name_H-M   'P 1'
_cell_length_a   6.93221420
_cell_length_b   6.94132623
_cell_length_c   9.25301800
_cell_angle_alpha   90.00000000
_cell_angle_beta   90.00000000
_cell_angle_gamma   96.58015212
_symmetry_Int_Tables_number   1
_chemical_formula_structural   LaPrAl20(ReIr)2
_chemical_formula_sum   'La1 Pr1 Al20 Re2 Ir2'
_cell_volume   442.31072109
_cell_formula_units_Z   1
loop_
 _symmetry_equiv_pos_site_id
 _symmetry_equiv_pos_as_xyz
  1  'x, y, z'
loop_
 _atom_site_type_symbol
 _atom_site_label
 _atom_site_symmetry_multiplicity
 _atom_site_fract_x
 _atom_site_fract_y
 _atom_site_fract_z
 _atom_site_occupancy
  La  La0  1  0.869560  0.120219  0.750000  1
  Pr  Pr1  1  0.130217  0.878669  0.250000  1
  Al  Al2  1  0.618633  0.376939  0.547626  1
  Al  Al3  1  0.380984  0.623696  0.451216  1
  Al  Al4  1  0.380984  0.623696  0.048784  1
  Al  Al5  1  0.618633  0.376939  0.952374  1
  Al  Al6  1  0.225870  0.224311  0.497507  1
  Al  Al7  1  0.774459  0.775373  0.500733  1
  Al  Al8  1  0.774459  0.775373  0.999267  1
  Al  Al9  1  0.225870  0.224311  0.002493  1
  Al  Al10  1  0.839478  0.161169  0.103128  1
  Al  Al11  1  0.161364  0.837605  0.897451  1
  Al  Al12  1  0.161364  0.837605  0.602549  1
  Al  Al13  1  0.839478  0.161169  0.396872  1
  Al  Al14  1  0.857981  0.591514  0.750000  1
  Al  Al15  1  0.142337  0.410930  0.250000  1
  Al  Al16  1  0.407947  0.142335  0.750000  1
  Al  Al17  1  0.590432  0.858381  0.250000  1
  Al  Al18  1  0.221017  0.482182  0.750000  1
  Al  Al19  1  0.779235  0.517810  0.250000  1
  Al  Al20  1  0.516471  0.780940  0.750000  1
  Al  Al21  1  0.483394  0.219015  0.250000  1
  Re  Re22  1  0.500229  0.000224  0.999883  1
  Re  Re23  1  0.500229  0.000224  0.500117  1
  Ir  Ir24  1  0.999687  0.499687  0.499724  1
  Ir  Ir25  1  0.999687  0.499687  0.000276  1
