# generated using pymatgen
data_DyTmNb2(SnPt)4
_symmetry_space_group_name_H-M   'P 1'
_cell_length_a   6.45470804
_cell_length_b   4.54667400
_cell_length_c   9.10957825
_cell_angle_alpha   90.00000000
_cell_angle_beta   90.01955684
_cell_angle_gamma   90.00000000
_symmetry_Int_Tables_number   1
_chemical_formula_structural   DyTmNb2(SnPt)4
_chemical_formula_sum   'Dy1 Tm1 Nb2 Sn4 Pt4'
_cell_volume   267.34290580
_cell_formula_units_Z   1
loop_
 _symmetry_equiv_pos_site_id
 _symmetry_equiv_pos_as_xyz
  1  'x, y, z'
loop_
 _atom_site_type_symbol
 _atom_site_label
 _atom_site_symmetry_multiplicity
 _atom_site_fract_x
 _atom_site_fract_y
 _atom_site_fract_z
 _atom_site_occupancy
  Dy  Dy0  1  0.003782  0.000000  0.376020  1
  Tm  Tm1  1  0.504063  0.499999  0.623848  1
  Nb  Nb2  1  0.496993  0.499999  0.123269  1
  Nb  Nb3  1  0.996992  0.000000  0.876804  1
  Sn  Sn4  1  0.985540  0.499999  0.124183  1
  Sn  Sn5  1  0.510692  0.000000  0.372535  1
  Sn  Sn6  1  0.010788  0.499999  0.628159  1
  Sn  Sn7  1  0.485676  0.000000  0.875138  1
  Pt  Pt8  1  0.736402  0.000000  0.111839  1
  Pt  Pt9  1  0.267067  0.499999  0.357831  1
  Pt  Pt10  1  0.765093  0.000000  0.642759  1
  Pt  Pt11  1  0.236907  0.499999  0.887607  1
