# generated using pymatgen
data_TbEr3ReB12Ir
_symmetry_space_group_name_H-M   'P 1'
_cell_length_a   3.65567200
_cell_length_b   9.12856346
_cell_length_c   11.52302800
_cell_angle_alpha   90.32049685
_cell_angle_beta   90.00000000
_cell_angle_gamma   90.00000000
_symmetry_Int_Tables_number   1
_chemical_formula_structural   TbEr3ReB12Ir
_chemical_formula_sum   'Tb2 Er6 Re2 B24 Ir2'
_cell_volume   384.52934157
_cell_formula_units_Z   2
loop_
 _symmetry_equiv_pos_site_id
 _symmetry_equiv_pos_as_xyz
  1  'x, y, z'
loop_
 _atom_site_type_symbol
 _atom_site_label
 _atom_site_symmetry_multiplicity
 _atom_site_fract_x
 _atom_site_fract_y
 _atom_site_fract_z
 _atom_site_occupancy
  Tb  Tb0  1  0.000000  0.317444  0.409972  1
  Tb  Tb1  1  0.000000  0.682556  0.590028  1
  Er  Er2  1  0.000000  0.826512  0.082098  1
  Er  Er3  1  0.000000  0.173488  0.917902  1
  Er  Er4  1  0.000000  0.946108  0.372078  1
  Er  Er5  1  0.000000  0.053892  0.627922  1
  Er  Er6  1  0.000000  0.441578  0.125473  1
  Er  Er7  1  0.000000  0.558422  0.874527  1
  Re  Re8  1  0.000000  0.137840  0.179516  1
  Re  Re9  1  0.000000  0.862160  0.820484  1
  B  B10  1  0.500000  0.554390  0.433467  1
  B  B11  1  0.500000  0.445610  0.566533  1
  B  B12  1  0.500000  0.052937  0.066917  1
  B  B13  1  0.500000  0.947063  0.933083  1
  B  B14  1  0.500000  0.749949  0.420718  1
  B  B15  1  0.500000  0.250051  0.579282  1
  B  B16  1  0.500000  0.247828  0.080211  1
  B  B17  1  0.500000  0.752172  0.919789  1
  B  B18  1  0.500000  0.791321  0.265588  1
  B  B19  1  0.500000  0.208679  0.734412  1
  B  B20  1  0.500000  0.292063  0.233695  1
  B  B21  1  0.500000  0.707937  0.766305  1
  B  B22  1  0.500000  0.631775  0.183498  1
  B  B23  1  0.500000  0.368225  0.816502  1
  B  B24  1  0.500000  0.131007  0.314468  1
  B  B25  1  0.500000  0.868993  0.685532  1
  B  B26  1  0.500000  0.982087  0.212854  1
  B  B27  1  0.500000  0.017913  0.787146  1
  B  B28  1  0.500000  0.482599  0.286616  1
  B  B29  1  0.500000  0.517401  0.713384  1
  B  B30  1  0.500000  0.606859  0.029958  1
  B  B31  1  0.500000  0.393141  0.970042  1
  B  B32  1  0.500000  0.105927  0.471258  1
  B  B33  1  0.500000  0.894073  0.528742  1
  Ir  Ir34  1  0.000000  0.637402  0.321412  1
  Ir  Ir35  1  0.000000  0.362598  0.678588  1
