# generated using pymatgen
data_Pr4Al18OsPt4Rh
_symmetry_space_group_name_H-M   'P 1'
_cell_length_a   7.67492326
_cell_length_b   7.67492443
_cell_length_c   9.61414564
_cell_angle_alpha   89.95718907
_cell_angle_beta   89.95718368
_cell_angle_gamma   119.58693844
_symmetry_Int_Tables_number   1
_chemical_formula_structural   Pr4Al18OsPt4Rh
_chemical_formula_sum   'Pr4 Al18 Os1 Pt4 Rh1'
_cell_volume   492.47212008
_cell_formula_units_Z   1
loop_
 _symmetry_equiv_pos_site_id
 _symmetry_equiv_pos_as_xyz
  1  'x, y, z'
loop_
 _atom_site_type_symbol
 _atom_site_label
 _atom_site_symmetry_multiplicity
 _atom_site_fract_x
 _atom_site_fract_y
 _atom_site_fract_z
 _atom_site_occupancy
  Pr  Pr0  1  0.996218  0.671860  0.749991  1
  Pr  Pr1  1  0.006164  0.330504  0.250330  1
  Pr  Pr2  1  0.669496  0.993836  0.749670  1
  Pr  Pr3  1  0.328140  0.003782  0.250009  1
  Al  Al4  1  0.131085  0.131966  0.746324  1
  Al  Al5  1  0.868034  0.868915  0.253676  1
  Al  Al6  1  0.000751  0.329585  0.572252  1
  Al  Al7  1  0.998006  0.670652  0.427511  1
  Al  Al8  1  0.993388  0.660582  0.074819  1
  Al  Al9  1  0.339418  0.006612  0.925181  1
  Al  Al10  1  0.998353  0.335035  0.925431  1
  Al  Al11  1  0.664965  0.001647  0.074569  1
  Al  Al12  1  0.670415  0.999249  0.427748  1
  Al  Al13  1  0.329348  0.001994  0.572489  1
  Al  Al14  1  0.337965  0.334380  0.049726  1
  Al  Al15  1  0.665620  0.662035  0.950274  1
  Al  Al16  1  0.670158  0.670234  0.548242  1
  Al  Al17  1  0.329766  0.329842  0.451758  1
  Al  Al18  1  0.341107  0.543453  0.749983  1
  Al  Al19  1  0.658094  0.452010  0.246989  1
  Al  Al20  1  0.547990  0.341906  0.753011  1
  Al  Al21  1  0.456547  0.658893  0.250017  1
  Os  Os22  1  0.999699  0.000301  0.500000  1
  Pt  Pt23  1  0.670598  0.329402  0.500000  1
  Pt  Pt24  1  0.328889  0.671111  0.500000  1
  Pt  Pt25  1  0.328657  0.671343  0.000000  1
  Pt  Pt26  1  0.000219  0.999781  0.000000  1
  Rh  Rh27  1  0.670909  0.329091  0.000000  1
