# generated using pymatgen
data_Be6Si6RuRh11
_symmetry_space_group_name_H-M   'P 1'
_cell_length_a   4.05432800
_cell_length_b   5.74609800
_cell_length_c   12.16612700
_cell_angle_alpha   89.99989363
_cell_angle_beta   89.99988225
_cell_angle_gamma   90.00064412
_symmetry_Int_Tables_number   1
_chemical_formula_structural   Be6Si6RuRh11
_chemical_formula_sum   'Be6 Si6 Ru1 Rh11'
_cell_volume   283.42898076
_cell_formula_units_Z   1
loop_
 _symmetry_equiv_pos_site_id
 _symmetry_equiv_pos_as_xyz
  1  'x, y, z'
loop_
 _atom_site_type_symbol
 _atom_site_label
 _atom_site_symmetry_multiplicity
 _atom_site_fract_x
 _atom_site_fract_y
 _atom_site_fract_z
 _atom_site_occupancy
  Be  Be0  1  0.999996  0.501925  0.998061  1
  Be  Be1  1  0.499695  0.999880  0.166131  1
  Be  Be2  1  0.999713  0.499833  0.333330  1
  Be  Be3  1  0.499994  0.999881  0.500537  1
  Be  Be4  1  0.000294  0.501926  0.668612  1
  Be  Be5  1  0.500294  0.996949  0.833330  1
  Si  Si6  1  0.999999  0.997205  0.997251  1
  Si  Si7  1  0.499780  0.499723  0.166334  1
  Si  Si8  1  0.999787  0.000274  0.333333  1
  Si  Si9  1  0.499995  0.499720  0.500332  1
  Si  Si10  1  0.000206  0.997203  0.669415  1
  Si  Si11  1  0.500207  0.505650  0.833333  1
  Ru  Ru12  1  0.000163  0.749654  0.833332  1
  Rh  Rh13  1  0.500004  0.249948  0.000962  1
  Rh  Rh14  1  0.499998  0.750101  0.002374  1
  Rh  Rh15  1  0.999822  0.249480  0.166658  1
  Rh  Rh16  1  0.999840  0.750171  0.167542  1
  Rh  Rh17  1  0.499829  0.250090  0.333333  1
  Rh  Rh18  1  0.499841  0.749784  0.333333  1
  Rh  Rh19  1  0.000002  0.249476  0.500009  1
  Rh  Rh20  1  0.999992  0.750163  0.499123  1
  Rh  Rh21  1  0.500189  0.249943  0.665708  1
  Rh  Rh22  1  0.500156  0.750092  0.664292  1
  Rh  Rh23  1  0.000210  0.250935  0.833336  1
