# generated using pymatgen
data_Y3CoP6(RuRh)4
_symmetry_space_group_name_H-M   'P 1'
_cell_length_a   3.88517700
_cell_length_b   11.21745600
_cell_length_c   12.65748500
_cell_angle_alpha   90.00000000
_cell_angle_beta   90.00000000
_cell_angle_gamma   90.00000000
_symmetry_Int_Tables_number   1
_chemical_formula_structural   Y3CoP6(RuRh)4
_chemical_formula_sum   'Y6 Co2 P12 Ru8 Rh8'
_cell_volume   551.63600572
_cell_formula_units_Z   2
loop_
 _symmetry_equiv_pos_site_id
 _symmetry_equiv_pos_as_xyz
  1  'x, y, z'
loop_
 _atom_site_type_symbol
 _atom_site_label
 _atom_site_symmetry_multiplicity
 _atom_site_fract_x
 _atom_site_fract_y
 _atom_site_fract_z
 _atom_site_occupancy
  Y  Y0  1  0.000000  0.500000  0.521068  1
  Y  Y1  1  0.500000  0.000000  0.478879  1
  Y  Y2  1  0.500000  0.818159  0.201809  1
  Y  Y3  1  0.500000  0.181841  0.201809  1
  Y  Y4  1  0.000000  0.681725  0.798177  1
  Y  Y5  1  0.000000  0.318275  0.798177  1
  Co  Co6  1  0.000000  0.500000  0.990426  1
  Co  Co7  1  0.500000  0.000000  0.009642  1
  P  P8  1  0.500000  0.500000  0.885823  1
  P  P9  1  0.000000  0.000000  0.114370  1
  P  P10  1  0.500000  0.500000  0.345284  1
  P  P11  1  0.000000  0.000000  0.656156  1
  P  P12  1  0.500000  0.313243  0.616769  1
  P  P13  1  0.500000  0.686757  0.616769  1
  P  P14  1  0.000000  0.190555  0.381236  1
  P  P15  1  0.000000  0.809445  0.381236  1
  P  P16  1  0.500000  0.847061  0.899266  1
  P  P17  1  0.500000  0.152939  0.899266  1
  P  P18  1  0.000000  0.652467  0.100874  1
  P  P19  1  0.000000  0.347533  0.100874  1
  Ru  Ru20  1  0.500000  0.500000  0.157871  1
  Ru  Ru21  1  0.000000  0.000000  0.841807  1
  Ru  Ru22  1  0.500000  0.335892  0.991824  1
  Ru  Ru23  1  0.500000  0.664108  0.991824  1
  Ru  Ru24  1  0.000000  0.163926  0.008122  1
  Ru  Ru25  1  0.000000  0.836074  0.008122  1
  Ru  Ru26  1  0.500000  0.295504  0.429635  1
  Ru  Ru27  1  0.500000  0.704496  0.429635  1
  Rh  Rh28  1  0.500000  0.500000  0.701784  1
  Rh  Rh29  1  0.000000  0.000000  0.299086  1
  Rh  Rh30  1  0.000000  0.203506  0.571877  1
  Rh  Rh31  1  0.000000  0.796494  0.571877  1
  Rh  Rh32  1  0.500000  0.875500  0.714983  1
  Rh  Rh33  1  0.500000  0.124500  0.714983  1
  Rh  Rh34  1  0.000000  0.624516  0.284329  1
  Rh  Rh35  1  0.000000  0.375484  0.284329  1
