# generated using pymatgen
data_Nd3SmGe4(BO5)4
_symmetry_space_group_name_H-M   'P 1'
_cell_length_a   10.14199775
_cell_length_b   7.67002215
_cell_length_c   4.99709527
_cell_angle_alpha   89.97932339
_cell_angle_beta   91.86322222
_cell_angle_gamma   90.00980542
_symmetry_Int_Tables_number   1
_chemical_formula_structural   Nd3SmGe4(BO5)4
_chemical_formula_sum   'Nd3 Sm1 Ge4 B4 O20'
_cell_volume   388.51522983
_cell_formula_units_Z   1
loop_
 _symmetry_equiv_pos_site_id
 _symmetry_equiv_pos_as_xyz
  1  'x, y, z'
loop_
 _atom_site_type_symbol
 _atom_site_label
 _atom_site_symmetry_multiplicity
 _atom_site_fract_x
 _atom_site_fract_y
 _atom_site_fract_z
 _atom_site_occupancy
  Nd  Nd0  1  0.679297  0.108123  0.006296  1
  Nd  Nd1  1  0.319990  0.892803  0.991621  1
  Nd  Nd2  1  0.821146  0.608045  0.993439  1
  Sm  Sm3  1  0.178464  0.393083  0.007345  1
  Ge  Ge4  1  0.076518  0.733630  0.471056  1
  Ge  Ge5  1  0.575372  0.765532  0.471532  1
  Ge  Ge6  1  0.423342  0.235221  0.529126  1
  Ge  Ge7  1  0.925218  0.265866  0.528569  1
  B  B8  1  0.670115  0.403857  0.456059  1
  B  B9  1  0.169857  0.098384  0.454104  1
  B  B10  1  0.329167  0.594037  0.546477  1
  B  B11  1  0.830489  0.903763  0.543573  1
  O  O12  1  0.028544  0.588106  0.220706  1
  O  O13  1  0.526467  0.910645  0.221228  1
  O  O14  1  0.809980  0.896492  0.264627  1
  O  O15  1  0.307698  0.598861  0.267460  1
  O  O16  1  0.295506  0.163144  0.293849  1
  O  O17  1  0.796274  0.340189  0.297359  1
  O  O18  1  0.152076  0.921245  0.331514  1
  O  O19  1  0.651087  0.579291  0.330103  1
  O  O20  1  0.564429  0.286214  0.340355  1
  O  O21  1  0.064499  0.214937  0.334599  1
  O  O22  1  0.434539  0.713614  0.659758  1
  O  O23  1  0.935544  0.785100  0.659373  1
  O  O24  1  0.348542  0.420210  0.676899  1
  O  O25  1  0.850084  0.078858  0.670031  1
  O  O26  1  0.203293  0.658866  0.706219  1
  O  O27  1  0.703955  0.840079  0.703005  1
  O  O28  1  0.189925  0.107279  0.733399  1
  O  O29  1  0.690924  0.396379  0.735191  1
  O  O30  1  0.472565  0.087725  0.776162  1
  O  O31  1  0.975091  0.410421  0.778971  1
