# generated using pymatgen
data_Ho4Mg2Cu3Rh
_symmetry_space_group_name_H-M   'P 1'
_cell_length_a   7.53485902
_cell_length_b   7.53485902
_cell_length_c   3.74914600
_cell_angle_alpha   90.00000000
_cell_angle_beta   90.00000000
_cell_angle_gamma   89.86776477
_symmetry_Int_Tables_number   1
_chemical_formula_structural   Ho4Mg2Cu3Rh
_chemical_formula_sum   'Ho4 Mg2 Cu3 Rh1'
_cell_volume   212.85382454
_cell_formula_units_Z   1
loop_
 _symmetry_equiv_pos_site_id
 _symmetry_equiv_pos_as_xyz
  1  'x, y, z'
loop_
 _atom_site_type_symbol
 _atom_site_label
 _atom_site_symmetry_multiplicity
 _atom_site_fract_x
 _atom_site_fract_y
 _atom_site_fract_z
 _atom_site_occupancy
  Ho  Ho0  1  0.667545  0.167545  0.500000  1
  Ho  Ho1  1  0.320774  0.820774  0.500000  1
  Ho  Ho2  1  0.176404  0.339685  0.500000  1
  Ho  Ho3  1  0.839685  0.676404  0.500000  1
  Mg  Mg4  1  0.001356  0.003583  0.000000  1
  Mg  Mg5  1  0.503583  0.501356  0.000000  1
  Cu  Cu6  1  0.872960  0.372960  0.000000  1
  Cu  Cu7  1  0.619670  0.875585  0.000000  1
  Cu  Cu8  1  0.375585  0.119670  0.000000  1
  Rh  Rh9  1  0.122438  0.622438  0.000000  1
