# generated using pymatgen
data_Sr3C3Br2
_symmetry_space_group_name_H-M   'P 1'
_cell_length_a   7.78704199
_cell_length_b   7.78704242
_cell_length_c   12.15775000
_cell_angle_alpha   90.00000000
_cell_angle_beta   90.00000000
_cell_angle_gamma   148.92084604
_symmetry_Int_Tables_number   1
_chemical_formula_structural   Sr3C3Br2
_chemical_formula_sum   'Sr6 C6 Br4'
_cell_volume   380.57001836
_cell_formula_units_Z   2
loop_
 _symmetry_equiv_pos_site_id
 _symmetry_equiv_pos_as_xyz
  1  'x, y, z'
loop_
 _atom_site_type_symbol
 _atom_site_label
 _atom_site_symmetry_multiplicity
 _atom_site_fract_x
 _atom_site_fract_y
 _atom_site_fract_z
 _atom_site_occupancy
  Sr  Sr0  1  0.660341  0.339659  0.561069  1
  Sr  Sr1  1  0.339659  0.660341  0.438931  1
  Sr  Sr2  1  0.339659  0.660341  0.061069  1
  Sr  Sr3  1  0.660341  0.339659  0.938931  1
  Sr  Sr4  1  0.125642  0.874358  0.250000  1
  Sr  Sr5  1  0.874358  0.125642  0.750000  1
  C  C6  1  0.266874  0.733126  0.640127  1
  C  C7  1  0.733126  0.266874  0.359873  1
  C  C8  1  0.733126  0.266874  0.140127  1
  C  C9  1  0.266874  0.733126  0.859873  1
  C  C10  1  0.741074  0.258926  0.250000  1
  C  C11  1  0.258926  0.741074  0.750000  1
  Br  Br12  1  0.526325  0.473675  0.750000  1
  Br  Br13  1  0.473675  0.526325  0.250000  1
  Br  Br14  1  0.000000  0.000000  0.000000  1
  Br  Br15  1  0.000000  0.000000  0.500000  1
