# generated using pymatgen
data_Er2Fe4Co8P7
_symmetry_space_group_name_H-M   'P 1'
_cell_length_a   8.98134235
_cell_length_b   8.98590039
_cell_length_c   3.61364500
_cell_angle_alpha   90.00000000
_cell_angle_beta   90.00000000
_cell_angle_gamma   119.92047654
_symmetry_Int_Tables_number   1
_chemical_formula_structural   Er2Fe4Co8P7
_chemical_formula_sum   'Er2 Fe4 Co8 P7'
_cell_volume   252.77052196
_cell_formula_units_Z   1
loop_
 _symmetry_equiv_pos_site_id
 _symmetry_equiv_pos_as_xyz
  1  'x, y, z'
loop_
 _atom_site_type_symbol
 _atom_site_label
 _atom_site_symmetry_multiplicity
 _atom_site_fract_x
 _atom_site_fract_y
 _atom_site_fract_z
 _atom_site_occupancy
  Er  Er0  1  0.000975  0.000296  0.000000  1
  Er  Er1  1  0.333029  0.666083  0.500000  1
  Fe  Fe2  1  0.391964  0.176696  0.000000  1
  Fe  Fe3  1  0.884607  0.457080  0.500000  1
  Fe  Fe4  1  0.541998  0.430031  0.500000  1
  Fe  Fe5  1  0.569497  0.110555  0.500000  1
  Co  Co6  1  0.099166  0.705485  0.000000  1
  Co  Co7  1  0.295120  0.394215  0.000000  1
  Co  Co8  1  0.606168  0.900783  0.000000  1
  Co  Co9  1  0.823177  0.215324  0.000000  1
  Co  Co10  1  0.784893  0.609139  0.000000  1
  Co  Co11  1  0.051588  0.282534  0.500000  1
  Co  Co12  1  0.717873  0.769408  0.500000  1
  Co  Co13  1  0.231728  0.948675  0.500000  1
  P  P14  1  0.076098  0.446886  0.000000  1
  P  P15  1  0.553101  0.628789  0.000000  1
  P  P16  1  0.370470  0.924288  0.000000  1
  P  P17  1  0.780118  0.044066  0.500000  1
  P  P18  1  0.957060  0.735993  0.500000  1
  P  P19  1  0.265507  0.219918  0.500000  1
  P  P20  1  0.665865  0.333753  0.000000  1
