# generated using pymatgen
data_Yb5SmPa2(B6Os)4
_symmetry_space_group_name_H-M   'P 1'
_cell_length_a   3.67937400
_cell_length_b   9.12212983
_cell_length_c   11.45772199
_cell_angle_alpha   90.44919919
_cell_angle_beta   90.00000000
_cell_angle_gamma   90.00000000
_symmetry_Int_Tables_number   1
_chemical_formula_structural   Yb5SmPa2(B6Os)4
_chemical_formula_sum   'Yb5 Sm1 Pa2 B24 Os4'
_cell_volume   384.55203766
_cell_formula_units_Z   1
loop_
 _symmetry_equiv_pos_site_id
 _symmetry_equiv_pos_as_xyz
  1  'x, y, z'
loop_
 _atom_site_type_symbol
 _atom_site_label
 _atom_site_symmetry_multiplicity
 _atom_site_fract_x
 _atom_site_fract_y
 _atom_site_fract_z
 _atom_site_occupancy
  Yb  Yb0  1  0.000000  0.176340  0.912652  1
  Yb  Yb1  1  0.000000  0.946169  0.376848  1
  Yb  Yb2  1  0.000000  0.054909  0.624932  1
  Yb  Yb3  1  0.000000  0.442273  0.125711  1
  Yb  Yb4  1  0.000000  0.555641  0.873360  1
  Sm  Sm5  1  0.000000  0.824321  0.085443  1
  Pa  Pa6  1  0.000000  0.319172  0.412149  1
  Pa  Pa7  1  0.000000  0.680452  0.588712  1
  B  B8  1  0.500000  0.553139  0.432641  1
  B  B9  1  0.500000  0.446851  0.567080  1
  B  B10  1  0.500000  0.055802  0.068602  1
  B  B11  1  0.500000  0.946351  0.930139  1
  B  B12  1  0.500000  0.748879  0.420977  1
  B  B13  1  0.500000  0.251470  0.579875  1
  B  B14  1  0.500000  0.248764  0.080275  1
  B  B15  1  0.500000  0.750929  0.918100  1
  B  B16  1  0.500000  0.790663  0.268613  1
  B  B17  1  0.500000  0.209190  0.732447  1
  B  B18  1  0.500000  0.291949  0.232763  1
  B  B19  1  0.500000  0.707177  0.766995  1
  B  B20  1  0.500000  0.630037  0.185694  1
  B  B21  1  0.500000  0.368658  0.814183  1
  B  B22  1  0.500000  0.132926  0.315282  1
  B  B23  1  0.500000  0.867254  0.685569  1
  B  B24  1  0.500000  0.984213  0.214551  1
  B  B25  1  0.500000  0.017465  0.786218  1
  B  B26  1  0.500000  0.483459  0.286108  1
  B  B27  1  0.500000  0.515934  0.713440  1
  B  B28  1  0.500000  0.601023  0.028617  1
  B  B29  1  0.500000  0.398259  0.971120  1
  B  B30  1  0.500000  0.116948  0.468211  1
  B  B31  1  0.500000  0.883112  0.532496  1
  Os  Os32  1  0.000000  0.634989  0.325932  1
  Os  Os33  1  0.000000  0.365227  0.673905  1
  Os  Os34  1  0.000000  0.141707  0.183992  1
  Os  Os35  1  0.000000  0.858351  0.816371  1
