# generated using pymatgen
data_AcNd(SeO3)3
_symmetry_space_group_name_H-M   'P 1'
_cell_length_a   7.22310052
_cell_length_b   8.16991106
_cell_length_c   9.45281700
_cell_angle_alpha   69.55534384
_cell_angle_beta   76.25295694
_cell_angle_gamma   64.50927731
_symmetry_Int_Tables_number   1
_chemical_formula_structural   AcNd(SeO3)3
_chemical_formula_sum   'Ac2 Nd2 Se6 O18'
_cell_volume   469.29076430
_cell_formula_units_Z   2
loop_
 _symmetry_equiv_pos_site_id
 _symmetry_equiv_pos_as_xyz
  1  'x, y, z'
loop_
 _atom_site_type_symbol
 _atom_site_label
 _atom_site_symmetry_multiplicity
 _atom_site_fract_x
 _atom_site_fract_y
 _atom_site_fract_z
 _atom_site_occupancy
  Ac  Ac0  1  0.634839  0.345987  0.322784  1
  Ac  Ac1  1  0.365161  0.654013  0.677216  1
  Nd  Nd2  1  0.230454  0.307033  0.125769  1
  Nd  Nd3  1  0.769546  0.692967  0.874231  1
  Se  Se4  1  0.448808  0.168672  0.754010  1
  Se  Se5  1  0.188631  0.761073  0.036399  1
  Se  Se6  1  0.856140  0.775027  0.497881  1
  Se  Se7  1  0.811369  0.238927  0.963601  1
  Se  Se8  1  0.551192  0.831328  0.245990  1
  Se  Se9  1  0.143860  0.224973  0.502119  1
  O  O10  1  0.670726  0.021040  0.838881  1
  O  O11  1  0.329274  0.978960  0.161119  1
  O  O12  1  0.630310  0.808819  0.623416  1
  O  O13  1  0.369690  0.191181  0.376584  1
  O  O14  1  0.392863  0.775504  0.902625  1
  O  O15  1  0.320105  0.326395  0.862109  1
  O  O16  1  0.902799  0.345872  0.052182  1
  O  O17  1  0.526396  0.325534  0.599583  1
  O  O18  1  0.710335  0.438298  0.819743  1
  O  O19  1  0.097201  0.654128  0.947818  1
  O  O20  1  0.151220  0.005519  0.590766  1
  O  O21  1  0.018475  0.680078  0.643014  1
  O  O22  1  0.607137  0.224496  0.097375  1
  O  O23  1  0.679895  0.673605  0.137891  1
  O  O24  1  0.473604  0.674466  0.400417  1
  O  O25  1  0.289665  0.561702  0.180257  1
  O  O26  1  0.848780  0.994481  0.409234  1
  O  O27  1  0.981525  0.319922  0.356986  1
