# generated using pymatgen
data_BaHf(NbS2)8
_symmetry_space_group_name_H-M   'P 1'
_cell_length_a   6.75381900
_cell_length_b   6.75381940
_cell_length_c   14.17854300
_cell_angle_alpha   90.00000000
_cell_angle_beta   90.00000000
_cell_angle_gamma   120.00000294
_symmetry_Int_Tables_number   1
_chemical_formula_structural   BaHf(NbS2)8
_chemical_formula_sum   'Ba1 Hf1 Nb8 S16'
_cell_volume   560.09421141
_cell_formula_units_Z   1
loop_
 _symmetry_equiv_pos_site_id
 _symmetry_equiv_pos_as_xyz
  1  'x, y, z'
loop_
 _atom_site_type_symbol
 _atom_site_label
 _atom_site_symmetry_multiplicity
 _atom_site_fract_x
 _atom_site_fract_y
 _atom_site_fract_z
 _atom_site_occupancy
  Ba  Ba0  1  0.000000  0.000000  0.000000  1
  Hf  Hf1  1  0.000000  0.000000  0.500000  1
  Nb  Nb2  1  0.991333  0.495666  0.279936  1
  Nb  Nb3  1  0.008667  0.504334  0.720064  1
  Nb  Nb4  1  0.495666  0.504334  0.720064  1
  Nb  Nb5  1  0.504334  0.008667  0.279936  1
  Nb  Nb6  1  0.000000  0.000000  0.721405  1
  Nb  Nb7  1  0.000000  0.000000  0.278595  1
  Nb  Nb8  1  0.504334  0.495666  0.279936  1
  Nb  Nb9  1  0.495666  0.991333  0.720064  1
  S  S10  1  0.333333  0.666667  0.608535  1
  S  S11  1  0.666667  0.333333  0.167314  1
  S  S12  1  0.666667  0.333333  0.391465  1
  S  S13  1  0.333333  0.666667  0.832686  1
  S  S14  1  0.169123  0.338247  0.390297  1
  S  S15  1  0.831066  0.168934  0.829815  1
  S  S16  1  0.337872  0.168934  0.829815  1
  S  S17  1  0.661753  0.830877  0.390297  1
  S  S18  1  0.169123  0.830877  0.390297  1
  S  S19  1  0.831066  0.662128  0.829815  1
  S  S20  1  0.168934  0.337872  0.170185  1
  S  S21  1  0.830877  0.169123  0.609703  1
  S  S22  1  0.338247  0.169123  0.609703  1
  S  S23  1  0.662128  0.831066  0.170185  1
  S  S24  1  0.168934  0.831066  0.170185  1
  S  S25  1  0.830877  0.661753  0.609703  1
