# generated using pymatgen
data_NaVOF4
_symmetry_space_group_name_H-M   'P 1'
_cell_length_a   5.17425500
_cell_length_b   5.74588280
_cell_length_c   13.86771000
_cell_angle_alpha   78.84652251
_cell_angle_beta   90.00000000
_cell_angle_gamma   90.00000000
_symmetry_Int_Tables_number   1
_chemical_formula_structural   NaVOF4
_chemical_formula_sum   'Na4 V4 O4 F16'
_cell_volume   404.50898370
_cell_formula_units_Z   4
loop_
 _symmetry_equiv_pos_site_id
 _symmetry_equiv_pos_as_xyz
  1  'x, y, z'
loop_
 _atom_site_type_symbol
 _atom_site_label
 _atom_site_symmetry_multiplicity
 _atom_site_fract_x
 _atom_site_fract_y
 _atom_site_fract_z
 _atom_site_occupancy
  Na  Na0  1  0.406322  0.676082  0.121088  1
  Na  Na1  1  0.906322  0.323918  0.378912  1
  Na  Na2  1  0.593678  0.323918  0.878912  1
  Na  Na3  1  0.093678  0.676082  0.621088  1
  V  V4  1  0.918213  0.180833  0.142062  1
  V  V5  1  0.418213  0.819167  0.357938  1
  V  V6  1  0.081787  0.819167  0.857938  1
  V  V7  1  0.581787  0.180833  0.642062  1
  O  O8  1  0.142931  0.348795  0.086295  1
  O  O9  1  0.642931  0.651205  0.413705  1
  O  O10  1  0.857069  0.651205  0.913705  1
  O  O11  1  0.357069  0.348795  0.586295  1
  F  F12  1  0.012035  0.887749  0.122302  1
  F  F13  1  0.512035  0.112251  0.377698  1
  F  F14  1  0.987965  0.112251  0.877698  1
  F  F15  1  0.487965  0.887749  0.622302  1
  F  F16  1  0.721946  0.397231  0.193708  1
  F  F17  1  0.221946  0.602769  0.306292  1
  F  F18  1  0.278054  0.602769  0.806292  1
  F  F19  1  0.778054  0.397231  0.693708  1
  F  F20  1  0.668601  0.189265  0.047543  1
  F  F21  1  0.168601  0.810735  0.452457  1
  F  F22  1  0.331399  0.810735  0.952457  1
  F  F23  1  0.831399  0.189265  0.547543  1
  F  F24  1  0.053700  0.095315  0.268963  1
  F  F25  1  0.553700  0.904685  0.231037  1
  F  F26  1  0.946300  0.904685  0.731037  1
  F  F27  1  0.446300  0.095315  0.768963  1
