# generated using pymatgen
data_Lu4Sn5PRh7
_symmetry_space_group_name_H-M   'P 1'
_cell_length_a   7.45624114
_cell_length_b   7.45596506
_cell_length_c   7.45624053
_cell_angle_alpha   109.74871576
_cell_angle_beta   108.89615869
_cell_angle_gamma   109.74871800
_symmetry_Int_Tables_number   1
_chemical_formula_structural   Lu4Sn5PRh7
_chemical_formula_sum   'Lu4 Sn5 P1 Rh7'
_cell_volume   319.15772650
_cell_formula_units_Z   1
loop_
 _symmetry_equiv_pos_site_id
 _symmetry_equiv_pos_as_xyz
  1  'x, y, z'
loop_
 _atom_site_type_symbol
 _atom_site_label
 _atom_site_symmetry_multiplicity
 _atom_site_fract_x
 _atom_site_fract_y
 _atom_site_fract_z
 _atom_site_occupancy
  Lu  Lu0  1  0.468429  0.453326  0.468429  1
  Lu  Lu1  1  0.015366  0.547076  0.015366  1
  Lu  Lu2  1  0.468433  0.999922  0.015073  1
  Lu  Lu3  1  0.015073  0.999922  0.468433  1
  Sn  Sn4  1  0.713066  0.000039  0.713066  1
  Sn  Sn5  1  0.671032  0.687198  0.983922  1
  Sn  Sn6  1  0.297287  0.313149  0.984310  1
  Sn  Sn7  1  0.983922  0.687198  0.671032  1
  Sn  Sn8  1  0.984310  0.313149  0.297287  1
  P  P9  1  0.352031  0.000159  0.352031  1
  Rh  Rh10  1  0.501094  0.757761  0.259002  1
  Rh  Rh11  1  0.742751  0.242048  0.500928  1
  Rh  Rh12  1  0.259002  0.757761  0.501094  1
  Rh  Rh13  1  0.238231  0.499622  0.738337  1
  Rh  Rh14  1  0.050706  0.000002  0.050706  1
  Rh  Rh15  1  0.500928  0.242048  0.742751  1
  Rh  Rh16  1  0.738337  0.499622  0.238231  1
