# generated using pymatgen
data_NdY4(In2Au)2
_symmetry_space_group_name_H-M   'P 1'
_cell_length_a   3.68406500
_cell_length_b   8.23143200
_cell_length_c   18.51902600
_cell_angle_alpha   90.00000000
_cell_angle_beta   90.00000000
_cell_angle_gamma   90.00000000
_symmetry_Int_Tables_number   1
_chemical_formula_structural   NdY4(In2Au)2
_chemical_formula_sum   'Nd2 Y8 In8 Au4'
_cell_volume   561.59188076
_cell_formula_units_Z   2
loop_
 _symmetry_equiv_pos_site_id
 _symmetry_equiv_pos_as_xyz
  1  'x, y, z'
loop_
 _atom_site_type_symbol
 _atom_site_label
 _atom_site_symmetry_multiplicity
 _atom_site_fract_x
 _atom_site_fract_y
 _atom_site_fract_z
 _atom_site_occupancy
  Nd  Nd0  1  0.000000  0.500000  0.500000  1
  Nd  Nd1  1  0.000000  0.000000  0.000000  1
  Y  Y2  1  0.000000  0.735774  0.283545  1
  Y  Y3  1  0.000000  0.264226  0.716455  1
  Y  Y4  1  0.000000  0.764226  0.783545  1
  Y  Y5  1  0.000000  0.235774  0.216455  1
  Y  Y6  1  0.000000  0.623211  0.079813  1
  Y  Y7  1  0.000000  0.376789  0.920187  1
  Y  Y8  1  0.000000  0.876789  0.579813  1
  Y  Y9  1  0.000000  0.123211  0.420187  1
  In  In10  1  0.500000  0.703910  0.932111  1
  In  In11  1  0.500000  0.296090  0.067889  1
  In  In12  1  0.500000  0.796090  0.432111  1
  In  In13  1  0.500000  0.203910  0.567889  1
  In  In14  1  0.500000  0.582612  0.649725  1
  In  In15  1  0.500000  0.417388  0.350275  1
  In  In16  1  0.500000  0.917388  0.149725  1
  In  In17  1  0.500000  0.082612  0.850275  1
  Au  Au18  1  0.500000  0.526828  0.196633  1
  Au  Au19  1  0.500000  0.473172  0.803367  1
  Au  Au20  1  0.500000  0.973172  0.696633  1
  Au  Au21  1  0.500000  0.026828  0.303367  1
