# generated using pymatgen
data_Th6TcPd2Au5
_symmetry_space_group_name_H-M   'P 1'
_cell_length_a   8.25218663
_cell_length_b   8.29885951
_cell_length_c   8.31188112
_cell_angle_alpha   114.77821895
_cell_angle_beta   113.91614282
_cell_angle_gamma   114.17702410
_symmetry_Int_Tables_number   1
_chemical_formula_structural   Th6TcPd2Au5
_chemical_formula_sum   'Th6 Tc1 Pd2 Au5'
_cell_volume   338.24429022
_cell_formula_units_Z   1
loop_
 _symmetry_equiv_pos_site_id
 _symmetry_equiv_pos_as_xyz
  1  'x, y, z'
loop_
 _atom_site_type_symbol
 _atom_site_label
 _atom_site_symmetry_multiplicity
 _atom_site_fract_x
 _atom_site_fract_y
 _atom_site_fract_z
 _atom_site_occupancy
  Th  Th0  1  0.032952  0.392446  0.280656  1
  Th  Th1  1  0.382515  0.265647  0.018294  1
  Th  Th2  1  0.724789  0.973486  0.622361  1
  Th  Th3  1  0.269831  0.026422  0.380902  1
  Th  Th4  1  0.617455  0.731212  0.970831  1
  Th  Th5  1  0.978155  0.619858  0.732501  1
  Tc  Tc6  1  0.003179  0.002075  0.002221  1
  Pd  Pd7  1  0.501061  0.499885  0.497693  1
  Pd  Pd8  1  0.419591  0.924946  0.763995  1
  Au  Au9  1  0.930914  0.765257  0.427027  1
  Au  Au10  1  0.236414  0.574964  0.073392  1
  Au  Au11  1  0.759247  0.417030  0.924229  1
  Au  Au12  1  0.068795  0.232896  0.575380  1
  Au  Au13  1  0.575103  0.073876  0.230519  1
