# generated using pymatgen
data_Lu5(SiPb)2
_symmetry_space_group_name_H-M   'P 1'
_cell_length_a   8.46260540
_cell_length_b   8.46260551
_cell_length_c   7.72268200
_cell_angle_alpha   90.00000000
_cell_angle_beta   90.00000000
_cell_angle_gamma   125.32107744
_symmetry_Int_Tables_number   1
_chemical_formula_structural   Lu5(SiPb)2
_chemical_formula_sum   'Lu10 Si4 Pb4'
_cell_volume   451.25970731
_cell_formula_units_Z   2
loop_
 _symmetry_equiv_pos_site_id
 _symmetry_equiv_pos_as_xyz
  1  'x, y, z'
loop_
 _atom_site_type_symbol
 _atom_site_label
 _atom_site_symmetry_multiplicity
 _atom_site_fract_x
 _atom_site_fract_y
 _atom_site_fract_z
 _atom_site_occupancy
  Lu  Lu0  1  0.042869  0.290375  0.333568  1
  Lu  Lu1  1  0.957131  0.709625  0.666432  1
  Lu  Lu2  1  0.457131  0.209625  0.833568  1
  Lu  Lu3  1  0.790375  0.542869  0.166432  1
  Lu  Lu4  1  0.542869  0.790375  0.166432  1
  Lu  Lu5  1  0.209625  0.457131  0.833568  1
  Lu  Lu6  1  0.709625  0.957131  0.666432  1
  Lu  Lu7  1  0.290375  0.042869  0.333568  1
  Lu  Lu8  1  0.000000  0.000000  0.000000  1
  Lu  Lu9  1  0.500000  0.500000  0.500000  1
  Si  Si10  1  0.364584  0.364584  0.136649  1
  Si  Si11  1  0.635416  0.635416  0.863351  1
  Si  Si12  1  0.135416  0.135416  0.636649  1
  Si  Si13  1  0.864584  0.864584  0.363351  1
  Pb  Pb14  1  0.789208  0.210792  0.000000  1
  Pb  Pb15  1  0.210792  0.789208  0.000000  1
  Pb  Pb16  1  0.710792  0.289208  0.500000  1
  Pb  Pb17  1  0.289208  0.710792  0.500000  1
