# generated using pymatgen
data_TbBeInF6
_symmetry_space_group_name_H-M   'P 1'
_cell_length_a   5.93393000
_cell_length_b   6.51241827
_cell_length_c   7.26617758
_cell_angle_alpha   66.63399552
_cell_angle_beta   90.00000000
_cell_angle_gamma   90.00000000
_symmetry_Int_Tables_number   1
_chemical_formula_structural   TbBeInF6
_chemical_formula_sum   'Tb2 Be2 In2 F12'
_cell_volume   257.76782826
_cell_formula_units_Z   2
loop_
 _symmetry_equiv_pos_site_id
 _symmetry_equiv_pos_as_xyz
  1  'x, y, z'
loop_
 _atom_site_type_symbol
 _atom_site_label
 _atom_site_symmetry_multiplicity
 _atom_site_fract_x
 _atom_site_fract_y
 _atom_site_fract_z
 _atom_site_occupancy
  Tb  Tb0  1  0.250000  0.389044  0.185200  1
  Tb  Tb1  1  0.750000  0.610956  0.814800  1
  Be  Be2  1  0.250000  0.767368  0.465648  1
  Be  Be3  1  0.750000  0.232632  0.534352  1
  In  In4  1  0.250000  0.071844  0.804241  1
  In  In5  1  0.750000  0.928156  0.195759  1
  F  F6  1  0.462018  0.757433  0.596977  1
  F  F7  1  0.537982  0.242567  0.403023  1
  F  F8  1  0.962018  0.242567  0.403023  1
  F  F9  1  0.037982  0.757433  0.596977  1
  F  F10  1  0.250000  0.571404  0.396226  1
  F  F11  1  0.750000  0.428596  0.603774  1
  F  F12  1  0.498986  0.678753  0.029406  1
  F  F13  1  0.501014  0.321247  0.970594  1
  F  F14  1  0.998986  0.321247  0.970594  1
  F  F15  1  0.001014  0.678753  0.029406  1
  F  F16  1  0.250000  0.995134  0.273702  1
  F  F17  1  0.750000  0.004866  0.726298  1
