# generated using pymatgen
data_Ho3CdCoSn3Ir
_symmetry_space_group_name_H-M   'P 1'
_cell_length_a   7.67270800
_cell_length_b   7.67270660
_cell_length_c   3.81908600
_cell_angle_alpha   90.00000000
_cell_angle_beta   90.00000000
_cell_angle_gamma   119.99999743
_symmetry_Int_Tables_number   1
_chemical_formula_structural   Ho3CdCoSn3Ir
_chemical_formula_sum   'Ho3 Cd1 Co1 Sn3 Ir1'
_cell_volume   194.70959022
_cell_formula_units_Z   1
loop_
 _symmetry_equiv_pos_site_id
 _symmetry_equiv_pos_as_xyz
  1  'x, y, z'
loop_
 _atom_site_type_symbol
 _atom_site_label
 _atom_site_symmetry_multiplicity
 _atom_site_fract_x
 _atom_site_fract_y
 _atom_site_fract_z
 _atom_site_occupancy
  Ho  Ho0  1  0.381719  0.408690  0.500000  1
  Ho  Ho1  1  0.591310  0.973030  0.500000  1
  Ho  Ho2  1  0.026970  0.618281  0.500000  1
  Cd  Cd3  1  0.666667  0.333333  0.000000  1
  Co  Co4  1  0.000000  0.000000  0.500000  1
  Sn  Sn5  1  0.752155  0.751298  0.000000  1
  Sn  Sn6  1  0.248702  0.000858  0.000000  1
  Sn  Sn7  1  0.999142  0.247845  0.000000  1
  Ir  Ir8  1  0.333333  0.666667  0.000000  1
