# generated using pymatgen
data_Dy3TiZn2Rh3
_symmetry_space_group_name_H-M   'P 1'
_cell_length_a   7.12677838
_cell_length_b   6.99606571
_cell_length_c   4.03370500
_cell_angle_alpha   90.00000000
_cell_angle_beta   90.00000000
_cell_angle_gamma   119.39510453
_symmetry_Int_Tables_number   1
_chemical_formula_structural   Dy3TiZn2Rh3
_chemical_formula_sum   'Dy3 Ti1 Zn2 Rh3'
_cell_volume   175.22534572
_cell_formula_units_Z   1
loop_
 _symmetry_equiv_pos_site_id
 _symmetry_equiv_pos_as_xyz
  1  'x, y, z'
loop_
 _atom_site_type_symbol
 _atom_site_label
 _atom_site_symmetry_multiplicity
 _atom_site_fract_x
 _atom_site_fract_y
 _atom_site_fract_z
 _atom_site_occupancy
  Dy  Dy0  1  0.431525  0.416199  0.500000  1
  Dy  Dy1  1  0.568475  0.984673  0.500000  1
  Dy  Dy2  1  0.000000  0.610084  0.500000  1
  Ti  Ti3  1  0.000000  0.231754  0.000000  1
  Zn  Zn4  1  0.753292  0.759587  0.000000  1
  Zn  Zn5  1  0.246708  0.006296  0.000000  1
  Rh  Rh6  1  0.687730  0.326727  0.000000  1
  Rh  Rh7  1  0.312270  0.638997  0.000000  1
  Rh  Rh8  1  0.000000  0.025683  0.500000  1
