# generated using pymatgen
data_Li3Ce2PrPt3
_symmetry_space_group_name_H-M   'P 1'
_cell_length_a   7.24697100
_cell_length_b   7.30858821
_cell_length_c   4.10818900
_cell_angle_alpha   90.00000000
_cell_angle_beta   90.00000000
_cell_angle_gamma   119.72149672
_symmetry_Int_Tables_number   1
_chemical_formula_structural   Li3Ce2PrPt3
_chemical_formula_sum   'Li3 Ce2 Pr1 Pt3'
_cell_volume   188.96572247
_cell_formula_units_Z   1
loop_
 _symmetry_equiv_pos_site_id
 _symmetry_equiv_pos_as_xyz
  1  'x, y, z'
loop_
 _atom_site_type_symbol
 _atom_site_label
 _atom_site_symmetry_multiplicity
 _atom_site_fract_x
 _atom_site_fract_y
 _atom_site_fract_z
 _atom_site_occupancy
  Li  Li0  1  0.999939  0.769293  0.000000  1
  Li  Li1  1  0.764480  0.000000  0.000000  1
  Li  Li2  1  0.230647  0.230707  0.000000  1
  Ce  Ce3  1  0.592505  0.591436  0.500000  1
  Ce  Ce4  1  0.001070  0.408564  0.500000  1
  Pr  Pr5  1  0.408668  0.000000  0.500000  1
  Pt  Pt6  1  0.990119  0.000000  0.500000  1
  Pt  Pt7  1  0.680399  0.348224  0.000000  1
  Pt  Pt8  1  0.332173  0.651776  0.000000  1
