# generated using pymatgen
data_Ho2ErZn3Ge2Pd
_symmetry_space_group_name_H-M   'P 1'
_cell_length_a   6.88077165
_cell_length_b   6.88077249
_cell_length_c   4.28053400
_cell_angle_alpha   90.00000000
_cell_angle_beta   90.00000000
_cell_angle_gamma   119.92070825
_symmetry_Int_Tables_number   1
_chemical_formula_structural   Ho2ErZn3Ge2Pd
_chemical_formula_sum   'Ho2 Er1 Zn3 Ge2 Pd1'
_cell_volume   175.65049225
_cell_formula_units_Z   1
loop_
 _symmetry_equiv_pos_site_id
 _symmetry_equiv_pos_as_xyz
  1  'x, y, z'
loop_
 _atom_site_type_symbol
 _atom_site_label
 _atom_site_symmetry_multiplicity
 _atom_site_fract_x
 _atom_site_fract_y
 _atom_site_fract_z
 _atom_site_occupancy
  Ho  Ho0  1  0.585176  0.000087  0.000000  1
  Ho  Ho1  1  0.000087  0.585176  0.000000  1
  Er  Er2  1  0.414856  0.414856  0.000000  1
  Zn  Zn3  1  0.236490  0.000291  0.500000  1
  Zn  Zn4  1  0.000291  0.236490  0.500000  1
  Zn  Zn5  1  0.762754  0.762754  0.500000  1
  Ge  Ge6  1  0.333305  0.666342  0.500000  1
  Ge  Ge7  1  0.666342  0.333305  0.500000  1
  Pd  Pd8  1  0.000699  0.000699  0.000000  1
