# generated using pymatgen
data_Ba6LaGd(BO3)6
_symmetry_space_group_name_H-M   'P 1'
_cell_length_a   8.33185462
_cell_length_b   8.33185456
_cell_length_c   8.33185474
_cell_angle_alpha   105.52838177
_cell_angle_beta   105.52838367
_cell_angle_gamma   105.52838809
_symmetry_Int_Tables_number   1
_chemical_formula_structural   Ba6LaGd(BO3)6
_chemical_formula_sum   'Ba6 La1 Gd1 B6 O18'
_cell_volume   499.77189668
_cell_formula_units_Z   1
loop_
 _symmetry_equiv_pos_site_id
 _symmetry_equiv_pos_as_xyz
  1  'x, y, z'
loop_
 _atom_site_type_symbol
 _atom_site_label
 _atom_site_symmetry_multiplicity
 _atom_site_fract_x
 _atom_site_fract_y
 _atom_site_fract_z
 _atom_site_occupancy
  Ba  Ba0  1  0.357494  0.731232  0.850617  1
  Ba  Ba1  1  0.850617  0.357494  0.731232  1
  Ba  Ba2  1  0.731232  0.850617  0.357494  1
  Ba  Ba3  1  0.642506  0.268768  0.149383  1
  Ba  Ba4  1  0.149383  0.642506  0.268768  1
  Ba  Ba5  1  0.268768  0.149383  0.642506  1
  La  La6  1  0.000000  0.000000  0.000000  1
  Gd  Gd7  1  0.500000  0.500000  0.500000  1
  B  B8  1  0.707503  0.613128  0.954997  1
  B  B9  1  0.954997  0.707503  0.613128  1
  B  B10  1  0.613128  0.954997  0.707503  1
  B  B11  1  0.045003  0.292497  0.386872  1
  B  B12  1  0.386872  0.045003  0.292497  1
  B  B13  1  0.292497  0.386872  0.045003  1
  O  O14  1  0.048311  0.806664  0.536204  1
  O  O15  1  0.536204  0.048311  0.806664  1
  O  O16  1  0.430052  0.493232  0.211659  1
  O  O17  1  0.493232  0.211659  0.430052  1
  O  O18  1  0.211659  0.430052  0.493232  1
  O  O19  1  0.788341  0.569948  0.506768  1
  O  O20  1  0.569948  0.506768  0.788341  1
  O  O21  1  0.506768  0.788341  0.569948  1
  O  O22  1  0.260749  0.203915  0.977658  1
  O  O23  1  0.203915  0.977658  0.260749  1
  O  O24  1  0.977658  0.260749  0.203915  1
  O  O25  1  0.739251  0.796085  0.022342  1
  O  O26  1  0.796085  0.022342  0.739251  1
  O  O27  1  0.022342  0.739251  0.796085  1
  O  O28  1  0.193336  0.463796  0.951689  1
  O  O29  1  0.463796  0.951689  0.193336  1
  O  O30  1  0.951689  0.193336  0.463796  1
  O  O31  1  0.806664  0.536204  0.048311  1
