# generated using pymatgen
data_Y5Lu(Fe8Co)2
_symmetry_space_group_name_H-M   'P 1'
_cell_length_a   5.11236500
_cell_length_b   5.11236565
_cell_length_c   16.17444900
_cell_angle_alpha   90.00000000
_cell_angle_beta   90.00000000
_cell_angle_gamma   119.99998934
_symmetry_Int_Tables_number   1
_chemical_formula_structural   Y5Lu(Fe8Co)2
_chemical_formula_sum   'Y5 Lu1 Fe16 Co2'
_cell_volume   366.10354495
_cell_formula_units_Z   1
loop_
 _symmetry_equiv_pos_site_id
 _symmetry_equiv_pos_as_xyz
  1  'x, y, z'
loop_
 _atom_site_type_symbol
 _atom_site_label
 _atom_site_symmetry_multiplicity
 _atom_site_fract_x
 _atom_site_fract_y
 _atom_site_fract_z
 _atom_site_occupancy
  Y  Y0  1  0.666667  0.333333  0.035748  1
  Y  Y1  1  0.666667  0.333333  0.463084  1
  Y  Y2  1  0.333333  0.666667  0.537250  1
  Y  Y3  1  0.333333  0.666667  0.751398  1
  Y  Y4  1  0.666667  0.333333  0.249344  1
  Lu  Lu5  1  0.333333  0.666667  0.962751  1
  Fe  Fe6  1  0.166658  0.833342  0.371610  1
  Fe  Fe7  1  0.166658  0.333316  0.371610  1
  Fe  Fe8  1  0.666684  0.833342  0.371610  1
  Fe  Fe9  1  0.833357  0.166643  0.628466  1
  Fe  Fe10  1  0.833357  0.666714  0.628466  1
  Fe  Fe11  1  0.333286  0.166643  0.628466  1
  Fe  Fe12  1  0.833182  0.166818  0.873587  1
  Fe  Fe13  1  0.833182  0.666365  0.873587  1
  Fe  Fe14  1  0.333635  0.166818  0.873587  1
  Fe  Fe15  1  0.167194  0.832806  0.126517  1
  Fe  Fe16  1  0.167194  0.334388  0.126517  1
  Fe  Fe17  1  0.665612  0.832806  0.126517  1
  Fe  Fe18  1  0.333333  0.666667  0.249306  1
  Fe  Fe19  1  0.666667  0.333333  0.750803  1
  Fe  Fe20  1  0.000000  0.000000  0.249034  1
  Fe  Fe21  1  0.000000  0.000000  0.751001  1
  Co  Co22  1  0.000000  0.000000  0.500037  1
  Co  Co23  1  0.000000  0.000000  0.999703  1
