# generated using pymatgen
data_Dy6MnB14Ru
_symmetry_space_group_name_H-M   'P 1'
_cell_length_a   3.48275600
_cell_length_b   8.06616008
_cell_length_c   9.30956700
_cell_angle_alpha   90.00000000
_cell_angle_beta   90.00000000
_cell_angle_gamma   77.53243718
_symmetry_Int_Tables_number   1
_chemical_formula_structural   Dy6MnB14Ru
_chemical_formula_sum   'Dy6 Mn1 B14 Ru1'
_cell_volume   255.36143836
_cell_formula_units_Z   1
loop_
 _symmetry_equiv_pos_site_id
 _symmetry_equiv_pos_as_xyz
  1  'x, y, z'
loop_
 _atom_site_type_symbol
 _atom_site_label
 _atom_site_symmetry_multiplicity
 _atom_site_fract_x
 _atom_site_fract_y
 _atom_site_fract_z
 _atom_site_occupancy
  Dy  Dy0  1  0.105062  0.789877  0.058060  1
  Dy  Dy1  1  0.756736  0.486527  0.250000  1
  Dy  Dy2  1  0.105062  0.789877  0.441940  1
  Dy  Dy3  1  0.895525  0.208951  0.563518  1
  Dy  Dy4  1  0.240421  0.519162  0.750000  1
  Dy  Dy5  1  0.895525  0.208951  0.936482  1
  Mn  Mn6  1  0.053833  0.892336  0.750000  1
  B  B7  1  0.272900  0.454203  0.033561  1
  B  B8  1  0.479160  0.041685  0.095603  1
  B  B9  1  0.368419  0.263165  0.150523  1
  B  B10  1  0.541918  0.916163  0.250000  1
  B  B11  1  0.368419  0.263165  0.349478  1
  B  B12  1  0.479160  0.041685  0.404398  1
  B  B13  1  0.272900  0.454203  0.466439  1
  B  B14  1  0.727495  0.545009  0.533344  1
  B  B15  1  0.521941  0.956116  0.598209  1
  B  B16  1  0.630122  0.739757  0.653251  1
  B  B17  1  0.460390  0.079222  0.750000  1
  B  B18  1  0.630122  0.739757  0.846748  1
  B  B19  1  0.521941  0.956116  0.901790  1
  B  B20  1  0.727495  0.545009  0.966656  1
  Ru  Ru21  1  0.945466  0.109067  0.250000  1
