# generated using pymatgen
data_Ho5Al2P10Ir19
_symmetry_space_group_name_H-M   'P 1'
_cell_length_a   12.80090419
_cell_length_b   12.74298759
_cell_length_c   3.98301400
_cell_angle_alpha   90.00000000
_cell_angle_beta   90.00000000
_cell_angle_gamma   120.33709527
_symmetry_Int_Tables_number   1
_chemical_formula_structural   Ho5Al2P10Ir19
_chemical_formula_sum   'Ho5 Al2 P10 Ir19'
_cell_volume   560.74978741
_cell_formula_units_Z   1
loop_
 _symmetry_equiv_pos_site_id
 _symmetry_equiv_pos_as_xyz
  1  'x, y, z'
loop_
 _atom_site_type_symbol
 _atom_site_label
 _atom_site_symmetry_multiplicity
 _atom_site_fract_x
 _atom_site_fract_y
 _atom_site_fract_z
 _atom_site_occupancy
  Ho  Ho0  1  0.003241  0.815849  0.500000  1
  Ho  Ho1  1  0.180899  0.183326  0.500000  1
  Ho  Ho2  1  0.815189  0.998329  0.500000  1
  Ho  Ho3  1  0.333703  0.666012  0.000000  1
  Ho  Ho4  1  0.665930  0.333024  0.000000  1
  Al  Al5  1  0.519211  0.679856  0.500000  1
  Al  Al6  1  0.321988  0.838984  0.500000  1
  P  P7  1  0.995426  0.177281  0.000000  1
  P  P8  1  0.825876  0.819719  0.000000  1
  P  P9  1  0.179379  0.001865  0.000000  1
  P  P10  1  0.170696  0.483222  0.500000  1
  P  P11  1  0.481362  0.174753  0.500000  1
  P  P12  1  0.692119  0.517381  0.500000  1
  P  P13  1  0.824871  0.308935  0.500000  1
  P  P14  1  0.003944  0.642309  0.000000  1
  P  P15  1  0.357165  0.362274  0.000000  1
  P  P16  1  0.636600  0.993943  0.000000  1
  Ir  Ir17  1  0.994555  0.282290  0.500000  1
  Ir  Ir18  1  0.727045  0.716278  0.500000  1
  Ir  Ir19  1  0.281178  0.008708  0.500000  1
  Ir  Ir20  1  0.636993  0.809104  0.000000  1
  Ir  Ir21  1  0.190298  0.821153  0.000000  1
  Ir  Ir22  1  0.172337  0.375155  0.000000  1
  Ir  Ir23  1  0.377365  0.186958  0.000000  1
  Ir  Ir24  1  0.808495  0.620832  0.000000  1
  Ir  Ir25  1  0.814129  0.191078  0.000000  1
  Ir  Ir26  1  0.528234  0.880018  0.500000  1
  Ir  Ir27  1  0.127332  0.635001  0.500000  1
  Ir  Ir28  1  0.349174  0.472794  0.500000  1
  Ir  Ir29  1  0.497039  0.365523  0.500000  1
  Ir  Ir30  1  0.867006  0.504030  0.500000  1
  Ir  Ir31  1  0.635512  0.135256  0.500000  1
  Ir  Ir32  1  0.001438  0.002577  0.000000  1
  Ir  Ir33  1  0.993622  0.456799  0.000000  1
  Ir  Ir34  1  0.536803  0.546978  0.000000  1
  Ir  Ir35  1  0.453844  0.992406  0.000000  1
