# generated using pymatgen
data_Nd3In2HgPdPt2
_symmetry_space_group_name_H-M   'P 1'
_cell_length_a   7.89006934
_cell_length_b   7.95382625
_cell_length_c   3.89614300
_cell_angle_alpha   90.00000000
_cell_angle_beta   90.00000000
_cell_angle_gamma   120.26768091
_symmetry_Int_Tables_number   1
_chemical_formula_structural   Nd3In2HgPdPt2
_chemical_formula_sum   'Nd3 In2 Hg1 Pd1 Pt2'
_cell_volume   211.17605513
_cell_formula_units_Z   1
loop_
 _symmetry_equiv_pos_site_id
 _symmetry_equiv_pos_as_xyz
  1  'x, y, z'
loop_
 _atom_site_type_symbol
 _atom_site_label
 _atom_site_symmetry_multiplicity
 _atom_site_fract_x
 _atom_site_fract_y
 _atom_site_fract_z
 _atom_site_occupancy
  Nd  Nd0  1  0.000000  0.586382  0.500000  1
  Nd  Nd1  1  0.595562  0.003417  0.500000  1
  Nd  Nd2  1  0.404438  0.407855  0.500000  1
  In  In3  1  0.256004  0.998569  0.000000  1
  In  In4  1  0.743996  0.742565  0.000000  1
  Hg  Hg5  1  0.000000  0.259527  0.000000  1
  Pd  Pd6  1  0.000000  0.987740  0.500000  1
  Pt  Pt7  1  0.657467  0.335705  0.000000  1
  Pt  Pt8  1  0.342533  0.678240  0.000000  1
