# generated using pymatgen
data_Nd4Bi3Sb
_symmetry_space_group_name_H-M   'P 1'
_cell_length_a   7.94787650
_cell_length_b   7.94787779
_cell_length_c   7.94787463
_cell_angle_alpha   131.93118975
_cell_angle_beta   131.93120336
_cell_angle_gamma   70.33781999
_symmetry_Int_Tables_number   1
_chemical_formula_structural   Nd4Bi3Sb
_chemical_formula_sum   'Nd4 Bi3 Sb1'
_cell_volume   272.31747781
_cell_formula_units_Z   1
loop_
 _symmetry_equiv_pos_site_id
 _symmetry_equiv_pos_as_xyz
  1  'x, y, z'
loop_
 _atom_site_type_symbol
 _atom_site_label
 _atom_site_symmetry_multiplicity
 _atom_site_fract_x
 _atom_site_fract_y
 _atom_site_fract_z
 _atom_site_occupancy
  Nd  Nd0  1  0.246067  0.246067  0.000000  1
  Nd  Nd1  1  0.753933  0.753933  0.000000  1
  Nd  Nd2  1  0.500000  0.000000  0.500000  1
  Nd  Nd3  1  0.000000  0.500000  0.500000  1
  Bi  Bi4  1  0.500000  0.500000  0.000000  1
  Bi  Bi5  1  0.750000  0.250000  0.500000  1
  Bi  Bi6  1  0.250000  0.750000  0.500000  1
  Sb  Sb7  1  0.000000  0.000000  0.000000  1
