# generated using pymatgen
data_Ce2Pr2NdRu2
_symmetry_space_group_name_H-M   'P 1'
_cell_length_a   9.15236812
_cell_length_b   9.15236874
_cell_length_c   7.13932147
_cell_angle_alpha   85.67544319
_cell_angle_beta   85.67544222
_cell_angle_gamma   41.78305913
_symmetry_Int_Tables_number   1
_chemical_formula_structural   Ce2Pr2NdRu2
_chemical_formula_sum   'Ce4 Pr4 Nd2 Ru4'
_cell_volume   397.17540339
_cell_formula_units_Z   2
loop_
 _symmetry_equiv_pos_site_id
 _symmetry_equiv_pos_as_xyz
  1  'x, y, z'
loop_
 _atom_site_type_symbol
 _atom_site_label
 _atom_site_symmetry_multiplicity
 _atom_site_fract_x
 _atom_site_fract_y
 _atom_site_fract_z
 _atom_site_occupancy
  Ce  Ce0  1  0.008081  0.809572  0.902266  1
  Ce  Ce1  1  0.190428  0.991919  0.597734  1
  Ce  Ce2  1  0.991919  0.190428  0.097734  1
  Ce  Ce3  1  0.809572  0.008081  0.402266  1
  Pr  Pr4  1  0.353111  0.215622  0.823048  1
  Pr  Pr5  1  0.784378  0.646889  0.676952  1
  Pr  Pr6  1  0.646889  0.784378  0.176952  1
  Pr  Pr7  1  0.215622  0.353111  0.323048  1
  Nd  Nd8  1  0.578886  0.421114  0.750000  1
  Nd  Nd9  1  0.421114  0.578886  0.250000  1
  Ru  Ru10  1  0.140968  0.644390  0.598239  1
  Ru  Ru11  1  0.355610  0.859032  0.901761  1
  Ru  Ru12  1  0.859032  0.355610  0.401761  1
  Ru  Ru13  1  0.644390  0.140968  0.098239  1
