# generated using pymatgen
data_Lu2Hf5ScPt4
_symmetry_space_group_name_H-M   'P 1'
_cell_length_a   4.59546200
_cell_length_b   6.82348968
_cell_length_c   8.12643619
_cell_angle_alpha   89.55847316
_cell_angle_beta   90.00000000
_cell_angle_gamma   90.00000000
_symmetry_Int_Tables_number   1
_chemical_formula_structural   Lu2Hf5ScPt4
_chemical_formula_sum   'Lu2 Hf5 Sc1 Pt4'
_cell_volume   254.81380472
_cell_formula_units_Z   1
loop_
 _symmetry_equiv_pos_site_id
 _symmetry_equiv_pos_as_xyz
  1  'x, y, z'
loop_
 _atom_site_type_symbol
 _atom_site_label
 _atom_site_symmetry_multiplicity
 _atom_site_fract_x
 _atom_site_fract_y
 _atom_site_fract_z
 _atom_site_occupancy
  Lu  Lu0  1  0.250000  0.483085  0.181325  1
  Lu  Lu1  1  0.750000  0.515265  0.818175  1
  Hf  Hf2  1  0.250000  0.851608  0.921390  1
  Hf  Hf3  1  0.250000  0.345655  0.579652  1
  Hf  Hf4  1  0.750000  0.145565  0.079885  1
  Hf  Hf5  1  0.750000  0.656067  0.420772  1
  Hf  Hf6  1  0.250000  0.988587  0.329232  1
  Sc  Sc7  1  0.750000  0.014363  0.675197  1
  Pt  Pt8  1  0.250000  0.236136  0.905237  1
  Pt  Pt9  1  0.250000  0.742372  0.592075  1
  Pt  Pt10  1  0.750000  0.761526  0.094298  1
  Pt  Pt11  1  0.750000  0.259772  0.402762  1
