# generated using pymatgen
data_Zr10Al2Sn5Bi
_symmetry_space_group_name_H-M   'P 1'
_cell_length_a   8.80243700
_cell_length_b   8.78812172
_cell_length_c   5.89806700
_cell_angle_alpha   90.00000000
_cell_angle_beta   90.00000000
_cell_angle_gamma   120.05389560
_symmetry_Int_Tables_number   1
_chemical_formula_structural   Zr10Al2Sn5Bi
_chemical_formula_sum   'Zr10 Al2 Sn5 Bi1'
_cell_volume   394.91461484
_cell_formula_units_Z   1
loop_
 _symmetry_equiv_pos_site_id
 _symmetry_equiv_pos_as_xyz
  1  'x, y, z'
loop_
 _atom_site_type_symbol
 _atom_site_label
 _atom_site_symmetry_multiplicity
 _atom_site_fract_x
 _atom_site_fract_y
 _atom_site_fract_z
 _atom_site_occupancy
  Zr  Zr0  1  0.331127  0.664003  0.998595  1
  Zr  Zr1  1  0.667124  0.335997  0.501405  1
  Zr  Zr2  1  0.667124  0.335997  0.998595  1
  Zr  Zr3  1  0.331127  0.664003  0.501405  1
  Zr  Zr4  1  0.267460  0.000000  0.250000  1
  Zr  Zr5  1  0.270995  0.270590  0.750000  1
  Zr  Zr6  1  0.000405  0.729410  0.750000  1
  Zr  Zr7  1  0.004360  0.272593  0.250000  1
  Zr  Zr8  1  0.731767  0.727407  0.250000  1
  Zr  Zr9  1  0.730344  0.000000  0.750000  1
  Al  Al10  1  0.000087  0.000000  0.999293  1
  Al  Al11  1  0.000087  0.000000  0.500707  1
  Sn  Sn12  1  0.613737  0.614270  0.750000  1
  Sn  Sn13  1  0.999468  0.385730  0.750000  1
  Sn  Sn14  1  0.000423  0.613261  0.250000  1
  Sn  Sn15  1  0.387162  0.386739  0.250000  1
  Sn  Sn16  1  0.384279  0.000000  0.750000  1
  Bi  Bi17  1  0.612923  0.000000  0.250000  1
