# generated using pymatgen
data_CeHg3(SeF3)2
_symmetry_space_group_name_H-M   'P 1'
_cell_length_a   8.03119262
_cell_length_b   8.03119218
_cell_length_c   5.30676138
_cell_angle_alpha   91.01783969
_cell_angle_beta   91.01784200
_cell_angle_gamma   59.51835252
_symmetry_Int_Tables_number   1
_chemical_formula_structural   CeHg3(SeF3)2
_chemical_formula_sum   'Ce1 Hg3 Se2 F6'
_cell_volume   294.91779691
_cell_formula_units_Z   1
loop_
 _symmetry_equiv_pos_site_id
 _symmetry_equiv_pos_as_xyz
  1  'x, y, z'
loop_
 _atom_site_type_symbol
 _atom_site_label
 _atom_site_symmetry_multiplicity
 _atom_site_fract_x
 _atom_site_fract_y
 _atom_site_fract_z
 _atom_site_occupancy
  Ce  Ce0  1  0.000000  0.000000  0.000000  1
  Hg  Hg1  1  0.500001  0.000000  0.500000  1
  Hg  Hg2  1  0.000000  0.500001  0.500000  1
  Hg  Hg3  1  0.500000  0.500000  0.500000  1
  Se  Se4  1  0.332721  0.332721  0.310796  1
  Se  Se5  1  0.667278  0.667278  0.689203  1
  F  F6  1  0.739386  0.130216  0.226715  1
  F  F7  1  0.130216  0.739386  0.226715  1
  F  F8  1  0.128177  0.128177  0.243054  1
  F  F9  1  0.871823  0.871823  0.756944  1
  F  F10  1  0.869785  0.260615  0.773285  1
  F  F11  1  0.260615  0.869785  0.773285  1
