# generated using pymatgen
data_Er8FeSi16W11
_symmetry_space_group_name_H-M   'P 1'
_cell_length_a   6.85560449
_cell_length_b   6.85560449
_cell_length_c   12.68429483
_cell_angle_alpha   90.10087537
_cell_angle_beta   89.89912463
_cell_angle_gamma   89.94369814
_symmetry_Int_Tables_number   1
_chemical_formula_structural   Er8FeSi16W11
_chemical_formula_sum   'Er8 Fe1 Si16 W11'
_cell_volume   596.15100395
_cell_formula_units_Z   1
loop_
 _symmetry_equiv_pos_site_id
 _symmetry_equiv_pos_as_xyz
  1  'x, y, z'
loop_
 _atom_site_type_symbol
 _atom_site_label
 _atom_site_symmetry_multiplicity
 _atom_site_fract_x
 _atom_site_fract_y
 _atom_site_fract_z
 _atom_site_occupancy
  Er  Er0  1  0.337890  0.998641  0.468621  1
  Er  Er1  1  0.500891  0.839236  0.720299  1
  Er  Er2  1  0.499524  0.161300  0.217857  1
  Er  Er3  1  0.839236  0.500891  0.279701  1
  Er  Er4  1  0.161300  0.499524  0.782143  1
  Er  Er5  1  0.660900  0.003284  0.968167  1
  Er  Er6  1  0.998641  0.337890  0.531379  1
  Er  Er7  1  0.003284  0.660900  0.031833  1
  Fe  Fe8  1  0.329920  0.329920  0.000000  1
  Si  Si9  1  0.203167  0.128199  0.684799  1
  Si  Si10  1  0.374305  0.697516  0.935302  1
  Si  Si11  1  0.627508  0.299115  0.432818  1
  Si  Si12  1  0.697516  0.374305  0.064698  1
  Si  Si13  1  0.299115  0.627508  0.567182  1
  Si  Si14  1  0.799252  0.872031  0.182078  1
  Si  Si15  1  0.128199  0.203167  0.315201  1
  Si  Si16  1  0.872031  0.799252  0.817922  1
  Si  Si17  1  0.287787  0.965420  0.062766  1
  Si  Si18  1  0.537872  0.790570  0.313382  1
  Si  Si19  1  0.458264  0.213435  0.818755  1
  Si  Si20  1  0.790570  0.537872  0.686618  1
  Si  Si21  1  0.213435  0.458264  0.181245  1
  Si  Si22  1  0.710751  0.036645  0.564055  1
  Si  Si23  1  0.965420  0.287787  0.937234  1
  Si  Si24  1  0.036645  0.710751  0.435945  1
  W  W25  1  0.166686  0.831466  0.250306  1
  W  W26  1  0.831466  0.166686  0.749694  1
  W  W27  1  0.668497  0.668497  0.500000  1
  W  W28  1  0.164630  0.995580  0.875064  1
  W  W29  1  0.501080  0.662448  0.123237  1
  W  W30  1  0.500758  0.336166  0.625288  1
  W  W31  1  0.662448  0.501080  0.876763  1
  W  W32  1  0.336166  0.500758  0.374712  1
  W  W33  1  0.837178  0.002085  0.372626  1
  W  W34  1  0.995580  0.164630  0.124936  1
  W  W35  1  0.002085  0.837178  0.627374  1
