# generated using pymatgen
data_SrNd3Al18(Ir2Pd)2
_symmetry_space_group_name_H-M   'P 1'
_cell_length_a   7.65369187
_cell_length_b   7.64941346
_cell_length_c   9.64397300
_cell_angle_alpha   90.00000000
_cell_angle_beta   90.00000000
_cell_angle_gamma   119.27911369
_symmetry_Int_Tables_number   1
_chemical_formula_structural   SrNd3Al18(Ir2Pd)2
_chemical_formula_sum   'Sr1 Nd3 Al18 Ir4 Pd2'
_cell_volume   492.48712831
_cell_formula_units_Z   1
loop_
 _symmetry_equiv_pos_site_id
 _symmetry_equiv_pos_as_xyz
  1  'x, y, z'
loop_
 _atom_site_type_symbol
 _atom_site_label
 _atom_site_symmetry_multiplicity
 _atom_site_fract_x
 _atom_site_fract_y
 _atom_site_fract_z
 _atom_site_occupancy
  Sr  Sr0  1  0.994675  0.673421  0.250000  1
  Nd  Nd1  1  0.004013  0.328301  0.750000  1
  Nd  Nd2  1  0.672500  0.996062  0.250000  1
  Nd  Nd3  1  0.326268  0.002208  0.750000  1
  Al  Al4  1  0.134934  0.138847  0.250000  1
  Al  Al5  1  0.865990  0.866019  0.750000  1
  Al  Al6  1  0.003199  0.339910  0.073053  1
  Al  Al7  1  0.996479  0.659794  0.925114  1
  Al  Al8  1  0.996479  0.659794  0.574886  1
  Al  Al9  1  0.340543  0.003528  0.427065  1
  Al  Al10  1  0.003199  0.339910  0.426947  1
  Al  Al11  1  0.660644  0.997013  0.574961  1
  Al  Al12  1  0.660644  0.997013  0.925039  1
  Al  Al13  1  0.340543  0.003528  0.072935  1
  Al  Al14  1  0.337411  0.337100  0.549568  1
  Al  Al15  1  0.661448  0.661520  0.453782  1
  Al  Al16  1  0.661448  0.661520  0.046218  1
  Al  Al17  1  0.337411  0.337100  0.950432  1
  Al  Al18  1  0.343224  0.549852  0.250000  1
  Al  Al19  1  0.660662  0.451483  0.750000  1
  Al  Al20  1  0.545642  0.335780  0.250000  1
  Al  Al21  1  0.452281  0.660427  0.750000  1
  Ir  Ir22  1  0.670286  0.327433  0.998849  1
  Ir  Ir23  1  0.329467  0.671155  0.998516  1
  Ir  Ir24  1  0.329467  0.671155  0.501484  1
  Ir  Ir25  1  0.670286  0.327433  0.501151  1
  Pd  Pd26  1  0.000429  0.001346  0.998804  1
  Pd  Pd27  1  0.000429  0.001346  0.501196  1
