# generated using pymatgen
data_PrDy4(In2Rh)2
_symmetry_space_group_name_H-M   'P 1'
_cell_length_a   3.67025600
_cell_length_b   8.04916700
_cell_length_c   18.46604300
_cell_angle_alpha   90.00000000
_cell_angle_beta   90.00000000
_cell_angle_gamma   90.00000000
_symmetry_Int_Tables_number   1
_chemical_formula_structural   PrDy4(In2Rh)2
_chemical_formula_sum   'Pr2 Dy8 In8 Rh4'
_cell_volume   545.53313953
_cell_formula_units_Z   2
loop_
 _symmetry_equiv_pos_site_id
 _symmetry_equiv_pos_as_xyz
  1  'x, y, z'
loop_
 _atom_site_type_symbol
 _atom_site_label
 _atom_site_symmetry_multiplicity
 _atom_site_fract_x
 _atom_site_fract_y
 _atom_site_fract_z
 _atom_site_occupancy
  Pr  Pr0  1  0.000000  0.000000  0.000000  1
  Pr  Pr1  1  0.000000  0.500000  0.500000  1
  Dy  Dy2  1  0.000000  0.118521  0.410554  1
  Dy  Dy3  1  0.000000  0.881479  0.589446  1
  Dy  Dy4  1  0.000000  0.381479  0.910554  1
  Dy  Dy5  1  0.000000  0.618521  0.089446  1
  Dy  Dy6  1  0.000000  0.244985  0.220582  1
  Dy  Dy7  1  0.000000  0.755015  0.779418  1
  Dy  Dy8  1  0.000000  0.255015  0.720582  1
  Dy  Dy9  1  0.000000  0.744985  0.279418  1
  In  In10  1  0.500000  0.425524  0.347017  1
  In  In11  1  0.500000  0.574476  0.652983  1
  In  In12  1  0.500000  0.074476  0.847017  1
  In  In13  1  0.500000  0.925524  0.152983  1
  In  In14  1  0.500000  0.299414  0.069648  1
  In  In15  1  0.500000  0.700586  0.930352  1
  In  In16  1  0.500000  0.200586  0.569648  1
  In  In17  1  0.500000  0.799414  0.430352  1
  Rh  Rh18  1  0.500000  0.023261  0.305054  1
  Rh  Rh19  1  0.500000  0.976739  0.694946  1
  Rh  Rh20  1  0.500000  0.476739  0.805054  1
  Rh  Rh21  1  0.500000  0.523261  0.194946  1
