# generated using pymatgen
data_AcPrB4(IrOs)2
_symmetry_space_group_name_H-M   'P 1'
_cell_length_a   7.05577437
_cell_length_b   6.16183780
_cell_length_c   5.66733647
_cell_angle_alpha   73.10029429
_cell_angle_beta   56.67738993
_cell_angle_gamma   50.22230971
_symmetry_Int_Tables_number   1
_chemical_formula_structural   AcPrB4(IrOs)2
_chemical_formula_sum   'Ac1 Pr1 B4 Ir2 Os2'
_cell_volume   157.51997273
_cell_formula_units_Z   1
loop_
 _symmetry_equiv_pos_site_id
 _symmetry_equiv_pos_as_xyz
  1  'x, y, z'
loop_
 _atom_site_type_symbol
 _atom_site_label
 _atom_site_symmetry_multiplicity
 _atom_site_fract_x
 _atom_site_fract_y
 _atom_site_fract_z
 _atom_site_occupancy
  Ac  Ac0  1  0.500000  0.500000  0.500000  1
  Pr  Pr1  1  0.750000  0.750000  0.750000  1
  B  B2  1  0.171045  0.828955  0.171045  1
  B  B3  1  0.065369  0.434631  0.065369  1
  B  B4  1  0.828955  0.171045  0.828955  1
  B  B5  1  0.434631  0.065369  0.434631  1
  Ir  Ir6  1  0.382151  0.382151  0.117849  1
  Ir  Ir7  1  0.117849  0.117849  0.382151  1
  Os  Os8  1  0.865126  0.865126  0.134874  1
  Os  Os9  1  0.134874  0.134874  0.865126  1
