# generated using pymatgen
data_Tb6Yb2SiPd24
_symmetry_space_group_name_H-M   'P 1'
_cell_length_a   8.33295346
_cell_length_b   8.33295346
_cell_length_c   8.33295346
_cell_angle_alpha   90.02690875
_cell_angle_beta   90.02690875
_cell_angle_gamma   90.02690875
_symmetry_Int_Tables_number   1
_chemical_formula_structural   Tb6Yb2SiPd24
_chemical_formula_sum   'Tb6 Yb2 Si1 Pd24'
_cell_volume   578.62437545
_cell_formula_units_Z   1
loop_
 _symmetry_equiv_pos_site_id
 _symmetry_equiv_pos_as_xyz
  1  'x, y, z'
loop_
 _atom_site_type_symbol
 _atom_site_label
 _atom_site_symmetry_multiplicity
 _atom_site_fract_x
 _atom_site_fract_y
 _atom_site_fract_z
 _atom_site_occupancy
  Tb  Tb0  1  0.747522  0.747522  0.252564  1
  Tb  Tb1  1  0.747522  0.252564  0.747522  1
  Tb  Tb2  1  0.252478  0.252478  0.747436  1
  Tb  Tb3  1  0.252478  0.747436  0.252478  1
  Tb  Tb4  1  0.252564  0.747522  0.747522  1
  Tb  Tb5  1  0.747436  0.252478  0.252478  1
  Yb  Yb6  1  0.251392  0.251392  0.251392  1
  Yb  Yb7  1  0.748608  0.748608  0.748608  1
  Si  Si8  1  0.000000  0.000000  0.000000  1
  Pd  Pd9  1  0.256787  0.499666  0.000358  1
  Pd  Pd10  1  0.743213  0.500334  0.999642  1
  Pd  Pd11  1  0.000358  0.256787  0.499666  1
  Pd  Pd12  1  0.499666  0.256787  0.000358  1
  Pd  Pd13  1  0.999642  0.743213  0.500334  1
  Pd  Pd14  1  0.500334  0.743213  0.999642  1
  Pd  Pd15  1  0.499666  0.000358  0.256787  1
  Pd  Pd16  1  0.256787  0.000358  0.499666  1
  Pd  Pd17  1  0.500334  0.999642  0.743213  1
  Pd  Pd18  1  0.743213  0.999642  0.500334  1
  Pd  Pd19  1  0.000358  0.499666  0.256787  1
  Pd  Pd20  1  0.999642  0.500334  0.743213  1
  Pd  Pd21  1  0.251519  0.499213  0.499213  1
  Pd  Pd22  1  0.748481  0.500787  0.500787  1
  Pd  Pd23  1  0.499213  0.251519  0.499213  1
  Pd  Pd24  1  0.500787  0.748481  0.500787  1
  Pd  Pd25  1  0.499213  0.499213  0.251519  1
  Pd  Pd26  1  0.500787  0.500787  0.748481  1
  Pd  Pd27  1  0.279919  0.000960  0.000960  1
  Pd  Pd28  1  0.720081  0.999040  0.999040  1
  Pd  Pd29  1  0.000960  0.279919  0.000960  1
  Pd  Pd30  1  0.999040  0.720081  0.999040  1
  Pd  Pd31  1  0.000960  0.000960  0.279919  1
  Pd  Pd32  1  0.999040  0.999040  0.720081  1
