# generated using pymatgen
data_Zr6Ti5MnAl11Ir6
_symmetry_space_group_name_H-M   'P 1'
_cell_length_a   8.80810088
_cell_length_b   8.80810120
_cell_length_c   8.76636152
_cell_angle_alpha   59.84236369
_cell_angle_beta   59.84236432
_cell_angle_gamma   59.99999935
_symmetry_Int_Tables_number   1
_chemical_formula_structural   Zr6Ti5MnAl11Ir6
_chemical_formula_sum   'Zr6 Ti5 Mn1 Al11 Ir6'
_cell_volume   479.76664772
_cell_formula_units_Z   1
loop_
 _symmetry_equiv_pos_site_id
 _symmetry_equiv_pos_as_xyz
  1  'x, y, z'
loop_
 _atom_site_type_symbol
 _atom_site_label
 _atom_site_symmetry_multiplicity
 _atom_site_fract_x
 _atom_site_fract_y
 _atom_site_fract_z
 _atom_site_occupancy
  Zr  Zr0  1  0.695151  0.695151  0.307616  1
  Zr  Zr1  1  0.302082  0.695151  0.307616  1
  Zr  Zr2  1  0.695151  0.302082  0.307616  1
  Zr  Zr3  1  0.310284  0.310284  0.693735  1
  Zr  Zr4  1  0.685695  0.310284  0.693735  1
  Zr  Zr5  1  0.310284  0.685695  0.693735  1
  Ti  Ti6  1  0.884115  0.884115  0.347658  1
  Ti  Ti7  1  0.879654  0.354491  0.886201  1
  Ti  Ti8  1  0.354491  0.879654  0.886201  1
  Ti  Ti9  1  0.879654  0.879654  0.886201  1
  Ti  Ti10  1  0.118101  0.118101  0.645696  1
  Mn  Mn11  1  0.004830  0.004830  0.985510  1
  Al  Al12  1  0.117256  0.649090  0.116397  1
  Al  Al13  1  0.649090  0.117256  0.116397  1
  Al  Al14  1  0.117256  0.117256  0.116397  1
  Al  Al15  1  0.663736  0.663736  0.008789  1
  Al  Al16  1  0.665089  0.006973  0.662848  1
  Al  Al17  1  0.006973  0.665089  0.662848  1
  Al  Al18  1  0.665089  0.665089  0.662848  1
  Al  Al19  1  0.334029  0.334029  0.997912  1
  Al  Al20  1  0.335044  0.995076  0.334836  1
  Al  Al21  1  0.995076  0.335044  0.334836  1
  Al  Al22  1  0.335044  0.335044  0.334836  1
  Ir  Ir23  1  0.999046  0.999046  0.503174  1
  Ir  Ir24  1  0.498734  0.999046  0.503174  1
  Ir  Ir25  1  0.999046  0.498734  0.503174  1
  Ir  Ir26  1  0.500392  0.500392  0.000005  1
  Ir  Ir27  1  0.999211  0.500392  0.000005  1
  Ir  Ir28  1  0.500392  0.999211  0.000005  1
