# generated using pymatgen
data_LaNd2(CuSn)4
_symmetry_space_group_name_H-M   'P 1'
_cell_length_a   8.66587398
_cell_length_b   8.66587419
_cell_length_c   8.66587419
_cell_angle_alpha   148.95686499
_cell_angle_beta   132.08575955
_cell_angle_gamma   58.19556912
_symmetry_Int_Tables_number   1
_chemical_formula_structural   LaNd2(CuSn)4
_chemical_formula_sum   'La1 Nd2 Cu4 Sn4'
_cell_volume   247.15826070
_cell_formula_units_Z   1
loop_
 _symmetry_equiv_pos_site_id
 _symmetry_equiv_pos_as_xyz
  1  'x, y, z'
loop_
 _atom_site_type_symbol
 _atom_site_label
 _atom_site_symmetry_multiplicity
 _atom_site_fract_x
 _atom_site_fract_y
 _atom_site_fract_z
 _atom_site_occupancy
  La  La0  1  0.133422  0.133422  0.000000  1
  Nd  Nd1  1  0.499712  0.999712  0.500000  1
  Nd  Nd2  1  0.866339  0.866339  0.000000  1
  Cu  Cu3  1  0.851183  0.668082  0.183101  1
  Cu  Cu4  1  0.484981  0.668082  0.816899  1
  Cu  Cu5  1  0.516094  0.332313  0.183781  1
  Cu  Cu6  1  0.148532  0.332313  0.816219  1
  Sn  Sn7  1  0.797883  0.499247  0.298636  1
  Sn  Sn8  1  0.200611  0.499247  0.701364  1
  Sn  Sn9  1  0.716514  0.216514  0.500000  1
  Sn  Sn10  1  0.284728  0.784728  0.500000  1
