# generated using pymatgen
data_Sc12Ni5Bi
_symmetry_space_group_name_H-M   'P 1'
_cell_length_a   7.78041147
_cell_length_b   7.78065006
_cell_length_c   7.78122997
_cell_angle_alpha   111.30473363
_cell_angle_beta   110.72360719
_cell_angle_gamma   106.43507635
_symmetry_Int_Tables_number   1
_chemical_formula_structural   Sc12Ni5Bi
_chemical_formula_sum   'Sc12 Ni5 Bi1'
_cell_volume   361.81278036
_cell_formula_units_Z   1
loop_
 _symmetry_equiv_pos_site_id
 _symmetry_equiv_pos_as_xyz
  1  'x, y, z'
loop_
 _atom_site_type_symbol
 _atom_site_label
 _atom_site_symmetry_multiplicity
 _atom_site_fract_x
 _atom_site_fract_y
 _atom_site_fract_z
 _atom_site_occupancy
  Sc  Sc0  1  0.820240  0.716174  0.536394  1
  Sc  Sc1  1  0.179784  0.283790  0.463553  1
  Sc  Sc2  1  0.179755  0.716172  0.895894  1
  Sc  Sc3  1  0.820247  0.283788  0.104026  1
  Sc  Sc4  1  0.680763  0.377583  0.696822  1
  Sc  Sc5  1  0.319210  0.622564  0.303255  1
  Sc  Sc6  1  0.680770  0.984002  0.303190  1
  Sc  Sc7  1  0.319171  0.015811  0.696595  1
  Sc  Sc8  1  0.584559  0.782657  0.801832  1
  Sc  Sc9  1  0.415343  0.217356  0.197939  1
  Sc  Sc10  1  0.980962  0.782804  0.198092  1
  Sc  Sc11  1  0.019253  0.217315  0.801883  1
  Ni  Ni12  1  0.642764  0.999702  0.642570  1
  Ni  Ni13  1  0.357730  0.000727  0.358297  1
  Ni  Ni14  1  0.127831  0.627928  0.500042  1
  Ni  Ni15  1  0.872100  0.371957  0.499914  1
  Ni  Ni16  1  0.999509  0.999665  0.999744  1
  Bi  Bi17  1  0.500006  0.500007  0.999956  1
