# generated using pymatgen
data_Nd8N7
_symmetry_space_group_name_H-M   'P 1'
_cell_length_a   6.33445643
_cell_length_b   7.31803435
_cell_length_c   6.33380900
_cell_angle_alpha   89.97102341
_cell_angle_beta   80.51809245
_cell_angle_gamma   73.11090286
_symmetry_Int_Tables_number   1
_chemical_formula_structural   Nd8N7
_chemical_formula_sum   'Nd8 N7'
_cell_volume   276.75755391
_cell_formula_units_Z   1
loop_
 _symmetry_equiv_pos_site_id
 _symmetry_equiv_pos_as_xyz
  1  'x, y, z'
loop_
 _atom_site_type_symbol
 _atom_site_label
 _atom_site_symmetry_multiplicity
 _atom_site_fract_x
 _atom_site_fract_y
 _atom_site_fract_z
 _atom_site_occupancy
  Nd  Nd0  1  0.576057  0.191891  0.559808  1
  Nd  Nd1  1  0.067405  0.555961  0.800322  1
  Nd  Nd2  1  0.088331  0.311836  0.298738  1
  Nd  Nd3  1  0.589659  0.686290  0.531573  1
  Nd  Nd4  1  0.588253  0.425354  0.061931  1
  Nd  Nd5  1  0.076250  0.078381  0.796595  1
  Nd  Nd6  1  0.074721  0.817468  0.327046  1
  Nd  Nd7  1  0.597016  0.947772  0.058307  1
  N  N8  1  0.839195  0.375502  0.685970  1
  N  N9  1  0.825282  0.128223  0.172570  1
  N  N10  1  0.332224  0.251910  0.929261  1
  N  N11  1  0.839841  0.874243  0.674426  1
  N  N12  1  0.333013  0.998942  0.429509  1
  N  N13  1  0.331413  0.504822  0.429061  1
  N  N14  1  0.824539  0.629535  0.184153  1
