# generated using pymatgen
data_CeEuAlIr3
_symmetry_space_group_name_H-M   'P 1'
_cell_length_a   5.17857901
_cell_length_b   5.17857868
_cell_length_c   5.17857777
_cell_angle_alpha   66.38385747
_cell_angle_beta   66.38386097
_cell_angle_gamma   66.38385139
_symmetry_Int_Tables_number   1
_chemical_formula_structural   CeEuAlIr3
_chemical_formula_sum   'Ce1 Eu1 Al1 Ir3'
_cell_volume   111.71870996
_cell_formula_units_Z   1
loop_
 _symmetry_equiv_pos_site_id
 _symmetry_equiv_pos_as_xyz
  1  'x, y, z'
loop_
 _atom_site_type_symbol
 _atom_site_label
 _atom_site_symmetry_multiplicity
 _atom_site_fract_x
 _atom_site_fract_y
 _atom_site_fract_z
 _atom_site_occupancy
  Ce  Ce0  1  0.255572  0.255572  0.255572  1
  Eu  Eu1  1  0.001442  0.001442  0.001442  1
  Al  Al2  1  0.623128  0.623128  0.623128  1
  Ir  Ir3  1  0.623532  0.623532  0.122796  1
  Ir  Ir4  1  0.623532  0.122796  0.623532  1
  Ir  Ir5  1  0.122796  0.623532  0.623532  1
