# generated using pymatgen
data_Ho3Bi3(SbO7)2
_symmetry_space_group_name_H-M   'P 1'
_cell_length_a   6.47433071
_cell_length_b   6.68080212
_cell_length_c   7.62223623
_cell_angle_alpha   106.60331150
_cell_angle_beta   89.65689352
_cell_angle_gamma   98.39036016
_symmetry_Int_Tables_number   1
_chemical_formula_structural   Ho3Bi3(SbO7)2
_chemical_formula_sum   'Ho3 Bi3 Sb2 O14'
_cell_volume   312.34066524
_cell_formula_units_Z   1
loop_
 _symmetry_equiv_pos_site_id
 _symmetry_equiv_pos_as_xyz
  1  'x, y, z'
loop_
 _atom_site_type_symbol
 _atom_site_label
 _atom_site_symmetry_multiplicity
 _atom_site_fract_x
 _atom_site_fract_y
 _atom_site_fract_z
 _atom_site_occupancy
  Ho  Ho0  1  0.543686  0.994672  0.752995  1
  Ho  Ho1  1  0.458698  0.002702  0.251047  1
  Ho  Ho2  1  0.256290  0.531184  0.882576  1
  Bi  Bi3  1  0.742254  0.482249  0.116514  1
  Bi  Bi4  1  0.727091  0.462000  0.613878  1
  Bi  Bi5  1  0.260475  0.530774  0.387992  1
  Sb  Sb6  1  0.002893  0.007201  0.502314  1
  Sb  Sb7  1  0.004951  0.001046  0.999427  1
  O  O8  1  0.443252  0.651757  0.164234  1
  O  O9  1  0.541578  0.343653  0.825672  1
  O  O10  1  0.295273  0.932114  0.953560  1
  O  O11  1  0.708826  0.041034  0.046786  1
  O  O12  1  0.291309  0.932363  0.515835  1
  O  O13  1  0.710699  0.074665  0.487926  1
  O  O14  1  0.530849  0.352882  0.345995  1
  O  O15  1  0.453028  0.644734  0.661138  1
  O  O16  1  0.939570  0.680951  0.954082  1
  O  O17  1  0.086216  0.311351  0.034084  1
  O  O18  1  0.092200  0.317026  0.621185  1
  O  O19  1  0.906642  0.698477  0.381575  1
  O  O20  1  0.899992  0.946035  0.736264  1
  O  O21  1  0.104228  0.061130  0.264922  1
