# generated using pymatgen
data_Cs2Re2OF10
_symmetry_space_group_name_H-M   'P 1'
_cell_length_a   5.38481800
_cell_length_b   7.65672286
_cell_length_c   14.25096154
_cell_angle_alpha   78.97768234
_cell_angle_beta   90.00000000
_cell_angle_gamma   90.00000000
_symmetry_Int_Tables_number   1
_chemical_formula_structural   Cs2Re2OF10
_chemical_formula_sum   'Cs4 Re4 O2 F20'
_cell_volume   576.72899333
_cell_formula_units_Z   2
loop_
 _symmetry_equiv_pos_site_id
 _symmetry_equiv_pos_as_xyz
  1  'x, y, z'
loop_
 _atom_site_type_symbol
 _atom_site_label
 _atom_site_symmetry_multiplicity
 _atom_site_fract_x
 _atom_site_fract_y
 _atom_site_fract_z
 _atom_site_occupancy
  Cs  Cs0  1  0.410743  0.234704  0.591781  1
  Cs  Cs1  1  0.589257  0.234704  0.091781  1
  Cs  Cs2  1  0.589257  0.765296  0.408219  1
  Cs  Cs3  1  0.410743  0.765296  0.908219  1
  Re  Re4  1  0.012039  0.293081  0.334080  1
  Re  Re5  1  0.987961  0.293081  0.834080  1
  Re  Re6  1  0.012039  0.706919  0.165920  1
  Re  Re7  1  0.987961  0.706919  0.665920  1
  O  O8  1  0.082377  0.500000  0.750000  1
  O  O9  1  0.917623  0.500000  0.250000  1
  F  F10  1  0.722924  0.847577  0.183813  1
  F  F11  1  0.689953  0.583797  0.636238  1
  F  F12  1  0.161676  0.792628  0.272417  1
  F  F13  1  0.847682  0.088281  0.916164  1
  F  F14  1  0.310047  0.416203  0.363762  1
  F  F15  1  0.152318  0.911719  0.083836  1
  F  F16  1  0.161676  0.207372  0.227583  1
  F  F17  1  0.277076  0.847577  0.683813  1
  F  F18  1  0.838324  0.207372  0.727583  1
  F  F19  1  0.689953  0.416203  0.863762  1
  F  F20  1  0.152318  0.088281  0.416164  1
  F  F21  1  0.143761  0.358678  0.945850  1
  F  F22  1  0.277076  0.152423  0.816187  1
  F  F23  1  0.856239  0.641322  0.054150  1
  F  F24  1  0.838324  0.792628  0.772417  1
  F  F25  1  0.722924  0.152423  0.316187  1
  F  F26  1  0.847682  0.911719  0.583836  1
  F  F27  1  0.856239  0.358678  0.445850  1
  F  F28  1  0.310047  0.583797  0.136238  1
  F  F29  1  0.143761  0.641322  0.554150  1
