# generated using pymatgen
data_Dy9Tm2In9Ru4
_symmetry_space_group_name_H-M   'P 1'
_cell_length_a   3.80237300
_cell_length_b   12.87388480
_cell_length_c   12.88366320
_cell_angle_alpha   112.85120346
_cell_angle_beta   90.00000000
_cell_angle_gamma   90.00000000
_symmetry_Int_Tables_number   1
_chemical_formula_structural   Dy9Tm2In9Ru4
_chemical_formula_sum   'Dy9 Tm2 In9 Ru4'
_cell_volume   581.17483649
_cell_formula_units_Z   1
loop_
 _symmetry_equiv_pos_site_id
 _symmetry_equiv_pos_as_xyz
  1  'x, y, z'
loop_
 _atom_site_type_symbol
 _atom_site_label
 _atom_site_symmetry_multiplicity
 _atom_site_fract_x
 _atom_site_fract_y
 _atom_site_fract_z
 _atom_site_occupancy
  Dy  Dy0  1  0.000000  0.582352  0.915570  1
  Dy  Dy1  1  0.000000  0.417648  0.084430  1
  Dy  Dy2  1  0.000000  0.162150  0.836247  1
  Dy  Dy3  1  0.000000  0.837850  0.163753  1
  Dy  Dy4  1  0.000000  0.368713  0.630424  1
  Dy  Dy5  1  0.000000  0.631287  0.369576  1
  Dy  Dy6  1  0.000000  0.693862  0.693240  1
  Dy  Dy7  1  0.000000  0.306138  0.306760  1
  Dy  Dy8  1  0.000000  0.000000  0.000000  1
  Tm  Tm9  1  0.000000  0.913965  0.581797  1
  Tm  Tm10  1  0.000000  0.086035  0.418203  1
  In  In11  1  0.500000  0.149573  0.628620  1
  In  In12  1  0.500000  0.850427  0.371380  1
  In  In13  1  0.500000  0.631757  0.154079  1
  In  In14  1  0.500000  0.368243  0.845921  1
  In  In15  1  0.500000  0.928787  0.780735  1
  In  In16  1  0.500000  0.071213  0.219265  1
  In  In17  1  0.500000  0.782332  0.927904  1
  In  In18  1  0.500000  0.217668  0.072096  1
  In  In19  1  0.500000  0.500000  0.500000  1
  Ru  Ru20  1  0.500000  0.743159  0.547522  1
  Ru  Ru21  1  0.500000  0.256841  0.452478  1
  Ru  Ru22  1  0.500000  0.547640  0.742898  1
  Ru  Ru23  1  0.500000  0.452360  0.257102  1
