# generated using pymatgen
data_Ta4Mn6GaAs
_symmetry_space_group_name_H-M   'P 1'
_cell_length_a   4.90793300
_cell_length_b   4.90793355
_cell_length_c   7.96056600
_cell_angle_alpha   90.00000000
_cell_angle_beta   90.00000000
_cell_angle_gamma   120.00000306
_symmetry_Int_Tables_number   1
_chemical_formula_structural   Ta4Mn6GaAs
_chemical_formula_sum   'Ta4 Mn6 Ga1 As1'
_cell_volume   166.06261204
_cell_formula_units_Z   1
loop_
 _symmetry_equiv_pos_site_id
 _symmetry_equiv_pos_as_xyz
  1  'x, y, z'
loop_
 _atom_site_type_symbol
 _atom_site_label
 _atom_site_symmetry_multiplicity
 _atom_site_fract_x
 _atom_site_fract_y
 _atom_site_fract_z
 _atom_site_occupancy
  Ta  Ta0  1  0.333333  0.666667  0.064249  1
  Ta  Ta1  1  0.666667  0.333333  0.566086  1
  Ta  Ta2  1  0.666667  0.333333  0.935751  1
  Ta  Ta3  1  0.333333  0.666667  0.433914  1
  Mn  Mn4  1  0.826265  0.652529  0.251166  1
  Mn  Mn5  1  0.173735  0.826265  0.748834  1
  Mn  Mn6  1  0.652529  0.826265  0.748834  1
  Mn  Mn7  1  0.347471  0.173735  0.251166  1
  Mn  Mn8  1  0.826265  0.173735  0.251166  1
  Mn  Mn9  1  0.173735  0.347471  0.748834  1
  Ga  Ga10  1  0.000000  0.000000  0.000000  1
  As  As11  1  0.000000  0.000000  0.500000  1
