# generated using pymatgen
data_Rb4ZrCr7Se16
_symmetry_space_group_name_H-M   'P 1'
_cell_length_a   6.30884016
_cell_length_b   7.30635700
_cell_length_c   17.03818938
_cell_angle_alpha   90.00000000
_cell_angle_beta   89.92916688
_cell_angle_gamma   90.00000000
_symmetry_Int_Tables_number   1
_chemical_formula_structural   Rb4ZrCr7Se16
_chemical_formula_sum   'Rb4 Zr1 Cr7 Se16'
_cell_volume   785.36857939
_cell_formula_units_Z   1
loop_
 _symmetry_equiv_pos_site_id
 _symmetry_equiv_pos_as_xyz
  1  'x, y, z'
loop_
 _atom_site_type_symbol
 _atom_site_label
 _atom_site_symmetry_multiplicity
 _atom_site_fract_x
 _atom_site_fract_y
 _atom_site_fract_z
 _atom_site_occupancy
  Rb  Rb0  1  0.350937  0.000000  0.995054  1
  Rb  Rb1  1  0.634709  0.500000  0.504077  1
  Rb  Rb2  1  0.033857  0.000000  0.502818  1
  Rb  Rb3  1  0.959685  0.500000  0.997399  1
  Zr  Zr4  1  0.005948  0.000000  0.249454  1
  Cr  Cr5  1  0.001342  0.000000  0.749889  1
  Cr  Cr6  1  0.999377  0.500000  0.250047  1
  Cr  Cr7  1  0.997990  0.500000  0.750096  1
  Cr  Cr8  1  0.500745  0.248909  0.250245  1
  Cr  Cr9  1  0.500146  0.750271  0.749992  1
  Cr  Cr10  1  0.500745  0.751091  0.250245  1
  Cr  Cr11  1  0.500146  0.249729  0.749992  1
  Se  Se12  1  0.826236  0.263042  0.339186  1
  Se  Se13  1  0.834541  0.750170  0.666550  1
  Se  Se14  1  0.178113  0.735051  0.160279  1
  Se  Se15  1  0.165194  0.250387  0.833316  1
  Se  Se16  1  0.178113  0.264949  0.160279  1
  Se  Se17  1  0.165194  0.749613  0.833316  1
  Se  Se18  1  0.826236  0.736958  0.339186  1
  Se  Se19  1  0.834541  0.249830  0.666550  1
  Se  Se20  1  0.654616  0.000000  0.160599  1
  Se  Se21  1  0.670162  0.000000  0.832987  1
  Se  Se22  1  0.331379  0.500000  0.332003  1
  Se  Se23  1  0.329255  0.500000  0.667538  1
  Se  Se24  1  0.356741  0.000000  0.340454  1
  Se  Se25  1  0.338108  0.000000  0.667312  1
  Se  Se26  1  0.664684  0.500000  0.168652  1
  Se  Se27  1  0.661259  0.500000  0.832482  1
