# generated using pymatgen
data_Tb9Ho(Tm5Pt8)2
_symmetry_space_group_name_H-M   'P 1'
_cell_length_a   7.42954580
_cell_length_b   7.52993062
_cell_length_c   14.70840100
_cell_angle_alpha   89.99438451
_cell_angle_beta   90.16498823
_cell_angle_gamma   90.02266067
_symmetry_Int_Tables_number   1
_chemical_formula_structural   Tb9Ho(Tm5Pt8)2
_chemical_formula_sum   'Tb9 Ho1 Tm10 Pt16'
_cell_volume   822.84278315
_cell_formula_units_Z   1
loop_
 _symmetry_equiv_pos_site_id
 _symmetry_equiv_pos_as_xyz
  1  'x, y, z'
loop_
 _atom_site_type_symbol
 _atom_site_label
 _atom_site_symmetry_multiplicity
 _atom_site_fract_x
 _atom_site_fract_y
 _atom_site_fract_z
 _atom_site_occupancy
  Tb  Tb0  1  0.139452  0.331108  0.620135  1
  Tb  Tb1  1  0.483803  0.676115  0.595326  1
  Tb  Tb2  1  0.984222  0.825935  0.905490  1
  Tb  Tb3  1  0.515968  0.326523  0.095231  1
  Tb  Tb4  1  0.018328  0.171315  0.402101  1
  Tb  Tb5  1  0.516589  0.325672  0.404663  1
  Tb  Tb6  1  0.015848  0.174410  0.095261  1
  Tb  Tb7  1  0.483813  0.673125  0.905346  1
  Tb  Tb8  1  0.982347  0.826621  0.595931  1
  Ho  Ho9  1  0.698151  0.009651  0.249378  1
  Tm  Tm10  1  0.639775  0.167998  0.622436  1
  Tm  Tm11  1  0.140719  0.331517  0.878582  1
  Tm  Tm12  1  0.359307  0.831874  0.121456  1
  Tm  Tm13  1  0.859802  0.668674  0.378143  1
  Tm  Tm14  1  0.361863  0.831986  0.377307  1
  Tm  Tm15  1  0.859052  0.668353  0.121476  1
  Tm  Tm16  1  0.640919  0.168083  0.878962  1
  Tm  Tm17  1  0.801347  0.509921  0.750991  1
  Tm  Tm18  1  0.302310  0.990072  0.751263  1
  Tm  Tm19  1  0.197857  0.490811  0.249682  1
  Pt  Pt20  1  0.694228  0.970845  0.457937  1
  Pt  Pt21  1  0.191668  0.530775  0.042356  1
  Pt  Pt22  1  0.308270  0.030530  0.958073  1
  Pt  Pt23  1  0.802715  0.472266  0.542250  1
  Pt  Pt24  1  0.309731  0.026040  0.541723  1
  Pt  Pt25  1  0.808525  0.469310  0.958245  1
  Pt  Pt26  1  0.691733  0.969935  0.042412  1
  Pt  Pt27  1  0.192911  0.531471  0.454839  1
  Pt  Pt28  1  0.435962  0.380521  0.751286  1
  Pt  Pt29  1  0.934408  0.118012  0.751409  1
  Pt  Pt30  1  0.564726  0.619228  0.249447  1
  Pt  Pt31  1  0.065803  0.879289  0.249372  1
  Pt  Pt32  1  0.663770  0.858574  0.751089  1
  Pt  Pt33  1  0.164888  0.641349  0.751475  1
  Pt  Pt34  1  0.334293  0.141370  0.249477  1
  Pt  Pt35  1  0.834906  0.360720  0.249450  1
