# generated using pymatgen
data_SrHo2Si5PPd20
_symmetry_space_group_name_H-M   'P 1'
_cell_length_a   8.74686743
_cell_length_b   8.74132301
_cell_length_c   8.74135529
_cell_angle_alpha   60.02923590
_cell_angle_beta   59.97889171
_cell_angle_gamma   59.97925223
_symmetry_Int_Tables_number   1
_chemical_formula_structural   SrHo2Si5PPd20
_chemical_formula_sum   'Sr1 Ho2 Si5 P1 Pd20'
_cell_volume   472.55443205
_cell_formula_units_Z   1
loop_
 _symmetry_equiv_pos_site_id
 _symmetry_equiv_pos_as_xyz
  1  'x, y, z'
loop_
 _atom_site_type_symbol
 _atom_site_label
 _atom_site_symmetry_multiplicity
 _atom_site_fract_x
 _atom_site_fract_y
 _atom_site_fract_z
 _atom_site_occupancy
  Sr  Sr0  1  0.249554  0.250446  0.250446  1
  Ho  Ho1  1  0.749544  0.750456  0.750456  1
  Ho  Ho2  1  0.000932  0.999068  0.999068  1
  Si  Si3  1  0.267249  0.732751  0.732751  1
  Si  Si4  1  0.265864  0.734012  0.267243  1
  Si  Si5  1  0.732881  0.267243  0.734012  1
  Si  Si6  1  0.265864  0.267242  0.734012  1
  Si  Si7  1  0.732881  0.734012  0.267242  1
  P  P8  1  0.734055  0.265945  0.265945  1
  Pd  Pd9  1  0.390545  0.387531  0.387530  1
  Pd  Pd10  1  0.617765  0.617582  0.617580  1
  Pd  Pd11  1  0.387935  0.387776  0.836359  1
  Pd  Pd12  1  0.387933  0.836359  0.387776  1
  Pd  Pd13  1  0.617891  0.616187  0.148032  1
  Pd  Pd14  1  0.617889  0.148032  0.616187  1
  Pd  Pd15  1  0.834396  0.387530  0.387531  1
  Pd  Pd16  1  0.147073  0.617580  0.617582  1
  Pd  Pd17  1  0.349004  0.996359  0.996360  1
  Pd  Pd18  1  0.658278  0.996360  0.996359  1
  Pd  Pd19  1  0.997532  0.347804  0.657134  1
  Pd  Pd20  1  0.997531  0.657134  0.347804  1
  Pd  Pd21  1  0.995276  0.347365  0.998878  1
  Pd  Pd22  1  0.658482  0.998878  0.347365  1
  Pd  Pd23  1  0.997227  0.658087  0.996966  1
  Pd  Pd24  1  0.347721  0.996966  0.658087  1
  Pd  Pd25  1  0.995277  0.998876  0.347371  1
  Pd  Pd26  1  0.997227  0.996970  0.658083  1
  Pd  Pd27  1  0.658478  0.347371  0.998876  1
  Pd  Pd28  1  0.347721  0.658083  0.996970  1
