# generated using pymatgen
data_Y9ErNiAg3
_symmetry_space_group_name_H-M   'P 1'
_cell_length_a   9.54503300
_cell_length_b   9.54503357
_cell_length_c   9.62505000
_cell_angle_alpha   90.00000000
_cell_angle_beta   90.00000000
_cell_angle_gamma   119.99999457
_symmetry_Int_Tables_number   1
_chemical_formula_structural   Y9ErNiAg3
_chemical_formula_sum   'Y18 Er2 Ni2 Ag6'
_cell_volume   759.43138958
_cell_formula_units_Z   2
loop_
 _symmetry_equiv_pos_site_id
 _symmetry_equiv_pos_as_xyz
  1  'x, y, z'
loop_
 _atom_site_type_symbol
 _atom_site_label
 _atom_site_symmetry_multiplicity
 _atom_site_fract_x
 _atom_site_fract_y
 _atom_site_fract_z
 _atom_site_occupancy
  Y  Y0  1  0.543879  0.456121  0.250000  1
  Y  Y1  1  0.543879  0.087760  0.250000  1
  Y  Y2  1  0.912240  0.456121  0.250000  1
  Y  Y3  1  0.456121  0.543879  0.750000  1
  Y  Y4  1  0.456121  0.912240  0.750000  1
  Y  Y5  1  0.087760  0.543879  0.750000  1
  Y  Y6  1  0.209626  0.790374  0.439321  1
  Y  Y7  1  0.209626  0.419253  0.439321  1
  Y  Y8  1  0.580747  0.790374  0.439321  1
  Y  Y9  1  0.790374  0.209626  0.560679  1
  Y  Y10  1  0.790374  0.580747  0.560679  1
  Y  Y11  1  0.419253  0.209626  0.560679  1
  Y  Y12  1  0.790374  0.209626  0.939321  1
  Y  Y13  1  0.790374  0.580747  0.939321  1
  Y  Y14  1  0.419253  0.209626  0.939321  1
  Y  Y15  1  0.209626  0.790374  0.060679  1
  Y  Y16  1  0.209626  0.419253  0.060679  1
  Y  Y17  1  0.580747  0.790374  0.060679  1
  Er  Er18  1  0.000000  0.000000  0.500000  1
  Er  Er19  1  0.000000  0.000000  0.000000  1
  Ni  Ni20  1  0.333333  0.666667  0.250000  1
  Ni  Ni21  1  0.666667  0.333333  0.750000  1
  Ag  Ag22  1  0.883896  0.116104  0.250000  1
  Ag  Ag23  1  0.883896  0.767790  0.250000  1
  Ag  Ag24  1  0.232210  0.116104  0.250000  1
  Ag  Ag25  1  0.116104  0.883896  0.750000  1
  Ag  Ag26  1  0.116104  0.232210  0.750000  1
  Ag  Ag27  1  0.767790  0.883896  0.750000  1
