# generated using pymatgen
data_Zr3B2Ru4Rh
_symmetry_space_group_name_H-M   'P 1'
_cell_length_a   9.56371478
_cell_length_b   9.60987276
_cell_length_c   3.14893500
_cell_angle_alpha   90.00000000
_cell_angle_beta   90.00000000
_cell_angle_gamma   90.11431371
_symmetry_Int_Tables_number   1
_chemical_formula_structural   Zr3B2Ru4Rh
_chemical_formula_sum   'Zr6 B4 Ru8 Rh2'
_cell_volume   289.40570279
_cell_formula_units_Z   2
loop_
 _symmetry_equiv_pos_site_id
 _symmetry_equiv_pos_as_xyz
  1  'x, y, z'
loop_
 _atom_site_type_symbol
 _atom_site_label
 _atom_site_symmetry_multiplicity
 _atom_site_fract_x
 _atom_site_fract_y
 _atom_site_fract_z
 _atom_site_occupancy
  Zr  Zr0  1  0.674415  0.180322  0.000000  1
  Zr  Zr1  1  0.325585  0.819678  0.000000  1
  Zr  Zr2  1  0.175379  0.329238  0.000000  1
  Zr  Zr3  1  0.824621  0.670762  0.000000  1
  Zr  Zr4  1  0.000000  0.000000  0.000000  1
  Zr  Zr5  1  0.500000  0.500000  0.000000  1
  B  B6  1  0.121305  0.621836  0.000000  1
  B  B7  1  0.878695  0.378164  0.000000  1
  B  B8  1  0.614962  0.874941  0.000000  1
  B  B9  1  0.385038  0.125059  0.000000  1
  Ru  Ru10  1  0.070611  0.778361  0.500000  1
  Ru  Ru11  1  0.721845  0.427228  0.500000  1
  Ru  Ru12  1  0.929389  0.221639  0.500000  1
  Ru  Ru13  1  0.278155  0.572772  0.500000  1
  Ru  Ru14  1  0.574267  0.722518  0.500000  1
  Ru  Ru15  1  0.425733  0.277482  0.500000  1
  Ru  Ru16  1  0.500000  0.000000  0.500000  1
  Ru  Ru17  1  0.000000  0.500000  0.500000  1
  Rh  Rh18  1  0.223119  0.070432  0.500000  1
  Rh  Rh19  1  0.776881  0.929568  0.500000  1
