# generated using pymatgen
data_Yb3Eu17(Zn3Cd)3
_symmetry_space_group_name_H-M   'P 1'
_cell_length_a   8.16692500
_cell_length_b   8.16692500
_cell_length_c   15.57137400
_cell_angle_alpha   90.00000000
_cell_angle_beta   90.00000000
_cell_angle_gamma   90.00000000
_symmetry_Int_Tables_number   1
_chemical_formula_structural   Yb3Eu17(Zn3Cd)3
_chemical_formula_sum   'Yb3 Eu17 Zn9 Cd3'
_cell_volume   1038.58984175
_cell_formula_units_Z   1
loop_
 _symmetry_equiv_pos_site_id
 _symmetry_equiv_pos_as_xyz
  1  'x, y, z'
loop_
 _atom_site_type_symbol
 _atom_site_label
 _atom_site_symmetry_multiplicity
 _atom_site_fract_x
 _atom_site_fract_y
 _atom_site_fract_z
 _atom_site_occupancy
  Yb  Yb0  1  0.500000  0.500000  0.754359  1
  Yb  Yb1  1  0.000000  0.000000  0.250256  1
  Yb  Yb2  1  0.000000  0.000000  0.749821  1
  Eu  Eu3  1  0.674133  0.163574  0.102989  1
  Eu  Eu4  1  0.168937  0.668419  0.606361  1
  Eu  Eu5  1  0.325867  0.836426  0.102989  1
  Eu  Eu6  1  0.831063  0.331581  0.606361  1
  Eu  Eu7  1  0.836426  0.674133  0.102989  1
  Eu  Eu8  1  0.331581  0.168937  0.606361  1
  Eu  Eu9  1  0.163574  0.325867  0.102989  1
  Eu  Eu10  1  0.668419  0.831063  0.606361  1
  Eu  Eu11  1  0.836034  0.326516  0.896443  1
  Eu  Eu12  1  0.331062  0.831438  0.394217  1
  Eu  Eu13  1  0.163966  0.673484  0.896443  1
  Eu  Eu14  1  0.668938  0.168562  0.394217  1
  Eu  Eu15  1  0.673484  0.836034  0.896443  1
  Eu  Eu16  1  0.168562  0.331062  0.394217  1
  Eu  Eu17  1  0.326516  0.163966  0.896443  1
  Eu  Eu18  1  0.831438  0.668938  0.394217  1
  Eu  Eu19  1  0.500000  0.500000  0.245704  1
  Zn  Zn20  1  0.618470  0.119758  0.751555  1
  Zn  Zn21  1  0.117874  0.619053  0.248496  1
  Zn  Zn22  1  0.882126  0.380947  0.248496  1
  Zn  Zn23  1  0.381530  0.880242  0.751555  1
  Zn  Zn24  1  0.880242  0.618470  0.751555  1
  Zn  Zn25  1  0.380947  0.117874  0.248496  1
  Zn  Zn26  1  0.119758  0.381530  0.751555  1
  Zn  Zn27  1  0.619053  0.882126  0.248496  1
  Zn  Zn28  1  0.000000  0.000000  0.000007  1
  Cd  Cd29  1  0.500000  0.500000  0.500091  1
  Cd  Cd30  1  0.500000  0.500000  0.999594  1
  Cd  Cd31  1  0.000000  0.000000  0.499923  1
