# generated using pymatgen
data_Lu2Co9TcP6
_symmetry_space_group_name_H-M   'P 1'
_cell_length_a   3.65190700
_cell_length_b   10.24956100
_cell_length_c   11.70194600
_cell_angle_alpha   90.00000000
_cell_angle_beta   90.00000000
_cell_angle_gamma   90.00000000
_symmetry_Int_Tables_number   1
_chemical_formula_structural   Lu2Co9TcP6
_chemical_formula_sum   'Lu4 Co18 Tc2 P12'
_cell_volume   438.00902933
_cell_formula_units_Z   2
loop_
 _symmetry_equiv_pos_site_id
 _symmetry_equiv_pos_as_xyz
  1  'x, y, z'
loop_
 _atom_site_type_symbol
 _atom_site_label
 _atom_site_symmetry_multiplicity
 _atom_site_fract_x
 _atom_site_fract_y
 _atom_site_fract_z
 _atom_site_occupancy
  Lu  Lu0  1  0.250000  0.582249  0.702996  1
  Lu  Lu1  1  0.250000  0.917751  0.202996  1
  Lu  Lu2  1  0.750000  0.415435  0.295423  1
  Lu  Lu3  1  0.750000  0.084565  0.795423  1
  Co  Co4  1  0.750000  0.283769  0.009327  1
  Co  Co5  1  0.750000  0.216231  0.509327  1
  Co  Co6  1  0.250000  0.406377  0.487221  1
  Co  Co7  1  0.250000  0.093623  0.987221  1
  Co  Co8  1  0.750000  0.591307  0.512060  1
  Co  Co9  1  0.750000  0.908693  0.012060  1
  Co  Co10  1  0.250000  0.221131  0.177097  1
  Co  Co11  1  0.250000  0.278869  0.677097  1
  Co  Co12  1  0.750000  0.778450  0.822390  1
  Co  Co13  1  0.750000  0.721550  0.322390  1
  Co  Co14  1  0.250000  0.886422  0.701947  1
  Co  Co15  1  0.250000  0.613578  0.201947  1
  Co  Co16  1  0.750000  0.116180  0.300373  1
  Co  Co17  1  0.750000  0.383820  0.800373  1
  Co  Co18  1  0.250000  0.464191  0.932049  1
  Co  Co19  1  0.250000  0.035809  0.432049  1
  Co  Co20  1  0.750000  0.532898  0.069122  1
  Co  Co21  1  0.750000  0.967102  0.569122  1
  Tc  Tc22  1  0.250000  0.711257  0.989436  1
  Tc  Tc23  1  0.250000  0.788743  0.489436  1
  P  P24  1  0.250000  0.417327  0.113569  1
  P  P25  1  0.250000  0.082673  0.613569  1
  P  P26  1  0.750000  0.578699  0.885600  1
  P  P27  1  0.750000  0.921301  0.385600  1
  P  P28  1  0.250000  0.267824  0.868375  1
  P  P29  1  0.250000  0.232176  0.368375  1
  P  P30  1  0.750000  0.731235  0.133446  1
  P  P31  1  0.750000  0.768765  0.633446  1
  P  P32  1  0.250000  0.594357  0.390274  1
  P  P33  1  0.250000  0.905643  0.890274  1
  P  P34  1  0.750000  0.398811  0.609297  1
  P  P35  1  0.750000  0.101189  0.109297  1
