# generated using pymatgen
data_Tb2Y2Zn4Pd3Ru
_symmetry_space_group_name_H-M   'P 1'
_cell_length_a   4.06551400
_cell_length_b   7.07730404
_cell_length_c   8.23467146
_cell_angle_alpha   89.69110721
_cell_angle_beta   90.00000000
_cell_angle_gamma   90.00000000
_symmetry_Int_Tables_number   1
_chemical_formula_structural   Tb2Y2Zn4Pd3Ru
_chemical_formula_sum   'Tb2 Y2 Zn4 Pd3 Ru1'
_cell_volume   236.93175940
_cell_formula_units_Z   1
loop_
 _symmetry_equiv_pos_site_id
 _symmetry_equiv_pos_as_xyz
  1  'x, y, z'
loop_
 _atom_site_type_symbol
 _atom_site_label
 _atom_site_symmetry_multiplicity
 _atom_site_fract_x
 _atom_site_fract_y
 _atom_site_fract_z
 _atom_site_occupancy
  Tb  Tb0  1  0.750000  0.963945  0.685391  1
  Tb  Tb1  1  0.750000  0.449843  0.804756  1
  Y  Y2  1  0.250000  0.049091  0.319769  1
  Y  Y3  1  0.250000  0.543620  0.187280  1
  Zn  Zn4  1  0.250000  0.631852  0.565345  1
  Zn  Zn5  1  0.250000  0.139084  0.931453  1
  Zn  Zn6  1  0.750000  0.360747  0.437775  1
  Zn  Zn7  1  0.750000  0.864009  0.066762  1
  Pd  Pd8  1  0.250000  0.754300  0.881525  1
  Pd  Pd9  1  0.750000  0.746174  0.380418  1
  Pd  Pd10  1  0.750000  0.247285  0.120097  1
  Ru  Ru11  1  0.250000  0.250051  0.619428  1
