# generated using pymatgen
data_PaCoP2Os
_symmetry_space_group_name_H-M   'P 1'
_cell_length_a   4.07514600
_cell_length_b   4.07514600
_cell_length_c   9.03582300
_cell_angle_alpha   90.00000000
_cell_angle_beta   90.00000000
_cell_angle_gamma   90.00000000
_symmetry_Int_Tables_number   1
_chemical_formula_structural   PaCoP2Os
_chemical_formula_sum   'Pa2 Co2 P4 Os2'
_cell_volume   150.05624022
_cell_formula_units_Z   2
loop_
 _symmetry_equiv_pos_site_id
 _symmetry_equiv_pos_as_xyz
  1  'x, y, z'
loop_
 _atom_site_type_symbol
 _atom_site_label
 _atom_site_symmetry_multiplicity
 _atom_site_fract_x
 _atom_site_fract_y
 _atom_site_fract_z
 _atom_site_occupancy
  Pa  Pa0  1  0.500000  0.000000  0.240309  1
  Pa  Pa1  1  0.000000  0.500000  0.759691  1
  Co  Co2  1  0.000000  0.500000  0.107031  1
  Co  Co3  1  0.500000  0.000000  0.892969  1
  P  P4  1  0.000000  0.500000  0.355455  1
  P  P5  1  0.500000  0.500000  0.000000  1
  P  P6  1  0.500000  0.000000  0.644545  1
  P  P7  1  0.000000  0.000000  0.000000  1
  Os  Os8  1  0.000000  0.000000  0.500000  1
  Os  Os9  1  0.500000  0.500000  0.500000  1
