# generated using pymatgen
data_CaLa6IrBr12
_symmetry_space_group_name_H-M   'P 1'
_cell_length_a   9.71776393
_cell_length_b   9.71776331
_cell_length_c   9.71776364
_cell_angle_alpha   107.29222284
_cell_angle_beta   107.29221613
_cell_angle_gamma   107.29220825
_symmetry_Int_Tables_number   1
_chemical_formula_structural   CaLa6IrBr12
_chemical_formula_sum   'Ca1 La6 Ir1 Br12'
_cell_volume   758.09157093
_cell_formula_units_Z   1
loop_
 _symmetry_equiv_pos_site_id
 _symmetry_equiv_pos_as_xyz
  1  'x, y, z'
loop_
 _atom_site_type_symbol
 _atom_site_label
 _atom_site_symmetry_multiplicity
 _atom_site_fract_x
 _atom_site_fract_y
 _atom_site_fract_z
 _atom_site_occupancy
  Ca  Ca0  1  0.500000  0.500000  0.500000  1
  La  La1  1  0.109147  0.319862  0.029054  1
  La  La2  1  0.319862  0.029055  0.109146  1
  La  La3  1  0.029055  0.109146  0.319863  1
  La  La4  1  0.970946  0.890854  0.680138  1
  La  La5  1  0.680138  0.970946  0.890854  1
  La  La6  1  0.890853  0.680138  0.970946  1
  Ir  Ir7  1  0.000000  0.000000  0.000000  1
  Br  Br8  1  0.220212  0.685419  0.073483  1
  Br  Br9  1  0.462749  0.385363  0.172243  1
  Br  Br10  1  0.685420  0.073483  0.220212  1
  Br  Br11  1  0.926518  0.779788  0.314581  1
  Br  Br12  1  0.172243  0.462749  0.385363  1
  Br  Br13  1  0.385363  0.172243  0.462749  1
  Br  Br14  1  0.614637  0.827757  0.537252  1
  Br  Br15  1  0.827758  0.537251  0.614637  1
  Br  Br16  1  0.073483  0.220212  0.685420  1
  Br  Br17  1  0.314581  0.926518  0.779788  1
  Br  Br18  1  0.537251  0.614637  0.827758  1
  Br  Br19  1  0.779788  0.314581  0.926517  1
