# generated using pymatgen
data_Ba6Ho3RhS12
_symmetry_space_group_name_H-M   'P 1'
_cell_length_a   8.36368579
_cell_length_b   8.36368428
_cell_length_c   8.36368500
_cell_angle_alpha   93.34413448
_cell_angle_beta   93.34412701
_cell_angle_gamma   93.34414050
_symmetry_Int_Tables_number   1
_chemical_formula_structural   Ba6Ho3RhS12
_chemical_formula_sum   'Ba6 Ho3 Rh1 S12'
_cell_volume   581.93947381
_cell_formula_units_Z   1
loop_
 _symmetry_equiv_pos_site_id
 _symmetry_equiv_pos_as_xyz
  1  'x, y, z'
loop_
 _atom_site_type_symbol
 _atom_site_label
 _atom_site_symmetry_multiplicity
 _atom_site_fract_x
 _atom_site_fract_y
 _atom_site_fract_z
 _atom_site_occupancy
  Ba  Ba0  1  0.369289  0.744635  0.130202  1
  Ba  Ba1  1  0.130202  0.369289  0.744635  1
  Ba  Ba2  1  0.744635  0.130202  0.369289  1
  Ba  Ba3  1  0.630711  0.255365  0.869798  1
  Ba  Ba4  1  0.869798  0.630711  0.255365  1
  Ba  Ba5  1  0.255365  0.869798  0.630711  1
  Ho  Ho6  1  0.000000  0.000000  0.000000  1
  Ho  Ho7  1  0.257366  0.257366  0.257366  1
  Ho  Ho8  1  0.742634  0.742634  0.742634  1
  Rh  Rh9  1  0.500000  0.500000  0.500000  1
  S  S10  1  0.537379  0.418814  0.216758  1
  S  S11  1  0.216758  0.537379  0.418814  1
  S  S12  1  0.418814  0.216758  0.537379  1
  S  S13  1  0.962384  0.305533  0.098398  1
  S  S14  1  0.098398  0.962384  0.305533  1
  S  S15  1  0.305533  0.098398  0.962384  1
  S  S16  1  0.462621  0.581186  0.783242  1
  S  S17  1  0.783242  0.462621  0.581186  1
  S  S18  1  0.581186  0.783242  0.462621  1
  S  S19  1  0.037616  0.694467  0.901602  1
  S  S20  1  0.694467  0.901602  0.037616  1
  S  S21  1  0.901602  0.037616  0.694467  1
