# generated using pymatgen
data_HfSc3Pt2O
_symmetry_space_group_name_H-M   'P 1'
_cell_length_a   8.77228641
_cell_length_b   8.77228533
_cell_length_c   8.77228600
_cell_angle_alpha   59.99999746
_cell_angle_beta   60.00000155
_cell_angle_gamma   60.00000348
_symmetry_Int_Tables_number   1
_chemical_formula_structural   HfSc3Pt2O
_chemical_formula_sum   'Hf4 Sc12 Pt8 O4'
_cell_volume   477.33507141
_cell_formula_units_Z   4
loop_
 _symmetry_equiv_pos_site_id
 _symmetry_equiv_pos_as_xyz
  1  'x, y, z'
loop_
 _atom_site_type_symbol
 _atom_site_label
 _atom_site_symmetry_multiplicity
 _atom_site_fract_x
 _atom_site_fract_y
 _atom_site_fract_z
 _atom_site_occupancy
  Hf  Hf0  1  0.125000  0.625000  0.625000  1
  Hf  Hf1  1  0.625000  0.125000  0.625000  1
  Hf  Hf2  1  0.625000  0.625000  0.125000  1
  Hf  Hf3  1  0.625000  0.625000  0.625000  1
  Sc  Sc4  1  0.818177  0.818177  0.181823  1
  Sc  Sc5  1  0.181823  0.181823  0.818177  1
  Sc  Sc6  1  0.818177  0.181823  0.818177  1
  Sc  Sc7  1  0.181823  0.818177  0.181823  1
  Sc  Sc8  1  0.181823  0.818177  0.818177  1
  Sc  Sc9  1  0.818177  0.181823  0.181823  1
  Sc  Sc10  1  0.431823  0.431823  0.068177  1
  Sc  Sc11  1  0.068177  0.068177  0.431823  1
  Sc  Sc12  1  0.431823  0.068177  0.431823  1
  Sc  Sc13  1  0.068177  0.431823  0.068177  1
  Sc  Sc14  1  0.068177  0.431823  0.431823  1
  Sc  Sc15  1  0.431823  0.068177  0.068177  1
  Pt  Pt16  1  0.771266  0.409578  0.409578  1
  Pt  Pt17  1  0.409578  0.771266  0.409578  1
  Pt  Pt18  1  0.409578  0.409578  0.771266  1
  Pt  Pt19  1  0.409578  0.409578  0.409578  1
  Pt  Pt20  1  0.478734  0.840422  0.840422  1
  Pt  Pt21  1  0.840422  0.478734  0.840422  1
  Pt  Pt22  1  0.840422  0.840422  0.478734  1
  Pt  Pt23  1  0.840422  0.840422  0.840422  1
  O  O24  1  0.625000  0.125000  0.125000  1
  O  O25  1  0.125000  0.625000  0.125000  1
  O  O26  1  0.125000  0.125000  0.625000  1
  O  O27  1  0.125000  0.125000  0.125000  1
