# generated using pymatgen
data_Ba2ErPaS6
_symmetry_space_group_name_H-M   'P 1'
_cell_length_a   7.20535155
_cell_length_b   7.20535087
_cell_length_c   7.33525200
_cell_angle_alpha   120.02034538
_cell_angle_beta   120.02034226
_cell_angle_gamma   60.06612201
_symmetry_Int_Tables_number   1
_chemical_formula_structural   Ba2ErPaS6
_chemical_formula_sum   'Ba2 Er1 Pa1 S6'
_cell_volume   269.33522585
_cell_formula_units_Z   1
loop_
 _symmetry_equiv_pos_site_id
 _symmetry_equiv_pos_as_xyz
  1  'x, y, z'
loop_
 _atom_site_type_symbol
 _atom_site_label
 _atom_site_symmetry_multiplicity
 _atom_site_fract_x
 _atom_site_fract_y
 _atom_site_fract_z
 _atom_site_occupancy
  Ba  Ba0  1  0.749158  0.749158  0.235765  1
  Ba  Ba1  1  0.250842  0.250842  0.764234  1
  Er  Er2  1  0.500000  0.500000  0.500000  1
  Pa  Pa3  1  0.000000  0.000000  0.000000  1
  S  S4  1  0.697984  0.196599  0.194828  1
  S  S5  1  0.196599  0.697984  0.194828  1
  S  S6  1  0.246759  0.246759  0.339751  1
  S  S7  1  0.753241  0.753241  0.660250  1
  S  S8  1  0.803400  0.302016  0.805171  1
  S  S9  1  0.302016  0.803400  0.805171  1
