# generated using pymatgen
data_Y4Er(InSb)2
_symmetry_space_group_name_H-M   'P 1'
_cell_length_a   8.81209364
_cell_length_b   8.81209503
_cell_length_c   8.10040300
_cell_angle_alpha   90.00000000
_cell_angle_beta   90.00000000
_cell_angle_gamma   125.19652891
_symmetry_Int_Tables_number   1
_chemical_formula_structural   Y4Er(InSb)2
_chemical_formula_sum   'Y8 Er2 In4 Sb4'
_cell_volume   514.02297799
_cell_formula_units_Z   2
loop_
 _symmetry_equiv_pos_site_id
 _symmetry_equiv_pos_as_xyz
  1  'x, y, z'
loop_
 _atom_site_type_symbol
 _atom_site_label
 _atom_site_symmetry_multiplicity
 _atom_site_fract_x
 _atom_site_fract_y
 _atom_site_fract_z
 _atom_site_occupancy
  Y  Y0  1  0.031770  0.306399  0.334355  1
  Y  Y1  1  0.968230  0.693601  0.665645  1
  Y  Y2  1  0.468230  0.193601  0.834355  1
  Y  Y3  1  0.806399  0.531770  0.165645  1
  Y  Y4  1  0.531770  0.806399  0.165645  1
  Y  Y5  1  0.193601  0.468230  0.834355  1
  Y  Y6  1  0.693601  0.968230  0.665645  1
  Y  Y7  1  0.306399  0.031770  0.334355  1
  Er  Er8  1  0.000000  0.000000  0.000000  1
  Er  Er9  1  0.500000  0.500000  0.500000  1
  In  In10  1  0.369674  0.369674  0.129326  1
  In  In11  1  0.630326  0.630326  0.870674  1
  In  In12  1  0.130326  0.130326  0.629326  1
  In  In13  1  0.869674  0.869674  0.370674  1
  Sb  Sb14  1  0.797415  0.202585  0.000000  1
  Sb  Sb15  1  0.202585  0.797415  0.000000  1
  Sb  Sb16  1  0.702585  0.297415  0.500000  1
  Sb  Sb17  1  0.297415  0.702585  0.500000  1
