# generated using pymatgen
data_Cs3RbSe24
_symmetry_space_group_name_H-M   'P 1'
_cell_length_a   11.66740911
_cell_length_b   11.66740965
_cell_length_c   11.66118996
_cell_angle_alpha   126.66078497
_cell_angle_beta   122.05598840
_cell_angle_gamma   82.69086239
_symmetry_Int_Tables_number   1
_chemical_formula_structural   Cs3RbSe24
_chemical_formula_sum   'Cs3 Rb1 Se24'
_cell_volume   1036.39682680
_cell_formula_units_Z   1
loop_
 _symmetry_equiv_pos_site_id
 _symmetry_equiv_pos_as_xyz
  1  'x, y, z'
loop_
 _atom_site_type_symbol
 _atom_site_label
 _atom_site_symmetry_multiplicity
 _atom_site_fract_x
 _atom_site_fract_y
 _atom_site_fract_z
 _atom_site_occupancy
  Cs  Cs0  1  0.000000  0.000000  0.000000  1
  Cs  Cs1  1  0.747323  0.247323  0.500000  1
  Cs  Cs2  1  0.252677  0.752677  0.500000  1
  Rb  Rb3  1  0.500000  0.500000  0.000000  1
  Se  Se4  1  0.645848  0.749457  0.897306  1
  Se  Se5  1  0.852152  0.748542  0.102694  1
  Se  Se6  1  0.354152  0.250543  0.102694  1
  Se  Se7  1  0.147848  0.251458  0.897306  1
  Se  Se8  1  0.244419  0.153290  0.695007  1
  Se  Se9  1  0.264257  0.949921  0.907777  1
  Se  Se10  1  0.042144  0.356480  0.092223  1
  Se  Se11  1  0.458283  0.549412  0.304993  1
  Se  Se12  1  0.755581  0.846710  0.304993  1
  Se  Se13  1  0.735743  0.050079  0.092223  1
  Se  Se14  1  0.957856  0.643520  0.907777  1
  Se  Se15  1  0.541717  0.450588  0.695007  1
  Se  Se16  1  0.915221  0.816625  0.513767  1
  Se  Se17  1  0.581661  0.101482  0.903122  1
  Se  Se18  1  0.198362  0.678540  0.096878  1
  Se  Se19  1  0.302856  0.401453  0.486233  1
  Se  Se20  1  0.084779  0.183375  0.486233  1
  Se  Se21  1  0.418339  0.898518  0.096878  1
  Se  Se22  1  0.801639  0.321460  0.903122  1
  Se  Se23  1  0.697144  0.598547  0.513767  1
  Se  Se24  1  0.668200  0.078209  0.746409  1
  Se  Se25  1  0.830532  0.573427  0.403959  1
  Se  Se26  1  0.169468  0.426573  0.596041  1
  Se  Se27  1  0.331800  0.921791  0.253591  1
