# generated using pymatgen
data_LuCl30
_symmetry_space_group_name_H-M   'P 1'
_cell_length_a   13.47218697
_cell_length_b   13.47218693
_cell_length_c   16.17191572
_cell_angle_alpha   82.41298762
_cell_angle_beta   82.41298534
_cell_angle_gamma   119.77029960
_symmetry_Int_Tables_number   1
_chemical_formula_structural   LuCl30
_chemical_formula_sum   'Lu1 Cl30'
_cell_volume   2458.02245766
_cell_formula_units_Z   1
loop_
 _symmetry_equiv_pos_site_id
 _symmetry_equiv_pos_as_xyz
  1  'x, y, z'
loop_
 _atom_site_type_symbol
 _atom_site_label
 _atom_site_symmetry_multiplicity
 _atom_site_fract_x
 _atom_site_fract_y
 _atom_site_fract_z
 _atom_site_occupancy
  Lu  Lu0  1  0.000000  0.000000  0.000000  1
  Cl  Cl1  1  0.940131  0.940131  0.166695  1
  Cl  Cl2  1  0.059869  0.059869  0.833305  1
  Cl  Cl3  1  0.100344  0.217724  0.005935  1
  Cl  Cl4  1  0.899656  0.782276  0.994065  1
  Cl  Cl5  1  0.217724  0.100344  0.005935  1
  Cl  Cl6  1  0.782276  0.899656  0.994065  1
  Cl  Cl7  1  0.201957  0.742733  0.063964  1
  Cl  Cl8  1  0.798043  0.257267  0.936036  1
  Cl  Cl9  1  0.697649  0.080922  0.259877  1
  Cl  Cl10  1  0.257267  0.798043  0.936036  1
  Cl  Cl11  1  0.302351  0.919078  0.740123  1
  Cl  Cl12  1  0.742733  0.201957  0.063964  1
  Cl  Cl13  1  0.982154  0.197795  0.776568  1
  Cl  Cl14  1  0.919078  0.302351  0.740123  1
  Cl  Cl15  1  0.017846  0.802205  0.223432  1
  Cl  Cl16  1  0.080922  0.697649  0.259877  1
  Cl  Cl17  1  0.802205  0.017846  0.223432  1
  Cl  Cl18  1  0.197795  0.982154  0.776568  1
  Cl  Cl19  1  0.464096  0.549322  0.260924  1
  Cl  Cl20  1  0.535904  0.450678  0.739076  1
  Cl  Cl21  1  0.508648  0.206278  0.450723  1
  Cl  Cl22  1  0.450678  0.535904  0.739076  1
  Cl  Cl23  1  0.491352  0.793722  0.549277  1
  Cl  Cl24  1  0.549322  0.464096  0.260924  1
  Cl  Cl25  1  0.240477  0.429174  0.545694  1
  Cl  Cl26  1  0.793722  0.491352  0.549277  1
  Cl  Cl27  1  0.759523  0.570826  0.454306  1
  Cl  Cl28  1  0.206278  0.508648  0.450723  1
  Cl  Cl29  1  0.570826  0.759523  0.454306  1
  Cl  Cl30  1  0.429174  0.240477  0.545694  1
