# generated using pymatgen
data_Co4ReB4Mo3
_symmetry_space_group_name_H-M   'P 1'
_cell_length_a   3.24062500
_cell_length_b   5.74851581
_cell_length_c   6.61153329
_cell_angle_alpha   89.69750656
_cell_angle_beta   90.00000000
_cell_angle_gamma   90.00000000
_symmetry_Int_Tables_number   1
_chemical_formula_structural   Co4ReB4Mo3
_chemical_formula_sum   'Co4 Re1 B4 Mo3'
_cell_volume   123.16310935
_cell_formula_units_Z   1
loop_
 _symmetry_equiv_pos_site_id
 _symmetry_equiv_pos_as_xyz
  1  'x, y, z'
loop_
 _atom_site_type_symbol
 _atom_site_label
 _atom_site_symmetry_multiplicity
 _atom_site_fract_x
 _atom_site_fract_y
 _atom_site_fract_z
 _atom_site_occupancy
  Co  Co0  1  0.750000  0.855679  0.554930  1
  Co  Co1  1  0.250000  0.146732  0.443352  1
  Co  Co2  1  0.750000  0.353658  0.945065  1
  Co  Co3  1  0.250000  0.643660  0.056352  1
  Re  Re4  1  0.750000  0.970386  0.171872  1
  B  B5  1  0.250000  0.269324  0.126933  1
  B  B6  1  0.750000  0.727319  0.877680  1
  B  B7  1  0.250000  0.776747  0.371466  1
  B  B8  1  0.750000  0.227837  0.625645  1
  Mo  Mo9  1  0.250000  0.528345  0.673446  1
  Mo  Mo10  1  0.750000  0.472343  0.326608  1
  Mo  Mo11  1  0.250000  0.027970  0.826649  1
