# generated using pymatgen
data_CaSm3Sc4(ReB6)4
_symmetry_space_group_name_H-M   'P 1'
_cell_length_a   3.61391300
_cell_length_b   9.06137925
_cell_length_c   11.47449830
_cell_angle_alpha   89.97346532
_cell_angle_beta   90.00000000
_cell_angle_gamma   90.00000000
_symmetry_Int_Tables_number   1
_chemical_formula_structural   CaSm3Sc4(ReB6)4
_chemical_formula_sum   'Ca1 Sm3 Sc4 Re4 B24'
_cell_volume   375.75577167
_cell_formula_units_Z   1
loop_
 _symmetry_equiv_pos_site_id
 _symmetry_equiv_pos_as_xyz
  1  'x, y, z'
loop_
 _atom_site_type_symbol
 _atom_site_label
 _atom_site_symmetry_multiplicity
 _atom_site_fract_x
 _atom_site_fract_y
 _atom_site_fract_z
 _atom_site_occupancy
  Ca  Ca0  1  0.000000  0.177217  0.914652  1
  Sm  Sm1  1  0.000000  0.322102  0.415054  1
  Sm  Sm2  1  0.000000  0.677795  0.585420  1
  Sm  Sm3  1  0.000000  0.823521  0.084859  1
  Sc  Sc4  1  0.000000  0.944622  0.369458  1
  Sc  Sc5  1  0.000000  0.055961  0.631653  1
  Sc  Sc6  1  0.000000  0.443114  0.131179  1
  Sc  Sc7  1  0.000000  0.556393  0.868382  1
  Re  Re8  1  0.000000  0.642170  0.316599  1
  Re  Re9  1  0.000000  0.358998  0.683283  1
  Re  Re10  1  0.000000  0.141745  0.182719  1
  Re  Re11  1  0.000000  0.856817  0.817033  1
  B  B12  1  0.500000  0.555661  0.430581  1
  B  B13  1  0.500000  0.444313  0.569269  1
  B  B14  1  0.500000  0.055710  0.067889  1
  B  B15  1  0.500000  0.945507  0.930984  1
  B  B16  1  0.500000  0.754855  0.416353  1
  B  B17  1  0.500000  0.245122  0.584299  1
  B  B18  1  0.500000  0.254901  0.081662  1
  B  B19  1  0.500000  0.744870  0.916690  1
  B  B20  1  0.500000  0.795519  0.264736  1
  B  B21  1  0.500000  0.204147  0.736069  1
  B  B22  1  0.500000  0.295188  0.234291  1
  B  B23  1  0.500000  0.704203  0.765075  1
  B  B24  1  0.500000  0.628476  0.182510  1
  B  B25  1  0.500000  0.370594  0.818117  1
  B  B26  1  0.500000  0.128576  0.316857  1
  B  B27  1  0.500000  0.871588  0.683806  1
  B  B28  1  0.500000  0.982864  0.213967  1
  B  B29  1  0.500000  0.018228  0.786509  1
  B  B30  1  0.500000  0.482350  0.285121  1
  B  B31  1  0.500000  0.517409  0.714705  1
  B  B32  1  0.500000  0.592580  0.024794  1
  B  B33  1  0.500000  0.406651  0.974714  1
  B  B34  1  0.500000  0.093984  0.475200  1
  B  B35  1  0.500000  0.906249  0.525507  1
