# generated using pymatgen
data_La3TlPb4
_symmetry_space_group_name_H-M   'P 1'
_cell_length_a   8.95621783
_cell_length_b   8.95621880
_cell_length_c   8.93496371
_cell_angle_alpha   60.31922946
_cell_angle_beta   60.31922388
_cell_angle_gamma   90.68847256
_symmetry_Int_Tables_number   1
_chemical_formula_structural   La3TlPb4
_chemical_formula_sum   'La6 Tl2 Pb8'
_cell_volume   508.60116315
_cell_formula_units_Z   2
loop_
 _symmetry_equiv_pos_site_id
 _symmetry_equiv_pos_as_xyz
  1  'x, y, z'
loop_
 _atom_site_type_symbol
 _atom_site_label
 _atom_site_symmetry_multiplicity
 _atom_site_fract_x
 _atom_site_fract_y
 _atom_site_fract_z
 _atom_site_occupancy
  La  La0  1  0.662109  0.162109  0.178448  1
  La  La1  1  0.340556  0.840556  0.821552  1
  La  La2  1  0.157558  0.339988  0.500000  1
  La  La3  1  0.839988  0.657558  0.500000  1
  La  La4  1  0.753728  0.753728  0.000000  1
  La  La5  1  0.253728  0.253728  0.000000  1
  Tl  Tl6  1  0.315863  0.815863  0.213869  1
  Tl  Tl7  1  0.029732  0.529732  0.786131  1
  Pb  Pb8  1  0.503679  0.503679  0.000000  1
  Pb  Pb9  1  0.003679  0.003679  0.000000  1
  Pb  Pb10  1  0.819188  0.034087  0.500000  1
  Pb  Pb11  1  0.534087  0.319188  0.500000  1
  Pb  Pb12  1  0.672512  0.172512  0.796605  1
  Pb  Pb13  1  0.969116  0.469116  0.203395  1
  Pb  Pb14  1  0.180555  0.963918  0.500000  1
  Pb  Pb15  1  0.463918  0.680555  0.500000  1
