# generated using pymatgen
data_Ho3Er5B24MoOs3
_symmetry_space_group_name_H-M   'P 1'
_cell_length_a   3.63941400
_cell_length_b   9.14016699
_cell_length_c   11.52525904
_cell_angle_alpha   89.91561090
_cell_angle_beta   90.00000000
_cell_angle_gamma   90.00000000
_symmetry_Int_Tables_number   1
_chemical_formula_structural   Ho3Er5B24MoOs3
_chemical_formula_sum   'Ho3 Er5 B24 Mo1 Os3'
_cell_volume   383.38561696
_cell_formula_units_Z   1
loop_
 _symmetry_equiv_pos_site_id
 _symmetry_equiv_pos_as_xyz
  1  'x, y, z'
loop_
 _atom_site_type_symbol
 _atom_site_label
 _atom_site_symmetry_multiplicity
 _atom_site_fract_x
 _atom_site_fract_y
 _atom_site_fract_z
 _atom_site_occupancy
  Ho  Ho0  1  0.000000  0.322309  0.413118  1
  Ho  Ho1  1  0.000000  0.677162  0.584985  1
  Ho  Ho2  1  0.000000  0.820664  0.087594  1
  Er  Er3  1  0.000000  0.177591  0.914591  1
  Er  Er4  1  0.000000  0.945206  0.372740  1
  Er  Er5  1  0.000000  0.057262  0.628524  1
  Er  Er6  1  0.000000  0.443670  0.126700  1
  Er  Er7  1  0.000000  0.556339  0.871326  1
  B  B8  1  0.500000  0.551107  0.435383  1
  B  B9  1  0.500000  0.446037  0.568067  1
  B  B10  1  0.500000  0.053610  0.066766  1
  B  B11  1  0.500000  0.946396  0.933287  1
  B  B12  1  0.500000  0.750596  0.421674  1
  B  B13  1  0.500000  0.252051  0.581005  1
  B  B14  1  0.500000  0.248446  0.079925  1
  B  B15  1  0.500000  0.751457  0.919143  1
  B  B16  1  0.500000  0.794661  0.264852  1
  B  B17  1  0.500000  0.208260  0.734303  1
  B  B18  1  0.500000  0.291003  0.232779  1
  B  B19  1  0.500000  0.709126  0.765907  1
  B  B20  1  0.500000  0.631736  0.183243  1
  B  B21  1  0.500000  0.367992  0.815068  1
  B  B22  1  0.500000  0.131612  0.313730  1
  B  B23  1  0.500000  0.869201  0.685631  1
  B  B24  1  0.500000  0.983174  0.212729  1
  B  B25  1  0.500000  0.017433  0.787892  1
  B  B26  1  0.500000  0.478654  0.286537  1
  B  B27  1  0.500000  0.516468  0.713153  1
  B  B28  1  0.500000  0.605747  0.027848  1
  B  B29  1  0.500000  0.393473  0.969822  1
  B  B30  1  0.500000  0.106800  0.470988  1
  B  B31  1  0.500000  0.895951  0.530482  1
  Mo  Mo32  1  0.000000  0.637686  0.321163  1
  Os  Os33  1  0.000000  0.360912  0.680525  1
  Os  Os34  1  0.000000  0.137571  0.177401  1
  Os  Os35  1  0.000000  0.862635  0.821123  1
