# generated using pymatgen
data_NaSrMn2(CoAs2)2
_symmetry_space_group_name_H-M   'P 1'
_cell_length_a   6.87586035
_cell_length_b   6.87586014
_cell_length_c   5.48952900
_cell_angle_alpha   90.00000000
_cell_angle_beta   90.00000000
_cell_angle_gamma   132.95556745
_symmetry_Int_Tables_number   1
_chemical_formula_structural   NaSrMn2(CoAs2)2
_chemical_formula_sum   'Na1 Sr1 Mn2 Co2 As4'
_cell_volume   189.94613023
_cell_formula_units_Z   1
loop_
 _symmetry_equiv_pos_site_id
 _symmetry_equiv_pos_as_xyz
  1  'x, y, z'
loop_
 _atom_site_type_symbol
 _atom_site_label
 _atom_site_symmetry_multiplicity
 _atom_site_fract_x
 _atom_site_fract_y
 _atom_site_fract_z
 _atom_site_occupancy
  Na  Na0  1  0.000000  0.000000  0.000000  1
  Sr  Sr1  1  0.500000  0.500000  0.500000  1
  Mn  Mn2  1  0.000000  0.500000  0.751831  1
  Mn  Mn3  1  0.500000  0.000000  0.248169  1
  Co  Co4  1  0.500000  0.000000  0.750284  1
  Co  Co5  1  0.000000  0.500000  0.249716  1
  As  As6  1  0.360087  0.639913  0.000000  1
  As  As7  1  0.858830  0.141170  0.500000  1
  As  As8  1  0.141170  0.858830  0.500000  1
  As  As9  1  0.639913  0.360087  0.000000  1
