# generated using pymatgen
data_La12Co4CuPb
_symmetry_space_group_name_H-M   'P 1'
_cell_length_a   8.73519525
_cell_length_b   8.73519474
_cell_length_c   8.73519500
_cell_angle_alpha   105.78858242
_cell_angle_beta   109.61483136
_cell_angle_gamma   113.09245594
_symmetry_Int_Tables_number   1
_chemical_formula_structural   La12Co4CuPb
_chemical_formula_sum   'La12 Co4 Cu1 Pb1'
_cell_volume   511.01112771
_cell_formula_units_Z   1
loop_
 _symmetry_equiv_pos_site_id
 _symmetry_equiv_pos_as_xyz
  1  'x, y, z'
loop_
 _atom_site_type_symbol
 _atom_site_label
 _atom_site_symmetry_multiplicity
 _atom_site_fract_x
 _atom_site_fract_y
 _atom_site_fract_z
 _atom_site_occupancy
  La  La0  1  0.482834  0.306368  0.176488  1
  La  La1  1  0.129878  0.306368  0.823534  1
  La  La2  1  0.870122  0.693632  0.176466  1
  La  La3  1  0.517166  0.693632  0.823512  1
  La  La4  1  0.314547  0.642403  0.327854  1
  La  La5  1  0.314535  0.986688  0.672152  1
  La  La6  1  0.685453  0.357597  0.672146  1
  La  La7  1  0.685465  0.013312  0.327848  1
  La  La8  1  0.195771  0.206524  0.402310  1
  La  La9  1  0.804229  0.793476  0.597690  1
  La  La10  1  0.195786  0.793476  0.989245  1
  La  La11  1  0.804214  0.206524  0.010755  1
  Co  Co12  1  0.500000  0.634307  0.134307  1
  Co  Co13  1  0.500000  0.365693  0.865693  1
  Co  Co14  1  0.346753  0.000000  0.346753  1
  Co  Co15  1  0.653247  0.000000  0.653247  1
  Cu  Cu16  1  0.000000  0.000000  0.000000  1
  Pb  Pb17  1  0.000000  0.500000  0.500000  1
