# generated using pymatgen
data_HoTm(FeOs)2
_symmetry_space_group_name_H-M   'P 1'
_cell_length_a   5.19558262
_cell_length_b   5.25398767
_cell_length_c   5.25398617
_cell_angle_alpha   59.81308399
_cell_angle_beta   60.36703891
_cell_angle_gamma   60.36704091
_symmetry_Int_Tables_number   1
_chemical_formula_structural   HoTm(FeOs)2
_chemical_formula_sum   'Ho1 Tm1 Fe2 Os2'
_cell_volume   101.82643394
_cell_formula_units_Z   1
loop_
 _symmetry_equiv_pos_site_id
 _symmetry_equiv_pos_as_xyz
  1  'x, y, z'
loop_
 _atom_site_type_symbol
 _atom_site_label
 _atom_site_symmetry_multiplicity
 _atom_site_fract_x
 _atom_site_fract_y
 _atom_site_fract_z
 _atom_site_occupancy
  Ho  Ho0  1  0.252255  0.247745  0.247745  1
  Tm  Tm1  1  0.997769  0.002231  0.002231  1
  Fe  Fe2  1  0.125232  0.624980  0.624980  1
  Fe  Fe3  1  0.624806  0.624980  0.624980  1
  Os  Os4  1  0.624968  0.625138  0.124923  1
  Os  Os5  1  0.624968  0.124923  0.625138  1
