# generated using pymatgen
data_Ho9ErSi16Ag
_symmetry_space_group_name_H-M   'P 1'
_cell_length_a   11.07613882
_cell_length_b   11.07279524
_cell_length_c   11.07542111
_cell_angle_alpha   144.73744972
_cell_angle_beta   136.38050167
_cell_angle_gamma   57.28723607
_symmetry_Int_Tables_number   1
_chemical_formula_structural   Ho9ErSi16Ag
_chemical_formula_sum   'Ho9 Er1 Si16 Ag1'
_cell_volume   536.59388112
_cell_formula_units_Z   1
loop_
 _symmetry_equiv_pos_site_id
 _symmetry_equiv_pos_as_xyz
  1  'x, y, z'
loop_
 _atom_site_type_symbol
 _atom_site_label
 _atom_site_symmetry_multiplicity
 _atom_site_fract_x
 _atom_site_fract_y
 _atom_site_fract_z
 _atom_site_occupancy
  Ho  Ho0  1  0.352663  0.370034  0.521081  1
  Ho  Ho1  1  0.154476  0.165516  0.521585  1
  Ho  Ho2  1  0.451094  0.963054  0.014425  1
  Ho  Ho3  1  0.643929  0.165518  0.011025  1
  Ho  Ho4  1  0.948640  0.963065  0.511956  1
  Ho  Ho5  1  0.848972  0.370046  0.017382  1
  Ho  Ho6  1  0.544179  0.565832  0.512457  1
  Ho  Ho7  1  0.251868  0.765289  0.013363  1
  Ho  Ho8  1  0.751929  0.765295  0.513408  1
  Er  Er9  1  0.053376  0.565823  0.021657  1
  Si  Si10  1  0.118134  0.078915  0.960783  1
  Si  Si11  1  0.797254  0.170154  0.372962  1
  Si  Si12  1  0.300344  0.899281  0.598800  1
  Si  Si13  1  0.399832  0.501621  0.101698  1
  Si  Si14  1  0.880950  0.854663  0.973878  1
  Si  Si15  1  0.104582  0.710748  0.606153  1
  Si  Si16  1  0.199745  0.582543  0.382645  1
  Si  Si17  1  0.699427  0.295458  0.596129  1
  Si  Si18  1  0.002082  0.432229  0.430174  1
  Si  Si19  1  0.714472  0.668019  0.953716  1
  Si  Si20  1  0.600920  0.702502  0.101618  1
  Si  Si21  1  0.999524  0.081593  0.082107  1
  Si  Si22  1  0.501108  0.391617  0.890504  1
  Si  Si23  1  0.284925  0.241001  0.955892  1
  Si  Si24  1  0.583928  0.040869  0.456967  1
  Si  Si25  1  0.415850  0.872720  0.456841  1
  Ag  Ag26  1  0.895795  0.505513  0.609710  1
