# generated using pymatgen
data_Ta10(GaSi)3
_symmetry_space_group_name_H-M   'P 1'
_cell_length_a   6.65087000
_cell_length_b   7.60075937
_cell_length_c   6.65087000
_cell_angle_alpha   115.94644793
_cell_angle_beta   89.99772570
_cell_angle_gamma   115.94644793
_symmetry_Int_Tables_number   1
_chemical_formula_structural   Ta10(GaSi)3
_chemical_formula_sum   'Ta10 Ga3 Si3'
_cell_volume   264.12456181
_cell_formula_units_Z   1
loop_
 _symmetry_equiv_pos_site_id
 _symmetry_equiv_pos_as_xyz
  1  'x, y, z'
loop_
 _atom_site_type_symbol
 _atom_site_label
 _atom_site_symmetry_multiplicity
 _atom_site_fract_x
 _atom_site_fract_y
 _atom_site_fract_z
 _atom_site_occupancy
  Ta  Ta0  1  0.996685  0.000000  0.001610  1
  Ta  Ta1  1  0.501610  0.000000  0.496685  1
  Ta  Ta2  1  0.517177  0.699652  0.687289  1
  Ta  Ta3  1  0.187289  0.699652  0.017177  1
  Ta  Ta4  1  0.688284  0.703666  0.188284  1
  Ta  Ta5  1  0.007885  0.697138  0.507885  1
  Ta  Ta6  1  0.487638  0.300348  0.317526  1
  Ta  Ta7  1  0.817526  0.300348  0.987638  1
  Ta  Ta8  1  0.310748  0.302862  0.810748  1
  Ta  Ta9  1  0.984619  0.296334  0.484619  1
  Ga  Ga10  1  0.751894  0.500000  0.751894  1
  Ga  Ga11  1  0.251894  0.500000  0.251894  1
  Ga  Ga12  1  0.366453  0.000000  0.866453  1
  Si  Si13  1  0.869363  0.000000  0.631800  1
  Si  Si14  1  0.131800  0.000000  0.369363  1
  Si  Si15  1  0.629134  0.000000  0.129134  1
