# generated using pymatgen
data_YbZn(S2O7)2
_symmetry_space_group_name_H-M   'P 1'
_cell_length_a   5.09604166
_cell_length_b   7.41674356
_cell_length_c   8.60955194
_cell_angle_alpha   92.61887632
_cell_angle_beta   93.02572324
_cell_angle_gamma   106.51133093
_symmetry_Int_Tables_number   1
_chemical_formula_structural   YbZn(S2O7)2
_chemical_formula_sum   'Yb1 Zn1 S4 O14'
_cell_volume   310.92672623
_cell_formula_units_Z   1
loop_
 _symmetry_equiv_pos_site_id
 _symmetry_equiv_pos_as_xyz
  1  'x, y, z'
loop_
 _atom_site_type_symbol
 _atom_site_label
 _atom_site_symmetry_multiplicity
 _atom_site_fract_x
 _atom_site_fract_y
 _atom_site_fract_z
 _atom_site_occupancy
  Yb  Yb0  1  0.500000  0.000000  0.500000  1
  Zn  Zn1  1  0.000000  0.500000  0.000000  1
  S  S2  1  0.505169  0.640218  0.777049  1
  S  S3  1  0.494831  0.359782  0.222951  1
  S  S4  1  0.135182  0.262752  0.700101  1
  S  S5  1  0.864818  0.737248  0.299899  1
  O  O6  1  0.726476  0.561914  0.822451  1
  O  O7  1  0.273524  0.438086  0.177549  1
  O  O8  1  0.340556  0.674451  0.903228  1
  O  O9  1  0.659444  0.325549  0.096772  1
  O  O10  1  0.584553  0.796524  0.677635  1
  O  O11  1  0.415447  0.203476  0.322365  1
  O  O12  1  0.291295  0.479095  0.653380  1
  O  O13  1  0.708705  0.520905  0.346620  1
  O  O14  1  0.918335  0.206924  0.575992  1
  O  O15  1  0.081665  0.793076  0.424008  1
  O  O16  1  0.335608  0.157577  0.693141  1
  O  O17  1  0.664392  0.842423  0.306859  1
  O  O18  1  0.041954  0.277955  0.856624  1
  O  O19  1  0.958046  0.722045  0.143376  1
