# generated using pymatgen
data_Tb7Dy(CoB14)2
_symmetry_space_group_name_H-M   'P 1'
_cell_length_a   7.23624408
_cell_length_b   7.23657508
_cell_length_c   7.53113700
_cell_angle_alpha   90.00000000
_cell_angle_beta   90.00000000
_cell_angle_gamma   90.01673804
_symmetry_Int_Tables_number   1
_chemical_formula_structural   Tb7Dy(CoB14)2
_chemical_formula_sum   'Tb7 Dy1 Co2 B28'
_cell_volume   394.37266815
_cell_formula_units_Z   1
loop_
 _symmetry_equiv_pos_site_id
 _symmetry_equiv_pos_as_xyz
  1  'x, y, z'
loop_
 _atom_site_type_symbol
 _atom_site_label
 _atom_site_symmetry_multiplicity
 _atom_site_fract_x
 _atom_site_fract_y
 _atom_site_fract_z
 _atom_site_occupancy
  Tb  Tb0  1  0.192925  0.329875  0.000000  1
  Tb  Tb1  1  0.670123  0.192921  0.000000  1
  Tb  Tb2  1  0.329871  0.807075  0.000000  1
  Tb  Tb3  1  0.692947  0.170139  0.500000  1
  Tb  Tb4  1  0.307072  0.829886  0.500000  1
  Tb  Tb5  1  0.807085  0.670129  0.000000  1
  Tb  Tb6  1  0.829882  0.692905  0.500000  1
  Dy  Dy7  1  0.170130  0.307110  0.500000  1
  Co  Co8  1  0.000009  0.000011  0.000000  1
  Co  Co9  1  0.499862  0.499918  0.500000  1
  B  B10  1  0.173913  0.039049  0.231065  1
  B  B11  1  0.961062  0.173940  0.231095  1
  B  B12  1  0.039000  0.826118  0.231039  1
  B  B13  1  0.673879  0.461005  0.268998  1
  B  B14  1  0.326039  0.538919  0.269075  1
  B  B15  1  0.826120  0.961018  0.231035  1
  B  B16  1  0.538991  0.673881  0.268990  1
  B  B17  1  0.460921  0.326082  0.269054  1
  B  B18  1  0.826120  0.961018  0.768965  1
  B  B19  1  0.039000  0.826118  0.768961  1
  B  B20  1  0.961062  0.173940  0.768905  1
  B  B21  1  0.326039  0.538919  0.730925  1
  B  B22  1  0.673879  0.461005  0.731002  1
  B  B23  1  0.173913  0.039049  0.768935  1
  B  B24  1  0.460921  0.326082  0.730946  1
  B  B25  1  0.538991  0.673881  0.731010  1
  B  B26  1  0.088437  0.588362  0.250040  1
  B  B27  1  0.411570  0.088430  0.250014  1
  B  B28  1  0.588414  0.911585  0.250011  1
  B  B29  1  0.911666  0.411551  0.250078  1
  B  B30  1  0.911666  0.411551  0.749922  1
  B  B31  1  0.588414  0.911585  0.749989  1
  B  B32  1  0.411570  0.088430  0.749986  1
  B  B33  1  0.088437  0.588362  0.749960  1
  B  B34  1  0.000046  0.000088  0.388128  1
  B  B35  1  0.499991  0.499989  0.111949  1
  B  B36  1  0.000046  0.000088  0.611872  1
  B  B37  1  0.499991  0.499989  0.888051  1
