# generated using pymatgen
data_Tb4Ga18RePd5
_symmetry_space_group_name_H-M   'P 1'
_cell_length_a   7.67664463
_cell_length_b   7.67664388
_cell_length_c   9.59880009
_cell_angle_alpha   90.10183526
_cell_angle_beta   90.10184096
_cell_angle_gamma   119.94750484
_symmetry_Int_Tables_number   1
_chemical_formula_structural   Tb4Ga18RePd5
_chemical_formula_sum   'Tb4 Ga18 Re1 Pd5'
_cell_volume   490.13662687
_cell_formula_units_Z   1
loop_
 _symmetry_equiv_pos_site_id
 _symmetry_equiv_pos_as_xyz
  1  'x, y, z'
loop_
 _atom_site_type_symbol
 _atom_site_label
 _atom_site_symmetry_multiplicity
 _atom_site_fract_x
 _atom_site_fract_y
 _atom_site_fract_z
 _atom_site_occupancy
  Tb  Tb0  1  0.994584  0.664950  0.249354  1
  Tb  Tb1  1  0.001426  0.331669  0.750719  1
  Tb  Tb2  1  0.668331  0.998574  0.249281  1
  Tb  Tb3  1  0.335050  0.005416  0.750646  1
  Ga  Ga4  1  0.125407  0.127984  0.249736  1
  Ga  Ga5  1  0.872016  0.874593  0.750264  1
  Ga  Ga6  1  0.998691  0.333246  0.077131  1
  Ga  Ga7  1  0.998544  0.663245  0.921240  1
  Ga  Ga8  1  0.001576  0.667744  0.581891  1
  Ga  Ga9  1  0.332256  0.998424  0.418109  1
  Ga  Ga10  1  0.000352  0.333947  0.420860  1
  Ga  Ga11  1  0.666053  0.999648  0.579140  1
  Ga  Ga12  1  0.666754  0.001309  0.922869  1
  Ga  Ga13  1  0.336755  0.001456  0.078760  1
  Ga  Ga14  1  0.332957  0.334270  0.571341  1
  Ga  Ga15  1  0.665730  0.667043  0.428659  1
  Ga  Ga16  1  0.668094  0.663168  0.065407  1
  Ga  Ga17  1  0.336832  0.331906  0.934593  1
  Ga  Ga18  1  0.334362  0.543324  0.249296  1
  Ga  Ga19  1  0.663209  0.458382  0.752914  1
  Ga  Ga20  1  0.541618  0.336791  0.247086  1
  Ga  Ga21  1  0.456676  0.665638  0.750704  1
  Re  Re22  1  0.673222  0.326778  0.000000  1
  Pd  Pd23  1  0.329603  0.670397  0.000000  1
  Pd  Pd24  1  0.329639  0.670361  0.500000  1
  Pd  Pd25  1  0.669500  0.330500  0.500000  1
  Pd  Pd26  1  0.000226  0.999774  0.000000  1
  Pd  Pd27  1  0.000537  0.999463  0.500000  1
