# generated using pymatgen
data_CsThTiTe5
_symmetry_space_group_name_H-M   'P 1'
_cell_length_a   6.34235700
_cell_length_b   8.58789300
_cell_length_c   10.68579000
_cell_angle_alpha   90.00000000
_cell_angle_beta   90.00000000
_cell_angle_gamma   90.00000000
_symmetry_Int_Tables_number   1
_chemical_formula_structural   CsThTiTe5
_chemical_formula_sum   'Cs2 Th2 Ti2 Te10'
_cell_volume   582.02808820
_cell_formula_units_Z   2
loop_
 _symmetry_equiv_pos_site_id
 _symmetry_equiv_pos_as_xyz
  1  'x, y, z'
loop_
 _atom_site_type_symbol
 _atom_site_label
 _atom_site_symmetry_multiplicity
 _atom_site_fract_x
 _atom_site_fract_y
 _atom_site_fract_z
 _atom_site_occupancy
  Cs  Cs0  1  0.249999  0.500000  0.781771  1
  Cs  Cs1  1  0.750000  0.500000  0.218230  1
  Th  Th2  1  0.249999  0.000000  0.338156  1
  Th  Th3  1  0.750000  0.000000  0.661844  1
  Ti  Ti4  1  0.000000  0.000000  0.000000  1
  Ti  Ti5  1  0.500000  0.000000  0.000000  1
  Te  Te6  1  0.249999  0.235749  0.106700  1
  Te  Te7  1  0.249999  0.764251  0.106700  1
  Te  Te8  1  0.750000  0.764251  0.893299  1
  Te  Te9  1  0.750000  0.235749  0.893299  1
  Te  Te10  1  0.000000  0.249269  0.499999  1
  Te  Te11  1  0.500000  0.750732  0.499999  1
  Te  Te12  1  0.000000  0.750732  0.499999  1
  Te  Te13  1  0.500000  0.249269  0.499999  1
  Te  Te14  1  0.249999  0.000000  0.783360  1
  Te  Te15  1  0.750000  0.000000  0.216639  1
