# generated using pymatgen
data_TmBiCl8
_symmetry_space_group_name_H-M   'P 1'
_cell_length_a   7.01940251
_cell_length_b   7.01940190
_cell_length_c   9.49011139
_cell_angle_alpha   92.13854808
_cell_angle_beta   92.13854698
_cell_angle_gamma   119.84094464
_symmetry_Int_Tables_number   1
_chemical_formula_structural   TmBiCl8
_chemical_formula_sum   'Tm1 Bi1 Cl8'
_cell_volume   404.47248073
_cell_formula_units_Z   1
loop_
 _symmetry_equiv_pos_site_id
 _symmetry_equiv_pos_as_xyz
  1  'x, y, z'
loop_
 _atom_site_type_symbol
 _atom_site_label
 _atom_site_symmetry_multiplicity
 _atom_site_fract_x
 _atom_site_fract_y
 _atom_site_fract_z
 _atom_site_occupancy
  Tm  Tm0  1  0.167749  0.832252  0.000000  1
  Bi  Bi1  1  0.831851  0.168150  0.000000  1
  Cl  Cl2  1  0.895475  0.882440  0.159202  1
  Cl  Cl3  1  0.502713  0.138616  0.158770  1
  Cl  Cl4  1  0.151140  0.527851  0.158777  1
  Cl  Cl5  1  0.612208  0.612229  0.441484  1
  Cl  Cl6  1  0.387770  0.387791  0.558516  1
  Cl  Cl7  1  0.861383  0.497286  0.841230  1
  Cl  Cl8  1  0.472148  0.848859  0.841223  1
  Cl  Cl9  1  0.117560  0.104525  0.840798  1
