# generated using pymatgen
data_SmTm3(Si4Tc3)2
_symmetry_space_group_name_H-M   'P 1'
_cell_length_a   6.79327993
_cell_length_b   6.76411301
_cell_length_c   6.77057103
_cell_angle_alpha   69.91192489
_cell_angle_beta   89.99212957
_cell_angle_gamma   88.84912033
_symmetry_Int_Tables_number   1
_chemical_formula_structural   SmTm3(Si4Tc3)2
_chemical_formula_sum   'Sm1 Tm3 Si8 Tc6'
_cell_volume   292.11848260
_cell_formula_units_Z   1
loop_
 _symmetry_equiv_pos_site_id
 _symmetry_equiv_pos_as_xyz
  1  'x, y, z'
loop_
 _atom_site_type_symbol
 _atom_site_label
 _atom_site_symmetry_multiplicity
 _atom_site_fract_x
 _atom_site_fract_y
 _atom_site_fract_z
 _atom_site_occupancy
  Sm  Sm0  1  0.335603  0.556559  0.810891  1
  Tm  Tm1  1  0.831637  0.940094  0.190729  1
  Tm  Tm2  1  0.671520  0.445672  0.191189  1
  Tm  Tm3  1  0.168859  0.061171  0.805906  1
  Si  Si4  1  0.548480  0.879889  0.902794  1
  Si  Si5  1  0.058351  0.615438  0.111437  1
  Si  Si6  1  0.453140  0.127314  0.101190  1
  Si  Si7  1  0.945849  0.377229  0.897209  1
  Si  Si8  1  0.135689  0.866773  0.493449  1
  Si  Si9  1  0.644013  0.632058  0.511672  1
  Si  Si10  1  0.857260  0.129656  0.508710  1
  Si  Si11  1  0.352258  0.371160  0.469734  1
  Tc  Tc12  1  0.501592  0.007498  0.497873  1
  Tc  Tc13  1  0.999349  0.499291  0.498620  1
  Tc  Tc14  1  0.847259  0.759231  0.766700  1
  Tc  Tc15  1  0.351209  0.755079  0.245425  1
  Tc  Tc16  1  0.141169  0.224411  0.235585  1
  Tc  Tc17  1  0.656762  0.251477  0.760887  1
