# generated using pymatgen
data_YTh3(Ga3Rh)6
_symmetry_space_group_name_H-M   'P 1'
_cell_length_a   7.68431702
_cell_length_b   7.68995598
_cell_length_c   9.54384500
_cell_angle_alpha   90.00000000
_cell_angle_beta   90.00000000
_cell_angle_gamma   119.83705404
_symmetry_Int_Tables_number   1
_chemical_formula_structural   YTh3(Ga3Rh)6
_chemical_formula_sum   'Y1 Th3 Ga18 Rh6'
_cell_volume   489.20837992
_cell_formula_units_Z   1
loop_
 _symmetry_equiv_pos_site_id
 _symmetry_equiv_pos_as_xyz
  1  'x, y, z'
loop_
 _atom_site_type_symbol
 _atom_site_label
 _atom_site_symmetry_multiplicity
 _atom_site_fract_x
 _atom_site_fract_y
 _atom_site_fract_z
 _atom_site_occupancy
  Y  Y0  1  0.331850  0.002921  0.750000  1
  Th  Th1  1  0.997445  0.667899  0.250000  1
  Th  Th2  1  0.002100  0.332307  0.750000  1
  Th  Th3  1  0.667525  0.997190  0.250000  1
  Ga  Ga4  1  0.336048  0.331560  0.563814  1
  Ga  Ga5  1  0.663711  0.663786  0.440251  1
  Ga  Ga6  1  0.663711  0.663786  0.059749  1
  Ga  Ga7  1  0.336048  0.331560  0.936186  1
  Ga  Ga8  1  0.339273  0.540955  0.250000  1
  Ga  Ga9  1  0.658312  0.454075  0.750000  1
  Ga  Ga10  1  0.540318  0.338398  0.250000  1
  Ga  Ga11  1  0.456998  0.662153  0.750000  1
  Ga  Ga12  1  0.004509  0.334023  0.077535  1
  Ga  Ga13  1  0.001153  0.671193  0.919516  1
  Ga  Ga14  1  0.001153  0.671193  0.580484  1
  Ga  Ga15  1  0.333960  0.003766  0.426600  1
  Ga  Ga16  1  0.004509  0.334023  0.422465  1
  Ga  Ga17  1  0.660824  0.995798  0.580628  1
  Ga  Ga18  1  0.660824  0.995798  0.919372  1
  Ga  Ga19  1  0.333960  0.003766  0.073400  1
  Ga  Ga20  1  0.130692  0.129754  0.250000  1
  Ga  Ga21  1  0.874909  0.873179  0.750000  1
  Rh  Rh22  1  0.997928  0.999970  0.000977  1
  Rh  Rh23  1  0.997928  0.999970  0.499023  1
  Rh  Rh24  1  0.674171  0.329957  0.000925  1
  Rh  Rh25  1  0.327984  0.670533  0.000919  1
  Rh  Rh26  1  0.327984  0.670533  0.499081  1
  Rh  Rh27  1  0.674171  0.329957  0.499075  1
