# generated using pymatgen
data_Sr2Fe2IrN3
_symmetry_space_group_name_H-M   'P 1'
_cell_length_a   6.54505086
_cell_length_b   6.54505224
_cell_length_c   6.45509595
_cell_angle_alpha   89.17098706
_cell_angle_beta   89.17099134
_cell_angle_gamma   116.77535700
_symmetry_Int_Tables_number   1
_chemical_formula_structural   Sr2Fe2IrN3
_chemical_formula_sum   'Sr4 Fe4 Ir2 N6'
_cell_volume   246.77867174
_cell_formula_units_Z   2
loop_
 _symmetry_equiv_pos_site_id
 _symmetry_equiv_pos_as_xyz
  1  'x, y, z'
loop_
 _atom_site_type_symbol
 _atom_site_label
 _atom_site_symmetry_multiplicity
 _atom_site_fract_x
 _atom_site_fract_y
 _atom_site_fract_z
 _atom_site_occupancy
  Sr  Sr0  1  0.833902  0.672934  0.893877  1
  Sr  Sr1  1  0.327066  0.166098  0.606123  1
  Sr  Sr2  1  0.166098  0.327066  0.106123  1
  Sr  Sr3  1  0.672934  0.833902  0.393877  1
  Fe  Fe4  1  0.560123  0.164921  0.102744  1
  Fe  Fe5  1  0.439877  0.835079  0.897256  1
  Fe  Fe6  1  0.835079  0.439877  0.397256  1
  Fe  Fe7  1  0.164921  0.560123  0.602744  1
  Ir  Ir8  1  0.811169  0.188831  0.750000  1
  Ir  Ir9  1  0.188831  0.811169  0.250000  1
  N  N10  1  0.406502  0.593498  0.750000  1
  N  N11  1  0.593498  0.406502  0.250000  1
  N  N12  1  0.007526  0.725071  0.512739  1
  N  N13  1  0.725071  0.007526  0.012739  1
  N  N14  1  0.992474  0.274929  0.487261  1
  N  N15  1  0.274929  0.992474  0.987261  1
