# generated using pymatgen
data_Y6Ga2Si4Ir11Rh
_symmetry_space_group_name_H-M   'P 1'
_cell_length_a   5.57600600
_cell_length_b   5.57287115
_cell_length_c   15.48993737
_cell_angle_alpha   90.02164109
_cell_angle_beta   90.00000000
_cell_angle_gamma   120.01862164
_symmetry_Int_Tables_number   1
_chemical_formula_structural   Y6Ga2Si4Ir11Rh
_chemical_formula_sum   'Y6 Ga2 Si4 Ir11 Rh1'
_cell_volume   416.77433086
_cell_formula_units_Z   1
loop_
 _symmetry_equiv_pos_site_id
 _symmetry_equiv_pos_as_xyz
  1  'x, y, z'
loop_
 _atom_site_type_symbol
 _atom_site_label
 _atom_site_symmetry_multiplicity
 _atom_site_fract_x
 _atom_site_fract_y
 _atom_site_fract_z
 _atom_site_occupancy
  Y  Y0  1  0.333394  0.666788  0.539792  1
  Y  Y1  1  0.666669  0.333336  0.460267  1
  Y  Y2  1  0.666641  0.333280  0.039370  1
  Y  Y3  1  0.334179  0.668358  0.959975  1
  Y  Y4  1  0.333375  0.666752  0.750083  1
  Y  Y5  1  0.666762  0.333523  0.250388  1
  Ga  Ga6  1  0.999539  0.999079  0.000361  1
  Ga  Ga7  1  0.999985  0.999970  0.499993  1
  Si  Si8  1  0.999861  0.999722  0.249790  1
  Si  Si9  1  0.000034  0.000069  0.750071  1
  Si  Si10  1  0.333268  0.666538  0.249562  1
  Si  Si11  1  0.666452  0.332902  0.750037  1
  Ir  Ir12  1  0.831852  0.663703  0.866760  1
  Ir  Ir13  1  0.663904  0.832202  0.133291  1
  Ir  Ir14  1  0.831928  0.663855  0.633168  1
  Ir  Ir15  1  0.335860  0.167966  0.867075  1
  Ir  Ir16  1  0.168014  0.336028  0.366151  1
  Ir  Ir17  1  0.168297  0.832202  0.133291  1
  Ir  Ir18  1  0.336030  0.168070  0.633159  1
  Ir  Ir19  1  0.832107  0.167966  0.867075  1
  Ir  Ir20  1  0.663746  0.832007  0.366923  1
  Ir  Ir21  1  0.832041  0.168070  0.633159  1
  Ir  Ir22  1  0.168260  0.832007  0.366923  1
  Rh  Rh23  1  0.167802  0.335605  0.133338  1
