# generated using pymatgen
data_TbZr(Ga3Ni)6
_symmetry_space_group_name_H-M   'P 1'
_cell_length_a   10.09971993
_cell_length_b   10.09972000
_cell_length_c   10.09971900
_cell_angle_alpha   42.24821824
_cell_angle_beta   42.24822623
_cell_angle_gamma   42.24822755
_symmetry_Int_Tables_number   1
_chemical_formula_structural   TbZr(Ga3Ni)6
_chemical_formula_sum   'Tb1 Zr1 Ga18 Ni6'
_cell_volume   421.47288505
_cell_formula_units_Z   1
loop_
 _symmetry_equiv_pos_site_id
 _symmetry_equiv_pos_as_xyz
  1  'x, y, z'
loop_
 _atom_site_type_symbol
 _atom_site_label
 _atom_site_symmetry_multiplicity
 _atom_site_fract_x
 _atom_site_fract_y
 _atom_site_fract_z
 _atom_site_occupancy
  Tb  Tb0  1  0.832845  0.832845  0.832845  1
  Zr  Zr1  1  0.167664  0.167664  0.167664  1
  Ga  Ga2  1  0.051671  0.051671  0.051671  1
  Ga  Ga3  1  0.716238  0.491508  0.292194  1
  Ga  Ga4  1  0.665748  0.333270  0.001021  1
  Ga  Ga5  1  0.104499  0.432557  0.767861  1
  Ga  Ga6  1  0.432557  0.767861  0.104499  1
  Ga  Ga7  1  0.386387  0.386387  0.386387  1
  Ga  Ga8  1  0.333270  0.001021  0.665748  1
  Ga  Ga9  1  0.613995  0.613995  0.613995  1
  Ga  Ga10  1  0.234579  0.563315  0.896957  1
  Ga  Ga11  1  0.563315  0.896957  0.234579  1
  Ga  Ga12  1  0.491508  0.292194  0.716238  1
  Ga  Ga13  1  0.767861  0.104499  0.432557  1
  Ga  Ga14  1  0.948636  0.948636  0.948636  1
  Ga  Ga15  1  0.292194  0.716238  0.491508  1
  Ga  Ga16  1  0.001021  0.665748  0.333270  1
  Ga  Ga17  1  0.716957  0.716957  0.716957  1
  Ga  Ga18  1  0.282121  0.282121  0.282121  1
  Ga  Ga19  1  0.896957  0.234579  0.563315  1
  Ni  Ni20  1  0.241283  0.920975  0.582655  1
  Ni  Ni21  1  0.920975  0.582655  0.241283  1
  Ni  Ni22  1  0.757628  0.418660  0.078777  1
  Ni  Ni23  1  0.078777  0.757628  0.418660  1
  Ni  Ni24  1  0.418660  0.078777  0.757628  1
  Ni  Ni25  1  0.582655  0.241283  0.920975  1
