# generated using pymatgen
data_LaErGa2(BRh3)2
_symmetry_space_group_name_H-M   'P 1'
_cell_length_a   5.55592400
_cell_length_b   5.55592372
_cell_length_c   6.99626400
_cell_angle_alpha   90.00000000
_cell_angle_beta   90.00000000
_cell_angle_gamma   120.00000168
_symmetry_Int_Tables_number   1
_chemical_formula_structural   LaErGa2(BRh3)2
_chemical_formula_sum   'La1 Er1 Ga2 B2 Rh6'
_cell_volume   187.02918612
_cell_formula_units_Z   1
loop_
 _symmetry_equiv_pos_site_id
 _symmetry_equiv_pos_as_xyz
  1  'x, y, z'
loop_
 _atom_site_type_symbol
 _atom_site_label
 _atom_site_symmetry_multiplicity
 _atom_site_fract_x
 _atom_site_fract_y
 _atom_site_fract_z
 _atom_site_occupancy
  La  La0  1  0.000000  0.000000  0.000000  1
  Er  Er1  1  0.000000  0.000000  0.500000  1
  Ga  Ga2  1  0.666667  0.333333  0.000000  1
  Ga  Ga3  1  0.333333  0.666667  0.000000  1
  B  B4  1  0.666667  0.333333  0.500000  1
  B  B5  1  0.333333  0.666667  0.500000  1
  Rh  Rh6  1  0.500000  0.500000  0.706292  1
  Rh  Rh7  1  0.500000  0.000000  0.706292  1
  Rh  Rh8  1  0.000000  0.500000  0.706292  1
  Rh  Rh9  1  0.500000  0.500000  0.293708  1
  Rh  Rh10  1  0.500000  0.000000  0.293708  1
  Rh  Rh11  1  0.000000  0.500000  0.293708  1
