# generated using pymatgen
data_Ho12In2Si3Ru
_symmetry_space_group_name_H-M   'P 1'
_cell_length_a   8.50211548
_cell_length_b   8.50211546
_cell_length_c   8.50211643
_cell_angle_alpha   113.41154023
_cell_angle_beta   111.61330581
_cell_angle_gamma   103.55194710
_symmetry_Int_Tables_number   1
_chemical_formula_structural   Ho12In2Si3Ru
_chemical_formula_sum   'Ho12 In2 Si3 Ru1'
_cell_volume   469.24329841
_cell_formula_units_Z   1
loop_
 _symmetry_equiv_pos_site_id
 _symmetry_equiv_pos_as_xyz
  1  'x, y, z'
loop_
 _atom_site_type_symbol
 _atom_site_label
 _atom_site_symmetry_multiplicity
 _atom_site_fract_x
 _atom_site_fract_y
 _atom_site_fract_z
 _atom_site_occupancy
  Ho  Ho0  1  0.314147  0.620501  0.306353  1
  Ho  Ho1  1  0.678455  0.381025  0.702571  1
  Ho  Ho2  1  0.314147  0.007794  0.693647  1
  Ho  Ho3  1  0.678455  0.975885  0.297429  1
  Ho  Ho4  1  0.186478  0.290054  0.471492  1
  Ho  Ho5  1  0.818561  0.714985  0.528508  1
  Ho  Ho6  1  0.186478  0.714985  0.896424  1
  Ho  Ho7  1  0.818561  0.290054  0.103576  1
  Ho  Ho8  1  0.447056  0.242058  0.204999  1
  Ho  Ho9  1  0.552787  0.761173  0.791613  1
  Ho  Ho10  1  0.037060  0.242058  0.795001  1
  Ho  Ho11  1  0.969560  0.761173  0.208387  1
  In  In12  1  0.501113  0.501113  0.000000  1
  In  In13  1  0.995603  0.995603  0.000000  1
  Si  Si14  1  0.876102  0.376102  0.500000  1
  Si  Si15  1  0.363753  0.003855  0.359898  1
  Si  Si16  1  0.643957  0.003855  0.640102  1
  Ru  Ru17  1  0.117726  0.617726  0.500000  1
