# generated using pymatgen
data_Pa2Tc9Ni3P7
_symmetry_space_group_name_H-M   'P 1'
_cell_length_a   3.83554500
_cell_length_b   9.48644100
_cell_length_c   9.49729903
_cell_angle_alpha   120.03537889
_cell_angle_beta   90.00000000
_cell_angle_gamma   90.00000000
_symmetry_Int_Tables_number   1
_chemical_formula_structural   Pa2Tc9Ni3P7
_chemical_formula_sum   'Pa2 Tc9 Ni3 P7'
_cell_volume   299.16184246
_cell_formula_units_Z   1
loop_
 _symmetry_equiv_pos_site_id
 _symmetry_equiv_pos_as_xyz
  1  'x, y, z'
loop_
 _atom_site_type_symbol
 _atom_site_label
 _atom_site_symmetry_multiplicity
 _atom_site_fract_x
 _atom_site_fract_y
 _atom_site_fract_z
 _atom_site_occupancy
  Pa  Pa0  1  0.000000  0.666659  0.333442  1
  Pa  Pa1  1  0.500000  0.333503  0.666501  1
  Tc  Tc2  1  0.000000  0.365837  0.936351  1
  Tc  Tc3  1  0.000000  0.063259  0.429124  1
  Tc  Tc4  1  0.000000  0.570171  0.633893  1
  Tc  Tc5  1  0.500000  0.941131  0.568213  1
  Tc  Tc6  1  0.500000  0.432390  0.373366  1
  Tc  Tc7  1  0.500000  0.626900  0.059009  1
  Tc  Tc8  1  0.500000  0.117537  0.911793  1
  Tc  Tc9  1  0.500000  0.088543  0.206286  1
  Tc  Tc10  1  0.500000  0.793588  0.882157  1
  Ni  Ni11  1  0.000000  0.885299  0.733555  1
  Ni  Ni12  1  0.000000  0.266911  0.152000  1
  Ni  Ni13  1  0.000000  0.848101  0.114300  1
  P  P14  1  0.000000  0.108062  0.700952  1
  P  P15  1  0.000000  0.298677  0.406788  1
  P  P16  1  0.000000  0.592949  0.891995  1
  P  P17  1  0.500000  0.705539  0.597966  1
  P  P18  1  0.500000  0.402210  0.107596  1
  P  P19  1  0.500000  0.892280  0.294491  1
  P  P20  1  0.000000  0.000453  0.000225  1
