# generated using pymatgen
data_Y6Al24Co3Os5
_symmetry_space_group_name_H-M   'P 1'
_cell_length_a   8.77910028
_cell_length_b   8.81534861
_cell_length_c   9.50839602
_cell_angle_alpha   90.00000122
_cell_angle_beta   89.71921729
_cell_angle_gamma   120.13667111
_symmetry_Int_Tables_number   1
_chemical_formula_structural   Y6Al24Co3Os5
_chemical_formula_sum   'Y6 Al24 Co3 Os5'
_cell_volume   636.38607346
_cell_formula_units_Z   1
loop_
 _symmetry_equiv_pos_site_id
 _symmetry_equiv_pos_as_xyz
  1  'x, y, z'
loop_
 _atom_site_type_symbol
 _atom_site_label
 _atom_site_symmetry_multiplicity
 _atom_site_fract_x
 _atom_site_fract_y
 _atom_site_fract_z
 _atom_site_occupancy
  Y  Y0  1  0.196409  0.387305  0.250601  1
  Y  Y1  1  0.803591  0.612695  0.749399  1
  Y  Y2  1  0.611180  0.805591  0.247926  1
  Y  Y3  1  0.388820  0.194409  0.752074  1
  Y  Y4  1  0.196409  0.809104  0.250601  1
  Y  Y5  1  0.803591  0.190896  0.749399  1
  Al  Al6  1  0.326589  0.663295  0.015134  1
  Al  Al7  1  0.673411  0.336705  0.984866  1
  Al  Al8  1  0.666548  0.333273  0.514583  1
  Al  Al9  1  0.333452  0.666727  0.485417  1
  Al  Al10  1  0.159150  0.319452  0.576148  1
  Al  Al11  1  0.840850  0.680548  0.423852  1
  Al  Al12  1  0.680516  0.840259  0.574644  1
  Al  Al13  1  0.841524  0.679463  0.074739  1
  Al  Al14  1  0.319484  0.159741  0.425356  1
  Al  Al15  1  0.158476  0.320537  0.925261  1
  Al  Al16  1  0.159150  0.839698  0.576148  1
  Al  Al17  1  0.321368  0.160684  0.075027  1
  Al  Al18  1  0.840850  0.160302  0.423852  1
  Al  Al19  1  0.678632  0.839316  0.924973  1
  Al  Al20  1  0.841524  0.162059  0.074739  1
  Al  Al21  1  0.158476  0.837941  0.925261  1
  Al  Al22  1  0.563555  0.124662  0.249048  1
  Al  Al23  1  0.436445  0.875338  0.750952  1
  Al  Al24  1  0.882257  0.441129  0.244221  1
  Al  Al25  1  0.117743  0.558871  0.755779  1
  Al  Al26  1  0.563555  0.438893  0.249048  1
  Al  Al27  1  0.436445  0.561107  0.750952  1
  Al  Al28  1  0.000828  0.000414  0.250155  1
  Al  Al29  1  0.999172  0.999586  0.749845  1
  Co  Co30  1  0.000000  0.500000  0.000000  1
  Co  Co31  1  0.000000  0.000000  0.000000  1
  Co  Co32  1  0.000000  0.000000  0.500000  1
  Os  Os33  1  0.500000  0.000000  0.000000  1
  Os  Os34  1  0.500000  0.000000  0.500000  1
  Os  Os35  1  0.500000  0.500000  0.000000  1
  Os  Os36  1  0.000000  0.500000  0.500000  1
  Os  Os37  1  0.500000  0.500000  0.500000  1
