# generated using pymatgen
data_Ho3Pa(Pt2Pb)2
_symmetry_space_group_name_H-M   'P 1'
_cell_length_a   7.97887854
_cell_length_b   7.97887887
_cell_length_c   7.12730000
_cell_angle_alpha   90.00000000
_cell_angle_beta   90.00000000
_cell_angle_gamma   91.36756849
_symmetry_Int_Tables_number   1
_chemical_formula_structural   Ho3Pa(Pt2Pb)2
_chemical_formula_sum   'Ho6 Pa2 Pt8 Pb4'
_cell_volume   453.61253044
_cell_formula_units_Z   2
loop_
 _symmetry_equiv_pos_site_id
 _symmetry_equiv_pos_as_xyz
  1  'x, y, z'
loop_
 _atom_site_type_symbol
 _atom_site_label
 _atom_site_symmetry_multiplicity
 _atom_site_fract_x
 _atom_site_fract_y
 _atom_site_fract_z
 _atom_site_occupancy
  Ho  Ho0  1  0.661000  0.661000  0.000000  1
  Ho  Ho1  1  0.839562  0.160438  0.500000  1
  Ho  Ho2  1  0.339000  0.339000  0.000000  1
  Ho  Ho3  1  0.160438  0.839562  0.500000  1
  Ho  Ho4  1  0.829750  0.170250  0.000000  1
  Ho  Ho5  1  0.170250  0.829750  0.000000  1
  Pa  Pa6  1  0.326435  0.326435  0.500000  1
  Pa  Pa7  1  0.673565  0.673565  0.500000  1
  Pt  Pt8  1  0.868466  0.868466  0.754569  1
  Pt  Pt9  1  0.131534  0.131534  0.754569  1
  Pt  Pt10  1  0.625953  0.374047  0.730960  1
  Pt  Pt11  1  0.625953  0.374047  0.269040  1
  Pt  Pt12  1  0.374047  0.625953  0.269040  1
  Pt  Pt13  1  0.131534  0.131534  0.245431  1
  Pt  Pt14  1  0.868466  0.868466  0.245431  1
  Pt  Pt15  1  0.374047  0.625953  0.730960  1
  Pb  Pb16  1  0.500000  0.000000  0.750151  1
  Pb  Pb17  1  0.500000  0.000000  0.249849  1
  Pb  Pb18  1  0.000000  0.500000  0.750151  1
  Pb  Pb19  1  0.000000  0.500000  0.249849  1
