# generated using pymatgen
data_Lu3AlZn2C
_symmetry_space_group_name_H-M   'P 1'
_cell_length_a   8.98478297
_cell_length_b   8.98478345
_cell_length_c   8.98478200
_cell_angle_alpha   59.99999797
_cell_angle_beta   59.99999620
_cell_angle_gamma   60.00000136
_symmetry_Int_Tables_number   1
_chemical_formula_structural   Lu3AlZn2C
_chemical_formula_sum   'Lu12 Al4 Zn8 C4'
_cell_volume   512.87052063
_cell_formula_units_Z   4
loop_
 _symmetry_equiv_pos_site_id
 _symmetry_equiv_pos_as_xyz
  1  'x, y, z'
loop_
 _atom_site_type_symbol
 _atom_site_label
 _atom_site_symmetry_multiplicity
 _atom_site_fract_x
 _atom_site_fract_y
 _atom_site_fract_z
 _atom_site_occupancy
  Lu  Lu0  1  0.805770  0.194230  0.805770  1
  Lu  Lu1  1  0.055770  0.444230  0.444230  1
  Lu  Lu2  1  0.444230  0.055770  0.055770  1
  Lu  Lu3  1  0.055770  0.444230  0.055770  1
  Lu  Lu4  1  0.444230  0.444230  0.055770  1
  Lu  Lu5  1  0.055770  0.055770  0.444230  1
  Lu  Lu6  1  0.805770  0.805770  0.194230  1
  Lu  Lu7  1  0.194230  0.805770  0.805770  1
  Lu  Lu8  1  0.805770  0.194230  0.194230  1
  Lu  Lu9  1  0.194230  0.194230  0.805770  1
  Lu  Lu10  1  0.444230  0.055770  0.444230  1
  Lu  Lu11  1  0.194230  0.805770  0.194230  1
  Al  Al12  1  0.625000  0.625000  0.625000  1
  Al  Al13  1  0.125000  0.625000  0.625000  1
  Al  Al14  1  0.625000  0.125000  0.625000  1
  Al  Al15  1  0.625000  0.625000  0.125000  1
  Zn  Zn16  1  0.420613  0.420613  0.420613  1
  Zn  Zn17  1  0.511841  0.829387  0.829387  1
  Zn  Zn18  1  0.829387  0.511841  0.829387  1
  Zn  Zn19  1  0.829387  0.829387  0.511841  1
  Zn  Zn20  1  0.420613  0.738159  0.420613  1
  Zn  Zn21  1  0.420613  0.420613  0.738159  1
  Zn  Zn22  1  0.738159  0.420613  0.420613  1
  Zn  Zn23  1  0.829387  0.829387  0.829387  1
  C  C24  1  0.125000  0.125000  0.125000  1
  C  C25  1  0.625000  0.125000  0.125000  1
  C  C26  1  0.125000  0.625000  0.125000  1
  C  C27  1  0.125000  0.125000  0.625000  1
