# generated using pymatgen
data_Y8AgGePd23
_symmetry_space_group_name_H-M   'P 1'
_cell_length_a   8.35449500
_cell_length_b   8.37987000
_cell_length_c   8.37987000
_cell_angle_alpha   90.00000000
_cell_angle_beta   90.00000000
_cell_angle_gamma   90.00000000
_symmetry_Int_Tables_number   1
_chemical_formula_structural   Y8AgGePd23
_chemical_formula_sum   'Y8 Ag1 Ge1 Pd23'
_cell_volume   586.67119605
_cell_formula_units_Z   1
loop_
 _symmetry_equiv_pos_site_id
 _symmetry_equiv_pos_as_xyz
  1  'x, y, z'
loop_
 _atom_site_type_symbol
 _atom_site_label
 _atom_site_symmetry_multiplicity
 _atom_site_fract_x
 _atom_site_fract_y
 _atom_site_fract_z
 _atom_site_occupancy
  Y  Y0  1  0.252755  0.248249  0.248249  1
  Y  Y1  1  0.747136  0.747023  0.747023  1
  Y  Y2  1  0.747136  0.747023  0.252977  1
  Y  Y3  1  0.747136  0.252977  0.747023  1
  Y  Y4  1  0.252755  0.248249  0.751751  1
  Y  Y5  1  0.252755  0.751751  0.248249  1
  Y  Y6  1  0.252755  0.751751  0.751751  1
  Y  Y7  1  0.747136  0.252977  0.252977  1
  Ag  Ag8  1  0.253602  0.500000  0.500000  1
  Ge  Ge9  1  0.999301  0.000000  0.000000  1
  Pd  Pd10  1  0.259257  0.500000  0.000000  1
  Pd  Pd11  1  0.740721  0.500000  0.000000  1
  Pd  Pd12  1  0.000567  0.258969  0.500000  1
  Pd  Pd13  1  0.500117  0.260784  0.000000  1
  Pd  Pd14  1  0.000567  0.741031  0.500000  1
  Pd  Pd15  1  0.500117  0.739216  0.000000  1
  Pd  Pd16  1  0.500117  0.000000  0.260784  1
  Pd  Pd17  1  0.259257  0.000000  0.500000  1
  Pd  Pd18  1  0.500117  0.000000  0.739216  1
  Pd  Pd19  1  0.740721  0.000000  0.500000  1
  Pd  Pd20  1  0.000567  0.500000  0.258969  1
  Pd  Pd21  1  0.000567  0.500000  0.741031  1
  Pd  Pd22  1  0.747166  0.500000  0.500000  1
  Pd  Pd23  1  0.499438  0.252438  0.500000  1
  Pd  Pd24  1  0.499438  0.747562  0.500000  1
  Pd  Pd25  1  0.499438  0.500000  0.252438  1
  Pd  Pd26  1  0.499438  0.500000  0.747562  1
  Pd  Pd27  1  0.290119  0.000000  0.000000  1
  Pd  Pd28  1  0.710105  0.000000  0.000000  1
  Pd  Pd29  1  0.999925  0.288804  0.000000  1
  Pd  Pd30  1  0.999925  0.711196  0.000000  1
  Pd  Pd31  1  0.999925  0.000000  0.288804  1
  Pd  Pd32  1  0.999925  0.000000  0.711196  1
