# generated using pymatgen
data_Dy4Co16Re4(Si3P)3
_symmetry_space_group_name_H-M   'P 1'
_cell_length_a   3.76401300
_cell_length_b   10.51854611
_cell_length_c   11.98627861
_cell_angle_alpha   89.85201767
_cell_angle_beta   90.00000000
_cell_angle_gamma   90.00000000
_symmetry_Int_Tables_number   1
_chemical_formula_structural   Dy4Co16Re4(Si3P)3
_chemical_formula_sum   'Dy4 Co16 Re4 Si9 P3'
_cell_volume   474.55849247
_cell_formula_units_Z   1
loop_
 _symmetry_equiv_pos_site_id
 _symmetry_equiv_pos_as_xyz
  1  'x, y, z'
loop_
 _atom_site_type_symbol
 _atom_site_label
 _atom_site_symmetry_multiplicity
 _atom_site_fract_x
 _atom_site_fract_y
 _atom_site_fract_z
 _atom_site_occupancy
  Dy  Dy0  1  0.250000  0.577701  0.702037  1
  Dy  Dy1  1  0.250000  0.920241  0.204087  1
  Dy  Dy2  1  0.750000  0.420325  0.294769  1
  Dy  Dy3  1  0.750000  0.079091  0.796873  1
  Co  Co4  1  0.250000  0.405315  0.490976  1
  Co  Co5  1  0.250000  0.090623  0.989516  1
  Co  Co6  1  0.750000  0.589995  0.513255  1
  Co  Co7  1  0.750000  0.909534  0.011289  1
  Co  Co8  1  0.250000  0.213203  0.172624  1
  Co  Co9  1  0.250000  0.285372  0.673871  1
  Co  Co10  1  0.750000  0.787506  0.827465  1
  Co  Co11  1  0.750000  0.714910  0.326581  1
  Co  Co12  1  0.250000  0.886026  0.702767  1
  Co  Co13  1  0.250000  0.615444  0.197787  1
  Co  Co14  1  0.750000  0.114855  0.298635  1
  Co  Co15  1  0.750000  0.384794  0.797689  1
  Co  Co16  1  0.250000  0.467914  0.931654  1
  Co  Co17  1  0.250000  0.033321  0.433465  1
  Co  Co18  1  0.750000  0.532013  0.065073  1
  Co  Co19  1  0.750000  0.968237  0.567778  1
  Re  Re20  1  0.250000  0.706760  0.988793  1
  Re  Re21  1  0.250000  0.798102  0.493425  1
  Re  Re22  1  0.750000  0.293167  0.009599  1
  Re  Re23  1  0.750000  0.205501  0.509892  1
  Si  Si24  1  0.250000  0.416555  0.113027  1
  Si  Si25  1  0.250000  0.083551  0.614657  1
  Si  Si26  1  0.750000  0.583823  0.884484  1
  Si  Si27  1  0.750000  0.916562  0.386573  1
  Si  Si28  1  0.250000  0.269383  0.864963  1
  Si  Si29  1  0.250000  0.231145  0.364569  1
  Si  Si30  1  0.750000  0.729666  0.135135  1
  Si  Si31  1  0.750000  0.769386  0.636089  1
  Si  Si32  1  0.250000  0.598864  0.392495  1
  P  P33  1  0.250000  0.902063  0.892826  1
  P  P34  1  0.750000  0.400225  0.607243  1
  P  P35  1  0.750000  0.098827  0.108041  1
