# generated using pymatgen
data_EuV3O9
_symmetry_space_group_name_H-M   'P 1'
_cell_length_a   7.42242332
_cell_length_b   8.47060339
_cell_length_c   9.56136600
_cell_angle_alpha   105.93234886
_cell_angle_beta   112.83922135
_cell_angle_gamma   64.01546443
_symmetry_Int_Tables_number   1
_chemical_formula_structural   EuV3O9
_chemical_formula_sum   'Eu2 V6 O18'
_cell_volume   494.03704623
_cell_formula_units_Z   2
loop_
 _symmetry_equiv_pos_site_id
 _symmetry_equiv_pos_as_xyz
  1  'x, y, z'
loop_
 _atom_site_type_symbol
 _atom_site_label
 _atom_site_symmetry_multiplicity
 _atom_site_fract_x
 _atom_site_fract_y
 _atom_site_fract_z
 _atom_site_occupancy
  Eu  Eu0  1  0.682447  0.357799  0.242820  1
  Eu  Eu1  1  0.202573  0.857799  0.742818  1
  V  V2  1  0.749164  0.607366  0.007549  1
  V  V3  1  0.992087  0.905510  0.074667  1
  V  V4  1  0.419037  0.810165  0.417071  1
  V  V5  1  0.651019  0.107365  0.507550  1
  V  V6  1  0.177069  0.405511  0.574665  1
  V  V7  1  0.187871  0.310163  0.917071  1
  O  O8  1  0.357124  0.393893  0.057415  1
  O  O9  1  0.833328  0.121929  0.080713  1
  O  O10  1  0.859342  0.775694  0.080833  1
  O  O11  1  0.679774  0.580048  0.144428  1
  O  O12  1  0.223353  0.874371  0.238641  1
  O  O13  1  0.648504  0.165249  0.351561  1
  O  O14  1  0.012821  0.338995  0.414031  1
  O  O15  1  0.530629  0.587145  0.409337  1
  O  O16  1  0.614545  0.900140  0.456034  1
  O  O17  1  0.306395  0.893894  0.557415  1
  O  O18  1  0.125457  0.621930  0.580713  1
  O  O19  1  0.445798  0.275694  0.580833  1
  O  O20  1  0.884605  0.080050  0.644429  1
  O  O21  1  0.140917  0.374373  0.738643  1
  O  O22  1  0.537807  0.665250  0.851561  1
  O  O23  1  0.062214  0.838994  0.914031  1
  O  O24  1  0.291561  0.087145  0.909338  1
  O  O25  1  0.941349  0.400138  0.956033  1
