# generated using pymatgen
data_Cr2HgF12
_symmetry_space_group_name_H-M   'P 1'
_cell_length_a   11.46955571
_cell_length_b   5.67061324
_cell_length_c   5.75889016
_cell_angle_alpha   57.26400726
_cell_angle_beta   57.05988502
_cell_angle_gamma   57.66143497
_symmetry_Int_Tables_number   1
_chemical_formula_structural   Cr2HgF12
_chemical_formula_sum   'Cr2 Hg1 F12'
_cell_volume   248.54694680
_cell_formula_units_Z   1
loop_
 _symmetry_equiv_pos_site_id
 _symmetry_equiv_pos_as_xyz
  1  'x, y, z'
loop_
 _atom_site_type_symbol
 _atom_site_label
 _atom_site_symmetry_multiplicity
 _atom_site_fract_x
 _atom_site_fract_y
 _atom_site_fract_z
 _atom_site_occupancy
  Cr  Cr0  1  0.013547  0.984953  0.995737  1
  Cr  Cr1  1  0.486453  0.015047  0.004263  1
  Hg  Hg2  1  0.750000  0.500000  0.500000  1
  F  F3  1  0.166056  0.105184  0.784644  1
  F  F4  1  0.659977  0.122473  0.781927  1
  F  F5  1  0.053067  0.798462  0.317879  1
  F  F6  1  0.554213  0.787161  0.315328  1
  F  F7  1  0.106102  0.683443  0.877974  1
  F  F8  1  0.605738  0.678965  0.895181  1
  F  F9  1  0.446933  0.201538  0.682121  1
  F  F10  1  0.945787  0.212839  0.684672  1
  F  F11  1  0.333944  0.894816  0.215356  1
  F  F12  1  0.840023  0.877527  0.218073  1
  F  F13  1  0.393898  0.316557  0.122026  1
  F  F14  1  0.894262  0.321035  0.104819  1
