# generated using pymatgen
data_Yb4Sb2Te
_symmetry_space_group_name_H-M   'P 1'
_cell_length_a   8.19544243
_cell_length_b   8.19544376
_cell_length_c   8.19544354
_cell_angle_alpha   109.49252367
_cell_angle_beta   109.49252948
_cell_angle_gamma   109.42862393
_symmetry_Int_Tables_number   1
_chemical_formula_structural   Yb4Sb2Te
_chemical_formula_sum   'Yb8 Sb4 Te2'
_cell_volume   423.73587431
_cell_formula_units_Z   2
loop_
 _symmetry_equiv_pos_site_id
 _symmetry_equiv_pos_as_xyz
  1  'x, y, z'
loop_
 _atom_site_type_symbol
 _atom_site_label
 _atom_site_symmetry_multiplicity
 _atom_site_fract_x
 _atom_site_fract_y
 _atom_site_fract_z
 _atom_site_occupancy
  Yb  Yb0  1  0.632556  0.882837  0.898770  1
  Yb  Yb1  1  0.266214  0.367444  0.250280  1
  Yb  Yb2  1  0.117163  0.015933  0.749720  1
  Yb  Yb3  1  0.483786  0.234067  0.601230  1
  Yb  Yb4  1  0.117444  0.516214  0.750280  1
  Yb  Yb5  1  0.765933  0.367163  0.249720  1
  Yb  Yb6  1  0.984067  0.733786  0.101230  1
  Yb  Yb7  1  0.632837  0.882556  0.398770  1
  Sb  Sb8  1  0.375000  0.993798  0.118798  1
  Sb  Sb9  1  0.006202  0.125000  0.381202  1
  Sb  Sb10  1  0.875000  0.256202  0.881202  1
  Sb  Sb11  1  0.743798  0.625000  0.618798  1
  Te  Te12  1  0.500000  0.500000  0.000000  1
  Te  Te13  1  0.250000  0.750000  0.500000  1
