# generated using pymatgen
data_Ta7Co8Si14Mo
_symmetry_space_group_name_H-M   'P 1'
_cell_length_a   9.18873290
_cell_length_b   9.18873342
_cell_length_c   9.18873335
_cell_angle_alpha   94.25593425
_cell_angle_beta   94.16305069
_cell_angle_gamma   148.56068415
_symmetry_Int_Tables_number   1
_chemical_formula_structural   Ta7Co8Si14Mo
_chemical_formula_sum   'Ta7 Co8 Si14 Mo1'
_cell_volume   389.53431325
_cell_formula_units_Z   1
loop_
 _symmetry_equiv_pos_site_id
 _symmetry_equiv_pos_as_xyz
  1  'x, y, z'
loop_
 _atom_site_type_symbol
 _atom_site_label
 _atom_site_symmetry_multiplicity
 _atom_site_fract_x
 _atom_site_fract_y
 _atom_site_fract_z
 _atom_site_occupancy
  Ta  Ta0  1  0.689059  0.500000  0.189059  1
  Ta  Ta1  1  0.500625  0.691062  0.191686  1
  Ta  Ta2  1  0.500625  0.308938  0.809562  1
  Ta  Ta3  1  0.133157  0.132447  0.265602  1
  Ta  Ta4  1  0.866688  0.865980  0.732670  1
  Ta  Ta5  1  0.133157  0.867553  0.000709  1
  Ta  Ta6  1  0.866688  0.134020  0.000708  1
  Co  Co7  1  0.398958  0.898438  0.798054  1
  Co  Co8  1  0.100934  0.600461  0.200809  1
  Co  Co9  1  0.899617  0.101562  0.500520  1
  Co  Co10  1  0.600346  0.399539  0.500473  1
  Co  Co11  1  0.600346  0.099873  0.200809  1
  Co  Co12  1  0.899617  0.399096  0.798054  1
  Co  Co13  1  0.100934  0.900127  0.500473  1
  Co  Co14  1  0.398958  0.600904  0.500520  1
  Si  Si15  1  0.292627  0.294627  0.587254  1
  Si  Si16  1  0.707733  0.708041  0.415774  1
  Si  Si17  1  0.292627  0.705373  0.998000  1
  Si  Si18  1  0.707733  0.291959  0.999692  1
  Si  Si19  1  0.095435  0.500000  0.595435  1
  Si  Si20  1  0.906374  0.500000  0.406374  1
  Si  Si21  1  0.500115  0.906191  0.406306  1
  Si  Si22  1  0.500115  0.093809  0.593924  1
  Si  Si23  1  0.247514  0.249248  0.998266  1
  Si  Si24  1  0.749018  0.750752  0.998266  1
  Si  Si25  1  0.297393  0.000000  0.297393  1
  Si  Si26  1  0.703056  0.000000  0.703056  1
  Si  Si27  1  0.000275  0.702674  0.702949  1
  Si  Si28  1  0.000275  0.297326  0.297602  1
  Mo  Mo29  1  0.309999  0.500000  0.809999  1
