# generated using pymatgen
data_LiGd3MnC6
_symmetry_space_group_name_H-M   'P 1'
_cell_length_a   8.38958100
_cell_length_b   8.38958111
_cell_length_c   5.07343600
_cell_angle_alpha   90.00000000
_cell_angle_beta   90.00000000
_cell_angle_gamma   119.99999822
_symmetry_Int_Tables_number   1
_chemical_formula_structural   LiGd3MnC6
_chemical_formula_sum   'Li2 Gd6 Mn2 C12'
_cell_volume   309.25261054
_cell_formula_units_Z   2
loop_
 _symmetry_equiv_pos_site_id
 _symmetry_equiv_pos_as_xyz
  1  'x, y, z'
loop_
 _atom_site_type_symbol
 _atom_site_label
 _atom_site_symmetry_multiplicity
 _atom_site_fract_x
 _atom_site_fract_y
 _atom_site_fract_z
 _atom_site_occupancy
  Li  Li0  1  0.000000  0.000000  0.500000  1
  Li  Li1  1  0.000000  0.000000  0.000000  1
  Gd  Gd2  1  0.625030  0.682645  0.750000  1
  Gd  Gd3  1  0.942385  0.625030  0.250000  1
  Gd  Gd4  1  0.682645  0.057615  0.250000  1
  Gd  Gd5  1  0.317355  0.942385  0.750000  1
  Gd  Gd6  1  0.057615  0.374970  0.750000  1
  Gd  Gd7  1  0.374970  0.317355  0.250000  1
  Mn  Mn8  1  0.666667  0.333333  0.750000  1
  Mn  Mn9  1  0.333333  0.666667  0.250000  1
  C  C10  1  0.984568  0.744693  0.750000  1
  C  C11  1  0.239875  0.984568  0.250000  1
  C  C12  1  0.744693  0.760125  0.250000  1
  C  C13  1  0.255307  0.239875  0.750000  1
  C  C14  1  0.760125  0.015432  0.750000  1
  C  C15  1  0.015432  0.255307  0.250000  1
  C  C16  1  0.859776  0.565963  0.750000  1
  C  C17  1  0.293812  0.859776  0.250000  1
  C  C18  1  0.565963  0.706188  0.250000  1
  C  C19  1  0.434037  0.293812  0.750000  1
  C  C20  1  0.140224  0.434037  0.250000  1
  C  C21  1  0.706188  0.140224  0.750000  1
