# generated using pymatgen
data_La2Eu2CdIr
_symmetry_space_group_name_H-M   'P 1'
_cell_length_a   10.08054301
_cell_length_b   10.08054296
_cell_length_c   10.12455300
_cell_angle_alpha   59.85547708
_cell_angle_beta   59.85547723
_cell_angle_gamma   60.28905431
_symmetry_Int_Tables_number   1
_chemical_formula_structural   La2Eu2CdIr
_chemical_formula_sum   'La8 Eu8 Cd4 Ir4'
_cell_volume   727.46501438
_cell_formula_units_Z   4
loop_
 _symmetry_equiv_pos_site_id
 _symmetry_equiv_pos_as_xyz
  1  'x, y, z'
loop_
 _atom_site_type_symbol
 _atom_site_label
 _atom_site_symmetry_multiplicity
 _atom_site_fract_x
 _atom_site_fract_y
 _atom_site_fract_z
 _atom_site_occupancy
  La  La0  1  0.345259  0.345259  0.347250  1
  La  La1  1  0.345259  0.345259  0.962231  1
  La  La2  1  0.347250  0.962231  0.345259  1
  La  La3  1  0.962231  0.347250  0.345259  1
  La  La4  1  0.809547  0.190453  0.190453  1
  La  La5  1  0.190453  0.809547  0.809547  1
  La  La6  1  0.190453  0.809547  0.190453  1
  La  La7  1  0.809547  0.190453  0.809547  1
  Eu  Eu8  1  0.193798  0.193798  0.806202  1
  Eu  Eu9  1  0.806202  0.806202  0.193798  1
  Eu  Eu10  1  0.938431  0.561569  0.561569  1
  Eu  Eu11  1  0.561569  0.938431  0.938431  1
  Eu  Eu12  1  0.561569  0.938431  0.561569  1
  Eu  Eu13  1  0.938431  0.561569  0.938431  1
  Eu  Eu14  1  0.560989  0.560989  0.939011  1
  Eu  Eu15  1  0.939011  0.939011  0.560989  1
  Cd  Cd16  1  0.578225  0.578225  0.578896  1
  Cd  Cd17  1  0.578225  0.578225  0.264652  1
  Cd  Cd18  1  0.578896  0.264652  0.578225  1
  Cd  Cd19  1  0.264652  0.578896  0.578225  1
  Ir  Ir20  1  0.135760  0.135760  0.148725  1
  Ir  Ir21  1  0.135760  0.135760  0.579755  1
  Ir  Ir22  1  0.148725  0.579755  0.135760  1
  Ir  Ir23  1  0.579755  0.148725  0.135760  1
