# generated using pymatgen
data_Na3V(PO4)2
_symmetry_space_group_name_H-M   'P 1'
_cell_length_a   5.28396352
_cell_length_b   5.28396232
_cell_length_c   14.10190704
_cell_angle_alpha   88.53642231
_cell_angle_beta   88.53642435
_cell_angle_gamma   57.49523288
_symmetry_Int_Tables_number   1
_chemical_formula_structural   Na3V(PO4)2
_chemical_formula_sum   'Na6 V2 P4 O16'
_cell_volume   331.90911019
_cell_formula_units_Z   2
loop_
 _symmetry_equiv_pos_site_id
 _symmetry_equiv_pos_as_xyz
  1  'x, y, z'
loop_
 _atom_site_type_symbol
 _atom_site_label
 _atom_site_symmetry_multiplicity
 _atom_site_fract_x
 _atom_site_fract_y
 _atom_site_fract_z
 _atom_site_occupancy
  Na  Na0  1  0.950381  0.049619  0.250000  1
  Na  Na1  1  0.049619  0.950381  0.750000  1
  Na  Na2  1  0.289376  0.372820  0.134162  1
  Na  Na3  1  0.627180  0.710624  0.365838  1
  Na  Na4  1  0.372820  0.289376  0.634162  1
  Na  Na5  1  0.710624  0.627180  0.865838  1
  V  V6  1  0.000000  0.000000  0.500000  1
  V  V7  1  0.000000  0.000000  0.000000  1
  P  P8  1  0.647916  0.688042  0.112978  1
  P  P9  1  0.688042  0.647916  0.612978  1
  P  P10  1  0.311958  0.352084  0.387022  1
  P  P11  1  0.352084  0.311958  0.887022  1
  O  O12  1  0.274170  0.072589  0.914667  1
  O  O13  1  0.927411  0.725830  0.585333  1
  O  O14  1  0.725830  0.927411  0.085333  1
  O  O15  1  0.072589  0.274170  0.414667  1
  O  O16  1  0.704566  0.146329  0.885121  1
  O  O17  1  0.853671  0.295434  0.614879  1
  O  O18  1  0.295434  0.853671  0.114879  1
  O  O19  1  0.146329  0.704566  0.385121  1
  O  O20  1  0.217764  0.562522  0.962832  1
  O  O21  1  0.437478  0.782236  0.537168  1
  O  O22  1  0.782236  0.437478  0.037168  1
  O  O23  1  0.562522  0.217764  0.462832  1
  O  O24  1  0.449027  0.221540  0.290030  1
  O  O25  1  0.778460  0.550973  0.209970  1
  O  O26  1  0.550973  0.778460  0.709970  1
  O  O27  1  0.221540  0.449027  0.790030  1
