# generated using pymatgen
data_Dy7Ho3IrPt5
_symmetry_space_group_name_H-M   'P 1'
_cell_length_a   11.02956101
_cell_length_b   11.03029500
_cell_length_c   6.40922800
_cell_angle_alpha   90.00000000
_cell_angle_beta   90.00347452
_cell_angle_gamma   90.00000000
_symmetry_Int_Tables_number   1
_chemical_formula_structural   Dy7Ho3IrPt5
_chemical_formula_sum   'Dy14 Ho6 Ir2 Pt10'
_cell_volume   779.74226533
_cell_formula_units_Z   2
loop_
 _symmetry_equiv_pos_site_id
 _symmetry_equiv_pos_as_xyz
  1  'x, y, z'
loop_
 _atom_site_type_symbol
 _atom_site_label
 _atom_site_symmetry_multiplicity
 _atom_site_fract_x
 _atom_site_fract_y
 _atom_site_fract_z
 _atom_site_occupancy
  Dy  Dy0  1  0.707632  0.088550  0.877253  1
  Dy  Dy1  1  0.707632  0.911450  0.377253  1
  Dy  Dy2  1  0.588489  0.792422  0.877303  1
  Dy  Dy3  1  0.588489  0.207578  0.377303  1
  Dy  Dy4  1  0.411324  0.792548  0.377316  1
  Dy  Dy5  1  0.411324  0.207452  0.877316  1
  Dy  Dy6  1  0.205193  0.412124  0.623276  1
  Dy  Dy7  1  0.205193  0.587876  0.123276  1
  Dy  Dy8  1  0.794796  0.412155  0.123322  1
  Dy  Dy9  1  0.794796  0.587845  0.623322  1
  Dy  Dy10  1  0.912155  0.705210  0.123323  1
  Dy  Dy11  1  0.912155  0.294790  0.623323  1
  Dy  Dy12  1  0.087914  0.705237  0.623341  1
  Dy  Dy13  1  0.087914  0.294763  0.123341  1
  Ho  Ho14  1  0.292547  0.088483  0.377498  1
  Ho  Ho15  1  0.292547  0.911517  0.877498  1
  Ho  Ho16  1  0.000132  0.000025  0.500500  1
  Ho  Ho17  1  0.000132  0.999975  0.000500  1
  Ho  Ho18  1  0.499988  0.499987  0.000479  1
  Ho  Ho19  1  0.499988  0.500013  0.500479  1
  Ir  Ir20  1  0.000015  0.500012  0.877865  1
  Ir  Ir21  1  0.000015  0.499988  0.377865  1
  Pt  Pt22  1  0.846172  0.152673  0.249867  1
  Pt  Pt23  1  0.846172  0.847327  0.749867  1
  Pt  Pt24  1  0.153981  0.152488  0.749589  1
  Pt  Pt25  1  0.153981  0.847512  0.249589  1
  Pt  Pt26  1  0.652679  0.346182  0.749849  1
  Pt  Pt27  1  0.652679  0.653818  0.249849  1
  Pt  Pt28  1  0.347274  0.346014  0.249939  1
  Pt  Pt29  1  0.347274  0.653986  0.749939  1
  Pt  Pt30  1  0.499711  0.999981  0.119281  1
  Pt  Pt31  1  0.499711  0.000019  0.619281  1
