# generated using pymatgen
data_TaMnNb5B4Ru9
_symmetry_space_group_name_H-M   'P 1'
_cell_length_a   9.40128006
_cell_length_b   9.40578874
_cell_length_c   3.02527400
_cell_angle_alpha   90.00000000
_cell_angle_beta   90.00000000
_cell_angle_gamma   90.33279558
_symmetry_Int_Tables_number   1
_chemical_formula_structural   TaMnNb5B4Ru9
_chemical_formula_sum   'Ta1 Mn1 Nb5 B4 Ru9'
_cell_volume   267.50974022
_cell_formula_units_Z   1
loop_
 _symmetry_equiv_pos_site_id
 _symmetry_equiv_pos_as_xyz
  1  'x, y, z'
loop_
 _atom_site_type_symbol
 _atom_site_label
 _atom_site_symmetry_multiplicity
 _atom_site_fract_x
 _atom_site_fract_y
 _atom_site_fract_z
 _atom_site_occupancy
  Ta  Ta0  1  0.000000  0.000000  0.000000  1
  Mn  Mn1  1  0.500000  0.000000  0.500000  1
  Nb  Nb2  1  0.822533  0.677531  0.000000  1
  Nb  Nb3  1  0.177467  0.322469  0.000000  1
  Nb  Nb4  1  0.331911  0.831987  0.000000  1
  Nb  Nb5  1  0.668089  0.168013  0.000000  1
  Nb  Nb6  1  0.500000  0.500000  0.000000  1
  B  B7  1  0.612493  0.887465  0.000000  1
  B  B8  1  0.387507  0.112535  0.000000  1
  B  B9  1  0.122266  0.622157  0.000000  1
  B  B10  1  0.877734  0.377843  0.000000  1
  Ru  Ru11  1  0.570153  0.722065  0.500000  1
  Ru  Ru12  1  0.429847  0.277935  0.500000  1
  Ru  Ru13  1  0.072606  0.782520  0.500000  1
  Ru  Ru14  1  0.927394  0.217480  0.500000  1
  Ru  Ru15  1  0.282114  0.572681  0.500000  1
  Ru  Ru16  1  0.717886  0.427319  0.500000  1
  Ru  Ru17  1  0.221637  0.070120  0.500000  1
  Ru  Ru18  1  0.778363  0.929880  0.500000  1
  Ru  Ru19  1  0.000000  0.500000  0.500000  1
