# generated using pymatgen
data_FeCoH2
_symmetry_space_group_name_H-M   'P 1'
_cell_length_a   2.64893800
_cell_length_b   2.64890717
_cell_length_c   8.55107500
_cell_angle_alpha   90.00000000
_cell_angle_beta   90.00000000
_cell_angle_gamma   120.00038502
_symmetry_Int_Tables_number   1
_chemical_formula_structural   FeCoH2
_chemical_formula_sum   'Fe2 Co2 H4'
_cell_volume   51.96227948
_cell_formula_units_Z   2
loop_
 _symmetry_equiv_pos_site_id
 _symmetry_equiv_pos_as_xyz
  1  'x, y, z'
loop_
 _atom_site_type_symbol
 _atom_site_label
 _atom_site_symmetry_multiplicity
 _atom_site_fract_x
 _atom_site_fract_y
 _atom_site_fract_z
 _atom_site_occupancy
  Fe  Fe0  1  0.666669  0.333337  0.250000  1
  Fe  Fe1  1  0.333331  0.666663  0.750000  1
  Co  Co2  1  0.000000  0.000000  0.000000  1
  Co  Co3  1  0.000000  0.000000  0.500000  1
  H  H4  1  0.666712  0.333424  0.884373  1
  H  H5  1  0.333288  0.666576  0.115627  1
  H  H6  1  0.333288  0.666576  0.384373  1
  H  H7  1  0.666712  0.333424  0.615627  1
