# generated using pymatgen
data_Pa4AlGaNi4
_symmetry_space_group_name_H-M   'P 1'
_cell_length_a   7.17460800
_cell_length_b   7.17460800
_cell_length_c   3.44268500
_cell_angle_alpha   90.00000000
_cell_angle_beta   90.00000000
_cell_angle_gamma   90.00000000
_symmetry_Int_Tables_number   1
_chemical_formula_structural   Pa4AlGaNi4
_chemical_formula_sum   'Pa4 Al1 Ga1 Ni4'
_cell_volume   177.21221022
_cell_formula_units_Z   1
loop_
 _symmetry_equiv_pos_site_id
 _symmetry_equiv_pos_as_xyz
  1  'x, y, z'
loop_
 _atom_site_type_symbol
 _atom_site_label
 _atom_site_symmetry_multiplicity
 _atom_site_fract_x
 _atom_site_fract_y
 _atom_site_fract_z
 _atom_site_occupancy
  Pa  Pa0  1  0.321126  0.822896  0.500000  1
  Pa  Pa1  1  0.822896  0.678874  0.500000  1
  Pa  Pa2  1  0.177104  0.321126  0.500000  1
  Pa  Pa3  1  0.678874  0.177104  0.500000  1
  Al  Al4  1  0.500000  0.500000  0.000000  1
  Ga  Ga5  1  0.000000  0.000000  0.000000  1
  Ni  Ni6  1  0.376565  0.129957  0.000000  1
  Ni  Ni7  1  0.870043  0.376565  0.000000  1
  Ni  Ni8  1  0.129957  0.623435  0.000000  1
  Ni  Ni9  1  0.623435  0.870043  0.000000  1
