# generated using pymatgen
data_TbDy2Sn3GeIr2
_symmetry_space_group_name_H-M   'P 1'
_cell_length_a   7.41065301
_cell_length_b   7.40877749
_cell_length_c   4.18534700
_cell_angle_alpha   90.00000000
_cell_angle_beta   90.00000000
_cell_angle_gamma   120.01339223
_symmetry_Int_Tables_number   1
_chemical_formula_structural   TbDy2Sn3GeIr2
_chemical_formula_sum   'Tb1 Dy2 Sn3 Ge1 Ir2'
_cell_volume   198.97866319
_cell_formula_units_Z   1
loop_
 _symmetry_equiv_pos_site_id
 _symmetry_equiv_pos_as_xyz
  1  'x, y, z'
loop_
 _atom_site_type_symbol
 _atom_site_label
 _atom_site_symmetry_multiplicity
 _atom_site_fract_x
 _atom_site_fract_y
 _atom_site_fract_z
 _atom_site_occupancy
  Tb  Tb0  1  0.413400  0.400808  0.000000  1
  Dy  Dy1  1  0.599507  0.012881  0.000000  1
  Dy  Dy2  1  0.987162  0.586615  0.000000  1
  Sn  Sn3  1  0.257930  0.013719  0.500000  1
  Sn  Sn4  1  0.986033  0.244074  0.500000  1
  Sn  Sn5  1  0.756046  0.742122  0.500000  1
  Ge  Ge6  1  0.333271  0.666796  0.500000  1
  Ir  Ir7  1  0.666903  0.333245  0.500000  1
  Ir  Ir8  1  0.999747  0.999742  0.000000  1
