# generated using pymatgen
data_SmHo7(SiBr6)2
_symmetry_space_group_name_H-M   'P 1'
_cell_length_a   4.05657800
_cell_length_b   13.26884498
_cell_length_c   14.03052854
_cell_angle_alpha   89.71485828
_cell_angle_beta   90.00000000
_cell_angle_gamma   90.00000000
_symmetry_Int_Tables_number   1
_chemical_formula_structural   SmHo7(SiBr6)2
_chemical_formula_sum   'Sm1 Ho7 Si2 Br12'
_cell_volume   755.19934515
_cell_formula_units_Z   1
loop_
 _symmetry_equiv_pos_site_id
 _symmetry_equiv_pos_as_xyz
  1  'x, y, z'
loop_
 _atom_site_type_symbol
 _atom_site_label
 _atom_site_symmetry_multiplicity
 _atom_site_fract_x
 _atom_site_fract_y
 _atom_site_fract_z
 _atom_site_occupancy
  Sm  Sm0  1  0.000000  0.119044  0.579272  1
  Ho  Ho1  1  0.500000  0.117368  0.341090  1
  Ho  Ho2  1  0.500000  0.881295  0.658111  1
  Ho  Ho3  1  0.500000  0.617736  0.158167  1
  Ho  Ho4  1  0.500000  0.382943  0.842457  1
  Ho  Ho5  1  0.000000  0.881510  0.421210  1
  Ho  Ho6  1  0.000000  0.617037  0.922246  1
  Ho  Ho7  1  0.000000  0.383020  0.078104  1
  Si  Si8  1  0.500000  0.997675  0.498493  1
  Si  Si9  1  0.500000  0.500232  0.000516  1
  Br  Br10  1  0.500000  0.246218  0.162730  1
  Br  Br11  1  0.500000  0.752925  0.836764  1
  Br  Br12  1  0.500000  0.744963  0.335710  1
  Br  Br13  1  0.500000  0.260809  0.666486  1
  Br  Br14  1  0.000000  0.255254  0.406069  1
  Br  Br15  1  0.000000  0.745112  0.588860  1
  Br  Br16  1  0.000000  0.754025  0.088398  1
  Br  Br17  1  0.000000  0.246405  0.912190  1
  Br  Br18  1  0.000000  0.002665  0.243336  1
  Br  Br19  1  0.000000  0.992457  0.758969  1
  Br  Br20  1  0.000000  0.502538  0.255924  1
  Br  Br21  1  0.000000  0.498771  0.744900  1
