# generated using pymatgen
data_Th6Rh2Se15
_symmetry_space_group_name_H-M   'P 1'
_cell_length_a   12.12948688
_cell_length_b   12.12948716
_cell_length_c   12.12948700
_cell_angle_alpha   109.47121870
_cell_angle_beta   109.47121917
_cell_angle_gamma   109.47122162
_symmetry_Int_Tables_number   1
_chemical_formula_structural   Th6Rh2Se15
_chemical_formula_sum   'Th12 Rh4 Se30'
_cell_volume   1373.74278211
_cell_formula_units_Z   2
loop_
 _symmetry_equiv_pos_site_id
 _symmetry_equiv_pos_as_xyz
  1  'x, y, z'
loop_
 _atom_site_type_symbol
 _atom_site_label
 _atom_site_symmetry_multiplicity
 _atom_site_fract_x
 _atom_site_fract_y
 _atom_site_fract_z
 _atom_site_occupancy
  Th  Th0  1  0.295065  0.295065  0.590131  1
  Th  Th1  1  0.704935  0.000000  0.295065  1
  Th  Th2  1  0.000000  0.704935  0.295065  1
  Th  Th3  1  0.704935  0.295065  0.000000  1
  Th  Th4  1  0.295065  0.590131  0.295065  1
  Th  Th5  1  0.000000  0.295065  0.704935  1
  Th  Th6  1  0.295065  0.704935  0.000000  1
  Th  Th7  1  0.295065  0.000000  0.704935  1
  Th  Th8  1  0.590131  0.295065  0.295065  1
  Th  Th9  1  0.704935  0.704935  0.409869  1
  Th  Th10  1  0.704935  0.409869  0.704935  1
  Th  Th11  1  0.409869  0.704935  0.704935  1
  Rh  Rh12  1  0.000000  0.000000  0.500000  1
  Rh  Rh13  1  0.000000  0.500000  0.000000  1
  Rh  Rh14  1  0.500000  0.000000  0.000000  1
  Rh  Rh15  1  0.500000  0.500000  0.500000  1
  Se  Se16  1  0.000000  0.181249  0.438350  1
  Se  Se17  1  0.818751  0.818751  0.257100  1
  Se  Se18  1  0.181249  0.000000  0.438350  1
  Se  Se19  1  0.000000  0.438350  0.181249  1
  Se  Se20  1  0.181249  0.438350  0.000000  1
  Se  Se21  1  0.818751  0.257100  0.818751  1
  Se  Se22  1  0.257100  0.818751  0.818751  1
  Se  Se23  1  0.438350  0.181249  0.000000  1
  Se  Se24  1  0.438350  0.000000  0.181249  1
  Se  Se25  1  0.742900  0.561650  0.561650  1
  Se  Se26  1  0.561650  0.561650  0.742900  1
  Se  Se27  1  0.561650  0.742900  0.561650  1
  Se  Se28  1  0.000000  0.818751  0.561650  1
  Se  Se29  1  0.181249  0.181249  0.742900  1
  Se  Se30  1  0.818751  0.000000  0.561650  1
  Se  Se31  1  0.000000  0.561650  0.818751  1
  Se  Se32  1  0.818751  0.561650  0.000000  1
  Se  Se33  1  0.181249  0.742900  0.181249  1
  Se  Se34  1  0.742900  0.181249  0.181249  1
  Se  Se35  1  0.561650  0.818751  0.000000  1
  Se  Se36  1  0.561650  0.000000  0.818751  1
  Se  Se37  1  0.257100  0.438350  0.438350  1
  Se  Se38  1  0.438350  0.438350  0.257100  1
  Se  Se39  1  0.438350  0.257100  0.438350  1
  Se  Se40  1  0.750000  0.250000  0.500000  1
  Se  Se41  1  0.750000  0.500000  0.250000  1
  Se  Se42  1  0.500000  0.250000  0.750000  1
  Se  Se43  1  0.250000  0.500000  0.750000  1
  Se  Se44  1  0.250000  0.750000  0.500000  1
  Se  Se45  1  0.500000  0.750000  0.250000  1
