# generated using pymatgen
data_LaY2As4Pd7
_symmetry_space_group_name_H-M   'P 1'
_cell_length_a   8.17764487
_cell_length_b   8.17764537
_cell_length_c   9.76826794
_cell_angle_alpha   55.89841369
_cell_angle_beta   55.89841218
_cell_angle_gamma   29.41496925
_symmetry_Int_Tables_number   1
_chemical_formula_structural   LaY2As4Pd7
_chemical_formula_sum   'La1 Y2 As4 Pd7'
_cell_volume   261.43033556
_cell_formula_units_Z   1
loop_
 _symmetry_equiv_pos_site_id
 _symmetry_equiv_pos_as_xyz
  1  'x, y, z'
loop_
 _atom_site_type_symbol
 _atom_site_label
 _atom_site_symmetry_multiplicity
 _atom_site_fract_x
 _atom_site_fract_y
 _atom_site_fract_z
 _atom_site_occupancy
  La  La0  1  0.500000  0.500000  0.500000  1
  Y  Y1  1  0.823416  0.823416  0.169942  1
  Y  Y2  1  0.176584  0.176584  0.830058  1
  As  As3  1  0.392385  0.392385  0.318879  1
  As  As4  1  0.607615  0.607615  0.681121  1
  As  As5  1  0.836532  0.836532  0.759105  1
  As  As6  1  0.163468  0.163468  0.240895  1
  Pd  Pd7  1  0.668364  0.668364  0.070190  1
  Pd  Pd8  1  0.011605  0.011605  0.204942  1
  Pd  Pd9  1  0.988395  0.988395  0.795058  1
  Pd  Pd10  1  0.500000  0.500000  0.000000  1
  Pd  Pd11  1  0.194136  0.194136  0.473338  1
  Pd  Pd12  1  0.805864  0.805864  0.526662  1
  Pd  Pd13  1  0.331636  0.331636  0.929810  1
