# generated using pymatgen
data_La4YbIr2Ru
_symmetry_space_group_name_H-M   'P 1'
_cell_length_a   11.27306500
_cell_length_b   11.27306500
_cell_length_c   6.62434100
_cell_angle_alpha   90.00000000
_cell_angle_beta   90.00000000
_cell_angle_gamma   90.00000000
_symmetry_Int_Tables_number   1
_chemical_formula_structural   La4YbIr2Ru
_chemical_formula_sum   'La16 Yb4 Ir8 Ru4'
_cell_volume   841.83446649
_cell_formula_units_Z   4
loop_
 _symmetry_equiv_pos_site_id
 _symmetry_equiv_pos_as_xyz
  1  'x, y, z'
loop_
 _atom_site_type_symbol
 _atom_site_label
 _atom_site_symmetry_multiplicity
 _atom_site_fract_x
 _atom_site_fract_y
 _atom_site_fract_z
 _atom_site_occupancy
  La  La0  1  0.290559  0.088511  0.387550  1
  La  La1  1  0.290559  0.911489  0.887550  1
  La  La2  1  0.709441  0.088511  0.887550  1
  La  La3  1  0.709441  0.911489  0.387550  1
  La  La4  1  0.588511  0.790559  0.887550  1
  La  La5  1  0.588511  0.209441  0.387550  1
  La  La6  1  0.411489  0.790559  0.387550  1
  La  La7  1  0.411489  0.209441  0.887550  1
  La  La8  1  0.209441  0.411489  0.612450  1
  La  La9  1  0.209441  0.588511  0.112450  1
  La  La10  1  0.790559  0.411489  0.112450  1
  La  La11  1  0.790559  0.588511  0.612450  1
  La  La12  1  0.911489  0.709441  0.112450  1
  La  La13  1  0.911489  0.290559  0.612450  1
  La  La14  1  0.088511  0.709441  0.612450  1
  La  La15  1  0.088511  0.290559  0.112450  1
  Yb  Yb16  1  0.000000  0.000000  0.500000  1
  Yb  Yb17  1  0.000000  0.000000  0.000000  1
  Yb  Yb18  1  0.500000  0.500000  0.000000  1
  Yb  Yb19  1  0.500000  0.500000  0.500000  1
  Ir  Ir20  1  0.845020  0.154980  0.250000  1
  Ir  Ir21  1  0.845020  0.845020  0.750000  1
  Ir  Ir22  1  0.154980  0.154980  0.750000  1
  Ir  Ir23  1  0.154980  0.845020  0.250000  1
  Ir  Ir24  1  0.654980  0.345020  0.750000  1
  Ir  Ir25  1  0.654980  0.654980  0.250000  1
  Ir  Ir26  1  0.345020  0.345020  0.250000  1
  Ir  Ir27  1  0.345020  0.654980  0.750000  1
  Ru  Ru28  1  0.500000  0.000000  0.116895  1
  Ru  Ru29  1  0.500000  0.000000  0.616895  1
  Ru  Ru30  1  0.000000  0.500000  0.883105  1
  Ru  Ru31  1  0.000000  0.500000  0.383105  1
