# generated using pymatgen
data_LiHo9Cd3Pd
_symmetry_space_group_name_H-M   'P 1'
_cell_length_a   9.51018400
_cell_length_b   9.51018355
_cell_length_c   9.58111500
_cell_angle_alpha   90.00000000
_cell_angle_beta   90.00000000
_cell_angle_gamma   119.99999460
_symmetry_Int_Tables_number   1
_chemical_formula_structural   LiHo9Cd3Pd
_chemical_formula_sum   'Li2 Ho18 Cd6 Pd2'
_cell_volume   750.45477812
_cell_formula_units_Z   2
loop_
 _symmetry_equiv_pos_site_id
 _symmetry_equiv_pos_as_xyz
  1  'x, y, z'
loop_
 _atom_site_type_symbol
 _atom_site_label
 _atom_site_symmetry_multiplicity
 _atom_site_fract_x
 _atom_site_fract_y
 _atom_site_fract_z
 _atom_site_occupancy
  Li  Li0  1  0.000000  0.000000  0.000000  1
  Li  Li1  1  0.000000  0.000000  0.500000  1
  Ho  Ho2  1  0.204976  0.795024  0.943090  1
  Ho  Ho3  1  0.204976  0.409953  0.943090  1
  Ho  Ho4  1  0.590047  0.795024  0.943090  1
  Ho  Ho5  1  0.795024  0.204976  0.056910  1
  Ho  Ho6  1  0.795024  0.590047  0.056910  1
  Ho  Ho7  1  0.409953  0.204976  0.056910  1
  Ho  Ho8  1  0.795024  0.204976  0.443090  1
  Ho  Ho9  1  0.795024  0.590047  0.443090  1
  Ho  Ho10  1  0.409953  0.204976  0.443090  1
  Ho  Ho11  1  0.204976  0.795024  0.556910  1
  Ho  Ho12  1  0.204976  0.409953  0.556910  1
  Ho  Ho13  1  0.590047  0.795024  0.556910  1
  Ho  Ho14  1  0.543170  0.456830  0.750000  1
  Ho  Ho15  1  0.543170  0.086338  0.750000  1
  Ho  Ho16  1  0.913662  0.456830  0.750000  1
  Ho  Ho17  1  0.456830  0.543170  0.250000  1
  Ho  Ho18  1  0.456830  0.913662  0.250000  1
  Ho  Ho19  1  0.086338  0.543170  0.250000  1
  Cd  Cd20  1  0.891335  0.108665  0.750000  1
  Cd  Cd21  1  0.891335  0.782671  0.750000  1
  Cd  Cd22  1  0.217329  0.108665  0.750000  1
  Cd  Cd23  1  0.108665  0.891335  0.250000  1
  Cd  Cd24  1  0.108665  0.217329  0.250000  1
  Cd  Cd25  1  0.782671  0.891335  0.250000  1
  Pd  Pd26  1  0.333333  0.666667  0.750000  1
  Pd  Pd27  1  0.666667  0.333333  0.250000  1
