# generated using pymatgen
data_EuAs12IrOs3
_symmetry_space_group_name_H-M   'P 1'
_cell_length_a   7.46590425
_cell_length_b   7.47421187
_cell_length_c   7.46590358
_cell_angle_alpha   109.49376560
_cell_angle_beta   109.44866755
_cell_angle_gamma   109.49376902
_symmetry_Int_Tables_number   1
_chemical_formula_structural   EuAs12IrOs3
_chemical_formula_sum   'Eu1 As12 Ir1 Os3'
_cell_volume   320.61760794
_cell_formula_units_Z   1
loop_
 _symmetry_equiv_pos_site_id
 _symmetry_equiv_pos_as_xyz
  1  'x, y, z'
loop_
 _atom_site_type_symbol
 _atom_site_label
 _atom_site_symmetry_multiplicity
 _atom_site_fract_x
 _atom_site_fract_y
 _atom_site_fract_z
 _atom_site_occupancy
  Eu  Eu0  1  0.000000  0.000000  0.000000  1
  As  As1  1  0.348446  0.199086  0.850953  1
  As  As2  1  0.651554  0.800914  0.149047  1
  As  As3  1  0.648931  0.502588  0.850644  1
  As  As4  1  0.351069  0.497412  0.149356  1
  As  As5  1  0.201713  0.853659  0.351069  1
  As  As6  1  0.798287  0.146341  0.648931  1
  As  As7  1  0.502506  0.850640  0.651554  1
  As  As8  1  0.497494  0.149360  0.348446  1
  As  As9  1  0.850644  0.348054  0.201713  1
  As  As10  1  0.149356  0.651946  0.798287  1
  As  As11  1  0.850953  0.651867  0.502506  1
  As  As12  1  0.149047  0.348133  0.497494  1
  Ir  Ir13  1  0.000000  0.500000  0.000000  1
  Os  Os14  1  0.000000  0.000000  0.500000  1
  Os  Os15  1  0.500000  0.000000  0.000000  1
  Os  Os16  1  0.500000  0.500000  0.500000  1
