# generated using pymatgen
data_Rb7Na9(TiSe4)4
_symmetry_space_group_name_H-M   'P 1'
_cell_length_a   7.51782041
_cell_length_b   10.15918500
_cell_length_c   15.29683740
_cell_angle_alpha   90.00000000
_cell_angle_beta   90.27635755
_cell_angle_gamma   90.00000000
_symmetry_Int_Tables_number   1
_chemical_formula_structural   Rb7Na9(TiSe4)4
_chemical_formula_sum   'Rb7 Na9 Ti4 Se16'
_cell_volume   1168.28127074
_cell_formula_units_Z   1
loop_
 _symmetry_equiv_pos_site_id
 _symmetry_equiv_pos_as_xyz
  1  'x, y, z'
loop_
 _atom_site_type_symbol
 _atom_site_label
 _atom_site_symmetry_multiplicity
 _atom_site_fract_x
 _atom_site_fract_y
 _atom_site_fract_z
 _atom_site_occupancy
  Rb  Rb0  1  0.005178  0.996336  0.000313  1
  Rb  Rb1  1  0.499381  0.000206  0.500295  1
  Rb  Rb2  1  0.005178  0.503664  0.000313  1
  Rb  Rb3  1  0.499381  0.499794  0.500295  1
  Rb  Rb4  1  0.995608  0.750000  0.436548  1
  Rb  Rb5  1  0.500575  0.250000  0.065279  1
  Rb  Rb6  1  0.002573  0.250000  0.566555  1
  Na  Na7  1  0.545149  0.750000  0.940206  1
  Na  Na8  1  0.831991  0.058730  0.255267  1
  Na  Na9  1  0.332262  0.938321  0.239450  1
  Na  Na10  1  0.164988  0.562442  0.745332  1
  Na  Na11  1  0.670316  0.439237  0.761816  1
  Na  Na12  1  0.164988  0.937558  0.745332  1
  Na  Na13  1  0.670316  0.060763  0.761816  1
  Na  Na14  1  0.831991  0.441270  0.255267  1
  Na  Na15  1  0.332262  0.561679  0.239450  1
  Ti  Ti16  1  0.763507  0.750000  0.688900  1
  Ti  Ti17  1  0.222936  0.250000  0.311488  1
  Ti  Ti18  1  0.719657  0.750000  0.182455  1
  Ti  Ti19  1  0.284778  0.250000  0.816483  1
  Se  Se20  1  0.965450  0.250000  0.816196  1
  Se  Se21  1  0.542887  0.250000  0.312343  1
  Se  Se22  1  0.445062  0.750000  0.679183  1
  Se  Se23  1  0.039037  0.750000  0.184069  1
  Se  Se24  1  0.613780  0.560416  0.105959  1
  Se  Se25  1  0.119319  0.442703  0.385285  1
  Se  Se26  1  0.386014  0.051158  0.888095  1
  Se  Se27  1  0.876372  0.941709  0.617051  1
  Se  Se28  1  0.386014  0.448842  0.888095  1
  Se  Se29  1  0.876372  0.558291  0.617051  1
  Se  Se30  1  0.613780  0.939584  0.105959  1
  Se  Se31  1  0.119319  0.057297  0.385285  1
  Se  Se32  1  0.592776  0.750000  0.328239  1
  Se  Se33  1  0.092418  0.250000  0.166131  1
  Se  Se34  1  0.408905  0.250000  0.670549  1
  Se  Se35  1  0.879484  0.750000  0.837649  1
