# generated using pymatgen
data_Hf18Ta3Ni2Os5
_symmetry_space_group_name_H-M   'P 1'
_cell_length_a   8.48332400
_cell_length_b   8.66927601
_cell_length_c   8.69398400
_cell_angle_alpha   119.90462927
_cell_angle_beta   90.00000000
_cell_angle_gamma   90.00000000
_symmetry_Int_Tables_number   1
_chemical_formula_structural   Hf18Ta3Ni2Os5
_chemical_formula_sum   'Hf18 Ta3 Ni2 Os5'
_cell_volume   554.26175924
_cell_formula_units_Z   1
loop_
 _symmetry_equiv_pos_site_id
 _symmetry_equiv_pos_as_xyz
  1  'x, y, z'
loop_
 _atom_site_type_symbol
 _atom_site_label
 _atom_site_symmetry_multiplicity
 _atom_site_fract_x
 _atom_site_fract_y
 _atom_site_fract_z
 _atom_site_occupancy
  Hf  Hf0  1  0.557671  0.800420  0.600837  1
  Hf  Hf1  1  0.554548  0.800745  0.200304  1
  Hf  Hf2  1  0.554546  0.399542  0.200286  1
  Hf  Hf3  1  0.442169  0.199413  0.398835  1
  Hf  Hf4  1  0.442203  0.198965  0.800947  1
  Hf  Hf5  1  0.442204  0.602003  0.800975  1
  Hf  Hf6  1  0.057831  0.199413  0.398835  1
  Hf  Hf7  1  0.057797  0.198965  0.800947  1
  Hf  Hf8  1  0.057796  0.602003  0.800975  1
  Hf  Hf9  1  0.942329  0.800420  0.600837  1
  Hf  Hf10  1  0.945452  0.800745  0.200304  1
  Hf  Hf11  1  0.945454  0.399542  0.200286  1
  Hf  Hf12  1  0.750000  0.458504  0.916991  1
  Hf  Hf13  1  0.750000  0.459576  0.542554  1
  Hf  Hf14  1  0.750000  0.082967  0.542547  1
  Hf  Hf15  1  0.250000  0.541543  0.083106  1
  Hf  Hf16  1  0.250000  0.543418  0.459526  1
  Hf  Hf17  1  0.250000  0.916105  0.459515  1
  Ta  Ta18  1  0.750000  0.113265  0.226539  1
  Ta  Ta19  1  0.497925  0.998244  0.996479  1
  Ta  Ta20  1  0.002075  0.998244  0.996479  1
  Ni  Ni21  1  0.750000  0.667060  0.334042  1
  Ni  Ni22  1  0.250000  0.334389  0.668853  1
  Os  Os23  1  0.750000  0.114514  0.885600  1
  Os  Os24  1  0.750000  0.771088  0.885615  1
  Os  Os25  1  0.250000  0.886825  0.773646  1
  Os  Os26  1  0.250000  0.884108  0.112074  1
  Os  Os27  1  0.250000  0.227975  0.112065  1
