# generated using pymatgen
data_TbDyMnIr3
_symmetry_space_group_name_H-M   'P 1'
_cell_length_a   5.19470795
_cell_length_b   5.19470875
_cell_length_c   5.19471000
_cell_angle_alpha   63.82937133
_cell_angle_beta   63.82936923
_cell_angle_gamma   63.82937013
_symmetry_Int_Tables_number   1
_chemical_formula_structural   TbDyMnIr3
_chemical_formula_sum   'Tb1 Dy1 Mn1 Ir3'
_cell_volume   107.49300888
_cell_formula_units_Z   1
loop_
 _symmetry_equiv_pos_site_id
 _symmetry_equiv_pos_as_xyz
  1  'x, y, z'
loop_
 _atom_site_type_symbol
 _atom_site_label
 _atom_site_symmetry_multiplicity
 _atom_site_fract_x
 _atom_site_fract_y
 _atom_site_fract_z
 _atom_site_occupancy
  Tb  Tb0  1  0.998677  0.998677  0.998677  1
  Dy  Dy1  1  0.251335  0.251335  0.251335  1
  Mn  Mn2  1  0.624978  0.624978  0.624978  1
  Ir  Ir3  1  0.624904  0.624904  0.125201  1
  Ir  Ir4  1  0.624904  0.125201  0.624904  1
  Ir  Ir5  1  0.125201  0.624904  0.624904  1
