# generated using pymatgen
data_HoBi(PS4)2
_symmetry_space_group_name_H-M   'P 1'
_cell_length_a   6.64277100
_cell_length_b   8.91482691
_cell_length_c   12.83460026
_cell_angle_alpha   59.41180429
_cell_angle_beta   90.00000000
_cell_angle_gamma   90.00000000
_symmetry_Int_Tables_number   1
_chemical_formula_structural   HoBi(PS4)2
_chemical_formula_sum   'Ho2 Bi2 P4 S16'
_cell_volume   654.29025883
_cell_formula_units_Z   2
loop_
 _symmetry_equiv_pos_site_id
 _symmetry_equiv_pos_as_xyz
  1  'x, y, z'
loop_
 _atom_site_type_symbol
 _atom_site_label
 _atom_site_symmetry_multiplicity
 _atom_site_fract_x
 _atom_site_fract_y
 _atom_site_fract_z
 _atom_site_occupancy
  Ho  Ho0  1  0.680710  0.448484  0.163554  1
  Ho  Ho1  1  0.180710  0.551516  0.336445  1
  Bi  Bi2  1  0.326747  0.566768  0.831948  1
  Bi  Bi3  1  0.826747  0.433232  0.668052  1
  P  P4  1  0.230504  0.683825  0.044518  1
  P  P5  1  0.730504  0.316175  0.455482  1
  P  P6  1  0.766765  0.311110  0.964277  1
  P  P7  1  0.266765  0.688890  0.535723  1
  S  S8  1  0.237791  0.427875  0.584980  1
  S  S9  1  0.737791  0.572125  0.915020  1
  S  S10  1  0.773903  0.573667  0.408445  1
  S  S11  1  0.273903  0.426333  0.091555  1
  S  S12  1  0.253124  0.838200  0.354655  1
  S  S13  1  0.753124  0.161800  0.145345  1
  S  S14  1  0.741570  0.154246  0.636632  1
  S  S15  1  0.241570  0.845754  0.863368  1
  S  S16  1  0.529406  0.727076  0.605911  1
  S  S17  1  0.029406  0.272924  0.894089  1
  S  S18  1  0.465550  0.286929  0.382787  1
  S  S19  1  0.965550  0.713071  0.117213  1
  S  S20  1  0.047239  0.742584  0.625800  1
  S  S21  1  0.547239  0.257416  0.874200  1
  S  S22  1  0.946692  0.265590  0.362279  1
  S  S23  1  0.446692  0.734410  0.137721  1
