# generated using pymatgen
data_Dy2Y3CoSb2
_symmetry_space_group_name_H-M   'P 1'
_cell_length_a   7.92131100
_cell_length_b   8.75358200
_cell_length_c   12.24052600
_cell_angle_alpha   90.00000000
_cell_angle_beta   90.00000000
_cell_angle_gamma   90.00000000
_symmetry_Int_Tables_number   1
_chemical_formula_structural   Dy2Y3CoSb2
_chemical_formula_sum   'Dy8 Y12 Co4 Sb8'
_cell_volume   848.75618028
_cell_formula_units_Z   4
loop_
 _symmetry_equiv_pos_site_id
 _symmetry_equiv_pos_as_xyz
  1  'x, y, z'
loop_
 _atom_site_type_symbol
 _atom_site_label
 _atom_site_symmetry_multiplicity
 _atom_site_fract_x
 _atom_site_fract_y
 _atom_site_fract_z
 _atom_site_occupancy
  Dy  Dy0  1  0.822038  0.965374  0.064816  1
  Dy  Dy1  1  0.322038  0.034626  0.435184  1
  Dy  Dy2  1  0.177962  0.465374  0.935184  1
  Dy  Dy3  1  0.677962  0.534626  0.564816  1
  Dy  Dy4  1  0.177962  0.034626  0.935184  1
  Dy  Dy5  1  0.677962  0.965374  0.564816  1
  Dy  Dy6  1  0.822038  0.534626  0.064816  1
  Dy  Dy7  1  0.322038  0.465374  0.435184  1
  Y  Y8  1  0.154843  0.750000  0.203907  1
  Y  Y9  1  0.654843  0.250000  0.296093  1
  Y  Y10  1  0.845157  0.250000  0.796093  1
  Y  Y11  1  0.345157  0.750000  0.703907  1
  Y  Y12  1  0.457097  0.750000  0.998461  1
  Y  Y13  1  0.957097  0.250000  0.501539  1
  Y  Y14  1  0.542903  0.250000  0.001539  1
  Y  Y15  1  0.042903  0.750000  0.498461  1
  Y  Y16  1  0.623484  0.750000  0.304807  1
  Y  Y17  1  0.123484  0.250000  0.195193  1
  Y  Y18  1  0.376516  0.250000  0.695193  1
  Y  Y19  1  0.876516  0.750000  0.804807  1
  Co  Co20  1  0.435870  0.750000  0.490066  1
  Co  Co21  1  0.935870  0.250000  0.009934  1
  Co  Co22  1  0.564130  0.250000  0.509934  1
  Co  Co23  1  0.064130  0.750000  0.990066  1
  Sb  Sb24  1  0.928128  0.991493  0.326735  1
  Sb  Sb25  1  0.428128  0.008507  0.173265  1
  Sb  Sb26  1  0.071872  0.491493  0.673265  1
  Sb  Sb27  1  0.571872  0.508507  0.826735  1
  Sb  Sb28  1  0.071872  0.008507  0.673265  1
  Sb  Sb29  1  0.571872  0.991493  0.826735  1
  Sb  Sb30  1  0.928128  0.508507  0.326735  1
  Sb  Sb31  1  0.428128  0.491493  0.173265  1
