# generated using pymatgen
data_La6Nd14Si15Os
_symmetry_space_group_name_H-M   'P 1'
_cell_length_a   7.94764268
_cell_length_b   7.93090663
_cell_length_c   15.17043652
_cell_angle_alpha   89.95500672
_cell_angle_beta   89.66527738
_cell_angle_gamma   90.21905420
_symmetry_Int_Tables_number   1
_chemical_formula_structural   La6Nd14Si15Os
_chemical_formula_sum   'La6 Nd14 Si15 Os1'
_cell_volume   956.19951845
_cell_formula_units_Z   1
loop_
 _symmetry_equiv_pos_site_id
 _symmetry_equiv_pos_as_xyz
  1  'x, y, z'
loop_
 _atom_site_type_symbol
 _atom_site_label
 _atom_site_symmetry_multiplicity
 _atom_site_fract_x
 _atom_site_fract_y
 _atom_site_fract_z
 _atom_site_occupancy
  La  La0  1  0.629014  0.986661  0.952816  1
  La  La1  1  0.127939  0.513216  0.799446  1
  La  La2  1  0.877845  0.490347  0.306243  1
  La  La3  1  0.512022  0.126820  0.199358  1
  La  La4  1  0.491579  0.874863  0.698132  1
  La  La5  1  0.373867  0.011643  0.452280  1
  Nd  Nd6  1  0.364366  0.486438  0.377301  1
  Nd  Nd7  1  0.873985  0.013729  0.375707  1
  Nd  Nd8  1  0.982433  0.129181  0.123731  1
  Nd  Nd9  1  0.022506  0.869531  0.619772  1
  Nd  Nd10  1  0.629315  0.520000  0.874441  1
  Nd  Nd11  1  0.485955  0.372959  0.625440  1
  Nd  Nd12  1  0.514637  0.629571  0.125946  1
  Nd  Nd13  1  0.126348  0.982158  0.875909  1
  Nd  Nd14  1  0.990541  0.620413  0.053858  1
  Nd  Nd15  1  0.011579  0.379756  0.547921  1
  Nd  Nd16  1  0.702259  0.691356  0.496262  1
  Nd  Nd17  1  0.810079  0.189308  0.748632  1
  Nd  Nd18  1  0.184073  0.803501  0.258170  1
  Nd  Nd19  1  0.304675  0.306237  0.998769  1
  Si  Si20  1  0.921878  0.290290  0.938795  1
  Si  Si21  1  0.711595  0.079723  0.560736  1
  Si  Si22  1  0.216239  0.420649  0.189258  1
  Si  Si23  1  0.790180  0.577174  0.689424  1
  Si  Si24  1  0.424221  0.213288  0.809983  1
  Si  Si25  1  0.575030  0.789299  0.308827  1
  Si  Si26  1  0.285750  0.922979  0.061109  1
  Si  Si27  1  0.834826  0.804037  0.798083  1
  Si  Si28  1  0.168805  0.196517  0.298036  1
  Si  Si29  1  0.798554  0.835728  0.197336  1
  Si  Si30  1  0.301111  0.664829  0.549240  1
  Si  Si31  1  0.697962  0.336852  0.048730  1
  Si  Si32  1  0.663175  0.300951  0.451373  1
  Si  Si33  1  0.328855  0.694858  0.952956  1
  Si  Si34  1  0.199921  0.168567  0.699444  1
  Os  Os35  1  0.066881  0.706574  0.436541  1
