# generated using pymatgen
data_Pu3Ti(PN3)4
_symmetry_space_group_name_H-M   'P 1'
_cell_length_a   6.76926246
_cell_length_b   6.76926250
_cell_length_c   5.34715721
_cell_angle_alpha   78.79188967
_cell_angle_beta   78.79189452
_cell_angle_gamma   85.71714566
_symmetry_Int_Tables_number   1
_chemical_formula_structural   Pu3Ti(PN3)4
_chemical_formula_sum   'Pu3 Ti1 P4 N12'
_cell_volume   235.59173704
_cell_formula_units_Z   1
loop_
 _symmetry_equiv_pos_site_id
 _symmetry_equiv_pos_as_xyz
  1  'x, y, z'
loop_
 _atom_site_type_symbol
 _atom_site_label
 _atom_site_symmetry_multiplicity
 _atom_site_fract_x
 _atom_site_fract_y
 _atom_site_fract_z
 _atom_site_occupancy
  Pu  Pu0  1  0.676379  0.323621  0.750000  1
  Pu  Pu1  1  0.910494  0.089506  0.250000  1
  Pu  Pu2  1  0.318192  0.681808  0.250000  1
  Ti  Ti3  1  0.120062  0.879938  0.750000  1
  P  P4  1  0.196646  0.377143  0.769318  1
  P  P5  1  0.374784  0.201379  0.274485  1
  P  P6  1  0.798621  0.625216  0.225515  1
  P  P7  1  0.622857  0.803354  0.730682  1
  N  N8  1  0.314174  0.371553  0.020363  1
  N  N9  1  0.022244  0.211973  0.839699  1
  N  N10  1  0.984951  0.779743  0.129438  1
  N  N11  1  0.371851  0.331799  0.512130  1
  N  N12  1  0.604427  0.137401  0.163691  1
  N  N13  1  0.388437  0.871652  0.825982  1
  N  N14  1  0.862599  0.395573  0.336309  1
  N  N15  1  0.668201  0.628149  0.987870  1
  N  N16  1  0.788027  0.977756  0.660301  1
  N  N17  1  0.128348  0.611563  0.674018  1
  N  N18  1  0.220257  0.015049  0.370562  1
  N  N19  1  0.628447  0.685826  0.479637  1
