# generated using pymatgen
data_SrErF5
_symmetry_space_group_name_H-M   'P 1'
_cell_length_a   8.16746495
_cell_length_b   8.16746532
_cell_length_c   5.74651284
_cell_angle_alpha   89.13112765
_cell_angle_beta   89.13112960
_cell_angle_gamma   149.40140616
_symmetry_Int_Tables_number   1
_chemical_formula_structural   SrErF5
_chemical_formula_sum   'Sr2 Er2 F10'
_cell_volume   194.80301552
_cell_formula_units_Z   2
loop_
 _symmetry_equiv_pos_site_id
 _symmetry_equiv_pos_as_xyz
  1  'x, y, z'
loop_
 _atom_site_type_symbol
 _atom_site_label
 _atom_site_symmetry_multiplicity
 _atom_site_fract_x
 _atom_site_fract_y
 _atom_site_fract_z
 _atom_site_occupancy
  Sr  Sr0  1  0.323772  0.676228  0.750000  1
  Sr  Sr1  1  0.676228  0.323772  0.250000  1
  Er  Er2  1  0.075349  0.924651  0.750000  1
  Er  Er3  1  0.924651  0.075349  0.250000  1
  F  F4  1  0.730633  0.807135  0.602625  1
  F  F5  1  0.807135  0.730633  0.102625  1
  F  F6  1  0.803867  0.181343  0.005054  1
  F  F7  1  0.621108  0.378892  0.750000  1
  F  F8  1  0.818657  0.196133  0.494946  1
  F  F9  1  0.181343  0.803867  0.505054  1
  F  F10  1  0.378892  0.621108  0.250000  1
  F  F11  1  0.196133  0.818657  0.994946  1
  F  F12  1  0.192865  0.269367  0.897375  1
  F  F13  1  0.269367  0.192865  0.397375  1
