# generated using pymatgen
data_Sc3UGe6Ru7
_symmetry_space_group_name_H-M   'P 1'
_cell_length_a   7.10170280
_cell_length_b   7.10170303
_cell_length_c   7.12739800
_cell_angle_alpha   109.54453606
_cell_angle_beta   109.54453673
_cell_angle_gamma   109.39780851
_symmetry_Int_Tables_number   1
_chemical_formula_structural   Sc3UGe6Ru7
_chemical_formula_sum   'Sc3 U1 Ge6 Ru7'
_cell_volume   276.46512125
_cell_formula_units_Z   1
loop_
 _symmetry_equiv_pos_site_id
 _symmetry_equiv_pos_as_xyz
  1  'x, y, z'
loop_
 _atom_site_type_symbol
 _atom_site_label
 _atom_site_symmetry_multiplicity
 _atom_site_fract_x
 _atom_site_fract_y
 _atom_site_fract_z
 _atom_site_occupancy
  Sc  Sc0  1  0.000000  0.500000  0.000000  1
  Sc  Sc1  1  0.500000  0.000000  0.000000  1
  Sc  Sc2  1  0.500000  0.500000  0.500000  1
  U  U3  1  0.000000  0.000000  0.500000  1
  Ge  Ge4  1  0.686367  0.686367  0.991082  1
  Ge  Ge5  1  0.313633  0.000000  0.304715  1
  Ge  Ge6  1  0.000000  0.313633  0.304715  1
  Ge  Ge7  1  0.313633  0.313633  0.008918  1
  Ge  Ge8  1  0.686366  0.000000  0.695285  1
  Ge  Ge9  1  0.000000  0.686367  0.695285  1
  Ru  Ru10  1  0.754162  0.245838  0.500000  1
  Ru  Ru11  1  0.754162  0.508325  0.254162  1
  Ru  Ru12  1  0.491675  0.245838  0.745838  1
  Ru  Ru13  1  0.245838  0.491675  0.745838  1
  Ru  Ru14  1  0.245838  0.754162  0.500000  1
  Ru  Ru15  1  0.508325  0.754162  0.254162  1
  Ru  Ru16  1  0.000000  0.000000  0.000000  1
