# generated using pymatgen
data_Nb12Ni8Sn3MoN4
_symmetry_space_group_name_H-M   'P 1'
_cell_length_a   8.30337929
_cell_length_b   8.20828187
_cell_length_c   8.20828200
_cell_angle_alpha   59.99999948
_cell_angle_beta   60.37813928
_cell_angle_gamma   60.37813959
_symmetry_Int_Tables_number   1
_chemical_formula_structural   Nb12Ni8Sn3MoN4
_chemical_formula_sum   'Nb12 Ni8 Sn3 Mo1 N4'
_cell_volume   397.83514561
_cell_formula_units_Z   1
loop_
 _symmetry_equiv_pos_site_id
 _symmetry_equiv_pos_as_xyz
  1  'x, y, z'
loop_
 _atom_site_type_symbol
 _atom_site_label
 _atom_site_symmetry_multiplicity
 _atom_site_fract_x
 _atom_site_fract_y
 _atom_site_fract_z
 _atom_site_occupancy
  Nb  Nb0  1  0.319619  0.681383  0.681383  1
  Nb  Nb1  1  0.572485  0.559475  0.934020  1
  Nb  Nb2  1  0.319619  0.681383  0.317614  1
  Nb  Nb3  1  0.319619  0.317614  0.681383  1
  Nb  Nb4  1  0.677515  0.315980  0.315980  1
  Nb  Nb5  1  0.930381  0.932386  0.568617  1
  Nb  Nb6  1  0.930381  0.568617  0.932386  1
  Nb  Nb7  1  0.930381  0.568617  0.568617  1
  Nb  Nb8  1  0.572485  0.934020  0.934020  1
  Nb  Nb9  1  0.677515  0.690525  0.315980  1
  Nb  Nb10  1  0.677515  0.315980  0.690525  1
  Nb  Nb11  1  0.572485  0.934020  0.559475  1
  Ni  Ni12  1  0.983977  0.338675  0.338675  1
  Ni  Ni13  1  0.908546  0.921239  0.921239  1
  Ni  Ni14  1  0.341454  0.328761  0.001026  1
  Ni  Ni15  1  0.908546  0.921239  0.248974  1
  Ni  Ni16  1  0.266023  0.911325  0.911325  1
  Ni  Ni17  1  0.341454  0.001026  0.328761  1
  Ni  Ni18  1  0.908546  0.248974  0.921239  1
  Ni  Ni19  1  0.341454  0.328761  0.328761  1
  Sn  Sn20  1  0.125000  0.125000  0.625000  1
  Sn  Sn21  1  0.125000  0.125000  0.125000  1
  Sn  Sn22  1  0.125000  0.625000  0.125000  1
  Mo  Mo23  1  0.625000  0.125000  0.125000  1
  N  N24  1  0.625000  0.125000  0.625000  1
  N  N25  1  0.625000  0.625000  0.125000  1
  N  N26  1  0.125000  0.625000  0.625000  1
  N  N27  1  0.625000  0.625000  0.625000  1
