# generated using pymatgen
data_Y4MoOs7
_symmetry_space_group_name_H-M   'P 1'
_cell_length_a   5.31542395
_cell_length_b   5.31542384
_cell_length_c   8.88608800
_cell_angle_alpha   90.00000000
_cell_angle_beta   90.00000000
_cell_angle_gamma   118.26542128
_symmetry_Int_Tables_number   1
_chemical_formula_structural   Y4MoOs7
_chemical_formula_sum   'Y4 Mo1 Os7'
_cell_volume   221.12896549
_cell_formula_units_Z   1
loop_
 _symmetry_equiv_pos_site_id
 _symmetry_equiv_pos_as_xyz
  1  'x, y, z'
loop_
 _atom_site_type_symbol
 _atom_site_label
 _atom_site_symmetry_multiplicity
 _atom_site_fract_x
 _atom_site_fract_y
 _atom_site_fract_z
 _atom_site_occupancy
  Y  Y0  1  0.329989  0.670011  0.437571  1
  Y  Y1  1  0.665958  0.334042  0.565889  1
  Y  Y2  1  0.665958  0.334042  0.934111  1
  Y  Y3  1  0.329989  0.670011  0.062429  1
  Mo  Mo4  1  0.833764  0.166236  0.250000  1
  Os  Os5  1  0.993491  0.006509  0.501962  1
  Os  Os6  1  0.993491  0.006509  0.998038  1
  Os  Os7  1  0.826276  0.652584  0.250000  1
  Os  Os8  1  0.347416  0.173724  0.250000  1
  Os  Os9  1  0.178777  0.821223  0.750000  1
  Os  Os10  1  0.171894  0.337003  0.750000  1
  Os  Os11  1  0.662997  0.828106  0.750000  1
