# generated using pymatgen
data_YHo9(Sn3P)2
_symmetry_space_group_name_H-M   'P 1'
_cell_length_a   9.04011800
_cell_length_b   9.04011987
_cell_length_c   6.65810600
_cell_angle_alpha   90.00000000
_cell_angle_beta   90.00000000
_cell_angle_gamma   119.99999316
_symmetry_Int_Tables_number   1
_chemical_formula_structural   YHo9(Sn3P)2
_chemical_formula_sum   'Y1 Ho9 Sn6 P2'
_cell_volume   471.22644530
_cell_formula_units_Z   1
loop_
 _symmetry_equiv_pos_site_id
 _symmetry_equiv_pos_as_xyz
  1  'x, y, z'
loop_
 _atom_site_type_symbol
 _atom_site_label
 _atom_site_symmetry_multiplicity
 _atom_site_fract_x
 _atom_site_fract_y
 _atom_site_fract_z
 _atom_site_occupancy
  Y  Y0  1  0.666667  0.333333  0.000000  1
  Ho  Ho1  1  0.333333  0.666667  0.000000  1
  Ho  Ho2  1  0.333333  0.666667  0.500000  1
  Ho  Ho3  1  0.666667  0.333333  0.500000  1
  Ho  Ho4  1  0.758161  0.758199  0.749946  1
  Ho  Ho5  1  0.241801  0.999962  0.749946  1
  Ho  Ho6  1  0.000038  0.241839  0.749946  1
  Ho  Ho7  1  0.241801  0.241839  0.250054  1
  Ho  Ho8  1  0.758161  0.999962  0.250054  1
  Ho  Ho9  1  0.000038  0.758199  0.250054  1
  Sn  Sn10  1  0.397447  0.397637  0.749802  1
  Sn  Sn11  1  0.602363  0.999811  0.749802  1
  Sn  Sn12  1  0.000189  0.602553  0.749802  1
  Sn  Sn13  1  0.602363  0.602553  0.250198  1
  Sn  Sn14  1  0.397447  0.999811  0.250198  1
  Sn  Sn15  1  0.000189  0.397637  0.250198  1
  P  P16  1  0.000000  0.000000  0.000000  1
  P  P17  1  0.000000  0.000000  0.500000  1
