# generated using pymatgen
data_Ca3La17Si15Rh
_symmetry_space_group_name_H-M   'P 1'
_cell_length_a   7.92036104
_cell_length_b   7.92182538
_cell_length_c   15.21303500
_cell_angle_alpha   90.03105699
_cell_angle_beta   89.83451511
_cell_angle_gamma   89.86749399
_symmetry_Int_Tables_number   1
_chemical_formula_structural   Ca3La17Si15Rh
_chemical_formula_sum   'Ca3 La17 Si15 Rh1'
_cell_volume   954.51568592
_cell_formula_units_Z   1
loop_
 _symmetry_equiv_pos_site_id
 _symmetry_equiv_pos_as_xyz
  1  'x, y, z'
loop_
 _atom_site_type_symbol
 _atom_site_label
 _atom_site_symmetry_multiplicity
 _atom_site_fract_x
 _atom_site_fract_y
 _atom_site_fract_z
 _atom_site_occupancy
  Ca  Ca0  1  0.310248  0.308140  0.999580  1
  Ca  Ca1  1  0.189411  0.809342  0.250511  1
  Ca  Ca2  1  0.809263  0.191336  0.749132  1
  La  La3  1  0.697724  0.691320  0.500510  1
  La  La4  1  0.373431  0.010493  0.448713  1
  La  La5  1  0.489211  0.875779  0.700125  1
  La  La6  1  0.509183  0.123469  0.199107  1
  La  La7  1  0.874020  0.489136  0.298189  1
  La  La8  1  0.125684  0.503110  0.798608  1
  La  La9  1  0.627546  0.987252  0.950221  1
  La  La10  1  0.002862  0.377909  0.552149  1
  La  La11  1  0.988324  0.625792  0.049303  1
  La  La12  1  0.130885  0.989532  0.871644  1
  La  La13  1  0.514510  0.626782  0.126115  1
  La  La14  1  0.470203  0.364375  0.631209  1
  La  La15  1  0.627543  0.514597  0.874501  1
  La  La16  1  0.375394  0.481598  0.373222  1
  La  La17  1  0.873000  0.019221  0.377132  1
  La  La18  1  0.983691  0.124916  0.123713  1
  La  La19  1  0.029639  0.887017  0.627012  1
  Si  Si20  1  0.330601  0.698053  0.950206  1
  Si  Si21  1  0.664177  0.301759  0.454198  1
  Si  Si22  1  0.702054  0.334025  0.050000  1
  Si  Si23  1  0.304449  0.669605  0.546443  1
  Si  Si24  1  0.798498  0.834403  0.201044  1
  Si  Si25  1  0.165158  0.200806  0.296891  1
  Si  Si26  1  0.837128  0.797238  0.799874  1
  Si  Si27  1  0.285702  0.918409  0.058115  1
  Si  Si28  1  0.579681  0.788173  0.309365  1
  Si  Si29  1  0.427579  0.205366  0.815461  1
  Si  Si30  1  0.786127  0.582541  0.690619  1
  Si  Si31  1  0.211372  0.419977  0.189007  1
  Si  Si32  1  0.703495  0.075950  0.560886  1
  Si  Si33  1  0.920883  0.287766  0.941276  1
  Si  Si34  1  0.081464  0.714032  0.440231  1
  Rh  Rh35  1  0.199856  0.170777  0.695687  1
