# generated using pymatgen
data_BaReF8
_symmetry_space_group_name_H-M   'P 1'
_cell_length_a   7.40622800
_cell_length_b   7.40622800
_cell_length_c   5.03385900
_cell_angle_alpha   90.00000000
_cell_angle_beta   90.00000000
_cell_angle_gamma   90.00000000
_symmetry_Int_Tables_number   1
_chemical_formula_structural   BaReF8
_chemical_formula_sum   'Ba2 Re2 F16'
_cell_volume   276.11830703
_cell_formula_units_Z   2
loop_
 _symmetry_equiv_pos_site_id
 _symmetry_equiv_pos_as_xyz
  1  'x, y, z'
loop_
 _atom_site_type_symbol
 _atom_site_label
 _atom_site_symmetry_multiplicity
 _atom_site_fract_x
 _atom_site_fract_y
 _atom_site_fract_z
 _atom_site_occupancy
  Ba  Ba0  1  0.249999  0.750000  0.500001  1
  Ba  Ba1  1  0.750000  0.249999  0.500001  1
  Re  Re2  1  0.249999  0.249999  0.104898  1
  Re  Re3  1  0.750000  0.750000  0.895101  1
  F  F4  1  0.092041  0.092041  0.322236  1
  F  F5  1  0.407960  0.407960  0.322236  1
  F  F6  1  0.592042  0.907959  0.677766  1
  F  F7  1  0.907959  0.592042  0.677766  1
  F  F8  1  0.907959  0.907959  0.677766  1
  F  F9  1  0.592042  0.592042  0.677766  1
  F  F10  1  0.092041  0.407960  0.322236  1
  F  F11  1  0.407960  0.092041  0.322236  1
  F  F12  1  0.023286  0.249999  0.906621  1
  F  F13  1  0.476714  0.249999  0.906621  1
  F  F14  1  0.523285  0.750000  0.093379  1
  F  F15  1  0.976714  0.750000  0.093379  1
  F  F16  1  0.750000  0.976714  0.093379  1
  F  F17  1  0.750000  0.523285  0.093379  1
  F  F18  1  0.249999  0.476714  0.906621  1
  F  F19  1  0.249999  0.023286  0.906621  1
