# generated using pymatgen
data_Zr3GaPd2N
_symmetry_space_group_name_H-M   'P 1'
_cell_length_a   8.65020501
_cell_length_b   8.65020538
_cell_length_c   8.65020500
_cell_angle_alpha   59.99999763
_cell_angle_beta   59.99999621
_cell_angle_gamma   59.99999890
_symmetry_Int_Tables_number   1
_chemical_formula_structural   Zr3GaPd2N
_chemical_formula_sum   'Zr12 Ga4 Pd8 N4'
_cell_volume   457.68238464
_cell_formula_units_Z   4
loop_
 _symmetry_equiv_pos_site_id
 _symmetry_equiv_pos_as_xyz
  1  'x, y, z'
loop_
 _atom_site_type_symbol
 _atom_site_label
 _atom_site_symmetry_multiplicity
 _atom_site_fract_x
 _atom_site_fract_y
 _atom_site_fract_z
 _atom_site_occupancy
  Zr  Zr0  1  0.811416  0.811416  0.188584  1
  Zr  Zr1  1  0.188584  0.188584  0.811416  1
  Zr  Zr2  1  0.811416  0.188584  0.811416  1
  Zr  Zr3  1  0.188584  0.811416  0.188584  1
  Zr  Zr4  1  0.188584  0.811416  0.811416  1
  Zr  Zr5  1  0.811416  0.188584  0.188584  1
  Zr  Zr6  1  0.438584  0.438584  0.061416  1
  Zr  Zr7  1  0.061416  0.061416  0.438584  1
  Zr  Zr8  1  0.438584  0.061416  0.438584  1
  Zr  Zr9  1  0.061416  0.438584  0.061416  1
  Zr  Zr10  1  0.061416  0.438584  0.438584  1
  Zr  Zr11  1  0.438584  0.061416  0.061416  1
  Ga  Ga12  1  0.125000  0.625000  0.625000  1
  Ga  Ga13  1  0.625000  0.125000  0.625000  1
  Ga  Ga14  1  0.625000  0.625000  0.125000  1
  Ga  Ga15  1  0.625000  0.625000  0.625000  1
  Pd  Pd16  1  0.761729  0.412757  0.412757  1
  Pd  Pd17  1  0.412757  0.761729  0.412757  1
  Pd  Pd18  1  0.412757  0.412757  0.761729  1
  Pd  Pd19  1  0.412757  0.412757  0.412757  1
  Pd  Pd20  1  0.488271  0.837243  0.837243  1
  Pd  Pd21  1  0.837243  0.488271  0.837243  1
  Pd  Pd22  1  0.837243  0.837243  0.488271  1
  Pd  Pd23  1  0.837243  0.837243  0.837243  1
  N  N24  1  0.625000  0.125000  0.125000  1
  N  N25  1  0.125000  0.625000  0.125000  1
  N  N26  1  0.125000  0.125000  0.625000  1
  N  N27  1  0.125000  0.125000  0.125000  1
