# generated using pymatgen
data_Li4Y3Tm(Co4P3)4
_symmetry_space_group_name_H-M   'P 1'
_cell_length_a   3.69371400
_cell_length_b   10.27021511
_cell_length_c   11.92388329
_cell_angle_alpha   90.05328970
_cell_angle_beta   90.00000000
_cell_angle_gamma   90.00000000
_symmetry_Int_Tables_number   1
_chemical_formula_structural   Li4Y3Tm(Co4P3)4
_chemical_formula_sum   'Li4 Y3 Tm1 Co16 P12'
_cell_volume   452.33514691
_cell_formula_units_Z   1
loop_
 _symmetry_equiv_pos_site_id
 _symmetry_equiv_pos_as_xyz
  1  'x, y, z'
loop_
 _atom_site_type_symbol
 _atom_site_label
 _atom_site_symmetry_multiplicity
 _atom_site_fract_x
 _atom_site_fract_y
 _atom_site_fract_z
 _atom_site_occupancy
  Li  Li0  1  0.250000  0.797226  0.492611  1
  Li  Li1  1  0.750000  0.202652  0.507170  1
  Li  Li2  1  0.750000  0.297077  0.007687  1
  Li  Li3  1  0.250000  0.702697  0.992914  1
  Y  Y4  1  0.750000  0.078739  0.797972  1
  Y  Y5  1  0.750000  0.421268  0.297658  1
  Y  Y6  1  0.250000  0.578762  0.702127  1
  Tm  Tm7  1  0.250000  0.921622  0.202065  1
  Co  Co8  1  0.250000  0.093750  0.985836  1
  Co  Co9  1  0.750000  0.905501  0.016377  1
  Co  Co10  1  0.750000  0.594311  0.514392  1
  Co  Co11  1  0.250000  0.405718  0.485413  1
  Co  Co12  1  0.250000  0.277883  0.672844  1
  Co  Co13  1  0.750000  0.722703  0.326739  1
  Co  Co14  1  0.750000  0.778165  0.827404  1
  Co  Co15  1  0.250000  0.221511  0.173001  1
  Co  Co16  1  0.250000  0.622083  0.199726  1
  Co  Co17  1  0.750000  0.378750  0.800305  1
  Co  Co18  1  0.750000  0.120143  0.299675  1
  Co  Co19  1  0.250000  0.878785  0.699562  1
  Co  Co20  1  0.250000  0.034391  0.431898  1
  Co  Co21  1  0.750000  0.965194  0.566520  1
  Co  Co22  1  0.750000  0.535370  0.067437  1
  Co  Co23  1  0.250000  0.465400  0.933056  1
  P  P24  1  0.250000  0.074828  0.614414  1
  P  P25  1  0.750000  0.924986  0.383956  1
  P  P26  1  0.750000  0.574967  0.885414  1
  P  P27  1  0.250000  0.425229  0.114778  1
  P  P28  1  0.250000  0.229849  0.359604  1
  P  P29  1  0.750000  0.770094  0.640242  1
  P  P30  1  0.750000  0.731743  0.140558  1
  P  P31  1  0.250000  0.269921  0.859761  1
  P  P32  1  0.250000  0.897768  0.893290  1
  P  P33  1  0.750000  0.100859  0.107553  1
  P  P34  1  0.750000  0.397906  0.606802  1
  P  P35  1  0.250000  0.602149  0.393238  1
