# generated using pymatgen
data_Ho3NbSn2(B2Ru5)2
_symmetry_space_group_name_H-M   'P 1'
_cell_length_a   9.69475921
_cell_length_b   9.69475991
_cell_length_c   3.10820500
_cell_angle_alpha   90.00000000
_cell_angle_beta   90.00000000
_cell_angle_gamma   90.93429525
_symmetry_Int_Tables_number   1
_chemical_formula_structural   Ho3NbSn2(B2Ru5)2
_chemical_formula_sum   'Ho3 Nb1 Sn2 B4 Ru10'
_cell_volume   292.09626058
_cell_formula_units_Z   1
loop_
 _symmetry_equiv_pos_site_id
 _symmetry_equiv_pos_as_xyz
  1  'x, y, z'
loop_
 _atom_site_type_symbol
 _atom_site_label
 _atom_site_symmetry_multiplicity
 _atom_site_fract_x
 _atom_site_fract_y
 _atom_site_fract_z
 _atom_site_occupancy
  Ho  Ho0  1  0.823582  0.674975  0.000000  1
  Ho  Ho1  1  0.174975  0.323582  0.000000  1
  Ho  Ho2  1  0.324824  0.824824  0.000000  1
  Nb  Nb3  1  0.673998  0.173998  0.000000  1
  Sn  Sn4  1  0.499031  0.505957  0.000000  1
  Sn  Sn5  1  0.005957  0.999031  0.000000  1
  B  B6  1  0.623961  0.883201  0.000000  1
  B  B7  1  0.383201  0.123961  0.000000  1
  B  B8  1  0.117575  0.617575  0.000000  1
  B  B9  1  0.875204  0.375204  0.000000  1
  Ru  Ru10  1  0.571544  0.728232  0.500000  1
  Ru  Ru11  1  0.445375  0.277281  0.500000  1
  Ru  Ru12  1  0.069775  0.774623  0.500000  1
  Ru  Ru13  1  0.912281  0.214499  0.500000  1
  Ru  Ru14  1  0.274623  0.569775  0.500000  1
  Ru  Ru15  1  0.714499  0.412281  0.500000  1
  Ru  Ru16  1  0.228232  0.071544  0.500000  1
  Ru  Ru17  1  0.777281  0.945375  0.500000  1
  Ru  Ru18  1  0.509356  0.009356  0.500000  1
  Ru  Ru19  1  0.994728  0.494728  0.500000  1
