# generated using pymatgen
data_LaGd5IrCl10
_symmetry_space_group_name_H-M   'P 1'
_cell_length_a   7.25807930
_cell_length_b   9.13278226
_cell_length_c   9.11402200
_cell_angle_alpha   107.20180449
_cell_angle_beta   105.52418156
_cell_angle_gamma   95.96532134
_symmetry_Int_Tables_number   1
_chemical_formula_structural   LaGd5IrCl10
_chemical_formula_sum   'La1 Gd5 Ir1 Cl10'
_cell_volume   544.94702776
_cell_formula_units_Z   1
loop_
 _symmetry_equiv_pos_site_id
 _symmetry_equiv_pos_as_xyz
  1  'x, y, z'
loop_
 _atom_site_type_symbol
 _atom_site_label
 _atom_site_symmetry_multiplicity
 _atom_site_fract_x
 _atom_site_fract_y
 _atom_site_fract_z
 _atom_site_occupancy
  La  La0  1  0.856092  0.249202  0.934987  1
  Gd  Gd1  1  0.633709  0.812297  0.859903  1
  Gd  Gd2  1  0.366681  0.190592  0.141144  1
  Gd  Gd3  1  0.037050  0.894901  0.691338  1
  Gd  Gd4  1  0.962955  0.098016  0.305472  1
  Gd  Gd5  1  0.141863  0.759308  0.061023  1
  Ir  Ir6  1  0.998665  0.002965  0.997848  1
  Cl  Cl7  1  0.663967  0.731341  0.558442  1
  Cl  Cl8  1  0.334545  0.263676  0.442108  1
  Cl  Cl9  1  0.225511  0.661139  0.763845  1
  Cl  Cl10  1  0.773272  0.336242  0.247095  1
  Cl  Cl11  1  0.446164  0.070486  0.825207  1
  Cl  Cl12  1  0.544647  0.923954  0.171291  1
  Cl  Cl13  1  0.243127  0.452082  0.076349  1
  Cl  Cl14  1  0.769517  0.563810  0.934660  1
  Cl  Cl15  1  0.084917  0.835323  0.368953  1
  Cl  Cl16  1  0.917319  0.154665  0.620333  1
