# generated using pymatgen
data_Ce2HoTlF10
_symmetry_space_group_name_H-M   'P 1'
_cell_length_a   8.52301594
_cell_length_b   8.52301523
_cell_length_c   8.66237800
_cell_angle_alpha   59.45761153
_cell_angle_beta   59.45761436
_cell_angle_gamma   61.08476876
_symmetry_Int_Tables_number   1
_chemical_formula_structural   Ce2HoTlF10
_chemical_formula_sum   'Ce4 Ho2 Tl2 F20'
_cell_volume   444.70551028
_cell_formula_units_Z   2
loop_
 _symmetry_equiv_pos_site_id
 _symmetry_equiv_pos_as_xyz
  1  'x, y, z'
loop_
 _atom_site_type_symbol
 _atom_site_label
 _atom_site_symmetry_multiplicity
 _atom_site_fract_x
 _atom_site_fract_y
 _atom_site_fract_z
 _atom_site_occupancy
  Ce  Ce0  1  0.758409  0.241591  0.241591  1
  Ce  Ce1  1  0.241591  0.758409  0.758409  1
  Ce  Ce2  1  0.241591  0.758409  0.241591  1
  Ce  Ce3  1  0.758409  0.241591  0.758409  1
  Ho  Ho4  1  0.238932  0.238932  0.761068  1
  Ho  Ho5  1  0.761068  0.761068  0.238932  1
  Tl  Tl6  1  0.250000  0.250000  0.250000  1
  Tl  Tl7  1  0.750000  0.750000  0.750000  1
  F  F8  1  0.823703  0.509639  0.490361  1
  F  F9  1  0.176297  0.490361  0.509639  1
  F  F10  1  0.509639  0.823703  0.176297  1
  F  F11  1  0.490361  0.176297  0.823703  1
  F  F12  1  0.509639  0.823703  0.490361  1
  F  F13  1  0.176297  0.490361  0.823703  1
  F  F14  1  0.490361  0.176297  0.509639  1
  F  F15  1  0.823703  0.509639  0.176297  1
  F  F16  1  0.500000  0.500000  0.839051  1
  F  F17  1  0.500000  0.500000  0.160949  1
  F  F18  1  0.160949  0.839051  0.500000  1
  F  F19  1  0.839051  0.160949  0.500000  1
  F  F20  1  0.116503  0.116503  0.099838  1
  F  F21  1  0.883497  0.883497  0.900162  1
  F  F22  1  0.116503  0.116503  0.667157  1
  F  F23  1  0.099838  0.667157  0.116503  1
  F  F24  1  0.883497  0.883497  0.332843  1
  F  F25  1  0.900162  0.332843  0.883497  1
  F  F26  1  0.667157  0.099838  0.116503  1
  F  F27  1  0.332843  0.900162  0.883497  1
