# generated using pymatgen
data_Hf6Al8Si8Ir2Ru5
_symmetry_space_group_name_H-M   'P 1'
_cell_length_a   8.57598535
_cell_length_b   8.57598410
_cell_length_c   8.58051400
_cell_angle_alpha   59.98252549
_cell_angle_beta   59.98253031
_cell_angle_gamma   59.95747284
_symmetry_Int_Tables_number   1
_chemical_formula_structural   Hf6Al8Si8Ir2Ru5
_chemical_formula_sum   'Hf6 Al8 Si8 Ir2 Ru5'
_cell_volume   445.97637975
_cell_formula_units_Z   1
loop_
 _symmetry_equiv_pos_site_id
 _symmetry_equiv_pos_as_xyz
  1  'x, y, z'
loop_
 _atom_site_type_symbol
 _atom_site_label
 _atom_site_symmetry_multiplicity
 _atom_site_fract_x
 _atom_site_fract_y
 _atom_site_fract_z
 _atom_site_occupancy
  Hf  Hf0  1  0.690065  0.309935  0.309174  1
  Hf  Hf1  1  0.309935  0.690065  0.690826  1
  Hf  Hf2  1  0.309935  0.690065  0.309174  1
  Hf  Hf3  1  0.690065  0.309935  0.690826  1
  Hf  Hf4  1  0.310851  0.310851  0.689149  1
  Hf  Hf5  1  0.689149  0.689149  0.310851  1
  Al  Al6  1  0.123226  0.123226  0.119765  1
  Al  Al7  1  0.876774  0.876774  0.880235  1
  Al  Al8  1  0.123226  0.123226  0.633783  1
  Al  Al9  1  0.122629  0.632259  0.122556  1
  Al  Al10  1  0.876774  0.876774  0.366217  1
  Al  Al11  1  0.877371  0.367741  0.877444  1
  Al  Al12  1  0.632259  0.122629  0.122556  1
  Al  Al13  1  0.367741  0.877371  0.877444  1
  Si  Si14  1  0.344572  0.344572  0.344306  1
  Si  Si15  1  0.655428  0.655428  0.655694  1
  Si  Si16  1  0.344572  0.344572  0.966550  1
  Si  Si17  1  0.347008  0.965779  0.343606  1
  Si  Si18  1  0.655428  0.655428  0.033450  1
  Si  Si19  1  0.652992  0.034221  0.656394  1
  Si  Si20  1  0.965779  0.347008  0.343606  1
  Si  Si21  1  0.034221  0.652992  0.656394  1
  Ir  Ir22  1  0.000000  0.000000  0.500000  1
  Ir  Ir23  1  0.000000  0.000000  0.000000  1
  Ru  Ru24  1  0.500000  0.000000  0.000000  1
  Ru  Ru25  1  0.000000  0.500000  0.500000  1
  Ru  Ru26  1  0.000000  0.500000  0.000000  1
  Ru  Ru27  1  0.500000  0.000000  0.500000  1
  Ru  Ru28  1  0.500000  0.500000  0.000000  1
