# generated using pymatgen
data_Y5ZnIO12
_symmetry_space_group_name_H-M   'P 1'
_cell_length_a   6.54011817
_cell_length_b   6.31382894
_cell_length_c   6.58875976
_cell_angle_alpha   99.42873879
_cell_angle_beta   99.15989177
_cell_angle_gamma   96.27012213
_symmetry_Int_Tables_number   1
_chemical_formula_structural   Y5ZnIO12
_chemical_formula_sum   'Y5 Zn1 I1 O12'
_cell_volume   262.40341224
_cell_formula_units_Z   1
loop_
 _symmetry_equiv_pos_site_id
 _symmetry_equiv_pos_as_xyz
  1  'x, y, z'
loop_
 _atom_site_type_symbol
 _atom_site_label
 _atom_site_symmetry_multiplicity
 _atom_site_fract_x
 _atom_site_fract_y
 _atom_site_fract_z
 _atom_site_occupancy
  Y  Y0  1  0.389531  0.690847  0.850910  1
  Y  Y1  1  0.864903  0.379669  0.677333  1
  Y  Y2  1  0.673123  0.850592  0.392926  1
  Y  Y3  1  0.605451  0.311532  0.134075  1
  Y  Y4  1  0.148156  0.612636  0.326594  1
  Zn  Zn5  1  0.367141  0.176465  0.591046  1
  I  I6  1  0.993325  0.993319  0.004098  1
  O  O7  1  0.194279  0.418242  0.593205  1
  O  O8  1  0.607271  0.185132  0.426067  1
  O  O9  1  0.428165  0.599255  0.176440  1
  O  O10  1  0.828049  0.561473  0.401799  1
  O  O11  1  0.391341  0.852466  0.572258  1
  O  O12  1  0.585135  0.417164  0.824189  1
  O  O13  1  0.903980  0.014900  0.718997  1
  O  O14  1  0.964362  0.293339  0.071490  1
  O  O15  1  0.281187  0.058671  0.993251  1
  O  O16  1  0.045974  0.958572  0.288450  1
  O  O17  1  0.029717  0.694543  0.925803  1
  O  O18  1  0.698909  0.931182  0.031070  1
