# generated using pymatgen
data_Y3Pa(CdNi2)2
_symmetry_space_group_name_H-M   'P 1'
_cell_length_a   7.47205804
_cell_length_b   7.47205716
_cell_length_c   3.56078900
_cell_angle_alpha   90.00000000
_cell_angle_beta   90.00000000
_cell_angle_gamma   92.42448092
_symmetry_Int_Tables_number   1
_chemical_formula_structural   Y3Pa(CdNi2)2
_chemical_formula_sum   'Y3 Pa1 Cd2 Ni4'
_cell_volume   198.62674593
_cell_formula_units_Z   1
loop_
 _symmetry_equiv_pos_site_id
 _symmetry_equiv_pos_as_xyz
  1  'x, y, z'
loop_
 _atom_site_type_symbol
 _atom_site_label
 _atom_site_symmetry_multiplicity
 _atom_site_fract_x
 _atom_site_fract_y
 _atom_site_fract_z
 _atom_site_occupancy
  Y  Y0  1  0.325984  0.825984  0.500000  1
  Y  Y1  1  0.173021  0.328940  0.500000  1
  Y  Y2  1  0.828940  0.673021  0.500000  1
  Pa  Pa3  1  0.670024  0.170024  0.500000  1
  Cd  Cd4  1  0.005739  0.997940  0.000000  1
  Cd  Cd5  1  0.497940  0.505739  0.000000  1
  Ni  Ni6  1  0.110592  0.610592  0.000000  1
  Ni  Ni7  1  0.859038  0.359038  0.000000  1
  Ni  Ni8  1  0.630362  0.898359  0.000000  1
  Ni  Ni9  1  0.398359  0.130362  0.000000  1
