# generated using pymatgen
data_La4Nd3Tm13Sn16
_symmetry_space_group_name_H-M   'P 1'
_cell_length_a   7.98491874
_cell_length_b   8.33176702
_cell_length_c   15.55053200
_cell_angle_alpha   90.06322518
_cell_angle_beta   90.64550005
_cell_angle_gamma   89.73307575
_symmetry_Int_Tables_number   1
_chemical_formula_structural   La4Nd3Tm13Sn16
_chemical_formula_sum   'La4 Nd3 Tm13 Sn16'
_cell_volume   1034.47584500
_cell_formula_units_Z   1
loop_
 _symmetry_equiv_pos_site_id
 _symmetry_equiv_pos_as_xyz
  1  'x, y, z'
loop_
 _atom_site_type_symbol
 _atom_site_label
 _atom_site_symmetry_multiplicity
 _atom_site_fract_x
 _atom_site_fract_y
 _atom_site_fract_z
 _atom_site_occupancy
  La  La0  1  0.998765  0.822472  0.902569  1
  La  La1  1  0.501526  0.323783  0.095307  1
  La  La2  1  0.000569  0.177031  0.408225  1
  La  La3  1  0.502659  0.325120  0.405599  1
  Nd  Nd4  1  0.002546  0.177961  0.095268  1
  Nd  Nd5  1  0.497992  0.677074  0.904369  1
  Nd  Nd6  1  0.995423  0.819454  0.596239  1
  Tm  Tm7  1  0.663462  0.162741  0.627566  1
  Tm  Tm8  1  0.168053  0.336943  0.873092  1
  Tm  Tm9  1  0.332856  0.836937  0.125458  1
  Tm  Tm10  1  0.838645  0.662568  0.376057  1
  Tm  Tm11  1  0.338240  0.834934  0.374081  1
  Tm  Tm12  1  0.833817  0.664361  0.125326  1
  Tm  Tm13  1  0.666377  0.162667  0.871418  1
  Tm  Tm14  1  0.162969  0.338838  0.624893  1
  Tm  Tm15  1  0.494111  0.678969  0.597214  1
  Tm  Tm16  1  0.830325  0.501422  0.747874  1
  Tm  Tm17  1  0.331520  0.999249  0.747861  1
  Tm  Tm18  1  0.170657  0.500007  0.251315  1
  Tm  Tm19  1  0.669504  0.999821  0.250303  1
  Sn  Sn20  1  0.674792  0.954548  0.460586  1
  Sn  Sn21  1  0.173339  0.540819  0.041699  1
  Sn  Sn22  1  0.327006  0.039687  0.956780  1
  Sn  Sn23  1  0.810789  0.462718  0.544639  1
  Sn  Sn24  1  0.323347  0.035015  0.543766  1
  Sn  Sn25  1  0.825432  0.458363  0.956513  1
  Sn  Sn26  1  0.675468  0.960748  0.041568  1
  Sn  Sn27  1  0.185555  0.546798  0.460831  1
  Sn  Sn28  1  0.469054  0.377992  0.750083  1
  Sn  Sn29  1  0.971885  0.126428  0.749627  1
  Sn  Sn30  1  0.532791  0.627154  0.249278  1
  Sn  Sn31  1  0.030030  0.873027  0.250944  1
  Sn  Sn32  1  0.688952  0.849896  0.747420  1
  Sn  Sn33  1  0.197502  0.645875  0.747284  1
  Sn  Sn34  1  0.304620  0.144304  0.249560  1
  Sn  Sn35  1  0.809417  0.354275  0.249388  1
