# generated using pymatgen
data_LiPr9Si5Pb
_symmetry_space_group_name_H-M   'P 1'
_cell_length_a   7.83951885
_cell_length_b   7.83951747
_cell_length_c   9.13098215
_cell_angle_alpha   115.42195632
_cell_angle_beta   115.42195578
_cell_angle_gamma   89.99999871
_symmetry_Int_Tables_number   1
_chemical_formula_structural   LiPr9Si5Pb
_chemical_formula_sum   'Li1 Pr9 Si5 Pb1'
_cell_volume   445.92377574
_cell_formula_units_Z   1
loop_
 _symmetry_equiv_pos_site_id
 _symmetry_equiv_pos_as_xyz
  1  'x, y, z'
loop_
 _atom_site_type_symbol
 _atom_site_label
 _atom_site_symmetry_multiplicity
 _atom_site_fract_x
 _atom_site_fract_y
 _atom_site_fract_z
 _atom_site_occupancy
  Li  Li0  1  0.508295  0.508295  0.016590  1
  Pr  Pr1  1  0.004186  0.004186  0.008371  1
  Pr  Pr2  1  0.960967  0.816821  0.278921  1
  Pr  Pr3  1  0.317954  0.462100  0.278921  1
  Pr  Pr4  1  0.816821  0.317954  0.278921  1
  Pr  Pr5  1  0.462100  0.960967  0.278921  1
  Pr  Pr6  1  0.051890  0.195408  0.719259  1
  Pr  Pr7  1  0.667370  0.523851  0.719259  1
  Pr  Pr8  1  0.195408  0.667370  0.719259  1
  Pr  Pr9  1  0.523851  0.051890  0.719259  1
  Si  Si10  1  0.234841  0.234841  0.469682  1
  Si  Si11  1  0.614565  0.889251  0.998097  1
  Si  Si12  1  0.383532  0.108846  0.998097  1
  Si  Si13  1  0.889251  0.383532  0.998097  1
  Si  Si14  1  0.108846  0.614565  0.998097  1
  Pb  Pb15  1  0.760123  0.760123  0.520246  1
