# generated using pymatgen
data_Yb5Hf3SiPd24
_symmetry_space_group_name_H-M   'P 1'
_cell_length_a   8.16049026
_cell_length_b   8.16048982
_cell_length_c   8.17876300
_cell_angle_alpha   90.07096248
_cell_angle_beta   89.92903752
_cell_angle_gamma   89.83332916
_symmetry_Int_Tables_number   1
_chemical_formula_structural   Yb5Hf3SiPd24
_chemical_formula_sum   'Yb5 Hf3 Si1 Pd24'
_cell_volume   544.65011060
_cell_formula_units_Z   1
loop_
 _symmetry_equiv_pos_site_id
 _symmetry_equiv_pos_as_xyz
  1  'x, y, z'
loop_
 _atom_site_type_symbol
 _atom_site_label
 _atom_site_symmetry_multiplicity
 _atom_site_fract_x
 _atom_site_fract_y
 _atom_site_fract_z
 _atom_site_occupancy
  Yb  Yb0  1  0.251639  0.251352  0.251978  1
  Yb  Yb1  1  0.748381  0.747742  0.748127  1
  Yb  Yb2  1  0.748648  0.748361  0.251978  1
  Yb  Yb3  1  0.747791  0.252209  0.748195  1
  Yb  Yb4  1  0.252258  0.251619  0.748127  1
  Hf  Hf5  1  0.254978  0.745022  0.254648  1
  Hf  Hf6  1  0.255561  0.744439  0.745390  1
  Hf  Hf7  1  0.744876  0.255124  0.255692  1
  Si  Si8  1  0.997026  0.002974  0.997166  1
  Pd  Pd9  1  0.256646  0.505953  0.001653  1
  Pd  Pd10  1  0.743435  0.498044  0.006215  1
  Pd  Pd11  1  0.996217  0.256253  0.495519  1
  Pd  Pd12  1  0.501956  0.256565  0.006215  1
  Pd  Pd13  1  0.008724  0.743571  0.498474  1
  Pd  Pd14  1  0.494047  0.743354  0.001653  1
  Pd  Pd15  1  0.498275  0.998428  0.256632  1
  Pd  Pd16  1  0.256429  0.991276  0.498474  1
  Pd  Pd17  1  0.495597  0.994150  0.743570  1
  Pd  Pd18  1  0.743747  0.003783  0.495519  1
  Pd  Pd19  1  0.001572  0.501725  0.256632  1
  Pd  Pd20  1  0.005850  0.504403  0.743570  1
  Pd  Pd21  1  0.252142  0.505753  0.498572  1
  Pd  Pd22  1  0.748679  0.497502  0.495339  1
  Pd  Pd23  1  0.502498  0.251321  0.495339  1
  Pd  Pd24  1  0.494247  0.747858  0.498572  1
  Pd  Pd25  1  0.498707  0.501293  0.251895  1
  Pd  Pd26  1  0.495705  0.504295  0.749008  1
  Pd  Pd27  1  0.277265  0.993517  0.000682  1
  Pd  Pd28  1  0.718645  0.002758  0.003928  1
  Pd  Pd29  1  0.997242  0.281355  0.003928  1
  Pd  Pd30  1  0.006483  0.722735  0.000682  1
  Pd  Pd31  1  0.000825  0.999175  0.277518  1
  Pd  Pd32  1  0.003906  0.996094  0.719108  1
