# generated using pymatgen
data_Er3CdIn3NiIr
_symmetry_space_group_name_H-M   'P 1'
_cell_length_a   7.83153500
_cell_length_b   7.83153452
_cell_length_c   3.70432300
_cell_angle_alpha   90.00000000
_cell_angle_beta   90.00000000
_cell_angle_gamma   119.99999779
_symmetry_Int_Tables_number   1
_chemical_formula_structural   Er3CdIn3NiIr
_chemical_formula_sum   'Er3 Cd1 In3 Ni1 Ir1'
_cell_volume   196.75838515
_cell_formula_units_Z   1
loop_
 _symmetry_equiv_pos_site_id
 _symmetry_equiv_pos_as_xyz
  1  'x, y, z'
loop_
 _atom_site_type_symbol
 _atom_site_label
 _atom_site_symmetry_multiplicity
 _atom_site_fract_x
 _atom_site_fract_y
 _atom_site_fract_z
 _atom_site_occupancy
  Er  Er0  1  0.033074  0.613309  0.500000  1
  Er  Er1  1  0.386691  0.419765  0.500000  1
  Er  Er2  1  0.580235  0.966926  0.500000  1
  Cd  Cd3  1  0.666667  0.333333  0.000000  1
  In  In4  1  0.251737  0.003704  0.000000  1
  In  In5  1  0.751967  0.748263  0.000000  1
  In  In6  1  0.996296  0.248033  0.000000  1
  Ni  Ni7  1  0.000000  0.000000  0.500000  1
  Ir  Ir8  1  0.333333  0.666667  0.000000  1
