# generated using pymatgen
data_Ho8InGaPd23
_symmetry_space_group_name_H-M   'P 1'
_cell_length_a   8.44151700
_cell_length_b   8.43227700
_cell_length_c   8.23962900
_cell_angle_alpha   90.00000000
_cell_angle_beta   90.00000000
_cell_angle_gamma   90.00000000
_symmetry_Int_Tables_number   1
_chemical_formula_structural   Ho8InGaPd23
_chemical_formula_sum   'Ho8 In1 Ga1 Pd23'
_cell_volume   586.50675924
_cell_formula_units_Z   1
loop_
 _symmetry_equiv_pos_site_id
 _symmetry_equiv_pos_as_xyz
  1  'x, y, z'
loop_
 _atom_site_type_symbol
 _atom_site_label
 _atom_site_symmetry_multiplicity
 _atom_site_fract_x
 _atom_site_fract_y
 _atom_site_fract_z
 _atom_site_occupancy
  Ho  Ho0  1  0.266084  0.240765  0.748578  1
  Ho  Ho1  1  0.252564  0.746287  0.252652  1
  Ho  Ho2  1  0.747436  0.253713  0.252652  1
  Ho  Ho3  1  0.733916  0.759235  0.748578  1
  Ho  Ho4  1  0.747436  0.746287  0.252652  1
  Ho  Ho5  1  0.733916  0.240765  0.748578  1
  Ho  Ho6  1  0.266084  0.759235  0.748578  1
  Ho  Ho7  1  0.252564  0.253713  0.252652  1
  In  In8  1  0.000000  0.500000  0.732616  1
  Ga  Ga9  1  0.000000  0.000000  0.001098  1
  Pd  Pd10  1  0.500000  0.500000  0.747622  1
  Pd  Pd11  1  0.500000  0.253283  0.496616  1
  Pd  Pd12  1  0.255311  0.500000  0.504809  1
  Pd  Pd13  1  0.500000  0.500000  0.252643  1
  Pd  Pd14  1  0.500000  0.746717  0.496616  1
  Pd  Pd15  1  0.744689  0.500000  0.504809  1
  Pd  Pd16  1  0.000000  0.000000  0.708736  1
  Pd  Pd17  1  0.000000  0.288938  0.992868  1
  Pd  Pd18  1  0.288370  0.000000  0.004204  1
  Pd  Pd19  1  0.000000  0.000000  0.293269  1
  Pd  Pd20  1  0.000000  0.711062  0.992868  1
  Pd  Pd21  1  0.711630  0.000000  0.004204  1
  Pd  Pd22  1  0.500000  0.258667  0.003806  1
  Pd  Pd23  1  0.259654  0.000000  0.497336  1
  Pd  Pd24  1  0.000000  0.258140  0.504578  1
  Pd  Pd25  1  0.500000  0.000000  0.740364  1
  Pd  Pd26  1  0.259406  0.500000  0.995525  1
  Pd  Pd27  1  0.000000  0.500000  0.259049  1
  Pd  Pd28  1  0.500000  0.741333  0.003806  1
  Pd  Pd29  1  0.000000  0.741860  0.504578  1
  Pd  Pd30  1  0.500000  0.000000  0.260200  1
  Pd  Pd31  1  0.740346  0.000000  0.497336  1
  Pd  Pd32  1  0.740594  0.500000  0.995525  1
