# generated using pymatgen
data_DyTm3Co8(PRu)12
_symmetry_space_group_name_H-M   'P 1'
_cell_length_a   3.77676200
_cell_length_b   10.60833206
_cell_length_c   12.07826607
_cell_angle_alpha   90.01207642
_cell_angle_beta   90.00000000
_cell_angle_gamma   90.00000000
_symmetry_Int_Tables_number   1
_chemical_formula_structural   DyTm3Co8(PRu)12
_chemical_formula_sum   'Dy1 Tm3 Co8 P12 Ru12'
_cell_volume   483.91747545
_cell_formula_units_Z   1
loop_
 _symmetry_equiv_pos_site_id
 _symmetry_equiv_pos_as_xyz
  1  'x, y, z'
loop_
 _atom_site_type_symbol
 _atom_site_label
 _atom_site_symmetry_multiplicity
 _atom_site_fract_x
 _atom_site_fract_y
 _atom_site_fract_z
 _atom_site_occupancy
  Dy  Dy0  1  0.250000  0.584406  0.706809  1
  Tm  Tm1  1  0.250000  0.915545  0.206683  1
  Tm  Tm2  1  0.750000  0.415580  0.293293  1
  Tm  Tm3  1  0.750000  0.084446  0.793291  1
  Co  Co4  1  0.250000  0.888493  0.696056  1
  Co  Co5  1  0.250000  0.611680  0.196181  1
  Co  Co6  1  0.750000  0.111694  0.303857  1
  Co  Co7  1  0.750000  0.387733  0.804241  1
  Co  Co8  1  0.250000  0.462692  0.935057  1
  Co  Co9  1  0.250000  0.037131  0.434781  1
  Co  Co10  1  0.750000  0.537087  0.065459  1
  Co  Co11  1  0.750000  0.963058  0.565205  1
  P  P12  1  0.250000  0.425511  0.113434  1
  P  P13  1  0.250000  0.074421  0.613346  1
  P  P14  1  0.750000  0.574531  0.887386  1
  P  P15  1  0.750000  0.925559  0.386599  1
  P  P16  1  0.250000  0.270964  0.871620  1
  P  P17  1  0.250000  0.228989  0.371602  1
  P  P18  1  0.750000  0.729076  0.128362  1
  P  P19  1  0.750000  0.771661  0.628110  1
  P  P20  1  0.250000  0.600315  0.386315  1
  P  P21  1  0.250000  0.899576  0.886262  1
  P  P22  1  0.750000  0.398977  0.613355  1
  P  P23  1  0.750000  0.100400  0.113716  1
  Ru  Ru24  1  0.250000  0.706295  0.986283  1
  Ru  Ru25  1  0.250000  0.793676  0.486280  1
  Ru  Ru26  1  0.750000  0.293642  0.013709  1
  Ru  Ru27  1  0.750000  0.206264  0.513644  1
  Ru  Ru28  1  0.250000  0.405430  0.485059  1
  Ru  Ru29  1  0.250000  0.094378  0.985196  1
  Ru  Ru30  1  0.750000  0.594357  0.513701  1
  Ru  Ru31  1  0.750000  0.905695  0.014915  1
  Ru  Ru32  1  0.250000  0.224132  0.180942  1
  Ru  Ru33  1  0.250000  0.275640  0.680961  1
  Ru  Ru34  1  0.750000  0.776706  0.819385  1
  Ru  Ru35  1  0.750000  0.724261  0.318906  1
