# generated using pymatgen
data_Pr8Dy12HgPb15
_symmetry_space_group_name_H-M   'P 1'
_cell_length_a   8.22671900
_cell_length_b   8.44190594
_cell_length_c   15.81219800
_cell_angle_alpha   90.00000000
_cell_angle_beta   90.00000000
_cell_angle_gamma   89.75698156
_symmetry_Int_Tables_number   1
_chemical_formula_structural   Pr8Dy12HgPb15
_chemical_formula_sum   'Pr8 Dy12 Hg1 Pb15'
_cell_volume   1098.13443302
_cell_formula_units_Z   1
loop_
 _symmetry_equiv_pos_site_id
 _symmetry_equiv_pos_as_xyz
  1  'x, y, z'
loop_
 _atom_site_type_symbol
 _atom_site_label
 _atom_site_symmetry_multiplicity
 _atom_site_fract_x
 _atom_site_fract_y
 _atom_site_fract_z
 _atom_site_occupancy
  Pr  Pr0  1  0.485652  0.682881  0.592848  1
  Pr  Pr1  1  0.983638  0.820375  0.902293  1
  Pr  Pr2  1  0.516177  0.320927  0.095983  1
  Pr  Pr3  1  0.017790  0.177133  0.403494  1
  Pr  Pr4  1  0.516177  0.320927  0.404017  1
  Pr  Pr5  1  0.017790  0.177133  0.096506  1
  Pr  Pr6  1  0.485652  0.682881  0.907152  1
  Pr  Pr7  1  0.983638  0.820375  0.597707  1
  Dy  Dy8  1  0.638874  0.160643  0.622955  1
  Dy  Dy9  1  0.148068  0.340664  0.876566  1
  Dy  Dy10  1  0.356576  0.841401  0.122527  1
  Dy  Dy11  1  0.856023  0.659680  0.376166  1
  Dy  Dy12  1  0.356576  0.841401  0.377473  1
  Dy  Dy13  1  0.856023  0.659680  0.123834  1
  Dy  Dy14  1  0.638874  0.160643  0.877045  1
  Dy  Dy15  1  0.148068  0.340664  0.623434  1
  Dy  Dy16  1  0.801780  0.492787  0.750000  1
  Dy  Dy17  1  0.305373  0.005048  0.750000  1
  Dy  Dy18  1  0.192643  0.503435  0.250000  1
  Dy  Dy19  1  0.693209  0.998146  0.250000  1
  Hg  Hg20  1  0.445746  0.371173  0.750000  1
  Pb  Pb21  1  0.700674  0.959332  0.457642  1
  Pb  Pb22  1  0.194984  0.541910  0.042469  1
  Pb  Pb23  1  0.298675  0.040869  0.956638  1
  Pb  Pb24  1  0.802234  0.458926  0.543769  1
  Pb  Pb25  1  0.298675  0.040869  0.543362  1
  Pb  Pb26  1  0.802234  0.458926  0.956231  1
  Pb  Pb27  1  0.700674  0.959332  0.042358  1
  Pb  Pb28  1  0.194984  0.541910  0.457531  1
  Pb  Pb29  1  0.944033  0.125966  0.750000  1
  Pb  Pb30  1  0.552165  0.629250  0.250000  1
  Pb  Pb31  1  0.053485  0.872785  0.250000  1
  Pb  Pb32  1  0.671233  0.850600  0.750000  1
  Pb  Pb33  1  0.185474  0.641248  0.750000  1
  Pb  Pb34  1  0.329116  0.149257  0.250000  1
  Pb  Pb35  1  0.827010  0.350827  0.250000  1
