# generated using pymatgen
data_Pr4C4SeBr
_symmetry_space_group_name_H-M   'P 1'
_cell_length_a   7.55620011
_cell_length_b   7.55619946
_cell_length_c   6.92485411
_cell_angle_alpha   79.64246704
_cell_angle_beta   79.64246918
_cell_angle_gamma   33.57440524
_symmetry_Int_Tables_number   1
_chemical_formula_structural   Pr4C4SeBr
_chemical_formula_sum   'Pr4 C4 Se1 Br1'
_cell_volume   214.76406406
_cell_formula_units_Z   1
loop_
 _symmetry_equiv_pos_site_id
 _symmetry_equiv_pos_as_xyz
  1  'x, y, z'
loop_
 _atom_site_type_symbol
 _atom_site_label
 _atom_site_symmetry_multiplicity
 _atom_site_fract_x
 _atom_site_fract_y
 _atom_site_fract_z
 _atom_site_occupancy
  Pr  Pr0  1  0.550043  0.147015  0.139020  1
  Pr  Pr1  1  0.149861  0.555714  0.654984  1
  Pr  Pr2  1  0.444286  0.850139  0.845016  1
  Pr  Pr3  1  0.852985  0.449957  0.360980  1
  C  C4  1  0.359404  0.100538  0.472896  1
  C  C5  1  0.899462  0.640596  0.027104  1
  C  C6  1  0.647795  0.903450  0.524840  1
  C  C7  1  0.096550  0.352205  0.975160  1
  Se  Se8  1  0.783154  0.216846  0.750000  1
  Br  Br9  1  0.216464  0.783536  0.250000  1
