# generated using pymatgen
data_HoEr(Co3Si2)2
_symmetry_space_group_name_H-M   'P 1'
_cell_length_a   6.23452801
_cell_length_b   6.23452744
_cell_length_c   6.23452817
_cell_angle_alpha   130.60858993
_cell_angle_beta   112.93761585
_cell_angle_gamma   87.67219515
_symmetry_Int_Tables_number   1
_chemical_formula_structural   HoEr(Co3Si2)2
_chemical_formula_sum   'Ho1 Er1 Co6 Si4'
_cell_volume   161.36708658
_cell_formula_units_Z   1
loop_
 _symmetry_equiv_pos_site_id
 _symmetry_equiv_pos_as_xyz
  1  'x, y, z'
loop_
 _atom_site_type_symbol
 _atom_site_label
 _atom_site_symmetry_multiplicity
 _atom_site_fract_x
 _atom_site_fract_y
 _atom_site_fract_z
 _atom_site_occupancy
  Ho  Ho0  1  0.250000  0.530112  0.280112  1
  Er  Er1  1  0.750000  0.469458  0.719458  1
  Co  Co2  1  0.000076  0.000136  0.500212  1
  Co  Co3  1  0.499924  0.000136  0.000060  1
  Co  Co4  1  0.724229  0.000382  0.724206  1
  Co  Co5  1  0.223824  0.499977  0.724206  1
  Co  Co6  1  0.276176  0.000382  0.276153  1
  Co  Co7  1  0.775771  0.499977  0.276153  1
  Si  Si8  1  0.080594  0.873695  0.793101  1
  Si  Si9  1  0.918847  0.125465  0.206618  1
  Si  Si10  1  0.581153  0.787772  0.206618  1
  Si  Si11  1  0.419406  0.212506  0.793101  1
