# generated using pymatgen
data_Ho3Ta(Co4P3)2
_symmetry_space_group_name_H-M   'P 1'
_cell_length_a   3.70141900
_cell_length_b   10.61530800
_cell_length_c   12.31393800
_cell_angle_alpha   90.00000000
_cell_angle_beta   90.00000000
_cell_angle_gamma   90.00000000
_symmetry_Int_Tables_number   1
_chemical_formula_structural   Ho3Ta(Co4P3)2
_chemical_formula_sum   'Ho6 Ta2 Co16 P12'
_cell_volume   483.83559123
_cell_formula_units_Z   2
loop_
 _symmetry_equiv_pos_site_id
 _symmetry_equiv_pos_as_xyz
  1  'x, y, z'
loop_
 _atom_site_type_symbol
 _atom_site_label
 _atom_site_symmetry_multiplicity
 _atom_site_fract_x
 _atom_site_fract_y
 _atom_site_fract_z
 _atom_site_occupancy
  Ho  Ho0  1  0.000000  0.500000  0.527076  1
  Ho  Ho1  1  0.500000  0.000000  0.472924  1
  Ho  Ho2  1  0.500000  0.821058  0.205208  1
  Ho  Ho3  1  0.500000  0.178942  0.205208  1
  Ho  Ho4  1  0.000000  0.678942  0.794792  1
  Ho  Ho5  1  0.000000  0.321058  0.794792  1
  Ta  Ta6  1  0.500000  0.500000  0.157148  1
  Ta  Ta7  1  0.000000  0.000000  0.842852  1
  Co  Co8  1  0.000000  0.500000  0.986825  1
  Co  Co9  1  0.500000  0.000000  0.013175  1
  Co  Co10  1  0.500000  0.295452  0.432448  1
  Co  Co11  1  0.500000  0.704548  0.432448  1
  Co  Co12  1  0.000000  0.204548  0.567552  1
  Co  Co13  1  0.000000  0.795452  0.567552  1
  Co  Co14  1  0.500000  0.877641  0.705449  1
  Co  Co15  1  0.500000  0.122359  0.705449  1
  Co  Co16  1  0.000000  0.622359  0.294551  1
  Co  Co17  1  0.000000  0.377641  0.294551  1
  Co  Co18  1  0.500000  0.332981  0.992325  1
  Co  Co19  1  0.500000  0.667019  0.992325  1
  Co  Co20  1  0.000000  0.167019  0.007675  1
  Co  Co21  1  0.000000  0.832981  0.007675  1
  Co  Co22  1  0.500000  0.500000  0.702297  1
  Co  Co23  1  0.000000  0.000000  0.297703  1
  P  P24  1  0.500000  0.311578  0.615775  1
  P  P25  1  0.500000  0.688422  0.615775  1
  P  P26  1  0.000000  0.188422  0.384225  1
  P  P27  1  0.000000  0.811578  0.384225  1
  P  P28  1  0.500000  0.500000  0.881502  1
  P  P29  1  0.000000  0.000000  0.118498  1
  P  P30  1  0.500000  0.840742  0.892498  1
  P  P31  1  0.500000  0.159258  0.892498  1
  P  P32  1  0.000000  0.659258  0.107502  1
  P  P33  1  0.000000  0.340742  0.107502  1
  P  P34  1  0.500000  0.500000  0.357162  1
  P  P35  1  0.000000  0.000000  0.642838  1
