# generated using pymatgen
data_LiTc4Ag7Br24
_symmetry_space_group_name_H-M   'P 1'
_cell_length_a   6.99856400
_cell_length_b   6.99856295
_cell_length_c   27.42900000
_cell_angle_alpha   90.00000000
_cell_angle_beta   90.00000000
_cell_angle_gamma   120.00000497
_symmetry_Int_Tables_number   1
_chemical_formula_structural   LiTc4Ag7Br24
_chemical_formula_sum   'Li1 Tc4 Ag7 Br24'
_cell_volume   1163.47859050
_cell_formula_units_Z   1
loop_
 _symmetry_equiv_pos_site_id
 _symmetry_equiv_pos_as_xyz
  1  'x, y, z'
loop_
 _atom_site_type_symbol
 _atom_site_label
 _atom_site_symmetry_multiplicity
 _atom_site_fract_x
 _atom_site_fract_y
 _atom_site_fract_z
 _atom_site_occupancy
  Li  Li0  1  0.666667  0.333333  0.500011  1
  Tc  Tc1  1  0.000000  0.000000  0.999996  1
  Tc  Tc2  1  0.000000  0.000000  0.499995  1
  Tc  Tc3  1  0.333333  0.666667  0.749993  1
  Tc  Tc4  1  0.666667  0.333333  0.250000  1
  Ag  Ag5  1  0.000000  0.000000  0.249999  1
  Ag  Ag6  1  0.000000  0.000000  0.749994  1
  Ag  Ag7  1  0.333333  0.666667  0.999885  1
  Ag  Ag8  1  0.333333  0.666667  0.500119  1
  Ag  Ag9  1  0.333333  0.666667  0.250004  1
  Ag  Ag10  1  0.666667  0.333333  0.749991  1
  Ag  Ag11  1  0.666667  0.333333  0.000106  1
  Br  Br12  1  0.372830  0.039363  0.304510  1
  Br  Br13  1  0.333456  0.960651  0.804501  1
  Br  Br14  1  0.000653  0.294431  0.054509  1
  Br  Br15  1  0.990528  0.293697  0.553349  1
  Br  Br16  1  0.960637  0.333467  0.304510  1
  Br  Br17  1  0.039349  0.372805  0.804501  1
  Br  Br18  1  0.372832  0.333467  0.195490  1
  Br  Br19  1  0.333464  0.372803  0.695491  1
  Br  Br20  1  0.302257  0.294285  0.446633  1
  Br  Br21  1  0.294430  0.293777  0.945486  1
  Br  Br22  1  0.705715  0.007972  0.446633  1
  Br  Br23  1  0.293778  0.999347  0.054509  1
  Br  Br24  1  0.303170  0.009472  0.553349  1
  Br  Br25  1  0.705569  0.706222  0.054509  1
  Br  Br26  1  0.706303  0.696830  0.553349  1
  Br  Br27  1  0.666533  0.627170  0.304510  1
  Br  Br28  1  0.627195  0.666544  0.804501  1
  Br  Br29  1  0.960635  0.627168  0.195490  1
  Br  Br30  1  0.039339  0.666536  0.695491  1
  Br  Br31  1  0.992028  0.697743  0.446633  1
  Br  Br32  1  0.999348  0.705570  0.945486  1
  Br  Br33  1  0.706223  0.000652  0.945486  1
  Br  Br34  1  0.666533  0.039365  0.195490  1
  Br  Br35  1  0.627197  0.960661  0.695491  1
