# generated using pymatgen
data_Ho10Hg3Ir
_symmetry_space_group_name_H-M   'P 1'
_cell_length_a   9.61474200
_cell_length_b   9.61474352
_cell_length_c   9.61800300
_cell_angle_alpha   90.00000000
_cell_angle_beta   90.00000000
_cell_angle_gamma   120.00000165
_symmetry_Int_Tables_number   1
_chemical_formula_structural   Ho10Hg3Ir
_chemical_formula_sum   'Ho20 Hg6 Ir2'
_cell_volume   770.00025894
_cell_formula_units_Z   2
loop_
 _symmetry_equiv_pos_site_id
 _symmetry_equiv_pos_as_xyz
  1  'x, y, z'
loop_
 _atom_site_type_symbol
 _atom_site_label
 _atom_site_symmetry_multiplicity
 _atom_site_fract_x
 _atom_site_fract_y
 _atom_site_fract_z
 _atom_site_occupancy
  Ho  Ho0  1  0.000000  0.000000  0.500000  1
  Ho  Ho1  1  0.000000  0.000000  0.000000  1
  Ho  Ho2  1  0.208975  0.791025  0.440851  1
  Ho  Ho3  1  0.208975  0.417950  0.440851  1
  Ho  Ho4  1  0.582050  0.791025  0.440851  1
  Ho  Ho5  1  0.791025  0.208975  0.559149  1
  Ho  Ho6  1  0.791025  0.582050  0.559149  1
  Ho  Ho7  1  0.417950  0.208975  0.559149  1
  Ho  Ho8  1  0.791025  0.208975  0.940851  1
  Ho  Ho9  1  0.791025  0.582050  0.940851  1
  Ho  Ho10  1  0.417950  0.208975  0.940851  1
  Ho  Ho11  1  0.208975  0.791025  0.059149  1
  Ho  Ho12  1  0.208975  0.417950  0.059149  1
  Ho  Ho13  1  0.582050  0.791025  0.059149  1
  Ho  Ho14  1  0.540764  0.459236  0.250000  1
  Ho  Ho15  1  0.540764  0.081528  0.250000  1
  Ho  Ho16  1  0.918472  0.459236  0.250000  1
  Ho  Ho17  1  0.459236  0.540764  0.750000  1
  Ho  Ho18  1  0.459236  0.918472  0.750000  1
  Ho  Ho19  1  0.081528  0.540764  0.750000  1
  Hg  Hg20  1  0.881355  0.118645  0.250000  1
  Hg  Hg21  1  0.881355  0.762710  0.250000  1
  Hg  Hg22  1  0.237290  0.118645  0.250000  1
  Hg  Hg23  1  0.118645  0.881355  0.750000  1
  Hg  Hg24  1  0.118645  0.237290  0.750000  1
  Hg  Hg25  1  0.762710  0.881355  0.750000  1
  Ir  Ir26  1  0.333333  0.666667  0.250000  1
  Ir  Ir27  1  0.666667  0.333333  0.750000  1
