# generated using pymatgen
data_Sm8Zr11Si16Tc
_symmetry_space_group_name_H-M   'P 1'
_cell_length_a   7.13601540
_cell_length_b   7.35074343
_cell_length_c   14.01491700
_cell_angle_alpha   90.00000000
_cell_angle_beta   90.00000000
_cell_angle_gamma   89.92843471
_symmetry_Int_Tables_number   1
_chemical_formula_structural   Sm8Zr11Si16Tc
_chemical_formula_sum   'Sm8 Zr11 Si16 Tc1'
_cell_volume   735.15215399
_cell_formula_units_Z   1
loop_
 _symmetry_equiv_pos_site_id
 _symmetry_equiv_pos_as_xyz
  1  'x, y, z'
loop_
 _atom_site_type_symbol
 _atom_site_label
 _atom_site_symmetry_multiplicity
 _atom_site_fract_x
 _atom_site_fract_y
 _atom_site_fract_z
 _atom_site_occupancy
  Sm  Sm0  1  0.013591  0.175107  0.095818  1
  Sm  Sm1  1  0.988182  0.823557  0.900422  1
  Sm  Sm2  1  0.484051  0.672413  0.900092  1
  Sm  Sm3  1  0.988182  0.823557  0.599578  1
  Sm  Sm4  1  0.514295  0.325665  0.096254  1
  Sm  Sm5  1  0.013591  0.175107  0.404182  1
  Sm  Sm6  1  0.514295  0.325665  0.403746  1
  Sm  Sm7  1  0.484051  0.672413  0.599908  1
  Zr  Zr8  1  0.844691  0.501368  0.250000  1
  Zr  Zr9  1  0.343453  0.997639  0.250000  1
  Zr  Zr10  1  0.655688  0.002957  0.750000  1
  Zr  Zr11  1  0.325493  0.179373  0.626029  1
  Zr  Zr12  1  0.671492  0.823604  0.375520  1
  Zr  Zr13  1  0.171777  0.676824  0.376030  1
  Zr  Zr14  1  0.671492  0.823604  0.124480  1
  Zr  Zr15  1  0.830308  0.326352  0.626403  1
  Zr  Zr16  1  0.325493  0.179373  0.873971  1
  Zr  Zr17  1  0.830308  0.326352  0.873597  1
  Zr  Zr18  1  0.171777  0.676824  0.123970  1
  Si  Si19  1  0.033978  0.122901  0.750000  1
  Si  Si20  1  0.967028  0.877154  0.250000  1
  Si  Si21  1  0.467954  0.620699  0.250000  1
  Si  Si22  1  0.526114  0.382016  0.750000  1
  Si  Si23  1  0.283761  0.875308  0.750000  1
  Si  Si24  1  0.717905  0.122882  0.250000  1
  Si  Si25  1  0.217773  0.376704  0.250000  1
  Si  Si26  1  0.792734  0.621143  0.750000  1
  Si  Si27  1  0.152589  0.467019  0.544364  1
  Si  Si28  1  0.845750  0.534991  0.460353  1
  Si  Si29  1  0.347439  0.967448  0.459485  1
  Si  Si30  1  0.845750  0.534991  0.039647  1
  Si  Si31  1  0.653770  0.034095  0.541560  1
  Si  Si32  1  0.152589  0.467019  0.955636  1
  Si  Si33  1  0.653770  0.034095  0.958440  1
  Si  Si34  1  0.347439  0.967448  0.040515  1
  Tc  Tc35  1  0.151450  0.486334  0.750000  1
