# generated using pymatgen
data_Ta3Co2AsN
_symmetry_space_group_name_H-M   'P 1'
_cell_length_a   8.01710200
_cell_length_b   8.01710251
_cell_length_c   8.01710200
_cell_angle_alpha   60.00000212
_cell_angle_beta   60.00000001
_cell_angle_gamma   60.00000211
_symmetry_Int_Tables_number   1
_chemical_formula_structural   Ta3Co2AsN
_chemical_formula_sum   'Ta12 Co8 As4 N4'
_cell_volume   364.36551867
_cell_formula_units_Z   4
loop_
 _symmetry_equiv_pos_site_id
 _symmetry_equiv_pos_as_xyz
  1  'x, y, z'
loop_
 _atom_site_type_symbol
 _atom_site_label
 _atom_site_symmetry_multiplicity
 _atom_site_fract_x
 _atom_site_fract_y
 _atom_site_fract_z
 _atom_site_occupancy
  Ta  Ta0  1  0.802960  0.802960  0.197040  1
  Ta  Ta1  1  0.197040  0.197040  0.802960  1
  Ta  Ta2  1  0.802960  0.197040  0.802960  1
  Ta  Ta3  1  0.197040  0.802960  0.197040  1
  Ta  Ta4  1  0.197040  0.802960  0.802960  1
  Ta  Ta5  1  0.802960  0.197040  0.197040  1
  Ta  Ta6  1  0.447040  0.447040  0.052960  1
  Ta  Ta7  1  0.052960  0.052960  0.447040  1
  Ta  Ta8  1  0.447040  0.052960  0.447040  1
  Ta  Ta9  1  0.052960  0.447040  0.052960  1
  Ta  Ta10  1  0.052960  0.447040  0.447040  1
  Ta  Ta11  1  0.447040  0.052960  0.052960  1
  Co  Co12  1  0.754420  0.415194  0.415194  1
  Co  Co13  1  0.415194  0.754420  0.415194  1
  Co  Co14  1  0.415194  0.415194  0.754420  1
  Co  Co15  1  0.415194  0.415194  0.415194  1
  Co  Co16  1  0.495580  0.834806  0.834806  1
  Co  Co17  1  0.834806  0.495580  0.834806  1
  Co  Co18  1  0.834806  0.834806  0.495580  1
  Co  Co19  1  0.834806  0.834806  0.834806  1
  As  As20  1  0.125000  0.625000  0.625000  1
  As  As21  1  0.625000  0.125000  0.625000  1
  As  As22  1  0.625000  0.625000  0.125000  1
  As  As23  1  0.625000  0.625000  0.625000  1
  N  N24  1  0.625000  0.125000  0.125000  1
  N  N25  1  0.125000  0.625000  0.125000  1
  N  N26  1  0.125000  0.125000  0.625000  1
  N  N27  1  0.125000  0.125000  0.125000  1
