# generated using pymatgen
data_Pr18Y2Si15Tc
_symmetry_space_group_name_H-M   'P 1'
_cell_length_a   7.91720879
_cell_length_b   7.91295580
_cell_length_c   15.23686477
_cell_angle_alpha   90.21833021
_cell_angle_beta   89.86191402
_cell_angle_gamma   90.01342052
_symmetry_Int_Tables_number   1
_chemical_formula_structural   Pr18Y2Si15Tc
_chemical_formula_sum   'Pr18 Y2 Si15 Tc1'
_cell_volume   954.55735034
_cell_formula_units_Z   1
loop_
 _symmetry_equiv_pos_site_id
 _symmetry_equiv_pos_as_xyz
  1  'x, y, z'
loop_
 _atom_site_type_symbol
 _atom_site_label
 _atom_site_symmetry_multiplicity
 _atom_site_fract_x
 _atom_site_fract_y
 _atom_site_fract_z
 _atom_site_occupancy
  Pr  Pr0  1  0.824128  0.189552  0.748536  1
  Pr  Pr1  1  0.696225  0.689931  0.502131  1
  Pr  Pr2  1  0.370382  0.011981  0.450776  1
  Pr  Pr3  1  0.483446  0.882790  0.696954  1
  Pr  Pr4  1  0.511668  0.124566  0.198828  1
  Pr  Pr5  1  0.876027  0.487999  0.300244  1
  Pr  Pr6  1  0.129460  0.502256  0.798767  1
  Pr  Pr7  1  0.625941  0.987779  0.949631  1
  Pr  Pr8  1  0.007739  0.378131  0.550331  1
  Pr  Pr9  1  0.989095  0.626208  0.051233  1
  Pr  Pr10  1  0.132102  0.981883  0.873298  1
  Pr  Pr11  1  0.518060  0.630089  0.126474  1
  Pr  Pr12  1  0.471804  0.361548  0.629731  1
  Pr  Pr13  1  0.628204  0.515561  0.875471  1
  Pr  Pr14  1  0.375213  0.482097  0.372381  1
  Pr  Pr15  1  0.872331  0.020814  0.375703  1
  Pr  Pr16  1  0.981841  0.128267  0.124599  1
  Pr  Pr17  1  0.025932  0.880716  0.626778  1
  Y  Y18  1  0.309391  0.308035  0.998981  1
  Y  Y19  1  0.189458  0.810461  0.250606  1
  Si  Si20  1  0.331180  0.691166  0.953312  1
  Si  Si21  1  0.664166  0.302214  0.450874  1
  Si  Si22  1  0.694154  0.331594  0.049141  1
  Si  Si23  1  0.303608  0.668294  0.545842  1
  Si  Si24  1  0.808846  0.830635  0.203562  1
  Si  Si25  1  0.169863  0.193562  0.296252  1
  Si  Si26  1  0.830966  0.801903  0.800396  1
  Si  Si27  1  0.287548  0.923152  0.061548  1
  Si  Si28  1  0.575382  0.788906  0.309584  1
  Si  Si29  1  0.417342  0.212731  0.815812  1
  Si  Si30  1  0.778344  0.582751  0.692033  1
  Si  Si31  1  0.212762  0.424050  0.187601  1
  Si  Si32  1  0.704492  0.075105  0.558291  1
  Si  Si33  1  0.924976  0.287883  0.942351  1
  Si  Si34  1  0.081645  0.716007  0.436838  1
  Tc  Tc35  1  0.196275  0.169379  0.695112  1
