# generated using pymatgen
data_Hf8Nb11Si16Rh
_symmetry_space_group_name_H-M   'P 1'
_cell_length_a   6.63052679
_cell_length_b   6.83834994
_cell_length_c   13.10430200
_cell_angle_alpha   90.00000000
_cell_angle_beta   90.00000000
_cell_angle_gamma   90.62950571
_symmetry_Int_Tables_number   1
_chemical_formula_structural   Hf8Nb11Si16Rh
_chemical_formula_sum   'Hf8 Nb11 Si16 Rh1'
_cell_volume   594.13759665
_cell_formula_units_Z   1
loop_
 _symmetry_equiv_pos_site_id
 _symmetry_equiv_pos_as_xyz
  1  'x, y, z'
loop_
 _atom_site_type_symbol
 _atom_site_label
 _atom_site_symmetry_multiplicity
 _atom_site_fract_x
 _atom_site_fract_y
 _atom_site_fract_z
 _atom_site_occupancy
  Hf  Hf0  1  0.493168  0.676083  0.591140  1
  Hf  Hf1  1  0.000804  0.827841  0.909991  1
  Hf  Hf2  1  0.500539  0.327526  0.093216  1
  Hf  Hf3  1  0.003288  0.173400  0.404720  1
  Hf  Hf4  1  0.500539  0.327526  0.406784  1
  Hf  Hf5  1  0.003288  0.173400  0.095280  1
  Hf  Hf6  1  0.493168  0.676083  0.908860  1
  Hf  Hf7  1  0.000804  0.827841  0.590009  1
  Nb  Nb8  1  0.669651  0.167545  0.625902  1
  Nb  Nb9  1  0.163376  0.324399  0.874139  1
  Nb  Nb10  1  0.333013  0.828054  0.123342  1
  Nb  Nb11  1  0.836854  0.672137  0.378881  1
  Nb  Nb12  1  0.333013  0.828054  0.376658  1
  Nb  Nb13  1  0.836854  0.672137  0.121119  1
  Nb  Nb14  1  0.669651  0.167545  0.874098  1
  Nb  Nb15  1  0.163376  0.324399  0.625861  1
  Nb  Nb16  1  0.340330  0.995881  0.750000  1
  Nb  Nb17  1  0.162896  0.500315  0.250000  1
  Nb  Nb18  1  0.661270  0.998179  0.250000  1
  Si  Si19  1  0.670082  0.965806  0.461611  1
  Si  Si20  1  0.169277  0.533443  0.037247  1
  Si  Si21  1  0.332853  0.037957  0.961647  1
  Si  Si22  1  0.829169  0.462548  0.540831  1
  Si  Si23  1  0.332853  0.037957  0.538353  1
  Si  Si24  1  0.829169  0.462548  0.959169  1
  Si  Si25  1  0.670082  0.965806  0.038389  1
  Si  Si26  1  0.169277  0.533443  0.462753  1
  Si  Si27  1  0.472136  0.390274  0.750000  1
  Si  Si28  1  0.964896  0.105647  0.750000  1
  Si  Si29  1  0.539003  0.614455  0.250000  1
  Si  Si30  1  0.036011  0.885887  0.250000  1
  Si  Si31  1  0.706006  0.854320  0.750000  1
  Si  Si32  1  0.196900  0.633031  0.750000  1
  Si  Si33  1  0.296405  0.140065  0.250000  1
  Si  Si34  1  0.792794  0.362186  0.250000  1
  Rh  Rh35  1  0.827199  0.526279  0.750000  1
