# generated using pymatgen
data_Ba2AcFeO5
_symmetry_space_group_name_H-M   'P 1'
_cell_length_a   6.44023400
_cell_length_b   8.21232456
_cell_length_c   13.31516800
_cell_angle_alpha   91.42997468
_cell_angle_beta   90.00000000
_cell_angle_gamma   90.00000000
_symmetry_Int_Tables_number   1
_chemical_formula_structural   Ba2AcFeO5
_chemical_formula_sum   'Ba8 Ac4 Fe4 O20'
_cell_volume   704.01048846
_cell_formula_units_Z   4
loop_
 _symmetry_equiv_pos_site_id
 _symmetry_equiv_pos_as_xyz
  1  'x, y, z'
loop_
 _atom_site_type_symbol
 _atom_site_label
 _atom_site_symmetry_multiplicity
 _atom_site_fract_x
 _atom_site_fract_y
 _atom_site_fract_z
 _atom_site_occupancy
  Ba  Ba0  1  0.766364  0.478107  0.328499  1
  Ba  Ba1  1  0.733636  0.978107  0.828499  1
  Ba  Ba2  1  0.233636  0.521893  0.671501  1
  Ba  Ba3  1  0.266364  0.021893  0.171501  1
  Ba  Ba4  1  0.765182  0.986199  0.370082  1
  Ba  Ba5  1  0.734818  0.486199  0.870082  1
  Ba  Ba6  1  0.234818  0.013801  0.629918  1
  Ba  Ba7  1  0.265182  0.513801  0.129918  1
  Ac  Ac8  1  0.754385  0.277817  0.615126  1
  Ac  Ac9  1  0.745615  0.777817  0.115126  1
  Ac  Ac10  1  0.245615  0.722183  0.384874  1
  Ac  Ac11  1  0.254385  0.222183  0.884874  1
  Fe  Fe12  1  0.725790  0.745468  0.583111  1
  Fe  Fe13  1  0.774210  0.245468  0.083111  1
  Fe  Fe14  1  0.274210  0.254532  0.416889  1
  Fe  Fe15  1  0.225790  0.754532  0.916889  1
  O  O16  1  0.790256  0.966946  0.624981  1
  O  O17  1  0.709744  0.466946  0.124981  1
  O  O18  1  0.209744  0.033054  0.375019  1
  O  O19  1  0.290256  0.533054  0.875019  1
  O  O20  1  0.713659  0.079669  0.177935  1
  O  O21  1  0.786341  0.579669  0.677935  1
  O  O22  1  0.286341  0.920331  0.822065  1
  O  O23  1  0.213659  0.420331  0.322065  1
  O  O24  1  0.546285  0.745061  0.275138  1
  O  O25  1  0.953715  0.245061  0.775138  1
  O  O26  1  0.453715  0.254939  0.724862  1
  O  O27  1  0.046285  0.754939  0.224862  1
  O  O28  1  0.608968  0.209019  0.964977  1
  O  O29  1  0.891032  0.709019  0.464977  1
  O  O30  1  0.391032  0.790981  0.035023  1
  O  O31  1  0.108968  0.290981  0.535023  1
  O  O32  1  0.068360  0.239880  0.052827  1
  O  O33  1  0.431640  0.739880  0.552827  1
  O  O34  1  0.931640  0.760120  0.947173  1
  O  O35  1  0.568360  0.260120  0.447173  1
