# generated using pymatgen
data_LiLa6Ir2Rh15
_symmetry_space_group_name_H-M   'P 1'
_cell_length_a   5.39608000
_cell_length_b   5.38708575
_cell_length_c   17.64292889
_cell_angle_alpha   90.19443985
_cell_angle_beta   90.00000000
_cell_angle_gamma   120.05522054
_symmetry_Int_Tables_number   1
_chemical_formula_structural   LiLa6Ir2Rh15
_chemical_formula_sum   'Li1 La6 Ir2 Rh15'
_cell_volume   443.90324348
_cell_formula_units_Z   1
loop_
 _symmetry_equiv_pos_site_id
 _symmetry_equiv_pos_as_xyz
  1  'x, y, z'
loop_
 _atom_site_type_symbol
 _atom_site_label
 _atom_site_symmetry_multiplicity
 _atom_site_fract_x
 _atom_site_fract_y
 _atom_site_fract_z
 _atom_site_occupancy
  Li  Li0  1  0.000014  0.000029  0.250224  1
  La  La1  1  0.333280  0.666561  0.538636  1
  La  La2  1  0.667257  0.334514  0.043732  1
  La  La3  1  0.666992  0.333982  0.455480  1
  La  La4  1  0.333129  0.666259  0.961547  1
  La  La5  1  0.333369  0.666738  0.749892  1
  La  La6  1  0.666278  0.332556  0.249712  1
  Ir  Ir7  1  0.165659  0.331317  0.129586  1
  Ir  Ir8  1  0.331965  0.663930  0.249848  1
  Rh  Rh9  1  0.832985  0.665968  0.626655  1
  Rh  Rh10  1  0.668089  0.834970  0.129406  1
  Rh  Rh11  1  0.166882  0.834970  0.129406  1
  Rh  Rh12  1  0.833095  0.166826  0.626807  1
  Rh  Rh13  1  0.333732  0.166826  0.626807  1
  Rh  Rh14  1  0.833093  0.666185  0.873224  1
  Rh  Rh15  1  0.832872  0.166606  0.873166  1
  Rh  Rh16  1  0.333736  0.166606  0.873166  1
  Rh  Rh17  1  0.667138  0.833028  0.370635  1
  Rh  Rh18  1  0.165891  0.833028  0.370635  1
  Rh  Rh19  1  0.166015  0.332030  0.371347  1
  Rh  Rh20  1  0.999812  0.999624  0.750037  1
  Rh  Rh21  1  0.667028  0.334055  0.749920  1
  Rh  Rh22  1  0.001395  0.002790  0.001432  1
  Rh  Rh23  1  0.000298  0.000596  0.498700  1
