# generated using pymatgen
data_Zr3Nb(SnRh5)2
_symmetry_space_group_name_H-M   'P 1'
_cell_length_a   5.65342243
_cell_length_b   5.65342178
_cell_length_c   8.23751505
_cell_angle_alpha   90.00869147
_cell_angle_beta   90.00869476
_cell_angle_gamma   96.98998423
_symmetry_Int_Tables_number   1
_chemical_formula_structural   Zr3Nb(SnRh5)2
_chemical_formula_sum   'Zr3 Nb1 Sn2 Rh10'
_cell_volume   261.32385708
_cell_formula_units_Z   1
loop_
 _symmetry_equiv_pos_site_id
 _symmetry_equiv_pos_as_xyz
  1  'x, y, z'
loop_
 _atom_site_type_symbol
 _atom_site_label
 _atom_site_symmetry_multiplicity
 _atom_site_fract_x
 _atom_site_fract_y
 _atom_site_fract_z
 _atom_site_occupancy
  Zr  Zr0  1  0.217272  0.782728  0.000000  1
  Zr  Zr1  1  0.217354  0.782646  0.500000  1
  Zr  Zr2  1  0.783852  0.216148  0.000000  1
  Nb  Nb3  1  0.790189  0.209811  0.500000  1
  Sn  Sn4  1  0.502707  0.500455  0.748442  1
  Sn  Sn5  1  0.499545  0.497293  0.251558  1
  Rh  Rh6  1  0.729467  0.729247  0.000814  1
  Rh  Rh7  1  0.727971  0.732690  0.499230  1
  Rh  Rh8  1  0.270753  0.270533  0.999186  1
  Rh  Rh9  1  0.267310  0.272029  0.500770  1
  Rh  Rh10  1  0.502575  0.003700  0.745971  1
  Rh  Rh11  1  0.502514  0.002582  0.253927  1
  Rh  Rh12  1  0.997651  0.002878  0.254537  1
  Rh  Rh13  1  0.997122  0.002349  0.745463  1
  Rh  Rh14  1  0.997418  0.497486  0.746073  1
  Rh  Rh15  1  0.996300  0.497425  0.254029  1
