# generated using pymatgen
data_Lu4Si2(TcOs)3
_symmetry_space_group_name_H-M   'P 1'
_cell_length_a   5.23523904
_cell_length_b   5.27671796
_cell_length_c   8.70608000
_cell_angle_alpha   90.00000000
_cell_angle_beta   90.00000000
_cell_angle_gamma   120.52736259
_symmetry_Int_Tables_number   1
_chemical_formula_structural   Lu4Si2(TcOs)3
_chemical_formula_sum   'Lu4 Si2 Tc3 Os3'
_cell_volume   207.16729815
_cell_formula_units_Z   1
loop_
 _symmetry_equiv_pos_site_id
 _symmetry_equiv_pos_as_xyz
  1  'x, y, z'
loop_
 _atom_site_type_symbol
 _atom_site_label
 _atom_site_symmetry_multiplicity
 _atom_site_fract_x
 _atom_site_fract_y
 _atom_site_fract_z
 _atom_site_occupancy
  Lu  Lu0  1  0.333147  0.665383  0.436135  1
  Lu  Lu1  1  0.664572  0.330405  0.561346  1
  Lu  Lu2  1  0.664572  0.330405  0.938654  1
  Lu  Lu3  1  0.333147  0.665383  0.063865  1
  Si  Si4  1  0.172219  0.339797  0.750000  1
  Si  Si5  1  0.339250  0.173655  0.250000  1
  Tc  Tc6  1  0.177069  0.826115  0.750000  1
  Tc  Tc7  1  0.831327  0.667871  0.250000  1
  Tc  Tc8  1  0.662467  0.831007  0.750000  1
  Os  Os9  1  0.999498  0.994774  0.999764  1
  Os  Os10  1  0.823234  0.180430  0.250000  1
  Os  Os11  1  0.999498  0.994774  0.500236  1
