# generated using pymatgen
data_Sm7HoSc11Si16Au
_symmetry_space_group_name_H-M   'P 1'
_cell_length_a   7.09640322
_cell_length_b   7.46306717
_cell_length_c   14.15107846
_cell_angle_alpha   89.94847201
_cell_angle_beta   89.99211032
_cell_angle_gamma   89.76343723
_symmetry_Int_Tables_number   1
_chemical_formula_structural   Sm7HoSc11Si16Au
_chemical_formula_sum   'Sm7 Ho1 Sc11 Si16 Au1'
_cell_volume   749.44763336
_cell_formula_units_Z   1
loop_
 _symmetry_equiv_pos_site_id
 _symmetry_equiv_pos_as_xyz
  1  'x, y, z'
loop_
 _atom_site_type_symbol
 _atom_site_label
 _atom_site_symmetry_multiplicity
 _atom_site_fract_x
 _atom_site_fract_y
 _atom_site_fract_z
 _atom_site_occupancy
  Sm  Sm0  1  0.991398  0.815848  0.900675  1
  Sm  Sm1  1  0.480891  0.671876  0.899903  1
  Sm  Sm2  1  0.991999  0.816234  0.600532  1
  Sm  Sm3  1  0.511407  0.324307  0.097716  1
  Sm  Sm4  1  0.011200  0.171685  0.402949  1
  Sm  Sm5  1  0.511933  0.324447  0.401478  1
  Sm  Sm6  1  0.482357  0.672416  0.600974  1
  Ho  Ho7  1  0.011445  0.173866  0.098220  1
  Sc  Sc8  1  0.839451  0.498562  0.249363  1
  Sc  Sc9  1  0.340749  0.001592  0.249175  1
  Sc  Sc10  1  0.657698  0.002131  0.750479  1
  Sc  Sc11  1  0.325738  0.184889  0.626420  1
  Sc  Sc12  1  0.672430  0.823991  0.374644  1
  Sc  Sc13  1  0.171581  0.678591  0.372749  1
  Sc  Sc14  1  0.671943  0.824452  0.123997  1
  Sc  Sc15  1  0.836028  0.327927  0.626332  1
  Sc  Sc16  1  0.325422  0.184767  0.874013  1
  Sc  Sc17  1  0.836793  0.326965  0.874361  1
  Sc  Sc18  1  0.171155  0.678385  0.126214  1
  Si  Si19  1  0.028906  0.105650  0.750425  1
  Si  Si20  1  0.968782  0.884287  0.248918  1
  Si  Si21  1  0.468309  0.622641  0.249376  1
  Si  Si22  1  0.540118  0.380474  0.750344  1
  Si  Si23  1  0.290317  0.895314  0.750323  1
  Si  Si24  1  0.714568  0.122882  0.248369  1
  Si  Si25  1  0.210365  0.374803  0.248971  1
  Si  Si26  1  0.778511  0.622950  0.750573  1
  Si  Si27  1  0.157711  0.458975  0.530049  1
  Si  Si28  1  0.846446  0.536524  0.461200  1
  Si  Si29  1  0.348090  0.963788  0.462716  1
  Si  Si30  1  0.846823  0.533502  0.039698  1
  Si  Si31  1  0.655256  0.034296  0.540737  1
  Si  Si32  1  0.157176  0.455704  0.971149  1
  Si  Si33  1  0.654956  0.034275  0.959214  1
  Si  Si34  1  0.343947  0.965535  0.037832  1
  Au  Au35  1  0.148101  0.505470  0.749914  1
