# generated using pymatgen
data_Sm3DyV4F28
_symmetry_space_group_name_H-M   'P 1'
_cell_length_a   5.56449606
_cell_length_b   8.95253207
_cell_length_c   11.95321331
_cell_angle_alpha   63.00875271
_cell_angle_beta   90.01739104
_cell_angle_gamma   90.01012312
_symmetry_Int_Tables_number   1
_chemical_formula_structural   Sm3DyV4F28
_chemical_formula_sum   'Sm3 Dy1 V4 F28'
_cell_volume   530.60465512
_cell_formula_units_Z   1
loop_
 _symmetry_equiv_pos_site_id
 _symmetry_equiv_pos_as_xyz
  1  'x, y, z'
loop_
 _atom_site_type_symbol
 _atom_site_label
 _atom_site_symmetry_multiplicity
 _atom_site_fract_x
 _atom_site_fract_y
 _atom_site_fract_z
 _atom_site_occupancy
  Sm  Sm0  1  0.258289  0.189137  0.731789  1
  Sm  Sm1  1  0.241589  0.192714  0.231133  1
  Sm  Sm2  1  0.741574  0.806031  0.269306  1
  Dy  Dy3  1  0.759190  0.805464  0.769576  1
  V  V4  1  0.754397  0.275464  0.954803  1
  V  V5  1  0.255070  0.726482  0.546802  1
  V  V6  1  0.246291  0.726609  0.041711  1
  V  V7  1  0.746384  0.272333  0.456901  1
  F  F8  1  0.449112  0.708226  0.921233  1
  F  F9  1  0.946198  0.292610  0.577433  1
  F  F10  1  0.554926  0.294238  0.076020  1
  F  F11  1  0.053770  0.707575  0.426031  1
  F  F12  1  0.464566  0.284634  0.544055  1
  F  F13  1  0.964102  0.716624  0.952452  1
  F  F14  1  0.534678  0.714897  0.457975  1
  F  F15  1  0.035998  0.286628  0.042371  1
  F  F16  1  0.764533  0.506808  0.862623  1
  F  F17  1  0.265362  0.496626  0.638503  1
  F  F18  1  0.232996  0.496860  0.134184  1
  F  F19  1  0.734546  0.503108  0.364441  1
  F  F20  1  0.758640  0.047248  0.045532  1
  F  F21  1  0.258849  0.954778  0.455280  1
  F  F22  1  0.241600  0.955435  0.952266  1
  F  F23  1  0.741479  0.044381  0.547094  1
  F  F24  1  0.981403  0.733153  0.640506  1
  F  F25  1  0.480423  0.268759  0.862517  1
  F  F26  1  0.021207  0.269063  0.364156  1
  F  F27  1  0.519367  0.731182  0.135093  1
  F  F28  1  0.046843  0.745690  0.165092  1
  F  F29  1  0.548741  0.254413  0.332781  1
  F  F30  1  0.952213  0.255714  0.831709  1
  F  F31  1  0.458680  0.748176  0.668588  1
  F  F32  1  0.412100  0.969135  0.229285  1
  F  F33  1  0.911694  0.029893  0.270767  1
  F  F34  1  0.586343  0.022251  0.769536  1
  F  F35  1  0.076848  0.967659  0.730458  1
