# generated using pymatgen
data_Ho5Tm(CoSn6)2
_symmetry_space_group_name_H-M   'P 1'
_cell_length_a   8.44025929
_cell_length_b   8.44026014
_cell_length_c   13.08646500
_cell_angle_alpha   90.00000000
_cell_angle_beta   90.00000000
_cell_angle_gamma   148.81215723
_symmetry_Int_Tables_number   1
_chemical_formula_structural   Ho5Tm(CoSn6)2
_chemical_formula_sum   'Ho5 Tm1 Co2 Sn12'
_cell_volume   482.76322306
_cell_formula_units_Z   1
loop_
 _symmetry_equiv_pos_site_id
 _symmetry_equiv_pos_as_xyz
  1  'x, y, z'
loop_
 _atom_site_type_symbol
 _atom_site_label
 _atom_site_symmetry_multiplicity
 _atom_site_fract_x
 _atom_site_fract_y
 _atom_site_fract_z
 _atom_site_occupancy
  Ho  Ho0  1  0.899314  0.100686  0.093354  1
  Ho  Ho1  1  0.100658  0.899342  0.593387  1
  Ho  Ho2  1  0.100658  0.899342  0.906613  1
  Ho  Ho3  1  0.099516  0.900484  0.250000  1
  Ho  Ho4  1  0.899314  0.100686  0.406646  1
  Tm  Tm5  1  0.900405  0.099595  0.750000  1
  Co  Co6  1  0.299184  0.700816  0.250000  1
  Co  Co7  1  0.700920  0.299080  0.750000  1
  Sn  Sn8  1  0.755250  0.244750  0.571080  1
  Sn  Sn9  1  0.427399  0.572601  0.576179  1
  Sn  Sn10  1  0.572551  0.427449  0.424020  1
  Sn  Sn11  1  0.733152  0.266848  0.250000  1
  Sn  Sn12  1  0.267080  0.732920  0.750000  1
  Sn  Sn13  1  0.244783  0.755217  0.071048  1
  Sn  Sn14  1  0.244783  0.755217  0.428952  1
  Sn  Sn15  1  0.572551  0.427449  0.075980  1
  Sn  Sn16  1  0.453456  0.546544  0.250000  1
  Sn  Sn17  1  0.546377  0.453623  0.750000  1
  Sn  Sn18  1  0.755250  0.244750  0.928920  1
  Sn  Sn19  1  0.427399  0.572601  0.923821  1
