# generated using pymatgen
data_TbDy19(CoSb2)4
_symmetry_space_group_name_H-M   'P 1'
_cell_length_a   7.89629577
_cell_length_b   8.77068800
_cell_length_c   12.17469119
_cell_angle_alpha   90.00000000
_cell_angle_beta   90.01509594
_cell_angle_gamma   90.00000000
_symmetry_Int_Tables_number   1
_chemical_formula_structural   TbDy19(CoSb2)4
_chemical_formula_sum   'Tb1 Dy19 Co4 Sb8'
_cell_volume   843.16973312
_cell_formula_units_Z   1
loop_
 _symmetry_equiv_pos_site_id
 _symmetry_equiv_pos_as_xyz
  1  'x, y, z'
loop_
 _atom_site_type_symbol
 _atom_site_label
 _atom_site_symmetry_multiplicity
 _atom_site_fract_x
 _atom_site_fract_y
 _atom_site_fract_z
 _atom_site_occupancy
  Tb  Tb0  1  0.876850  0.750000  0.806228  1
  Dy  Dy1  1  0.155536  0.750000  0.203696  1
  Dy  Dy2  1  0.655895  0.250000  0.296002  1
  Dy  Dy3  1  0.844336  0.250000  0.796233  1
  Dy  Dy4  1  0.344400  0.750000  0.703842  1
  Dy  Dy5  1  0.454103  0.750000  0.998139  1
  Dy  Dy6  1  0.954467  0.250000  0.501715  1
  Dy  Dy7  1  0.545792  0.250000  0.001944  1
  Dy  Dy8  1  0.046024  0.750000  0.498207  1
  Dy  Dy9  1  0.622780  0.750000  0.306555  1
  Dy  Dy10  1  0.122742  0.250000  0.193705  1
  Dy  Dy11  1  0.377390  0.250000  0.693248  1
  Dy  Dy12  1  0.821538  0.964195  0.065562  1
  Dy  Dy13  1  0.321852  0.035698  0.434527  1
  Dy  Dy14  1  0.178203  0.463958  0.934710  1
  Dy  Dy15  1  0.678368  0.535827  0.565343  1
  Dy  Dy16  1  0.178203  0.036042  0.934710  1
  Dy  Dy17  1  0.678368  0.964173  0.565343  1
  Dy  Dy18  1  0.821538  0.535805  0.065562  1
  Dy  Dy19  1  0.321852  0.464302  0.434527  1
  Co  Co20  1  0.433755  0.750000  0.490532  1
  Co  Co21  1  0.933267  0.250000  0.009804  1
  Co  Co22  1  0.566586  0.250000  0.509309  1
  Co  Co23  1  0.066441  0.750000  0.990568  1
  Sb  Sb24  1  0.928464  0.991645  0.326817  1
  Sb  Sb25  1  0.428390  0.008102  0.173302  1
  Sb  Sb26  1  0.071935  0.491434  0.673142  1
  Sb  Sb27  1  0.571068  0.507854  0.826733  1
  Sb  Sb28  1  0.071935  0.008566  0.673142  1
  Sb  Sb29  1  0.571068  0.992146  0.826733  1
  Sb  Sb30  1  0.928464  0.508355  0.326817  1
  Sb  Sb31  1  0.428390  0.491898  0.173302  1
