# generated using pymatgen
data_Tb7Sm(C2Br3)2
_symmetry_space_group_name_H-M   'P 1'
_cell_length_a   3.71977400
_cell_length_b   10.84984881
_cell_length_c   20.73774628
_cell_angle_alpha   90.16100122
_cell_angle_beta   90.00000000
_cell_angle_gamma   90.00000000
_symmetry_Int_Tables_number   1
_chemical_formula_structural   Tb7Sm(C2Br3)2
_chemical_formula_sum   'Tb14 Sm2 C8 Br12'
_cell_volume   836.95109708
_cell_formula_units_Z   2
loop_
 _symmetry_equiv_pos_site_id
 _symmetry_equiv_pos_as_xyz
  1  'x, y, z'
loop_
 _atom_site_type_symbol
 _atom_site_label
 _atom_site_symmetry_multiplicity
 _atom_site_fract_x
 _atom_site_fract_y
 _atom_site_fract_z
 _atom_site_occupancy
  Tb  Tb0  1  0.750000  0.634619  0.080278  1
  Tb  Tb1  1  0.250000  0.365381  0.919722  1
  Tb  Tb2  1  0.250000  0.864759  0.744974  1
  Tb  Tb3  1  0.750000  0.135241  0.255026  1
  Tb  Tb4  1  0.750000  0.635419  0.243816  1
  Tb  Tb5  1  0.250000  0.364581  0.756184  1
  Tb  Tb6  1  0.250000  0.869331  0.168579  1
  Tb  Tb7  1  0.750000  0.130669  0.831421  1
  Tb  Tb8  1  0.750000  0.630148  0.669853  1
  Tb  Tb9  1  0.250000  0.369852  0.330147  1
  Tb  Tb10  1  0.250000  0.901217  0.327761  1
  Tb  Tb11  1  0.750000  0.098783  0.672239  1
  Tb  Tb12  1  0.750000  0.599204  0.829047  1
  Tb  Tb13  1  0.250000  0.400796  0.170953  1
  Sm  Sm14  1  0.250000  0.864296  0.579378  1
  Sm  Sm15  1  0.750000  0.135704  0.420622  1
  C  C16  1  0.250000  0.613045  0.751375  1
  C  C17  1  0.750000  0.386955  0.248625  1
  C  C18  1  0.750000  0.886024  0.249835  1
  C  C19  1  0.250000  0.113976  0.750165  1
  C  C20  1  0.250000  0.633840  0.155911  1
  C  C21  1  0.750000  0.366160  0.844089  1
  C  C22  1  0.750000  0.865241  0.658103  1
  C  C23  1  0.250000  0.134759  0.341897  1
  Br  Br24  1  0.250000  0.606965  0.557333  1
  Br  Br25  1  0.750000  0.393035  0.442667  1
  Br  Br26  1  0.750000  0.887018  0.055588  1
  Br  Br27  1  0.250000  0.112982  0.944412  1
  Br  Br28  1  0.250000  0.626571  0.952909  1
  Br  Br29  1  0.750000  0.373429  0.047091  1
  Br  Br30  1  0.750000  0.870026  0.450678  1
  Br  Br31  1  0.250000  0.129974  0.549322  1
  Br  Br32  1  0.250000  0.637351  0.355028  1
  Br  Br33  1  0.750000  0.362649  0.644972  1
  Br  Br34  1  0.750000  0.863498  0.857014  1
  Br  Br35  1  0.250000  0.136502  0.142986  1
