# generated using pymatgen
data_Dy7Ho(Si3Rh4)2
_symmetry_space_group_name_H-M   'P 1'
_cell_length_a   10.71736614
_cell_length_b   10.71884508
_cell_length_c   7.72012116
_cell_angle_alpha   71.33165353
_cell_angle_beta   71.33372494
_cell_angle_gamma   29.76242938
_symmetry_Int_Tables_number   1
_chemical_formula_structural   Dy7Ho(Si3Rh4)2
_chemical_formula_sum   'Dy7 Ho1 Si6 Rh8'
_cell_volume   415.40255654
_cell_formula_units_Z   1
loop_
 _symmetry_equiv_pos_site_id
 _symmetry_equiv_pos_as_xyz
  1  'x, y, z'
loop_
 _atom_site_type_symbol
 _atom_site_label
 _atom_site_symmetry_multiplicity
 _atom_site_fract_x
 _atom_site_fract_y
 _atom_site_fract_z
 _atom_site_occupancy
  Dy  Dy0  1  0.789852  0.549981  0.599867  1
  Dy  Dy1  1  0.449981  0.210255  0.900045  1
  Dy  Dy2  1  0.210163  0.450042  0.400199  1
  Dy  Dy3  1  0.549998  0.789850  0.099857  1
  Dy  Dy4  1  0.791133  0.073715  0.168485  1
  Dy  Dy5  1  0.926288  0.208795  0.331641  1
  Dy  Dy6  1  0.208855  0.926256  0.831501  1
  Ho  Ho7  1  0.073775  0.790922  0.668491  1
  Si  Si8  1  0.952949  0.703298  0.055475  1
  Si  Si9  1  0.296710  0.047142  0.444324  1
  Si  Si10  1  0.047131  0.296768  0.944319  1
  Si  Si11  1  0.703494  0.952793  0.555737  1
  Si  Si12  1  0.634800  0.365137  0.749925  1
  Si  Si13  1  0.365071  0.634863  0.250114  1
  Rh  Rh14  1  0.576018  0.298367  0.520628  1
  Rh  Rh15  1  0.701640  0.423942  0.979545  1
  Rh  Rh16  1  0.423736  0.701702  0.479706  1
  Rh  Rh17  1  0.298257  0.576161  0.020218  1
  Rh  Rh18  1  0.628768  0.929593  0.308796  1
  Rh  Rh19  1  0.070421  0.371250  0.191219  1
  Rh  Rh20  1  0.371288  0.070376  0.691182  1
  Rh  Rh21  1  0.929672  0.628791  0.808726  1
