# generated using pymatgen
data_Tm6TcNi17As12
_symmetry_space_group_name_H-M   'P 1'
_cell_length_a   3.87182000
_cell_length_b   10.85864800
_cell_length_c   12.77562800
_cell_angle_alpha   90.00000000
_cell_angle_beta   90.00000000
_cell_angle_gamma   90.00000000
_symmetry_Int_Tables_number   1
_chemical_formula_structural   Tm6TcNi17As12
_chemical_formula_sum   'Tm6 Tc1 Ni17 As12'
_cell_volume   537.12228496
_cell_formula_units_Z   1
loop_
 _symmetry_equiv_pos_site_id
 _symmetry_equiv_pos_as_xyz
  1  'x, y, z'
loop_
 _atom_site_type_symbol
 _atom_site_label
 _atom_site_symmetry_multiplicity
 _atom_site_fract_x
 _atom_site_fract_y
 _atom_site_fract_z
 _atom_site_occupancy
  Tm  Tm0  1  0.000000  0.500000  0.525864  1
  Tm  Tm1  1  0.500000  0.000000  0.477205  1
  Tm  Tm2  1  0.500000  0.818163  0.208327  1
  Tm  Tm3  1  0.500000  0.181837  0.208327  1
  Tm  Tm4  1  0.000000  0.683901  0.792534  1
  Tm  Tm5  1  0.000000  0.316099  0.792534  1
  Tc  Tc6  1  0.500000  0.500000  0.153531  1
  Ni  Ni7  1  0.000000  0.000000  0.840897  1
  Ni  Ni8  1  0.500000  0.500000  0.701023  1
  Ni  Ni9  1  0.000000  0.000000  0.301892  1
  Ni  Ni10  1  0.000000  0.500000  0.983744  1
  Ni  Ni11  1  0.500000  0.000000  0.019532  1
  Ni  Ni12  1  0.500000  0.328776  0.991966  1
  Ni  Ni13  1  0.500000  0.671224  0.991966  1
  Ni  Ni14  1  0.000000  0.163693  0.003927  1
  Ni  Ni15  1  0.000000  0.836307  0.003927  1
  Ni  Ni16  1  0.500000  0.303789  0.428318  1
  Ni  Ni17  1  0.500000  0.696211  0.428318  1
  Ni  Ni18  1  0.000000  0.196954  0.571751  1
  Ni  Ni19  1  0.000000  0.803046  0.571751  1
  Ni  Ni20  1  0.500000  0.878218  0.707282  1
  Ni  Ni21  1  0.500000  0.121782  0.707282  1
  Ni  Ni22  1  0.000000  0.620722  0.292057  1
  Ni  Ni23  1  0.000000  0.379278  0.292057  1
  As  As24  1  0.500000  0.500000  0.877974  1
  As  As25  1  0.000000  0.000000  0.126215  1
  As  As26  1  0.500000  0.500000  0.349027  1
  As  As27  1  0.000000  0.000000  0.651751  1
  As  As28  1  0.500000  0.315037  0.614801  1
  As  As29  1  0.500000  0.684963  0.614801  1
  As  As30  1  0.000000  0.184770  0.386123  1
  As  As31  1  0.000000  0.815230  0.386123  1
  As  As32  1  0.500000  0.849997  0.888797  1
  As  As33  1  0.500000  0.150003  0.888797  1
  As  As34  1  0.000000  0.655836  0.109787  1
  As  As35  1  0.000000  0.344164  0.109787  1
