# generated using pymatgen
data_SmMnSi2Os
_symmetry_space_group_name_H-M   'P 1'
_cell_length_a   5.90585261
_cell_length_b   5.90585240
_cell_length_c   5.90585257
_cell_angle_alpha   140.05320033
_cell_angle_beta   140.05320011
_cell_angle_gamma   57.77252782
_symmetry_Int_Tables_number   1
_chemical_formula_structural   SmMnSi2Os
_chemical_formula_sum   'Sm1 Mn1 Si2 Os1'
_cell_volume   84.17796959
_cell_formula_units_Z   1
loop_
 _symmetry_equiv_pos_site_id
 _symmetry_equiv_pos_as_xyz
  1  'x, y, z'
loop_
 _atom_site_type_symbol
 _atom_site_label
 _atom_site_symmetry_multiplicity
 _atom_site_fract_x
 _atom_site_fract_y
 _atom_site_fract_z
 _atom_site_occupancy
  Sm  Sm0  1  0.000000  0.000000  0.000000  1
  Mn  Mn1  1  0.750000  0.250000  0.500000  1
  Si  Si2  1  0.621970  0.621970  0.000000  1
  Si  Si3  1  0.378030  0.378030  0.000000  1
  Os  Os4  1  0.250000  0.750000  0.500000  1
