# generated using pymatgen
data_Ca12Np7Mo(WN4)12
_symmetry_space_group_name_H-M   'P 1'
_cell_length_a   11.39123045
_cell_length_b   11.40550160
_cell_length_c   11.40550212
_cell_angle_alpha   109.49655374
_cell_angle_beta   109.44587795
_cell_angle_gamma   109.44587529
_symmetry_Int_Tables_number   1
_chemical_formula_structural   Ca12Np7Mo(WN4)12
_chemical_formula_sum   'Ca12 Np7 Mo1 W12 N48'
_cell_volume   1141.07261815
_cell_formula_units_Z   1
loop_
 _symmetry_equiv_pos_site_id
 _symmetry_equiv_pos_as_xyz
  1  'x, y, z'
loop_
 _atom_site_type_symbol
 _atom_site_label
 _atom_site_symmetry_multiplicity
 _atom_site_fract_x
 _atom_site_fract_y
 _atom_site_fract_z
 _atom_site_occupancy
  Ca  Ca0  1  0.243538  0.374960  0.121140  1
  Ca  Ca1  1  0.368577  0.746179  0.125041  1
  Ca  Ca2  1  0.374247  0.124723  0.249421  1
  Ca  Ca3  1  0.877603  0.621140  0.246179  1
  Ca  Ca4  1  0.749525  0.124699  0.375277  1
  Ca  Ca5  1  0.124826  0.250579  0.375302  1
  Ca  Ca6  1  0.875174  0.749421  0.624698  1
  Ca  Ca7  1  0.250475  0.875303  0.624723  1
  Ca  Ca8  1  0.122399  0.378860  0.753821  1
  Ca  Ca9  1  0.625753  0.875277  0.750579  1
  Ca  Ca10  1  0.631423  0.253821  0.874961  1
  Ca  Ca11  1  0.756462  0.625040  0.878860  1
  Np  Np12  1  0.000000  0.000000  0.000000  1
  Np  Np13  1  0.500001  0.000000  0.000000  1
  Np  Np14  1  0.500000  0.500000  0.000000  1
  Np  Np15  1  0.000000  0.000000  0.500001  1
  Np  Np16  1  0.500000  0.000000  0.500000  1
  Np  Np17  1  0.000000  0.500000  0.500000  1
  Np  Np18  1  0.500001  0.500001  0.500001  1
  Mo  Mo19  1  0.000000  0.500001  0.000000  1
  W  W20  1  0.875657  0.253260  0.125192  1
  W  W21  1  0.750476  0.874650  0.125090  1
  W  W22  1  0.625386  0.374910  0.249561  1
  W  W23  1  0.122396  0.871931  0.246738  1
  W  W24  1  0.249534  0.625192  0.371931  1
  W  W25  1  0.624173  0.749561  0.374650  1
  W  W26  1  0.375826  0.250439  0.625350  1
  W  W27  1  0.750466  0.374808  0.628068  1
  W  W28  1  0.877604  0.128069  0.753261  1
  W  W29  1  0.374614  0.625089  0.750439  1
  W  W30  1  0.249523  0.125350  0.874910  1
  W  W31  1  0.124343  0.746739  0.874808  1
  N  N32  1  0.203103  0.118548  0.016989  1
  N  N33  1  0.313272  0.895569  0.016020  1
  N  N34  1  0.890540  0.399336  0.079398  1
  N  N35  1  0.703816  0.685527  0.084509  1
  N  N36  1  0.619306  0.415491  0.101016  1
  N  N37  1  0.991204  0.680063  0.100665  1
  N  N38  1  0.602025  0.915233  0.117294  1
  N  N39  1  0.015343  0.204321  0.117252  1
  N  N40  1  0.188859  0.579398  0.180063  1
  N  N41  1  0.481710  0.601016  0.185527  1
  N  N42  1  0.115392  0.014654  0.199444  1
  N  N43  1  0.584502  0.185816  0.203009  1
  N  N44  1  0.484731  0.382706  0.297939  1
  N  N45  1  0.311022  0.912931  0.295678  1
  N  N46  1  0.915947  0.300555  0.315210  1
  N  N47  1  0.898687  0.017195  0.314185  1
  N  N48  1  0.297252  0.483981  0.379549  1
  N  N49  1  0.584555  0.898440  0.381452  1
  N  N50  1  0.813886  0.516989  0.398441  1
  N  N51  1  0.082297  0.879550  0.395569  1
  N  N52  1  0.101909  0.617252  0.412931  1
  N  N53  1  0.813209  0.797940  0.415233  1
  N  N54  1  0.600738  0.184791  0.485346  1
  N  N55  1  0.381492  0.296991  0.482806  1
  N  N56  1  0.618507  0.703009  0.517194  1
  N  N57  1  0.399262  0.815210  0.514654  1
  N  N58  1  0.186792  0.202061  0.584767  1
  N  N59  1  0.898090  0.382748  0.587069  1
  N  N60  1  0.917703  0.120451  0.604432  1
  N  N61  1  0.186115  0.483011  0.601559  1
  N  N62  1  0.415445  0.101559  0.618548  1
  N  N63  1  0.702748  0.516019  0.620450  1
  N  N64  1  0.084053  0.699445  0.684791  1
  N  N65  1  0.101314  0.982806  0.685816  1
  N  N66  1  0.688979  0.087069  0.704322  1
  N  N67  1  0.515269  0.617293  0.702061  1
  N  N68  1  0.415498  0.814185  0.796992  1
  N  N69  1  0.884608  0.985346  0.800555  1
  N  N70  1  0.518290  0.398984  0.814474  1
  N  N71  1  0.811142  0.420602  0.819938  1
  N  N72  1  0.397976  0.084767  0.882707  1
  N  N73  1  0.984657  0.795678  0.882748  1
  N  N74  1  0.008797  0.319938  0.899336  1
  N  N75  1  0.380694  0.584509  0.898983  1
  N  N76  1  0.296184  0.314474  0.915491  1
  N  N77  1  0.109461  0.600665  0.920602  1
  N  N78  1  0.686729  0.104432  0.983981  1
  N  N79  1  0.796896  0.881452  0.983011  1
