# generated using pymatgen
data_LiPr4Al3Pt4
_symmetry_space_group_name_H-M   'P 1'
_cell_length_a   4.51110800
_cell_length_b   7.11600730
_cell_length_c   8.01696209
_cell_angle_alpha   89.97494014
_cell_angle_beta   90.00000000
_cell_angle_gamma   90.00000000
_symmetry_Int_Tables_number   1
_chemical_formula_structural   LiPr4Al3Pt4
_chemical_formula_sum   'Li1 Pr4 Al3 Pt4'
_cell_volume   257.35309627
_cell_formula_units_Z   1
loop_
 _symmetry_equiv_pos_site_id
 _symmetry_equiv_pos_as_xyz
  1  'x, y, z'
loop_
 _atom_site_type_symbol
 _atom_site_label
 _atom_site_symmetry_multiplicity
 _atom_site_fract_x
 _atom_site_fract_y
 _atom_site_fract_z
 _atom_site_occupancy
  Li  Li0  1  0.250000  0.135949  0.068506  1
  Pr  Pr1  1  0.250000  0.531361  0.814614  1
  Pr  Pr2  1  0.250000  0.024121  0.686249  1
  Pr  Pr3  1  0.750000  0.972342  0.314292  1
  Pr  Pr4  1  0.750000  0.469780  0.183928  1
  Al  Al5  1  0.750000  0.357110  0.564525  1
  Al  Al6  1  0.250000  0.653326  0.432846  1
  Al  Al7  1  0.750000  0.856702  0.936219  1
  Pt  Pt8  1  0.250000  0.766453  0.110963  1
  Pt  Pt9  1  0.250000  0.289807  0.402845  1
  Pt  Pt10  1  0.750000  0.720575  0.609597  1
  Pt  Pt11  1  0.750000  0.222475  0.875415  1
