# generated using pymatgen
data_Y20Si12P
_symmetry_space_group_name_H-M   'P 1'
_cell_length_a   14.78528900
_cell_length_b   6.39118751
_cell_length_c   8.49607938
_cell_angle_alpha   89.87411408
_cell_angle_beta   90.00000000
_cell_angle_gamma   90.00000000
_symmetry_Int_Tables_number   1
_chemical_formula_structural   Y20Si12P
_chemical_formula_sum   'Y20 Si12 P1'
_cell_volume   802.83979349
_cell_formula_units_Z   1
loop_
 _symmetry_equiv_pos_site_id
 _symmetry_equiv_pos_as_xyz
  1  'x, y, z'
loop_
 _atom_site_type_symbol
 _atom_site_label
 _atom_site_symmetry_multiplicity
 _atom_site_fract_x
 _atom_site_fract_y
 _atom_site_fract_z
 _atom_site_occupancy
  Y  Y0  1  0.666142  0.500000  0.500000  1
  Y  Y1  1  0.168603  0.500000  0.000000  1
  Y  Y2  1  0.831397  0.500000  0.000000  1
  Y  Y3  1  0.333858  0.500000  0.500000  1
  Y  Y4  1  0.832223  0.000000  0.000000  1
  Y  Y5  1  0.335322  0.000000  0.500000  1
  Y  Y6  1  0.664678  0.000000  0.500000  1
  Y  Y7  1  0.167777  0.000000  0.000000  1
  Y  Y8  1  0.500000  0.252753  0.755383  1
  Y  Y9  1  0.000000  0.249938  0.247805  1
  Y  Y10  1  0.620139  0.249484  0.122226  1
  Y  Y11  1  0.126797  0.248130  0.627247  1
  Y  Y12  1  0.873203  0.248130  0.627247  1
  Y  Y13  1  0.379861  0.249484  0.122226  1
  Y  Y14  1  0.000000  0.750062  0.752195  1
  Y  Y15  1  0.500000  0.747247  0.244617  1
  Y  Y16  1  0.873203  0.751870  0.372753  1
  Y  Y17  1  0.379861  0.750516  0.877774  1
  Y  Y18  1  0.620139  0.750516  0.877774  1
  Y  Y19  1  0.126797  0.751870  0.372753  1
  Si  Si20  1  0.000000  0.247944  0.895667  1
  Si  Si21  1  0.500000  0.254053  0.394985  1
  Si  Si22  1  0.800456  0.247157  0.301426  1
  Si  Si23  1  0.304481  0.248714  0.803433  1
  Si  Si24  1  0.695519  0.248714  0.803433  1
  Si  Si25  1  0.199544  0.247157  0.301426  1
  Si  Si26  1  0.500000  0.745947  0.605015  1
  Si  Si27  1  0.000000  0.752056  0.104333  1
  Si  Si28  1  0.695519  0.751286  0.196567  1
  Si  Si29  1  0.199544  0.752843  0.698574  1
  Si  Si30  1  0.800456  0.752843  0.698574  1
  Si  Si31  1  0.304481  0.751286  0.196567  1
  P  P32  1  0.000000  0.500000  0.500000  1
