# generated using pymatgen
data_LaDy2Mn(Co5B2)2
_symmetry_space_group_name_H-M   'P 1'
_cell_length_a   5.09145400
_cell_length_b   5.09145406
_cell_length_c   9.77630000
_cell_angle_alpha   90.00000000
_cell_angle_beta   90.00000000
_cell_angle_gamma   120.00001259
_symmetry_Int_Tables_number   1
_chemical_formula_structural   LaDy2Mn(Co5B2)2
_chemical_formula_sum   'La1 Dy2 Mn1 Co10 B4'
_cell_volume   219.47686628
_cell_formula_units_Z   1
loop_
 _symmetry_equiv_pos_site_id
 _symmetry_equiv_pos_as_xyz
  1  'x, y, z'
loop_
 _atom_site_type_symbol
 _atom_site_label
 _atom_site_symmetry_multiplicity
 _atom_site_fract_x
 _atom_site_fract_y
 _atom_site_fract_z
 _atom_site_occupancy
  La  La0  1  0.000000  0.000000  0.000000  1
  Dy  Dy1  1  0.000000  0.000000  0.656678  1
  Dy  Dy2  1  0.000000  0.000000  0.343322  1
  Mn  Mn3  1  0.333333  0.666667  0.000000  1
  Co  Co4  1  0.499623  0.500377  0.500000  1
  Co  Co5  1  0.000755  0.500377  0.500000  1
  Co  Co6  1  0.501273  0.002546  0.208404  1
  Co  Co7  1  0.501273  0.498727  0.208404  1
  Co  Co8  1  0.997454  0.498727  0.208404  1
  Co  Co9  1  0.501273  0.002546  0.791596  1
  Co  Co10  1  0.501273  0.498727  0.791596  1
  Co  Co11  1  0.997454  0.498727  0.791596  1
  Co  Co12  1  0.666667  0.333333  0.000000  1
  Co  Co13  1  0.499623  0.999245  0.500000  1
  B  B14  1  0.333333  0.666667  0.649195  1
  B  B15  1  0.666667  0.333333  0.647641  1
  B  B16  1  0.666667  0.333333  0.352359  1
  B  B17  1  0.333333  0.666667  0.350805  1
