# generated using pymatgen
data_Dy10Co2Br15
_symmetry_space_group_name_H-M   'P 1'
_cell_length_a   9.23036694
_cell_length_b   10.05279304
_cell_length_c   10.86894365
_cell_angle_alpha   92.46238148
_cell_angle_beta   114.14618974
_cell_angle_gamma   110.50287951
_symmetry_Int_Tables_number   1
_chemical_formula_structural   Dy10Co2Br15
_chemical_formula_sum   'Dy10 Co2 Br15'
_cell_volume   841.28750430
_cell_formula_units_Z   1
loop_
 _symmetry_equiv_pos_site_id
 _symmetry_equiv_pos_as_xyz
  1  'x, y, z'
loop_
 _atom_site_type_symbol
 _atom_site_label
 _atom_site_symmetry_multiplicity
 _atom_site_fract_x
 _atom_site_fract_y
 _atom_site_fract_z
 _atom_site_occupancy
  Dy  Dy0  1  0.796511  0.399702  0.270962  1
  Dy  Dy1  1  0.203489  0.600298  0.729038  1
  Dy  Dy2  1  0.667214  0.751493  0.822232  1
  Dy  Dy3  1  0.332786  0.248507  0.177768  1
  Dy  Dy4  1  0.527036  0.707137  0.098624  1
  Dy  Dy5  1  0.472964  0.292863  0.901376  1
  Dy  Dy6  1  0.590981  0.045737  0.334140  1
  Dy  Dy7  1  0.409019  0.954263  0.665860  1
  Dy  Dy8  1  0.730511  0.078542  0.050070  1
  Dy  Dy9  1  0.269489  0.921458  0.949930  1
  Co  Co10  1  0.468210  0.831021  0.882597  1
  Co  Co11  1  0.531790  0.168979  0.117403  1
  Br  Br12  1  0.000000  0.000000  0.000000  1
  Br  Br13  1  0.638443  0.885788  0.584606  1
  Br  Br14  1  0.361557  0.114212  0.415394  1
  Br  Br15  1  0.888543  0.306430  0.527540  1
  Br  Br16  1  0.111457  0.693570  0.472460  1
  Br  Br17  1  0.299302  0.763561  0.187967  1
  Br  Br18  1  0.700698  0.236439  0.812033  1
  Br  Br19  1  0.061804  0.340944  0.225881  1
  Br  Br20  1  0.168374  0.060449  0.696991  1
  Br  Br21  1  0.831626  0.939551  0.303009  1
  Br  Br22  1  0.243003  0.414410  0.946147  1
  Br  Br23  1  0.756997  0.585590  0.053853  1
  Br  Br24  1  0.409244  0.465910  0.669120  1
  Br  Br25  1  0.590756  0.534090  0.330880  1
  Br  Br26  1  0.938196  0.659056  0.774119  1
