# generated using pymatgen
data_Sc6ZnSn6Ir5
_symmetry_space_group_name_H-M   'P 1'
_cell_length_a   7.53547600
_cell_length_b   7.53547631
_cell_length_c   7.16023400
_cell_angle_alpha   90.00000000
_cell_angle_beta   90.00000000
_cell_angle_gamma   119.99999865
_symmetry_Int_Tables_number   1
_chemical_formula_structural   Sc6ZnSn6Ir5
_chemical_formula_sum   'Sc6 Zn1 Sn6 Ir5'
_cell_volume   352.11072436
_cell_formula_units_Z   1
loop_
 _symmetry_equiv_pos_site_id
 _symmetry_equiv_pos_as_xyz
  1  'x, y, z'
loop_
 _atom_site_type_symbol
 _atom_site_label
 _atom_site_symmetry_multiplicity
 _atom_site_fract_x
 _atom_site_fract_y
 _atom_site_fract_z
 _atom_site_occupancy
  Sc  Sc0  1  0.387911  0.990826  0.241181  1
  Sc  Sc1  1  0.602916  0.612089  0.241181  1
  Sc  Sc2  1  0.009174  0.397084  0.241181  1
  Sc  Sc3  1  0.381566  0.976838  0.759599  1
  Sc  Sc4  1  0.595272  0.618434  0.759599  1
  Sc  Sc5  1  0.023162  0.404728  0.759599  1
  Zn  Zn6  1  0.666667  0.333333  0.522590  1
  Sn  Sn7  1  0.284727  0.276445  0.999360  1
  Sn  Sn8  1  0.991717  0.715273  0.999360  1
  Sn  Sn9  1  0.999628  0.734125  0.498518  1
  Sn  Sn10  1  0.734497  0.000372  0.498518  1
  Sn  Sn11  1  0.265875  0.265503  0.498518  1
  Sn  Sn12  1  0.723555  0.008283  0.999360  1
  Ir  Ir13  1  0.000000  0.000000  0.763555  1
  Ir  Ir14  1  0.000000  0.000000  0.234131  1
  Ir  Ir15  1  0.666667  0.333333  0.984747  1
  Ir  Ir16  1  0.333333  0.666667  0.487446  1
  Ir  Ir17  1  0.333333  0.666667  0.011559  1
