# generated using pymatgen
data_Ca3Eu8Ho9Si16
_symmetry_space_group_name_H-M   'P 1'
_cell_length_a   7.53561000
_cell_length_b   7.88840801
_cell_length_c   14.98987600
_cell_angle_alpha   90.00000000
_cell_angle_beta   90.00000000
_cell_angle_gamma   89.99690584
_symmetry_Int_Tables_number   1
_chemical_formula_structural   Ca3Eu8Ho9Si16
_chemical_formula_sum   'Ca3 Eu8 Ho9 Si16'
_cell_volume   891.05768242
_cell_formula_units_Z   1
loop_
 _symmetry_equiv_pos_site_id
 _symmetry_equiv_pos_as_xyz
  1  'x, y, z'
loop_
 _atom_site_type_symbol
 _atom_site_label
 _atom_site_symmetry_multiplicity
 _atom_site_fract_x
 _atom_site_fract_y
 _atom_site_fract_z
 _atom_site_occupancy
  Ca  Ca0  1  0.650270  0.985000  0.250000  1
  Ca  Ca1  1  0.151012  0.514476  0.250000  1
  Ca  Ca2  1  0.847538  0.482357  0.750000  1
  Eu  Eu3  1  0.976192  0.820191  0.096667  1
  Eu  Eu4  1  0.476816  0.680829  0.403811  1
  Eu  Eu5  1  0.523052  0.322546  0.904077  1
  Eu  Eu6  1  0.022024  0.178800  0.596632  1
  Eu  Eu7  1  0.022024  0.178800  0.903368  1
  Eu  Eu8  1  0.523052  0.322546  0.595923  1
  Eu  Eu9  1  0.476816  0.680829  0.096189  1
  Eu  Eu10  1  0.976192  0.820191  0.403333  1
  Ho  Ho11  1  0.348709  0.017135  0.750000  1
  Ho  Ho12  1  0.682080  0.819375  0.878402  1
  Ho  Ho13  1  0.180586  0.677196  0.621359  1
  Ho  Ho14  1  0.819274  0.320670  0.121068  1
  Ho  Ho15  1  0.319568  0.178155  0.379435  1
  Ho  Ho16  1  0.319568  0.178155  0.120565  1
  Ho  Ho17  1  0.819274  0.320670  0.378932  1
  Ho  Ho18  1  0.180586  0.677196  0.878641  1
  Ho  Ho19  1  0.682080  0.819375  0.621598  1
  Si  Si20  1  0.759198  0.604179  0.250000  1
  Si  Si21  1  0.259735  0.895513  0.250000  1
  Si  Si22  1  0.732759  0.101699  0.750000  1
  Si  Si23  1  0.244800  0.387211  0.750000  1
  Si  Si24  1  0.030293  0.112992  0.250000  1
  Si  Si25  1  0.529578  0.386177  0.250000  1
  Si  Si26  1  0.467922  0.617356  0.750000  1
  Si  Si27  1  0.975259  0.892781  0.750000  1
  Si  Si28  1  0.857636  0.533712  0.962369  1
  Si  Si29  1  0.358091  0.970045  0.542340  1
  Si  Si30  1  0.643062  0.033803  0.035750  1
  Si  Si31  1  0.143084  0.466239  0.462950  1
  Si  Si32  1  0.143084  0.466239  0.037050  1
  Si  Si33  1  0.643062  0.033803  0.464250  1
  Si  Si34  1  0.358091  0.970045  0.957660  1
  Si  Si35  1  0.857636  0.533712  0.537631  1
