# generated using pymatgen
data_Tm3MgZn2Si2Pt
_symmetry_space_group_name_H-M   'P 1'
_cell_length_a   6.96079600
_cell_length_b   6.89176542
_cell_length_c   4.22966200
_cell_angle_alpha   90.00000000
_cell_angle_beta   90.00000000
_cell_angle_gamma   120.33189624
_symmetry_Int_Tables_number   1
_chemical_formula_structural   Tm3MgZn2Si2Pt
_chemical_formula_sum   'Tm3 Mg1 Zn2 Si2 Pt1'
_cell_volume   175.13118786
_cell_formula_units_Z   1
loop_
 _symmetry_equiv_pos_site_id
 _symmetry_equiv_pos_as_xyz
  1  'x, y, z'
loop_
 _atom_site_type_symbol
 _atom_site_label
 _atom_site_symmetry_multiplicity
 _atom_site_fract_x
 _atom_site_fract_y
 _atom_site_fract_z
 _atom_site_occupancy
  Tm  Tm0  1  0.410166  0.000000  0.000000  1
  Tm  Tm1  1  0.999462  0.419093  0.000000  1
  Tm  Tm2  1  0.580368  0.580908  0.000000  1
  Mg  Mg3  1  0.767177  0.000000  0.500000  1
  Zn  Zn4  1  0.247335  0.249056  0.500000  1
  Zn  Zn5  1  0.998280  0.750943  0.500000  1
  Si  Si6  1  0.662904  0.336098  0.500000  1
  Si  Si7  1  0.326807  0.663903  0.500000  1
  Pt  Pt8  1  0.007499  0.000000  0.000000  1
