# generated using pymatgen
data_Nb8Co7Si14Ir
_symmetry_space_group_name_H-M   'P 1'
_cell_length_a   9.29736437
_cell_length_b   9.30610552
_cell_length_c   9.28894540
_cell_angle_alpha   94.26859656
_cell_angle_beta   94.21852323
_cell_angle_gamma   148.45294779
_symmetry_Int_Tables_number   1
_chemical_formula_structural   Nb8Co7Si14Ir
_chemical_formula_sum   'Nb8 Co7 Si14 Ir1'
_cell_volume   404.61612613
_cell_formula_units_Z   1
loop_
 _symmetry_equiv_pos_site_id
 _symmetry_equiv_pos_as_xyz
  1  'x, y, z'
loop_
 _atom_site_type_symbol
 _atom_site_label
 _atom_site_symmetry_multiplicity
 _atom_site_fract_x
 _atom_site_fract_y
 _atom_site_fract_z
 _atom_site_occupancy
  Nb  Nb0  1  0.310286  0.499643  0.809474  1
  Nb  Nb1  1  0.690979  0.501574  0.192006  1
  Nb  Nb2  1  0.501026  0.690431  0.192006  1
  Nb  Nb3  1  0.499189  0.309830  0.809474  1
  Nb  Nb4  1  0.133547  0.133547  0.267091  1
  Nb  Nb5  1  0.866150  0.866150  0.732300  1
  Nb  Nb6  1  0.134201  0.868402  0.001316  1
  Nb  Nb7  1  0.867115  0.132914  0.001316  1
  Co  Co8  1  0.103715  0.603715  0.207430  1
  Co  Co9  1  0.899196  0.099155  0.497495  1
  Co  Co10  1  0.598298  0.398339  0.497495  1
  Co  Co11  1  0.600274  0.100274  0.200549  1
  Co  Co12  1  0.899172  0.399172  0.798343  1
  Co  Co13  1  0.101184  0.898930  0.499778  1
  Co  Co14  1  0.398594  0.600848  0.499778  1
  Si  Si15  1  0.291664  0.291664  0.583327  1
  Si  Si16  1  0.708180  0.708180  0.416359  1
  Si  Si17  1  0.282532  0.695448  0.006410  1
  Si  Si18  1  0.723878  0.310962  0.006410  1
  Si  Si19  1  0.075862  0.479290  0.587496  1
  Si  Si20  1  0.903156  0.498427  0.406143  1
  Si  Si21  1  0.502987  0.907716  0.406143  1
  Si  Si22  1  0.511635  0.108206  0.587496  1
  Si  Si23  1  0.249609  0.249365  0.000261  1
  Si  Si24  1  0.750653  0.750896  0.000261  1
  Si  Si25  1  0.297279  0.001035  0.296081  1
  Si  Si26  1  0.716075  0.005731  0.702069  1
  Si  Si27  1  0.985994  0.696338  0.702069  1
  Si  Si28  1  0.998802  0.295046  0.296081  1
  Ir  Ir29  1  0.398772  0.898772  0.797545  1
