# generated using pymatgen
data_Tb4YbSm2RuI12
_symmetry_space_group_name_H-M   'P 1'
_cell_length_a   9.91267771
_cell_length_b   9.84995395
_cell_length_c   9.84821799
_cell_angle_alpha   106.88769568
_cell_angle_beta   106.88386224
_cell_angle_gamma   107.19496360
_symmetry_Int_Tables_number   1
_chemical_formula_structural   Tb4YbSm2RuI12
_chemical_formula_sum   'Tb4 Yb1 Sm2 Ru1 I12'
_cell_volume   801.04589796
_cell_formula_units_Z   1
loop_
 _symmetry_equiv_pos_site_id
 _symmetry_equiv_pos_as_xyz
  1  'x, y, z'
loop_
 _atom_site_type_symbol
 _atom_site_label
 _atom_site_symmetry_multiplicity
 _atom_site_fract_x
 _atom_site_fract_y
 _atom_site_fract_z
 _atom_site_occupancy
  Tb  Tb0  1  0.694341  0.974465  0.901147  1
  Tb  Tb1  1  0.095733  0.294471  0.026131  1
  Tb  Tb2  1  0.025699  0.096972  0.293690  1
  Tb  Tb3  1  0.306441  0.026800  0.100651  1
  Yb  Yb4  1  0.499988  0.500122  0.500046  1
  Sm  Sm5  1  0.903300  0.702540  0.974733  1
  Sm  Sm6  1  0.974937  0.903935  0.703266  1
  Ru  Ru7  1  0.000278  0.999823  0.000067  1
  I  I8  1  0.618015  0.846555  0.541926  1
  I  I9  1  0.539833  0.619815  0.845719  1
  I  I10  1  0.843004  0.537744  0.615790  1
  I  I11  1  0.378285  0.153135  0.457809  1
  I  I12  1  0.456110  0.380137  0.152513  1
  I  I13  1  0.154471  0.457416  0.380067  1
  I  I14  1  0.682551  0.073725  0.225278  1
  I  I15  1  0.226398  0.681879  0.073987  1
  I  I16  1  0.074817  0.228763  0.683387  1
  I  I17  1  0.321396  0.927167  0.777038  1
  I  I18  1  0.777278  0.316825  0.927093  1
  I  I19  1  0.927123  0.777709  0.319662  1
