# generated using pymatgen
data_Er3Si(PPd4)5
_symmetry_space_group_name_H-M   'P 1'
_cell_length_a   8.68238167
_cell_length_b   8.67236474
_cell_length_c   8.67236479
_cell_angle_alpha   60.07642295
_cell_angle_beta   59.96178707
_cell_angle_gamma   59.96178252
_symmetry_Int_Tables_number   1
_chemical_formula_structural   Er3Si(PPd4)5
_chemical_formula_sum   'Er3 Si1 P5 Pd20'
_cell_volume   461.74028173
_cell_formula_units_Z   1
loop_
 _symmetry_equiv_pos_site_id
 _symmetry_equiv_pos_as_xyz
  1  'x, y, z'
loop_
 _atom_site_type_symbol
 _atom_site_label
 _atom_site_symmetry_multiplicity
 _atom_site_fract_x
 _atom_site_fract_y
 _atom_site_fract_z
 _atom_site_occupancy
  Er  Er0  1  0.999177  0.000823  0.000823  1
  Er  Er1  1  0.750757  0.749243  0.749243  1
  Er  Er2  1  0.250757  0.249243  0.249243  1
  Si  Si3  1  0.733664  0.266336  0.266336  1
  P  P4  1  0.737031  0.735027  0.262969  1
  P  P5  1  0.737031  0.262969  0.735027  1
  P  P6  1  0.264973  0.735027  0.262969  1
  P  P7  1  0.264306  0.735694  0.735694  1
  P  P8  1  0.264973  0.262969  0.735027  1
  Pd  Pd9  1  0.342473  0.001092  0.001092  1
  Pd  Pd10  1  0.998908  0.657527  0.344657  1
  Pd  Pd11  1  0.345535  0.998796  0.654465  1
  Pd  Pd12  1  0.001204  0.654465  0.998796  1
  Pd  Pd13  1  0.654248  0.345752  0.999445  1
  Pd  Pd14  1  0.615404  0.618203  0.150988  1
  Pd  Pd15  1  0.384249  0.847274  0.384228  1
  Pd  Pd16  1  0.152726  0.615751  0.615751  1
  Pd  Pd17  1  0.654248  0.999445  0.345752  1
  Pd  Pd18  1  0.998908  0.344657  0.657527  1
  Pd  Pd19  1  0.655343  0.001092  0.001092  1
  Pd  Pd20  1  0.000555  0.999445  0.345752  1
  Pd  Pd21  1  0.615404  0.150988  0.618203  1
  Pd  Pd22  1  0.345535  0.654465  0.998796  1
  Pd  Pd23  1  0.381797  0.384596  0.384596  1
  Pd  Pd24  1  0.615772  0.615751  0.615751  1
  Pd  Pd25  1  0.384249  0.384228  0.847274  1
  Pd  Pd26  1  0.001204  0.998796  0.654465  1
  Pd  Pd27  1  0.849012  0.384596  0.384596  1
  Pd  Pd28  1  0.000555  0.345752  0.999445  1
