# generated using pymatgen
data_LaSm5Mo2(P3Rh4)4
_symmetry_space_group_name_H-M   'P 1'
_cell_length_a   3.95778800
_cell_length_b   11.21409300
_cell_length_c   13.00580600
_cell_angle_alpha   90.00000000
_cell_angle_beta   90.00000000
_cell_angle_gamma   90.00000000
_symmetry_Int_Tables_number   1
_chemical_formula_structural   LaSm5Mo2(P3Rh4)4
_chemical_formula_sum   'La1 Sm5 Mo2 P12 Rh16'
_cell_volume   577.23672290
_cell_formula_units_Z   1
loop_
 _symmetry_equiv_pos_site_id
 _symmetry_equiv_pos_as_xyz
  1  'x, y, z'
loop_
 _atom_site_type_symbol
 _atom_site_label
 _atom_site_symmetry_multiplicity
 _atom_site_fract_x
 _atom_site_fract_y
 _atom_site_fract_z
 _atom_site_occupancy
  La  La0  1  0.000000  0.500000  0.522862  1
  Sm  Sm1  1  0.500000  0.000000  0.479794  1
  Sm  Sm2  1  0.500000  0.816662  0.202748  1
  Sm  Sm3  1  0.500000  0.183338  0.202748  1
  Sm  Sm4  1  0.000000  0.684335  0.797399  1
  Sm  Sm5  1  0.000000  0.315665  0.797399  1
  Mo  Mo6  1  0.500000  0.500000  0.154816  1
  Mo  Mo7  1  0.000000  0.000000  0.843897  1
  P  P8  1  0.500000  0.500000  0.878336  1
  P  P9  1  0.000000  0.000000  0.122044  1
  P  P10  1  0.500000  0.500000  0.339334  1
  P  P11  1  0.000000  0.000000  0.657558  1
  P  P12  1  0.500000  0.310366  0.617874  1
  P  P13  1  0.500000  0.689634  0.617874  1
  P  P14  1  0.000000  0.186047  0.382858  1
  P  P15  1  0.000000  0.813953  0.382858  1
  P  P16  1  0.500000  0.848746  0.889086  1
  P  P17  1  0.500000  0.151254  0.889086  1
  P  P18  1  0.000000  0.651676  0.110532  1
  P  P19  1  0.000000  0.348324  0.110532  1
  Rh  Rh20  1  0.500000  0.500000  0.701447  1
  Rh  Rh21  1  0.000000  0.000000  0.299126  1
  Rh  Rh22  1  0.000000  0.500000  0.988188  1
  Rh  Rh23  1  0.500000  0.000000  0.011428  1
  Rh  Rh24  1  0.500000  0.331598  0.985959  1
  Rh  Rh25  1  0.500000  0.668402  0.985959  1
  Rh  Rh26  1  0.000000  0.168064  0.013941  1
  Rh  Rh27  1  0.000000  0.831936  0.013941  1
  Rh  Rh28  1  0.500000  0.289813  0.430843  1
  Rh  Rh29  1  0.500000  0.710187  0.430843  1
  Rh  Rh30  1  0.000000  0.204091  0.569352  1
  Rh  Rh31  1  0.000000  0.795909  0.569352  1
  Rh  Rh32  1  0.500000  0.876561  0.710314  1
  Rh  Rh33  1  0.500000  0.123439  0.710314  1
  Rh  Rh34  1  0.000000  0.624064  0.289678  1
  Rh  Rh35  1  0.000000  0.375936  0.289678  1
