# generated using pymatgen
data_Rb4PaTiTe6
_symmetry_space_group_name_H-M   'P 1'
_cell_length_a   14.73894900
_cell_length_b   7.07734610
_cell_length_c   9.93467450
_cell_angle_alpha   71.94358280
_cell_angle_beta   90.00000000
_cell_angle_gamma   90.00000000
_symmetry_Int_Tables_number   1
_chemical_formula_structural   Rb4PaTiTe6
_chemical_formula_sum   'Rb8 Pa2 Ti2 Te12'
_cell_volume   985.27562449
_cell_formula_units_Z   2
loop_
 _symmetry_equiv_pos_site_id
 _symmetry_equiv_pos_as_xyz
  1  'x, y, z'
loop_
 _atom_site_type_symbol
 _atom_site_label
 _atom_site_symmetry_multiplicity
 _atom_site_fract_x
 _atom_site_fract_y
 _atom_site_fract_z
 _atom_site_occupancy
  Rb  Rb0  1  0.955847  0.674302  0.652626  1
  Rb  Rb1  1  0.455847  0.825698  0.347374  1
  Rb  Rb2  1  0.044581  0.325583  0.347659  1
  Rb  Rb3  1  0.544581  0.174417  0.652341  1
  Rb  Rb4  1  0.866833  0.083090  0.904201  1
  Rb  Rb5  1  0.366833  0.416910  0.095799  1
  Rb  Rb6  1  0.132828  0.922716  0.097278  1
  Rb  Rb7  1  0.632828  0.577284  0.902722  1
  Pa  Pa8  1  0.749841  0.655589  0.296957  1
  Pa  Pa9  1  0.249841  0.844411  0.703043  1
  Ti  Ti10  1  0.250178  0.343315  0.704072  1
  Ti  Ti11  1  0.750178  0.156685  0.295928  1
  Te  Te12  1  0.909757  0.928908  0.280055  1
  Te  Te13  1  0.409757  0.571092  0.719945  1
  Te  Te14  1  0.090120  0.104375  0.721270  1
  Te  Te15  1  0.590120  0.395625  0.278730  1
  Te  Te16  1  0.815321  0.291116  0.522076  1
  Te  Te17  1  0.315321  0.208884  0.477924  1
  Te  Te18  1  0.184649  0.675469  0.477890  1
  Te  Te19  1  0.684649  0.824531  0.522110  1
  Te  Te20  1  0.844452  0.482976  0.089532  1
  Te  Te21  1  0.344452  0.017024  0.910468  1
  Te  Te22  1  0.155593  0.488946  0.909407  1
  Te  Te23  1  0.655593  0.011054  0.090593  1
