# generated using pymatgen
data_Er6Mn7P12Ir11
_symmetry_space_group_name_H-M   'P 1'
_cell_length_a   3.79653700
_cell_length_b   10.99659600
_cell_length_c   12.80509900
_cell_angle_alpha   90.00000000
_cell_angle_beta   90.00000000
_cell_angle_gamma   90.00000000
_symmetry_Int_Tables_number   1
_chemical_formula_structural   Er6Mn7P12Ir11
_chemical_formula_sum   'Er6 Mn7 P12 Ir11'
_cell_volume   534.59986799
_cell_formula_units_Z   1
loop_
 _symmetry_equiv_pos_site_id
 _symmetry_equiv_pos_as_xyz
  1  'x, y, z'
loop_
 _atom_site_type_symbol
 _atom_site_label
 _atom_site_symmetry_multiplicity
 _atom_site_fract_x
 _atom_site_fract_y
 _atom_site_fract_z
 _atom_site_occupancy
  Er  Er0  1  0.750000  0.250000  0.481408  1
  Er  Er1  1  0.250000  0.750000  0.519934  1
  Er  Er2  1  0.250000  0.927145  0.803175  1
  Er  Er3  1  0.250000  0.572855  0.803175  1
  Er  Er4  1  0.750000  0.071740  0.202105  1
  Er  Er5  1  0.750000  0.428260  0.202105  1
  Mn  Mn6  1  0.250000  0.250000  0.833934  1
  Mn  Mn7  1  0.750000  0.250000  0.011997  1
  Mn  Mn8  1  0.250000  0.750000  0.996115  1
  Mn  Mn9  1  0.250000  0.410613  0.001079  1
  Mn  Mn10  1  0.250000  0.089387  0.001079  1
  Mn  Mn11  1  0.750000  0.576447  0.997213  1
  Mn  Mn12  1  0.750000  0.923553  0.997213  1
  P  P13  1  0.250000  0.250000  0.114857  1
  P  P14  1  0.750000  0.750000  0.892674  1
  P  P15  1  0.250000  0.250000  0.654597  1
  P  P16  1  0.750000  0.750000  0.347557  1
  P  P17  1  0.250000  0.435259  0.379939  1
  P  P18  1  0.250000  0.064741  0.379939  1
  P  P19  1  0.750000  0.565846  0.622850  1
  P  P20  1  0.750000  0.934154  0.622850  1
  P  P21  1  0.250000  0.912198  0.099244  1
  P  P22  1  0.250000  0.587802  0.099244  1
  P  P23  1  0.750000  0.096884  0.894522  1
  P  P24  1  0.750000  0.403116  0.894522  1
  Ir  Ir25  1  0.750000  0.750000  0.157905  1
  Ir  Ir26  1  0.250000  0.250000  0.298625  1
  Ir  Ir27  1  0.750000  0.750000  0.705836  1
  Ir  Ir28  1  0.250000  0.458491  0.568747  1
  Ir  Ir29  1  0.250000  0.041509  0.568747  1
  Ir  Ir30  1  0.750000  0.547711  0.427566  1
  Ir  Ir31  1  0.750000  0.952289  0.427566  1
  Ir  Ir32  1  0.250000  0.877723  0.280480  1
  Ir  Ir33  1  0.250000  0.622277  0.280480  1
  Ir  Ir34  1  0.750000  0.123081  0.715360  1
  Ir  Ir35  1  0.750000  0.376919  0.715360  1
