# generated using pymatgen
data_Yb3Er(Lu3Pt4)2
_symmetry_space_group_name_H-M   'P 1'
_cell_length_a   7.42449600
_cell_length_b   7.52049072
_cell_length_c   14.45459500
_cell_angle_alpha   90.10539608
_cell_angle_beta   90.00000000
_cell_angle_gamma   90.00000000
_symmetry_Int_Tables_number   1
_chemical_formula_structural   Yb3Er(Lu3Pt4)2
_chemical_formula_sum   'Yb6 Er2 Lu12 Pt16'
_cell_volume   807.08328039
_cell_formula_units_Z   2
loop_
 _symmetry_equiv_pos_site_id
 _symmetry_equiv_pos_as_xyz
  1  'x, y, z'
loop_
 _atom_site_type_symbol
 _atom_site_label
 _atom_site_symmetry_multiplicity
 _atom_site_fract_x
 _atom_site_fract_y
 _atom_site_fract_z
 _atom_site_occupancy
  Yb  Yb0  1  0.000021  0.819968  0.406611  1
  Yb  Yb1  1  0.500021  0.680032  0.093389  1
  Yb  Yb2  1  0.499754  0.320397  0.593507  1
  Yb  Yb3  1  0.999754  0.179603  0.906493  1
  Yb  Yb4  1  0.999141  0.179421  0.593772  1
  Yb  Yb5  1  0.499141  0.320579  0.906228  1
  Er  Er6  1  0.497696  0.681490  0.406439  1
  Er  Er7  1  0.997696  0.818510  0.093561  1
  Lu  Lu8  1  0.681602  0.990229  0.250025  1
  Lu  Lu9  1  0.181602  0.509771  0.249975  1
  Lu  Lu10  1  0.818400  0.489705  0.749613  1
  Lu  Lu11  1  0.318400  0.010295  0.750387  1
  Lu  Lu12  1  0.655885  0.835375  0.623895  1
  Lu  Lu13  1  0.155885  0.664625  0.876105  1
  Lu  Lu14  1  0.844722  0.333759  0.377102  1
  Lu  Lu15  1  0.344722  0.166241  0.122898  1
  Lu  Lu16  1  0.345144  0.166174  0.377426  1
  Lu  Lu17  1  0.845144  0.333826  0.122574  1
  Lu  Lu18  1  0.155226  0.665160  0.622726  1
  Lu  Lu19  1  0.655226  0.834840  0.877274  1
  Pt  Pt20  1  0.815623  0.637726  0.248792  1
  Pt  Pt21  1  0.315623  0.862274  0.251208  1
  Pt  Pt22  1  0.684586  0.135010  0.750356  1
  Pt  Pt23  1  0.184586  0.364990  0.749644  1
  Pt  Pt24  1  0.545691  0.377604  0.251607  1
  Pt  Pt25  1  0.045691  0.122396  0.248393  1
  Pt  Pt26  1  0.956403  0.875809  0.750146  1
  Pt  Pt27  1  0.456403  0.624191  0.749854  1
  Pt  Pt28  1  0.819332  0.539274  0.543164  1
  Pt  Pt29  1  0.319332  0.960726  0.956836  1
  Pt  Pt30  1  0.674625  0.034091  0.453802  1
  Pt  Pt31  1  0.174625  0.465909  0.046198  1
  Pt  Pt32  1  0.180770  0.466561  0.453851  1
  Pt  Pt33  1  0.680770  0.033439  0.046149  1
  Pt  Pt34  1  0.325377  0.958318  0.544390  1
  Pt  Pt35  1  0.825377  0.541682  0.955610  1
