# generated using pymatgen
data_La2Ni(Sb2Ir)2
_symmetry_space_group_name_H-M   'P 1'
_cell_length_a   4.58449900
_cell_length_b   11.22959100
_cell_length_c   16.20091400
_cell_angle_alpha   90.00000000
_cell_angle_beta   90.00000000
_cell_angle_gamma   90.00000000
_symmetry_Int_Tables_number   1
_chemical_formula_structural   La2Ni(Sb2Ir)2
_chemical_formula_sum   'La8 Ni4 Sb16 Ir8'
_cell_volume   834.05624369
_cell_formula_units_Z   4
loop_
 _symmetry_equiv_pos_site_id
 _symmetry_equiv_pos_as_xyz
  1  'x, y, z'
loop_
 _atom_site_type_symbol
 _atom_site_label
 _atom_site_symmetry_multiplicity
 _atom_site_fract_x
 _atom_site_fract_y
 _atom_site_fract_z
 _atom_site_occupancy
  La  La0  1  0.250000  0.746355  0.507561  1
  La  La1  1  0.250000  0.753645  0.007561  1
  La  La2  1  0.750000  0.253645  0.492439  1
  La  La3  1  0.750000  0.246355  0.992439  1
  La  La4  1  0.250000  0.589575  0.749378  1
  La  La5  1  0.250000  0.910425  0.249378  1
  La  La6  1  0.750000  0.410425  0.250622  1
  La  La7  1  0.750000  0.089575  0.750622  1
  Ni  Ni8  1  0.250000  0.468169  0.557292  1
  Ni  Ni9  1  0.250000  0.031831  0.057292  1
  Ni  Ni10  1  0.750000  0.531831  0.442708  1
  Ni  Ni11  1  0.750000  0.968169  0.942708  1
  Sb  Sb12  1  0.250000  0.278322  0.647541  1
  Sb  Sb13  1  0.250000  0.221678  0.147541  1
  Sb  Sb14  1  0.750000  0.721678  0.352459  1
  Sb  Sb15  1  0.750000  0.778322  0.852459  1
  Sb  Sb16  1  0.250000  0.887573  0.711331  1
  Sb  Sb17  1  0.250000  0.612427  0.211331  1
  Sb  Sb18  1  0.750000  0.112427  0.288669  1
  Sb  Sb19  1  0.750000  0.387573  0.788669  1
  Sb  Sb20  1  0.250000  0.065983  0.900591  1
  Sb  Sb21  1  0.250000  0.434017  0.400591  1
  Sb  Sb22  1  0.750000  0.934017  0.099409  1
  Sb  Sb23  1  0.750000  0.565983  0.599409  1
  Sb  Sb24  1  0.250000  0.447293  0.931640  1
  Sb  Sb25  1  0.250000  0.052707  0.431640  1
  Sb  Sb26  1  0.750000  0.552707  0.068360  1
  Sb  Sb27  1  0.750000  0.947293  0.568360  1
  Ir  Ir28  1  0.250000  0.057096  0.594010  1
  Ir  Ir29  1  0.250000  0.442904  0.094010  1
  Ir  Ir30  1  0.750000  0.942904  0.405990  1
  Ir  Ir31  1  0.750000  0.557096  0.905990  1
  Ir  Ir32  1  0.250000  0.276493  0.817762  1
  Ir  Ir33  1  0.250000  0.223507  0.317762  1
  Ir  Ir34  1  0.750000  0.723507  0.182238  1
  Ir  Ir35  1  0.750000  0.776493  0.682238  1
