# generated using pymatgen
data_Dy2YGaC3
_symmetry_space_group_name_H-M   'P 1'
_cell_length_a   3.57490600
_cell_length_b   7.06585263
_cell_length_c   9.89112489
_cell_angle_alpha   90.04850731
_cell_angle_beta   90.00000000
_cell_angle_gamma   90.00000000
_symmetry_Int_Tables_number   1
_chemical_formula_structural   Dy2YGaC3
_chemical_formula_sum   'Dy4 Y2 Ga2 C6'
_cell_volume   249.84734106
_cell_formula_units_Z   2
loop_
 _symmetry_equiv_pos_site_id
 _symmetry_equiv_pos_as_xyz
  1  'x, y, z'
loop_
 _atom_site_type_symbol
 _atom_site_label
 _atom_site_symmetry_multiplicity
 _atom_site_fract_x
 _atom_site_fract_y
 _atom_site_fract_z
 _atom_site_occupancy
  Dy  Dy0  1  0.500000  0.988556  0.196886  1
  Dy  Dy1  1  0.500000  0.011444  0.803114  1
  Dy  Dy2  1  0.000000  0.750167  0.458245  1
  Dy  Dy3  1  0.000000  0.249833  0.541755  1
  Y  Y4  1  0.500000  0.510421  0.196437  1
  Y  Y5  1  0.500000  0.489579  0.803563  1
  Ga  Ga6  1  0.000000  0.750051  0.000728  1
  Ga  Ga7  1  0.000000  0.249949  0.999272  1
  C  C8  1  0.500000  0.509055  0.566661  1
  C  C9  1  0.500000  0.490945  0.433339  1
  C  C10  1  0.500000  0.991044  0.566779  1
  C  C11  1  0.500000  0.008956  0.433221  1
  C  C12  1  0.000000  0.750957  0.208883  1
  C  C13  1  0.000000  0.249043  0.791117  1
