# generated using pymatgen
data_ScNb3(SiPt)4
_symmetry_space_group_name_H-M   'P 1'
_cell_length_a   3.86878100
_cell_length_b   6.49761086
_cell_length_c   7.47425048
_cell_angle_alpha   89.79056222
_cell_angle_beta   90.00000000
_cell_angle_gamma   90.00000000
_symmetry_Int_Tables_number   1
_chemical_formula_structural   ScNb3(SiPt)4
_chemical_formula_sum   'Sc1 Nb3 Si4 Pt4'
_cell_volume   187.88520828
_cell_formula_units_Z   1
loop_
 _symmetry_equiv_pos_site_id
 _symmetry_equiv_pos_as_xyz
  1  'x, y, z'
loop_
 _atom_site_type_symbol
 _atom_site_label
 _atom_site_symmetry_multiplicity
 _atom_site_fract_x
 _atom_site_fract_y
 _atom_site_fract_z
 _atom_site_occupancy
  Sc  Sc0  1  0.750000  0.473718  0.326303  1
  Nb  Nb1  1  0.250000  0.026284  0.829057  1
  Nb  Nb2  1  0.750000  0.969877  0.165535  1
  Nb  Nb3  1  0.250000  0.529933  0.676621  1
  Si  Si4  1  0.250000  0.254677  0.120150  1
  Si  Si5  1  0.250000  0.769520  0.378508  1
  Si  Si6  1  0.750000  0.736397  0.872365  1
  Si  Si7  1  0.750000  0.235236  0.629574  1
  Pt  Pt8  1  0.250000  0.643923  0.067351  1
  Pt  Pt9  1  0.250000  0.155272  0.432677  1
  Pt  Pt10  1  0.750000  0.852983  0.561672  1
  Pt  Pt11  1  0.750000  0.352180  0.940188  1
