# generated using pymatgen
data_NaTcNi4P3
_symmetry_space_group_name_H-M   'P 1'
_cell_length_a   3.63757000
_cell_length_b   10.47210500
_cell_length_c   12.00100700
_cell_angle_alpha   90.00000000
_cell_angle_beta   90.00000000
_cell_angle_gamma   90.00000000
_symmetry_Int_Tables_number   1
_chemical_formula_structural   NaTcNi4P3
_chemical_formula_sum   'Na4 Tc4 Ni16 P12'
_cell_volume   457.15453948
_cell_formula_units_Z   4
loop_
 _symmetry_equiv_pos_site_id
 _symmetry_equiv_pos_as_xyz
  1  'x, y, z'
loop_
 _atom_site_type_symbol
 _atom_site_label
 _atom_site_symmetry_multiplicity
 _atom_site_fract_x
 _atom_site_fract_y
 _atom_site_fract_z
 _atom_site_occupancy
  Na  Na0  1  0.250000  0.582998  0.705958  1
  Na  Na1  1  0.250000  0.917002  0.205958  1
  Na  Na2  1  0.750000  0.417002  0.294042  1
  Na  Na3  1  0.750000  0.082998  0.794042  1
  Tc  Tc4  1  0.250000  0.711259  0.991170  1
  Tc  Tc5  1  0.250000  0.788741  0.491170  1
  Tc  Tc6  1  0.750000  0.288741  0.008830  1
  Tc  Tc7  1  0.750000  0.211259  0.508830  1
  Ni  Ni8  1  0.250000  0.410502  0.487180  1
  Ni  Ni9  1  0.250000  0.089498  0.987180  1
  Ni  Ni10  1  0.750000  0.589498  0.512820  1
  Ni  Ni11  1  0.750000  0.910502  0.012820  1
  Ni  Ni12  1  0.250000  0.219178  0.177443  1
  Ni  Ni13  1  0.250000  0.280822  0.677443  1
  Ni  Ni14  1  0.750000  0.780822  0.822557  1
  Ni  Ni15  1  0.750000  0.719178  0.322557  1
  Ni  Ni16  1  0.250000  0.884464  0.704039  1
  Ni  Ni17  1  0.250000  0.615536  0.204039  1
  Ni  Ni18  1  0.750000  0.115536  0.295961  1
  Ni  Ni19  1  0.750000  0.384464  0.795961  1
  Ni  Ni20  1  0.250000  0.464140  0.928383  1
  Ni  Ni21  1  0.250000  0.035860  0.428383  1
  Ni  Ni22  1  0.750000  0.535860  0.071617  1
  Ni  Ni23  1  0.750000  0.964140  0.571617  1
  P  P24  1  0.250000  0.416997  0.112130  1
  P  P25  1  0.250000  0.083003  0.612130  1
  P  P26  1  0.750000  0.583003  0.887870  1
  P  P27  1  0.750000  0.916997  0.387870  1
  P  P28  1  0.250000  0.266071  0.866833  1
  P  P29  1  0.250000  0.233929  0.366833  1
  P  P30  1  0.750000  0.733929  0.133167  1
  P  P31  1  0.750000  0.766071  0.633167  1
  P  P32  1  0.250000  0.597765  0.390594  1
  P  P33  1  0.250000  0.902235  0.890594  1
  P  P34  1  0.750000  0.402235  0.609406  1
  P  P35  1  0.750000  0.097765  0.109406  1
