# generated using pymatgen
data_YPuB10Ir
_symmetry_space_group_name_H-M   'P 1'
_cell_length_a   4.18375800
_cell_length_b   5.70199107
_cell_length_c   11.36601115
_cell_angle_alpha   89.83259127
_cell_angle_beta   90.00000000
_cell_angle_gamma   90.00000000
_symmetry_Int_Tables_number   1
_chemical_formula_structural   YPuB10Ir
_chemical_formula_sum   'Y2 Pu2 B20 Ir2'
_cell_volume   271.14357188
_cell_formula_units_Z   2
loop_
 _symmetry_equiv_pos_site_id
 _symmetry_equiv_pos_as_xyz
  1  'x, y, z'
loop_
 _atom_site_type_symbol
 _atom_site_label
 _atom_site_symmetry_multiplicity
 _atom_site_fract_x
 _atom_site_fract_y
 _atom_site_fract_z
 _atom_site_occupancy
  Y  Y0  1  0.500000  0.293616  0.865932  1
  Y  Y1  1  0.500000  0.706384  0.134068  1
  Pu  Pu2  1  0.500000  0.201771  0.363312  1
  Pu  Pu3  1  0.500000  0.798229  0.636688  1
  B  B4  1  0.000000  0.381449  0.042552  1
  B  B5  1  0.000000  0.618551  0.957448  1
  B  B6  1  0.000000  0.118662  0.542439  1
  B  B7  1  0.000000  0.881338  0.457561  1
  B  B8  1  0.000000  0.362553  0.197462  1
  B  B9  1  0.000000  0.637447  0.802538  1
  B  B10  1  0.000000  0.135981  0.696617  1
  B  B11  1  0.000000  0.864019  0.303383  1
  B  B12  1  0.000000  0.056156  0.193309  1
  B  B13  1  0.000000  0.943844  0.806691  1
  B  B14  1  0.000000  0.444992  0.693223  1
  B  B15  1  0.000000  0.555008  0.306777  1
  B  B16  1  0.301613  0.220975  0.118285  1
  B  B17  1  0.698387  0.779025  0.881715  1
  B  B18  1  0.301613  0.779025  0.881715  1
  B  B19  1  0.698098  0.281848  0.618727  1
  B  B20  1  0.698387  0.220975  0.118285  1
  B  B21  1  0.301902  0.718152  0.381273  1
  B  B22  1  0.698098  0.718152  0.381273  1
  B  B23  1  0.301902  0.281848  0.618727  1
  Ir  Ir24  1  0.000000  0.000000  0.000000  1
  Ir  Ir25  1  0.000000  0.500000  0.500000  1
