# generated using pymatgen
data_EuPa3(ReN3)4
_symmetry_space_group_name_H-M   'P 1'
_cell_length_a   5.41788300
_cell_length_b   5.65220755
_cell_length_c   7.77371900
_cell_angle_alpha   90.00000000
_cell_angle_beta   90.00000000
_cell_angle_gamma   90.99865541
_symmetry_Int_Tables_number   1
_chemical_formula_structural   EuPa3(ReN3)4
_chemical_formula_sum   'Eu1 Pa3 Re4 N12'
_cell_volume   238.01843106
_cell_formula_units_Z   1
loop_
 _symmetry_equiv_pos_site_id
 _symmetry_equiv_pos_as_xyz
  1  'x, y, z'
loop_
 _atom_site_type_symbol
 _atom_site_label
 _atom_site_symmetry_multiplicity
 _atom_site_fract_x
 _atom_site_fract_y
 _atom_site_fract_z
 _atom_site_occupancy
  Eu  Eu0  1  0.487961  0.447620  0.250000  1
  Pa  Pa1  1  0.019090  0.956185  0.250000  1
  Pa  Pa2  1  0.517071  0.568039  0.750000  1
  Pa  Pa3  1  0.992751  0.074332  0.750000  1
  Re  Re4  1  0.508753  0.995758  0.493562  1
  Re  Re5  1  0.005316  0.509062  0.008452  1
  Re  Re6  1  0.005316  0.509062  0.491548  1
  Re  Re7  1  0.508753  0.995758  0.006438  1
  N  N8  1  0.687384  0.302656  0.563328  1
  N  N9  1  0.295163  0.713818  0.041891  1
  N  N10  1  0.174978  0.183645  0.044822  1
  N  N11  1  0.392346  0.957476  0.750000  1
  N  N12  1  0.935039  0.505977  0.250000  1
  N  N13  1  0.295163  0.713818  0.458109  1
  N  N14  1  0.808448  0.802293  0.939872  1
  N  N15  1  0.687384  0.302656  0.936672  1
  N  N16  1  0.808448  0.802293  0.560128  1
  N  N17  1  0.115728  0.460868  0.750000  1
  N  N18  1  0.174978  0.183645  0.455178  1
  N  N19  1  0.579931  0.015034  0.250000  1
