# generated using pymatgen
data_Li2Ho2Ni10As7
_symmetry_space_group_name_H-M   'P 1'
_cell_length_a   3.84827500
_cell_length_b   9.37351654
_cell_length_c   9.44341304
_cell_angle_alpha   119.64187295
_cell_angle_beta   90.00000000
_cell_angle_gamma   90.00000000
_symmetry_Int_Tables_number   1
_chemical_formula_structural   Li2Ho2Ni10As7
_chemical_formula_sum   'Li2 Ho2 Ni10 As7'
_cell_volume   296.06306572
_cell_formula_units_Z   1
loop_
 _symmetry_equiv_pos_site_id
 _symmetry_equiv_pos_as_xyz
  1  'x, y, z'
loop_
 _atom_site_type_symbol
 _atom_site_label
 _atom_site_symmetry_multiplicity
 _atom_site_fract_x
 _atom_site_fract_y
 _atom_site_fract_z
 _atom_site_occupancy
  Li  Li0  1  0.500000  0.787209  0.889776  1
  Li  Li1  1  0.500000  0.110373  0.213678  1
  Ho  Ho2  1  0.000000  0.673882  0.338586  1
  Ho  Ho3  1  0.500000  0.329643  0.665359  1
  Ni  Ni4  1  0.000000  0.565350  0.945141  1
  Ni  Ni5  1  0.000000  0.374274  0.430417  1
  Ni  Ni6  1  0.000000  0.054918  0.624097  1
  Ni  Ni7  1  0.500000  0.102666  0.894408  1
  Ni  Ni8  1  0.000000  0.874904  0.153538  1
  Ni  Ni9  1  0.000000  0.290741  0.129197  1
  Ni  Ni10  1  0.000000  0.838719  0.714477  1
  Ni  Ni11  1  0.500000  0.949476  0.384435  1
  Ni  Ni12  1  0.500000  0.432831  0.047085  1
  Ni  Ni13  1  0.500000  0.609368  0.566689  1
  As  As14  1  0.000000  0.005761  0.993668  1
  As  As15  1  0.500000  0.709438  0.117080  1
  As  As16  1  0.500000  0.413818  0.293114  1
  As  As17  1  0.500000  0.888892  0.601228  1
  As  As18  1  0.000000  0.586609  0.704494  1
  As  As19  1  0.000000  0.112606  0.410496  1
  As  As20  1  0.000000  0.288521  0.883037  1
