# generated using pymatgen
data_K4Eu(SiSe3)2
_symmetry_space_group_name_H-M   'P 1'
_cell_length_a   7.37243696
_cell_length_b   7.37243686
_cell_length_c   8.68714800
_cell_angle_alpha   81.73351876
_cell_angle_beta   81.73352673
_cell_angle_gamma   119.82698413
_symmetry_Int_Tables_number   1
_chemical_formula_structural   K4Eu(SiSe3)2
_chemical_formula_sum   'K4 Eu1 Si2 Se6'
_cell_volume   392.41450615
_cell_formula_units_Z   1
loop_
 _symmetry_equiv_pos_site_id
 _symmetry_equiv_pos_as_xyz
  1  'x, y, z'
loop_
 _atom_site_type_symbol
 _atom_site_label
 _atom_site_symmetry_multiplicity
 _atom_site_fract_x
 _atom_site_fract_y
 _atom_site_fract_z
 _atom_site_occupancy
  K  K0  1  0.508920  0.491080  0.000000  1
  K  K1  1  0.819479  0.180521  0.000000  1
  K  K2  1  0.173515  0.826485  0.000000  1
  K  K3  1  0.665720  0.334280  0.500000  1
  Eu  Eu4  1  0.334903  0.665097  0.500000  1
  Si  Si5  1  0.046297  0.047593  0.357898  1
  Si  Si6  1  0.952407  0.953703  0.642102  1
  Se  Se7  1  0.767070  0.794259  0.270628  1
  Se  Se8  1  0.205741  0.232930  0.729372  1
  Se  Se9  1  0.102023  0.387383  0.272775  1
  Se  Se10  1  0.360835  0.049529  0.275569  1
  Se  Se11  1  0.950471  0.639165  0.724431  1
  Se  Se12  1  0.612617  0.897977  0.727225  1
