# generated using pymatgen
data_Dy3Ho9Tc3Pt
_symmetry_space_group_name_H-M   'P 1'
_cell_length_a   6.28934133
_cell_length_b   7.39703711
_cell_length_c   9.15865800
_cell_angle_alpha   90.00000000
_cell_angle_beta   90.00000000
_cell_angle_gamma   89.97517845
_symmetry_Int_Tables_number   1
_chemical_formula_structural   Dy3Ho9Tc3Pt
_chemical_formula_sum   'Dy3 Ho9 Tc3 Pt1'
_cell_volume   426.08354598
_cell_formula_units_Z   1
loop_
 _symmetry_equiv_pos_site_id
 _symmetry_equiv_pos_as_xyz
  1  'x, y, z'
loop_
 _atom_site_type_symbol
 _atom_site_label
 _atom_site_symmetry_multiplicity
 _atom_site_fract_x
 _atom_site_fract_y
 _atom_site_fract_z
 _atom_site_occupancy
  Dy  Dy0  1  0.873141  0.542741  0.250000  1
  Dy  Dy1  1  0.128194  0.455695  0.750000  1
  Dy  Dy2  1  0.371349  0.965032  0.750000  1
  Ho  Ho3  1  0.329639  0.676351  0.066795  1
  Ho  Ho4  1  0.164862  0.177679  0.436137  1
  Ho  Ho5  1  0.667596  0.318229  0.558761  1
  Ho  Ho6  1  0.837289  0.827009  0.940167  1
  Ho  Ho7  1  0.667596  0.318229  0.941239  1
  Ho  Ho8  1  0.837289  0.827009  0.559833  1
  Ho  Ho9  1  0.329639  0.676351  0.433205  1
  Ho  Ho10  1  0.164862  0.177679  0.063863  1
  Ho  Ho11  1  0.623015  0.038450  0.250000  1
  Tc  Tc12  1  0.037938  0.886004  0.250000  1
  Tc  Tc13  1  0.463997  0.387057  0.250000  1
  Tc  Tc14  1  0.957236  0.113568  0.750000  1
  Pt  Pt15  1  0.546358  0.612914  0.750000  1
