# generated using pymatgen
data_Ti9N10
_symmetry_space_group_name_H-M   'P 1'
_cell_length_a   5.18232329
_cell_length_b   5.18232441
_cell_length_c   9.50323284
_cell_angle_alpha   90.06667566
_cell_angle_beta   90.06667365
_cell_angle_gamma   47.82379542
_symmetry_Int_Tables_number   1
_chemical_formula_structural   Ti9N10
_chemical_formula_sum   'Ti9 N10'
_cell_volume   189.14168903
_cell_formula_units_Z   1
loop_
 _symmetry_equiv_pos_site_id
 _symmetry_equiv_pos_as_xyz
  1  'x, y, z'
loop_
 _atom_site_type_symbol
 _atom_site_label
 _atom_site_symmetry_multiplicity
 _atom_site_fract_x
 _atom_site_fract_y
 _atom_site_fract_z
 _atom_site_occupancy
  Ti  Ti0  1  0.697247  0.697247  0.091873  1
  Ti  Ti1  1  0.411421  0.411421  0.188789  1
  Ti  Ti2  1  0.588579  0.588579  0.811211  1
  Ti  Ti3  1  0.302753  0.302753  0.908127  1
  Ti  Ti4  1  0.103449  0.103449  0.290119  1
  Ti  Ti5  1  0.799033  0.799033  0.397301  1
  Ti  Ti6  1  0.500000  0.500000  0.500000  1
  Ti  Ti7  1  0.200967  0.200967  0.602699  1
  Ti  Ti8  1  0.896551  0.896551  0.709881  1
  N  N9  1  0.397997  0.397997  0.701504  1
  N  N10  1  0.301224  0.301224  0.398726  1
  N  N11  1  0.101096  0.101096  0.791951  1
  N  N12  1  0.000000  0.000000  0.500000  1
  N  N13  1  0.698776  0.698776  0.601274  1
  N  N14  1  0.898904  0.898904  0.208049  1
  N  N15  1  0.602003  0.602003  0.298496  1
  N  N16  1  0.790527  0.790527  0.897032  1
  N  N17  1  0.500000  0.500000  0.000000  1
  N  N18  1  0.209473  0.209473  0.102968  1
