# generated using pymatgen
data_Ho5BiOsPb
_symmetry_space_group_name_H-M   'P 1'
_cell_length_a   7.91420869
_cell_length_b   9.06278697
_cell_length_c   12.38594425
_cell_angle_alpha   90.05301746
_cell_angle_beta   90.37649071
_cell_angle_gamma   89.99331223
_symmetry_Int_Tables_number   1
_chemical_formula_structural   Ho5BiOsPb
_chemical_formula_sum   'Ho20 Bi4 Os4 Pb4'
_cell_volume   888.35965334
_cell_formula_units_Z   4
loop_
 _symmetry_equiv_pos_site_id
 _symmetry_equiv_pos_as_xyz
  1  'x, y, z'
loop_
 _atom_site_type_symbol
 _atom_site_label
 _atom_site_symmetry_multiplicity
 _atom_site_fract_x
 _atom_site_fract_y
 _atom_site_fract_z
 _atom_site_occupancy
  Ho  Ho0  1  0.840247  0.746905  0.790996  1
  Ho  Ho1  1  0.163273  0.251020  0.209193  1
  Ho  Ho2  1  0.341698  0.253045  0.709364  1
  Ho  Ho3  1  0.655054  0.749151  0.290963  1
  Ho  Ho4  1  0.375195  0.747350  0.691826  1
  Ho  Ho5  1  0.619954  0.250630  0.306981  1
  Ho  Ho6  1  0.875363  0.252706  0.808061  1
  Ho  Ho7  1  0.129386  0.749489  0.190950  1
  Ho  Ho8  1  0.945515  0.747834  0.505008  1
  Ho  Ho9  1  0.056007  0.252232  0.497441  1
  Ho  Ho10  1  0.445562  0.251942  0.997041  1
  Ho  Ho11  1  0.553162  0.747852  0.005471  1
  Ho  Ho12  1  0.673624  0.040563  0.566526  1
  Ho  Ho13  1  0.326141  0.960003  0.430939  1
  Ho  Ho14  1  0.174645  0.959804  0.934252  1
  Ho  Ho15  1  0.326050  0.540158  0.431995  1
  Ho  Ho16  1  0.824678  0.039472  0.067094  1
  Ho  Ho17  1  0.674518  0.460742  0.568833  1
  Ho  Ho18  1  0.824739  0.460500  0.066425  1
  Ho  Ho19  1  0.175274  0.538880  0.931522  1
  Bi  Bi20  1  0.932611  0.493213  0.326737  1
  Bi  Bi21  1  0.567708  0.006250  0.827422  1
  Bi  Bi22  1  0.932452  0.006372  0.327922  1
  Bi  Bi23  1  0.066416  0.993649  0.672804  1
  Os  Os24  1  0.574715  0.750797  0.508746  1
  Os  Os25  1  0.425026  0.249620  0.491614  1
  Os  Os26  1  0.073572  0.249140  0.992003  1
  Os  Os27  1  0.926520  0.750290  0.008347  1
  Pb  Pb28  1  0.568183  0.494306  0.828324  1
  Pb  Pb29  1  0.432659  0.505858  0.172150  1
  Pb  Pb30  1  0.067516  0.505821  0.671916  1
  Pb  Pb31  1  0.432537  0.994405  0.171131  1
