# generated using pymatgen
data_Gd2ErLuMn4O14
_symmetry_space_group_name_H-M   'P 1'
_cell_length_a   7.08821295
_cell_length_b   7.08821379
_cell_length_c   7.09640998
_cell_angle_alpha   60.00752508
_cell_angle_beta   60.00753353
_cell_angle_gamma   59.96608424
_symmetry_Int_Tables_number   1
_chemical_formula_structural   Gd2ErLuMn4O14
_chemical_formula_sum   'Gd2 Er1 Lu1 Mn4 O14'
_cell_volume   252.07815646
_cell_formula_units_Z   1
loop_
 _symmetry_equiv_pos_site_id
 _symmetry_equiv_pos_as_xyz
  1  'x, y, z'
loop_
 _atom_site_type_symbol
 _atom_site_label
 _atom_site_symmetry_multiplicity
 _atom_site_fract_x
 _atom_site_fract_y
 _atom_site_fract_z
 _atom_site_occupancy
  Gd  Gd0  1  0.500000  0.000000  0.500000  1
  Gd  Gd1  1  0.000000  0.500000  0.500001  1
  Er  Er2  1  0.500000  0.500000  0.500000  1
  Lu  Lu3  1  0.500000  0.500000  0.000000  1
  Mn  Mn4  1  0.000000  0.500000  0.000001  1
  Mn  Mn5  1  0.500000  0.000000  0.000000  1
  Mn  Mn6  1  0.000000  0.000000  0.500000  1
  Mn  Mn7  1  0.000000  0.000000  0.000000  1
  O  O8  1  0.330883  0.914855  0.923929  1
  O  O9  1  0.083549  0.668873  0.669474  1
  O  O10  1  0.914853  0.330884  0.923929  1
  O  O11  1  0.919395  0.919397  0.330519  1
  O  O12  1  0.330809  0.330810  0.921055  1
  O  O13  1  0.331127  0.916452  0.330526  1
  O  O14  1  0.085146  0.669117  0.076071  1
  O  O15  1  0.668872  0.083549  0.669474  1
  O  O16  1  0.380512  0.380513  0.366498  1
  O  O17  1  0.619487  0.619488  0.633502  1
  O  O18  1  0.916450  0.331128  0.330526  1
  O  O19  1  0.669116  0.085146  0.076071  1
  O  O20  1  0.080604  0.080604  0.669481  1
  O  O21  1  0.669190  0.669191  0.078945  1
