# generated using pymatgen
data_KSr2P2Pd3
_symmetry_space_group_name_H-M   'P 1'
_cell_length_a   7.40697622
_cell_length_b   7.40697628
_cell_length_c   7.40697682
_cell_angle_alpha   44.82830000
_cell_angle_beta   44.82829984
_cell_angle_gamma   44.82829673
_symmetry_Int_Tables_number   1
_chemical_formula_structural   KSr2P2Pd3
_chemical_formula_sum   'K1 Sr2 P2 Pd3'
_cell_volume   183.76027449
_cell_formula_units_Z   1
loop_
 _symmetry_equiv_pos_site_id
 _symmetry_equiv_pos_as_xyz
  1  'x, y, z'
loop_
 _atom_site_type_symbol
 _atom_site_label
 _atom_site_symmetry_multiplicity
 _atom_site_fract_x
 _atom_site_fract_y
 _atom_site_fract_z
 _atom_site_occupancy
  K  K0  1  0.500000  0.500000  0.500000  1
  Sr  Sr1  1  0.089060  0.089060  0.089060  1
  Sr  Sr2  1  0.910940  0.910940  0.910940  1
  P  P3  1  0.243420  0.243420  0.243420  1
  P  P4  1  0.756580  0.756580  0.756580  1
  Pd  Pd5  1  0.500000  0.500000  0.000000  1
  Pd  Pd6  1  0.500000  0.000000  0.499999  1
  Pd  Pd7  1  0.000000  0.500000  0.499999  1
