# generated using pymatgen
data_HoEr4In2Bi
_symmetry_space_group_name_H-M   'P 1'
_cell_length_a   8.98140945
_cell_length_b   8.97744395
_cell_length_c   6.56354900
_cell_angle_alpha   90.00000000
_cell_angle_beta   90.00000000
_cell_angle_gamma   119.98540094
_symmetry_Int_Tables_number   1
_chemical_formula_structural   HoEr4In2Bi
_chemical_formula_sum   'Ho2 Er8 In4 Bi2'
_cell_volume   458.38503566
_cell_formula_units_Z   2
loop_
 _symmetry_equiv_pos_site_id
 _symmetry_equiv_pos_as_xyz
  1  'x, y, z'
loop_
 _atom_site_type_symbol
 _atom_site_label
 _atom_site_symmetry_multiplicity
 _atom_site_fract_x
 _atom_site_fract_y
 _atom_site_fract_z
 _atom_site_occupancy
  Ho  Ho0  1  0.769843  0.761045  0.750000  1
  Ho  Ho1  1  0.230157  0.991203  0.750000  1
  Er  Er2  1  0.670960  0.338207  0.006649  1
  Er  Er3  1  0.329040  0.667248  0.006649  1
  Er  Er4  1  0.329040  0.667248  0.493351  1
  Er  Er5  1  0.670960  0.338207  0.493351  1
  Er  Er6  1  0.000000  0.241444  0.750000  1
  Er  Er7  1  0.236746  0.237315  0.250000  1
  Er  Er8  1  0.763254  0.000570  0.250000  1
  Er  Er9  1  0.000000  0.761615  0.250000  1
  In  In10  1  0.000000  0.597438  0.750000  1
  In  In11  1  0.604871  0.606858  0.250000  1
  In  In12  1  0.395129  0.001987  0.250000  1
  In  In13  1  0.000000  0.395757  0.250000  1
  Bi  Bi14  1  0.395104  0.394481  0.750000  1
  Bi  Bi15  1  0.604896  0.999377  0.750000  1
