# generated using pymatgen
data_K2Rb4DyYF12
_symmetry_space_group_name_H-M   'P 1'
_cell_length_a   6.74467400
_cell_length_b   6.57547023
_cell_length_c   11.41316200
_cell_angle_alpha   55.08416197
_cell_angle_beta   90.00310580
_cell_angle_gamma   90.00112877
_symmetry_Int_Tables_number   1
_chemical_formula_structural   K2Rb4DyYF12
_chemical_formula_sum   'K2 Rb4 Dy1 Y1 F12'
_cell_volume   415.05368127
_cell_formula_units_Z   1
loop_
 _symmetry_equiv_pos_site_id
 _symmetry_equiv_pos_as_xyz
  1  'x, y, z'
loop_
 _atom_site_type_symbol
 _atom_site_label
 _atom_site_symmetry_multiplicity
 _atom_site_fract_x
 _atom_site_fract_y
 _atom_site_fract_z
 _atom_site_occupancy
  K  K0  1  0.000000  0.500000  0.500000  1
  K  K1  1  0.500000  0.500000  0.000000  1
  Rb  Rb2  1  0.956195  0.262697  0.248120  1
  Rb  Rb3  1  0.543814  0.262683  0.748138  1
  Rb  Rb4  1  0.456186  0.737317  0.251862  1
  Rb  Rb5  1  0.043805  0.737303  0.751880  1
  Dy  Dy6  1  0.000000  0.000000  0.000000  1
  Y  Y7  1  0.500000  0.000000  0.500000  1
  F  F8  1  0.266832  0.230420  0.946228  1
  F  F9  1  0.767133  0.769317  0.553836  1
  F  F10  1  0.733168  0.769580  0.053772  1
  F  F11  1  0.232867  0.230683  0.446164  1
  F  F12  1  0.181712  0.688249  0.041067  1
  F  F13  1  0.681910  0.312102  0.458882  1
  F  F14  1  0.818288  0.311751  0.958933  1
  F  F15  1  0.318090  0.687898  0.541118  1
  F  F16  1  0.461165  0.864653  0.724987  1
  F  F17  1  0.961213  0.135182  0.775279  1
  F  F18  1  0.538835  0.135347  0.275013  1
  F  F19  1  0.038787  0.864818  0.224721  1
