# generated using pymatgen
data_Hf17Co4Ir3
_symmetry_space_group_name_H-M   'P 1'
_cell_length_a   8.65875209
_cell_length_b   8.65875236
_cell_length_c   8.65875300
_cell_angle_alpha   59.66281282
_cell_angle_beta   59.66281178
_cell_angle_gamma   59.66281321
_symmetry_Int_Tables_number   1
_chemical_formula_structural   Hf17Co4Ir3
_chemical_formula_sum   'Hf17 Co4 Ir3'
_cell_volume   455.52379634
_cell_formula_units_Z   1
loop_
 _symmetry_equiv_pos_site_id
 _symmetry_equiv_pos_as_xyz
  1  'x, y, z'
loop_
 _atom_site_type_symbol
 _atom_site_label
 _atom_site_symmetry_multiplicity
 _atom_site_fract_x
 _atom_site_fract_y
 _atom_site_fract_z
 _atom_site_occupancy
  Hf  Hf0  1  0.043255  0.652718  0.652718  1
  Hf  Hf1  1  0.652718  0.043255  0.652718  1
  Hf  Hf2  1  0.652718  0.652718  0.043255  1
  Hf  Hf3  1  0.646970  0.646970  0.646970  1
  Hf  Hf4  1  0.797185  0.797185  0.203352  1
  Hf  Hf5  1  0.193610  0.193610  0.803799  1
  Hf  Hf6  1  0.797185  0.203352  0.797185  1
  Hf  Hf7  1  0.193610  0.803799  0.193610  1
  Hf  Hf8  1  0.203352  0.797185  0.797185  1
  Hf  Hf9  1  0.803799  0.193610  0.193610  1
  Hf  Hf10  1  0.434757  0.434757  0.066697  1
  Hf  Hf11  1  0.063657  0.063657  0.435977  1
  Hf  Hf12  1  0.434757  0.066697  0.434757  1
  Hf  Hf13  1  0.063657  0.435977  0.063657  1
  Hf  Hf14  1  0.066697  0.434757  0.434757  1
  Hf  Hf15  1  0.435977  0.063657  0.063657  1
  Hf  Hf16  1  0.426411  0.426411  0.426411  1
  Co  Co17  1  0.421791  0.858743  0.858743  1
  Co  Co18  1  0.858743  0.421791  0.858743  1
  Co  Co19  1  0.858743  0.858743  0.421791  1
  Co  Co20  1  0.860471  0.860471  0.860471  1
  Ir  Ir21  1  0.762678  0.413630  0.413630  1
  Ir  Ir22  1  0.413630  0.762678  0.413630  1
  Ir  Ir23  1  0.413630  0.413630  0.762678  1
