# generated using pymatgen
data_Tb3Ag2Hg3Pt
_symmetry_space_group_name_H-M   'P 1'
_cell_length_a   7.98857600
_cell_length_b   7.98857535
_cell_length_c   3.77819300
_cell_angle_alpha   90.00000000
_cell_angle_beta   90.00000000
_cell_angle_gamma   120.00000271
_symmetry_Int_Tables_number   1
_chemical_formula_structural   Tb3Ag2Hg3Pt
_chemical_formula_sum   'Tb3 Ag2 Hg3 Pt1'
_cell_volume   208.81104450
_cell_formula_units_Z   1
loop_
 _symmetry_equiv_pos_site_id
 _symmetry_equiv_pos_as_xyz
  1  'x, y, z'
loop_
 _atom_site_type_symbol
 _atom_site_label
 _atom_site_symmetry_multiplicity
 _atom_site_fract_x
 _atom_site_fract_y
 _atom_site_fract_z
 _atom_site_occupancy
  Tb  Tb0  1  0.383897  0.969460  0.000000  1
  Tb  Tb1  1  0.030540  0.414437  0.000000  1
  Tb  Tb2  1  0.585563  0.616103  0.000000  1
  Ag  Ag3  1  0.000000  0.000000  0.000000  1
  Ag  Ag4  1  0.666667  0.333333  0.500000  1
  Hg  Hg5  1  0.282271  0.269913  0.500000  1
  Hg  Hg6  1  0.987641  0.717729  0.500000  1
  Hg  Hg7  1  0.730087  0.012359  0.500000  1
  Pt  Pt8  1  0.333333  0.666667  0.500000  1
