# generated using pymatgen
data_Na2Ni9As7Rh3
_symmetry_space_group_name_H-M   'P 1'
_cell_length_a   9.54676600
_cell_length_b   9.54676574
_cell_length_c   3.74794300
_cell_angle_alpha   90.00000000
_cell_angle_beta   90.00000000
_cell_angle_gamma   120.00000184
_symmetry_Int_Tables_number   1
_chemical_formula_structural   Na2Ni9As7Rh3
_chemical_formula_sum   'Na2 Ni9 As7 Rh3'
_cell_volume   295.82586603
_cell_formula_units_Z   1
loop_
 _symmetry_equiv_pos_site_id
 _symmetry_equiv_pos_as_xyz
  1  'x, y, z'
loop_
 _atom_site_type_symbol
 _atom_site_label
 _atom_site_symmetry_multiplicity
 _atom_site_fract_x
 _atom_site_fract_y
 _atom_site_fract_z
 _atom_site_occupancy
  Na  Na0  1  0.333333  0.666667  0.000000  1
  Na  Na1  1  0.666667  0.333333  0.500000  1
  Ni  Ni2  1  0.119819  0.282495  0.000000  1
  Ni  Ni3  1  0.717505  0.837324  0.000000  1
  Ni  Ni4  1  0.162676  0.880181  0.000000  1
  Ni  Ni5  1  0.431933  0.377705  0.000000  1
  Ni  Ni6  1  0.622295  0.054229  0.000000  1
  Ni  Ni7  1  0.945771  0.568067  0.000000  1
  Ni  Ni8  1  0.049427  0.433602  0.500000  1
  Ni  Ni9  1  0.566398  0.615825  0.500000  1
  Ni  Ni10  1  0.384175  0.950573  0.500000  1
  As  As11  1  0.292684  0.415213  0.500000  1
  As  As12  1  0.584787  0.877471  0.500000  1
  As  As13  1  0.122529  0.707316  0.500000  1
  As  As14  1  0.415468  0.122617  0.000000  1
  As  As15  1  0.877383  0.292850  0.000000  1
  As  As16  1  0.707150  0.584532  0.000000  1
  As  As17  1  0.000000  0.000000  0.000000  1
  Rh  Rh18  1  0.221422  0.126873  0.500000  1
  Rh  Rh19  1  0.873127  0.094549  0.500000  1
  Rh  Rh20  1  0.905451  0.778578  0.500000  1
