# generated using pymatgen
data_Yb4Mn3FeN8
_symmetry_space_group_name_H-M   'P 1'
_cell_length_a   5.66630094
_cell_length_b   7.54664358
_cell_length_c   5.31506514
_cell_angle_alpha   89.82200704
_cell_angle_beta   115.71047780
_cell_angle_gamma   89.99691461
_symmetry_Int_Tables_number   1
_chemical_formula_structural   Yb4Mn3FeN8
_chemical_formula_sum   'Yb4 Mn3 Fe1 N8'
_cell_volume   204.77792082
_cell_formula_units_Z   1
loop_
 _symmetry_equiv_pos_site_id
 _symmetry_equiv_pos_as_xyz
  1  'x, y, z'
loop_
 _atom_site_type_symbol
 _atom_site_label
 _atom_site_symmetry_multiplicity
 _atom_site_fract_x
 _atom_site_fract_y
 _atom_site_fract_z
 _atom_site_occupancy
  Yb  Yb0  1  0.324341  0.906367  0.668945  1
  Yb  Yb1  1  0.674769  0.400055  0.825956  1
  Yb  Yb2  1  0.669513  0.099133  0.318821  1
  Yb  Yb3  1  0.332076  0.597087  0.176993  1
  Mn  Mn4  1  0.096707  0.364972  0.620467  1
  Mn  Mn5  1  0.907907  0.865542  0.887644  1
  Mn  Mn6  1  0.909358  0.632870  0.392208  1
  Fe  Fe7  1  0.094526  0.131177  0.112622  1
  N  N8  1  0.257976  0.919403  0.091447  1
  N  N9  1  0.742140  0.426387  0.407764  1
  N  N10  1  0.737153  0.068950  0.899767  1
  N  N11  1  0.260793  0.574652  0.599036  1
  N  N12  1  0.147764  0.328169  0.960107  1
  N  N13  1  0.844612  0.826696  0.537025  1
  N  N14  1  0.848028  0.674543  0.042418  1
  N  N15  1  0.152337  0.183999  0.458780  1
