# generated using pymatgen
data_Ho4Fe3AuO14
_symmetry_space_group_name_H-M   'P 1'
_cell_length_a   7.20166092
_cell_length_b   7.25733151
_cell_length_c   7.20166100
_cell_angle_alpha   60.25342511
_cell_angle_beta   59.99999506
_cell_angle_gamma   60.25342149
_symmetry_Int_Tables_number   1
_chemical_formula_structural   Ho4Fe3AuO14
_chemical_formula_sum   'Ho4 Fe3 Au1 O14'
_cell_volume   267.16543842
_cell_formula_units_Z   1
loop_
 _symmetry_equiv_pos_site_id
 _symmetry_equiv_pos_as_xyz
  1  'x, y, z'
loop_
 _atom_site_type_symbol
 _atom_site_label
 _atom_site_symmetry_multiplicity
 _atom_site_fract_x
 _atom_site_fract_y
 _atom_site_fract_z
 _atom_site_occupancy
  Ho  Ho0  1  0.500000  0.000000  0.500000  1
  Ho  Ho1  1  0.000000  0.500000  0.500001  1
  Ho  Ho2  1  0.500000  0.500000  0.000000  1
  Ho  Ho3  1  0.500000  0.500000  0.500000  1
  Fe  Fe4  1  0.500000  0.000000  0.000000  1
  Fe  Fe5  1  0.000000  0.000000  0.500000  1
  Fe  Fe6  1  0.000000  0.000000  0.000000  1
  Au  Au7  1  0.000000  0.500000  0.000001  1
  O  O8  1  0.332382  0.918804  0.916431  1
  O  O9  1  0.091083  0.660947  0.656888  1
  O  O10  1  0.908916  0.339054  0.908917  1
  O  O11  1  0.916430  0.918804  0.332383  1
  O  O12  1  0.343111  0.339054  0.908917  1
  O  O13  1  0.332382  0.918804  0.332383  1
  O  O14  1  0.091083  0.660947  0.091083  1
  O  O15  1  0.667617  0.081197  0.667617  1
  O  O16  1  0.375997  0.372010  0.375997  1
  O  O17  1  0.624002  0.627991  0.624003  1
  O  O18  1  0.908916  0.339054  0.343112  1
  O  O19  1  0.667617  0.081197  0.083569  1
  O  O20  1  0.083569  0.081197  0.667617  1
  O  O21  1  0.656888  0.660947  0.091083  1
