# generated using pymatgen
data_TmLu7Co(B8W)3
_symmetry_space_group_name_H-M   'P 1'
_cell_length_a   3.53058700
_cell_length_b   9.17561034
_cell_length_c   11.55577500
_cell_angle_alpha   90.22314425
_cell_angle_beta   90.00000000
_cell_angle_gamma   90.00000000
_symmetry_Int_Tables_number   1
_chemical_formula_structural   TmLu7Co(B8W)3
_chemical_formula_sum   'Tm1 Lu7 Co1 B24 W3'
_cell_volume   374.34985022
_cell_formula_units_Z   1
loop_
 _symmetry_equiv_pos_site_id
 _symmetry_equiv_pos_as_xyz
  1  'x, y, z'
loop_
 _atom_site_type_symbol
 _atom_site_label
 _atom_site_symmetry_multiplicity
 _atom_site_fract_x
 _atom_site_fract_y
 _atom_site_fract_z
 _atom_site_occupancy
  Tm  Tm0  1  0.000000  0.820338  0.086709  1
  Lu  Lu1  1  0.000000  0.177556  0.915326  1
  Lu  Lu2  1  0.000000  0.320914  0.414618  1
  Lu  Lu3  1  0.000000  0.679196  0.586258  1
  Lu  Lu4  1  0.000000  0.443858  0.126350  1
  Lu  Lu5  1  0.000000  0.552553  0.867653  1
  Lu  Lu6  1  0.000000  0.946252  0.374142  1
  Lu  Lu7  1  0.000000  0.061989  0.629633  1
  Co  Co8  1  0.000000  0.361006  0.679422  1
  B  B9  1  0.500000  0.050577  0.064457  1
  B  B10  1  0.500000  0.948220  0.934708  1
  B  B11  1  0.500000  0.549842  0.438252  1
  B  B12  1  0.500000  0.444529  0.568239  1
  B  B13  1  0.500000  0.251600  0.076355  1
  B  B14  1  0.500000  0.745297  0.920379  1
  B  B15  1  0.500000  0.753975  0.424198  1
  B  B16  1  0.500000  0.253660  0.582652  1
  B  B17  1  0.500000  0.296251  0.236479  1
  B  B18  1  0.500000  0.701907  0.760320  1
  B  B19  1  0.500000  0.795587  0.264554  1
  B  B20  1  0.500000  0.210763  0.735332  1
  B  B21  1  0.500000  0.132954  0.319028  1
  B  B22  1  0.500000  0.869621  0.680452  1
  B  B23  1  0.500000  0.630111  0.182523  1
  B  B24  1  0.500000  0.367467  0.814083  1
  B  B25  1  0.500000  0.476807  0.287797  1
  B  B26  1  0.500000  0.513116  0.709937  1
  B  B27  1  0.500000  0.977740  0.214057  1
  B  B28  1  0.500000  0.024297  0.787521  1
  B  B29  1  0.500000  0.106030  0.474038  1
  B  B30  1  0.500000  0.902127  0.528950  1
  B  B31  1  0.500000  0.599263  0.026001  1
  B  B32  1  0.500000  0.396836  0.968822  1
  W  W33  1  0.000000  0.139128  0.179947  1
  W  W34  1  0.000000  0.859939  0.818368  1
  W  W35  1  0.000000  0.638693  0.322439  1
