# generated using pymatgen
data_Pr5NdCu2(SnSe7)2
_symmetry_space_group_name_H-M   'P 1'
_cell_length_a   10.69394468
_cell_length_b   10.70604972
_cell_length_c   6.36278745
_cell_angle_alpha   90.01734551
_cell_angle_beta   90.02565458
_cell_angle_gamma   120.01969521
_symmetry_Int_Tables_number   1
_chemical_formula_structural   Pr5NdCu2(SnSe7)2
_chemical_formula_sum   'Pr5 Nd1 Cu2 Sn2 Se14'
_cell_volume   630.75236554
_cell_formula_units_Z   1
loop_
 _symmetry_equiv_pos_site_id
 _symmetry_equiv_pos_as_xyz
  1  'x, y, z'
loop_
 _atom_site_type_symbol
 _atom_site_label
 _atom_site_symmetry_multiplicity
 _atom_site_fract_x
 _atom_site_fract_y
 _atom_site_fract_z
 _atom_site_occupancy
  Pr  Pr0  1  0.137077  0.781663  0.961554  1
  Pr  Pr1  1  0.218558  0.355321  0.961604  1
  Pr  Pr2  1  0.781619  0.644693  0.461548  1
  Pr  Pr3  1  0.863137  0.218462  0.461593  1
  Pr  Pr4  1  0.644475  0.863010  0.961646  1
  Nd  Nd5  1  0.355060  0.136686  0.461438  1
  Cu  Cu6  1  0.000350  0.000131  0.501873  1
  Cu  Cu7  1  0.000071  0.000031  0.001898  1
  Sn  Sn8  1  0.666473  0.333159  0.884095  1
  Sn  Sn9  1  0.333443  0.666929  0.383989  1
  Se  Se10  1  0.102063  0.845530  0.490979  1
  Se  Se11  1  0.156849  0.256176  0.490714  1
  Se  Se12  1  0.844060  0.743399  0.990936  1
  Se  Se13  1  0.899215  0.155815  0.990885  1
  Se  Se14  1  0.743497  0.899344  0.490986  1
  Se  Se15  1  0.256934  0.100867  0.992347  1
  Se  Se16  1  0.570241  0.085261  0.709829  1
  Se  Se17  1  0.486157  0.571163  0.211043  1
  Se  Se18  1  0.513288  0.427844  0.710005  1
  Se  Se19  1  0.665453  0.332594  0.280958  1
  Se  Se20  1  0.333312  0.666638  0.780547  1
  Se  Se21  1  0.428692  0.915309  0.211515  1
  Se  Se22  1  0.084917  0.513760  0.211008  1
  Se  Se23  1  0.915064  0.486215  0.711016  1
