# generated using pymatgen
data_Er10In8RuAu3
_symmetry_space_group_name_H-M   'P 1'
_cell_length_a   3.57600800
_cell_length_b   8.23073776
_cell_length_c   18.34165531
_cell_angle_alpha   89.90794900
_cell_angle_beta   90.00000000
_cell_angle_gamma   90.00000000
_symmetry_Int_Tables_number   1
_chemical_formula_structural   Er10In8RuAu3
_chemical_formula_sum   'Er10 In8 Ru1 Au3'
_cell_volume   539.85262056
_cell_formula_units_Z   1
loop_
 _symmetry_equiv_pos_site_id
 _symmetry_equiv_pos_as_xyz
  1  'x, y, z'
loop_
 _atom_site_type_symbol
 _atom_site_label
 _atom_site_symmetry_multiplicity
 _atom_site_fract_x
 _atom_site_fract_y
 _atom_site_fract_z
 _atom_site_occupancy
  Er  Er0  1  0.000000  0.502983  0.498429  1
  Er  Er1  1  0.000000  0.003072  0.002345  1
  Er  Er2  1  0.000000  0.719910  0.276962  1
  Er  Er3  1  0.000000  0.263650  0.717833  1
  Er  Er4  1  0.000000  0.764933  0.782670  1
  Er  Er5  1  0.000000  0.258458  0.218170  1
  Er  Er6  1  0.000000  0.613576  0.085740  1
  Er  Er7  1  0.000000  0.378103  0.920794  1
  Er  Er8  1  0.000000  0.880040  0.579011  1
  Er  Er9  1  0.000000  0.120721  0.418671  1
  In  In10  1  0.500000  0.709998  0.935322  1
  In  In11  1  0.500000  0.293295  0.070156  1
  In  In12  1  0.500000  0.790837  0.431955  1
  In  In13  1  0.500000  0.212140  0.565741  1
  In  In14  1  0.500000  0.581609  0.646637  1
  In  In15  1  0.500000  0.423634  0.349804  1
  In  In16  1  0.500000  0.914600  0.148514  1
  In  In17  1  0.500000  0.079769  0.854022  1
  Ru  Ru18  1  0.500000  0.519777  0.194999  1
  Au  Au19  1  0.500000  0.474640  0.803908  1
  Au  Au20  1  0.500000  0.974057  0.696390  1
  Au  Au21  1  0.500000  0.020201  0.301925  1
