# generated using pymatgen
data_Nd9Zr11Si15Ge
_symmetry_space_group_name_H-M   'P 1'
_cell_length_a   7.50174143
_cell_length_b   7.51660791
_cell_length_c   13.81646100
_cell_angle_alpha   89.67111531
_cell_angle_beta   90.22614418
_cell_angle_gamma   90.05313870
_symmetry_Int_Tables_number   1
_chemical_formula_structural   Nd9Zr11Si15Ge
_chemical_formula_sum   'Nd9 Zr11 Si15 Ge1'
_cell_volume   779.05853097
_cell_formula_units_Z   1
loop_
 _symmetry_equiv_pos_site_id
 _symmetry_equiv_pos_as_xyz
  1  'x, y, z'
loop_
 _atom_site_type_symbol
 _atom_site_label
 _atom_site_symmetry_multiplicity
 _atom_site_fract_x
 _atom_site_fract_y
 _atom_site_fract_z
 _atom_site_occupancy
  Nd  Nd0  1  0.008472  0.853478  0.124640  1
  Nd  Nd1  1  0.651130  0.996203  0.465939  1
  Nd  Nd2  1  0.353547  0.003192  0.958500  1
  Nd  Nd3  1  0.992084  0.652607  0.536625  1
  Nd  Nd4  1  0.495250  0.849794  0.214008  1
  Nd  Nd5  1  0.506783  0.152887  0.714564  1
  Nd  Nd6  1  0.845532  0.490283  0.784157  1
  Nd  Nd7  1  0.147992  0.506637  0.290885  1
  Nd  Nd8  1  0.007920  0.348282  0.035973  1
  Zr  Zr9  1  0.502031  0.350928  0.125951  1
  Zr  Zr10  1  0.000235  0.148979  0.625415  1
  Zr  Zr11  1  0.852403  0.991932  0.874186  1
  Zr  Zr12  1  0.144426  0.008078  0.378176  1
  Zr  Zr13  1  0.492980  0.645363  0.626144  1
  Zr  Zr14  1  0.354235  0.502671  0.868993  1
  Zr  Zr15  1  0.645712  0.496208  0.376823  1
  Zr  Zr16  1  0.321259  0.326604  0.500475  1
  Zr  Zr17  1  0.175968  0.820866  0.749139  1
  Zr  Zr18  1  0.817933  0.180819  0.252276  1
  Zr  Zr19  1  0.678909  0.672836  0.997508  1
  Si  Si20  1  0.707167  0.061028  0.060645  1
  Si  Si21  1  0.942756  0.291150  0.437936  1
  Si  Si22  1  0.445600  0.211523  0.316125  1
  Si  Si23  1  0.556287  0.788010  0.811789  1
  Si  Si24  1  0.208015  0.444427  0.684530  1
  Si  Si25  1  0.784440  0.546744  0.188852  1
  Si  Si26  1  0.056317  0.701632  0.928221  1
  Si  Si27  1  0.795142  0.860338  0.685323  1
  Si  Si28  1  0.209515  0.154266  0.194818  1
  Si  Si29  1  0.855962  0.795277  0.321688  1
  Si  Si30  1  0.361242  0.703287  0.434700  1
  Si  Si31  1  0.638986  0.295225  0.935906  1
  Si  Si32  1  0.702408  0.361904  0.564960  1
  Si  Si33  1  0.313938  0.633672  0.055313  1
  Si  Si34  1  0.137495  0.202040  0.813332  1
  Ge  Ge35  1  0.289928  0.950821  0.565483  1
