# generated using pymatgen
data_PrTc3As4Rh3
_symmetry_space_group_name_H-M   'P 1'
_cell_length_a   7.22085100
_cell_length_b   7.22085177
_cell_length_c   3.95184500
_cell_angle_alpha   90.00000000
_cell_angle_beta   90.00000000
_cell_angle_gamma   120.00000107
_symmetry_Int_Tables_number   1
_chemical_formula_structural   PrTc3As4Rh3
_chemical_formula_sum   'Pr1 Tc3 As4 Rh3'
_cell_volume   178.44621579
_cell_formula_units_Z   1
loop_
 _symmetry_equiv_pos_site_id
 _symmetry_equiv_pos_as_xyz
  1  'x, y, z'
loop_
 _atom_site_type_symbol
 _atom_site_label
 _atom_site_symmetry_multiplicity
 _atom_site_fract_x
 _atom_site_fract_y
 _atom_site_fract_z
 _atom_site_occupancy
  Pr  Pr0  1  0.000000  0.000000  0.000000  1
  Tc  Tc1  1  0.536072  0.072145  0.000000  1
  Tc  Tc2  1  0.927855  0.463928  0.000000  1
  Tc  Tc3  1  0.536072  0.463928  0.000000  1
  As  As4  1  0.806455  0.193545  0.500000  1
  As  As5  1  0.387090  0.193545  0.500000  1
  As  As6  1  0.333333  0.666667  0.000000  1
  As  As7  1  0.806455  0.612910  0.500000  1
  Rh  Rh8  1  0.198919  0.801081  0.500000  1
  Rh  Rh9  1  0.198919  0.397840  0.500000  1
  Rh  Rh10  1  0.602160  0.801081  0.500000  1
