# generated using pymatgen
data_Ba4Tm2Co2O9
_symmetry_space_group_name_H-M   'P 1'
_cell_length_a   9.10085885
_cell_length_b   9.07578281
_cell_length_c   6.16983978
_cell_angle_alpha   70.37655240
_cell_angle_beta   69.93848685
_cell_angle_gamma   39.68495446
_symmetry_Int_Tables_number   1
_chemical_formula_structural   Ba4Tm2Co2O9
_chemical_formula_sum   'Ba4 Tm2 Co2 O9'
_cell_volume   303.47518366
_cell_formula_units_Z   1
loop_
 _symmetry_equiv_pos_site_id
 _symmetry_equiv_pos_as_xyz
  1  'x, y, z'
loop_
 _atom_site_type_symbol
 _atom_site_label
 _atom_site_symmetry_multiplicity
 _atom_site_fract_x
 _atom_site_fract_y
 _atom_site_fract_z
 _atom_site_occupancy
  Ba  Ba0  1  0.883268  0.378512  0.116732  1
  Ba  Ba1  1  0.378512  0.883268  0.621488  1
  Ba  Ba2  1  0.621488  0.116732  0.378512  1
  Ba  Ba3  1  0.116732  0.621488  0.883268  1
  Tm  Tm4  1  0.500000  0.000000  0.000000  1
  Tm  Tm5  1  0.000000  0.500000  0.500000  1
  Co  Co6  1  0.723158  0.276842  0.723158  1
  Co  Co7  1  0.276842  0.723158  0.276842  1
  O  O8  1  0.901640  0.312393  0.687607  1
  O  O9  1  0.312393  0.901640  0.098360  1
  O  O10  1  0.687607  0.098360  0.901640  1
  O  O11  1  0.098360  0.687607  0.312393  1
  O  O12  1  0.731556  0.731556  0.268444  1
  O  O13  1  0.268444  0.268444  0.731556  1
  O  O14  1  0.250000  0.250000  0.250000  1
  O  O15  1  0.750000  0.750000  0.750000  1
  O  O16  1  0.500000  0.500000  0.500000  1
