# generated using pymatgen
data_Cs10Ti3Zn3Se14
_symmetry_space_group_name_H-M   'P 1'
_cell_length_a   11.50544804
_cell_length_b   11.50544063
_cell_length_c   9.64388400
_cell_angle_alpha   78.92786988
_cell_angle_beta   78.92805470
_cell_angle_gamma   73.22718019
_symmetry_Int_Tables_number   1
_chemical_formula_structural   Cs10Ti3Zn3Se14
_chemical_formula_sum   'Cs10 Ti3 Zn3 Se14'
_cell_volume   1186.80094044
_cell_formula_units_Z   1
loop_
 _symmetry_equiv_pos_site_id
 _symmetry_equiv_pos_as_xyz
  1  'x, y, z'
loop_
 _atom_site_type_symbol
 _atom_site_label
 _atom_site_symmetry_multiplicity
 _atom_site_fract_x
 _atom_site_fract_y
 _atom_site_fract_z
 _atom_site_occupancy
  Cs  Cs0  1  0.034442  0.420229  0.739361  1
  Cs  Cs1  1  0.420229  0.034441  0.739361  1
  Cs  Cs2  1  0.973999  0.561790  0.264954  1
  Cs  Cs3  1  0.561790  0.974000  0.264954  1
  Cs  Cs4  1  0.292235  0.713907  0.005088  1
  Cs  Cs5  1  0.713907  0.292235  0.005088  1
  Cs  Cs6  1  0.851748  0.156798  0.489029  1
  Cs  Cs7  1  0.156798  0.851748  0.489029  1
  Cs  Cs8  1  0.431302  0.431299  0.696370  1
  Cs  Cs9  1  0.570866  0.570869  0.308265  1
  Ti  Ti10  1  0.927659  0.927659  0.935297  1
  Ti  Ti11  1  0.340687  0.340687  0.328340  1
  Ti  Ti12  1  0.662179  0.662179  0.675543  1
  Zn  Zn13  1  0.206690  0.206689  0.183726  1
  Zn  Zn14  1  0.791772  0.791773  0.812878  1
  Zn  Zn15  1  0.068050  0.068050  0.062653  1
  Se  Se16  1  0.994393  0.280349  0.122257  1
  Se  Se17  1  0.280349  0.994393  0.122257  1
  Se  Se18  1  0.004939  0.720451  0.875611  1
  Se  Se19  1  0.720451  0.004939  0.875611  1
  Se  Se20  1  0.210379  0.210379  0.446629  1
  Se  Se21  1  0.792527  0.792527  0.554108  1
  Se  Se22  1  0.055257  0.055257  0.803638  1
  Se  Se23  1  0.928877  0.928877  0.183112  1
  Se  Se24  1  0.348377  0.348378  0.073834  1
  Se  Se25  1  0.655208  0.655207  0.931200  1
  Se  Se26  1  0.257859  0.542322  0.396181  1
  Se  Se27  1  0.542322  0.257859  0.396181  1
  Se  Se28  1  0.744226  0.460487  0.609722  1
  Se  Se29  1  0.460487  0.744226  0.609722  1
