# generated using pymatgen
data_Ca3AcTi4O12
_symmetry_space_group_name_H-M   'P 1'
_cell_length_a   7.83767400
_cell_length_b   5.48679125
_cell_length_c   5.53352787
_cell_angle_alpha   90.07017987
_cell_angle_beta   90.00000000
_cell_angle_gamma   90.00000000
_symmetry_Int_Tables_number   1
_chemical_formula_structural   Ca3AcTi4O12
_chemical_formula_sum   'Ca3 Ac1 Ti4 O12'
_cell_volume   237.96188945
_cell_formula_units_Z   1
loop_
 _symmetry_equiv_pos_site_id
 _symmetry_equiv_pos_as_xyz
  1  'x, y, z'
loop_
 _atom_site_type_symbol
 _atom_site_label
 _atom_site_symmetry_multiplicity
 _atom_site_fract_x
 _atom_site_fract_y
 _atom_site_fract_z
 _atom_site_occupancy
  Ca  Ca0  1  0.500000  0.996865  0.533716  1
  Ca  Ca1  1  0.000000  0.494011  0.958009  1
  Ca  Ca2  1  0.000000  0.004359  0.466472  1
  Ac  Ac3  1  0.500000  0.504386  0.023180  1
  Ti  Ti4  1  0.243591  0.500465  0.499394  1
  Ti  Ti5  1  0.757061  0.999248  0.000495  1
  Ti  Ti6  1  0.756409  0.500465  0.499394  1
  Ti  Ti7  1  0.242939  0.999248  0.000495  1
  O  O8  1  0.500000  0.432700  0.501198  1
  O  O9  1  0.500000  0.046562  0.976379  1
  O  O10  1  0.000000  0.568484  0.507873  1
  O  O11  1  0.000000  0.930492  0.028993  1
  O  O12  1  0.269890  0.714464  0.786162  1
  O  O13  1  0.711733  0.790545  0.290545  1
  O  O14  1  0.784123  0.291582  0.209930  1
  O  O15  1  0.211192  0.214766  0.715565  1
  O  O16  1  0.215877  0.291582  0.209930  1
  O  O17  1  0.788808  0.214766  0.715565  1
  O  O18  1  0.730110  0.714464  0.786162  1
  O  O19  1  0.288267  0.790545  0.290545  1
