# generated using pymatgen
data_Dy4Tm8Ni5Bi
_symmetry_space_group_name_H-M   'P 1'
_cell_length_a   8.26715226
_cell_length_b   8.26715215
_cell_length_c   8.26715178
_cell_angle_alpha   109.37063089
_cell_angle_beta   111.66059717
_cell_angle_gamma   107.41044144
_symmetry_Int_Tables_number   1
_chemical_formula_structural   Dy4Tm8Ni5Bi
_chemical_formula_sum   'Dy4 Tm8 Ni5 Bi1'
_cell_volume   434.35606876
_cell_formula_units_Z   1
loop_
 _symmetry_equiv_pos_site_id
 _symmetry_equiv_pos_as_xyz
  1  'x, y, z'
loop_
 _atom_site_type_symbol
 _atom_site_label
 _atom_site_symmetry_multiplicity
 _atom_site_fract_x
 _atom_site_fract_y
 _atom_site_fract_z
 _atom_site_occupancy
  Dy  Dy0  1  0.293561  0.179086  0.472647  1
  Dy  Dy1  1  0.706439  0.820914  0.527353  1
  Dy  Dy2  1  0.293561  0.820914  0.114474  1
  Dy  Dy3  1  0.706439  0.179086  0.885526  1
  Tm  Tm4  1  0.628458  0.320447  0.308013  1
  Tm  Tm5  1  0.371542  0.679553  0.691987  1
  Tm  Tm6  1  0.012434  0.320447  0.691987  1
  Tm  Tm7  1  0.987566  0.679553  0.308013  1
  Tm  Tm8  1  0.207489  0.400853  0.193365  1
  Tm  Tm9  1  0.792511  0.599147  0.806635  1
  Tm  Tm10  1  0.207489  0.014125  0.806635  1
  Tm  Tm11  1  0.792511  0.985875  0.193365  1
  Ni  Ni12  1  0.000000  0.367922  0.367922  1
  Ni  Ni13  1  0.000000  0.632078  0.632078  1
  Ni  Ni14  1  0.373334  0.873334  0.500000  1
  Ni  Ni15  1  0.626666  0.126666  0.500000  1
  Ni  Ni16  1  0.000000  0.000000  0.000000  1
  Bi  Bi17  1  0.500000  0.500000  0.000000  1
