# generated using pymatgen
data_Yb4TaN4
_symmetry_space_group_name_H-M   'P 1'
_cell_length_a   5.92217524
_cell_length_b   5.92870218
_cell_length_c   8.97292500
_cell_angle_alpha   72.20213576
_cell_angle_beta   81.98582849
_cell_angle_gamma   69.22608350
_symmetry_Int_Tables_number   1
_chemical_formula_structural   Yb4TaN4
_chemical_formula_sum   'Yb8 Ta2 N8'
_cell_volume   280.29684338
_cell_formula_units_Z   2
loop_
 _symmetry_equiv_pos_site_id
 _symmetry_equiv_pos_as_xyz
  1  'x, y, z'
loop_
 _atom_site_type_symbol
 _atom_site_label
 _atom_site_symmetry_multiplicity
 _atom_site_fract_x
 _atom_site_fract_y
 _atom_site_fract_z
 _atom_site_occupancy
  Yb  Yb0  1  0.237965  0.953348  0.603423  1
  Yb  Yb1  1  0.743344  0.611048  0.194895  1
  Yb  Yb2  1  0.757952  0.239961  0.985782  1
  Yb  Yb3  1  0.259037  0.528008  0.424212  1
  Yb  Yb4  1  0.762035  0.046652  0.396577  1
  Yb  Yb5  1  0.256656  0.388952  0.805105  1
  Yb  Yb6  1  0.740963  0.471992  0.575788  1
  Yb  Yb7  1  0.242048  0.760039  0.014218  1
  Ta  Ta8  1  0.718890  0.850683  0.762971  1
  Ta  Ta9  1  0.281110  0.149317  0.237029  1
  N  N10  1  0.975442  0.709381  0.621178  1
  N  N11  1  0.520378  0.177343  0.626248  1
  N  N12  1  0.024558  0.290619  0.378822  1
  N  N13  1  0.515931  0.633300  0.799092  1
  N  N14  1  0.155411  0.160086  0.045321  1
  N  N15  1  0.479622  0.822657  0.373752  1
  N  N16  1  0.484069  0.366700  0.200908  1
  N  N17  1  0.844589  0.839914  0.954679  1
