# generated using pymatgen
data_Ba4AlAu17
_symmetry_space_group_name_H-M   'P 1'
_cell_length_a   9.21656534
_cell_length_b   9.05948342
_cell_length_c   9.05948590
_cell_angle_alpha   58.86701110
_cell_angle_beta   59.11261045
_cell_angle_gamma   59.11260745
_symmetry_Int_Tables_number   1
_chemical_formula_structural   Ba4AlAu17
_chemical_formula_sum   'Ba4 Al1 Au17'
_cell_volume   523.05546899
_cell_formula_units_Z   1
loop_
 _symmetry_equiv_pos_site_id
 _symmetry_equiv_pos_as_xyz
  1  'x, y, z'
loop_
 _atom_site_type_symbol
 _atom_site_label
 _atom_site_symmetry_multiplicity
 _atom_site_fract_x
 _atom_site_fract_y
 _atom_site_fract_z
 _atom_site_occupancy
  Ba  Ba0  1  0.373343  0.394005  0.425773  1
  Ba  Ba1  1  0.881115  0.925840  0.894325  1
  Ba  Ba2  1  0.618885  0.605675  0.574160  1
  Ba  Ba3  1  0.126657  0.074227  0.105995  1
  Al  Al4  1  0.750000  0.573393  0.926607  1
  Au  Au5  1  0.055854  0.246592  0.446236  1
  Au  Au6  1  0.444146  0.053764  0.253408  1
  Au  Au7  1  0.250000  0.431628  0.068372  1
  Au  Au8  1  0.929158  0.748566  0.567002  1
  Au  Au9  1  0.570842  0.932998  0.751434  1
  Au  Au10  1  0.966484  0.336784  0.749485  1
  Au  Au11  1  0.736970  0.995292  0.323723  1
  Au  Au12  1  0.376731  0.698503  0.974627  1
  Au  Au13  1  0.234138  0.825654  0.491577  1
  Au  Au14  1  0.473574  0.241257  0.830331  1
  Au  Au15  1  0.869937  0.472317  0.186748  1
  Au  Au16  1  0.026426  0.669669  0.258743  1
  Au  Au17  1  0.265862  0.008423  0.674346  1
  Au  Au18  1  0.630063  0.313252  0.027683  1
  Au  Au19  1  0.763030  0.176277  0.504708  1
  Au  Au20  1  0.533516  0.750515  0.163216  1
  Au  Au21  1  0.123269  0.525373  0.801497  1
