# generated using pymatgen
data_DyErLu4(Si3Ru)8
_symmetry_space_group_name_H-M   'P 1'
_cell_length_a   10.09712913
_cell_length_b   10.09711476
_cell_length_c   8.09865103
_cell_angle_alpha   90.10004864
_cell_angle_beta   89.92028253
_cell_angle_gamma   132.69981674
_symmetry_Int_Tables_number   1
_chemical_formula_structural   DyErLu4(Si3Ru)8
_chemical_formula_sum   'Dy1 Er1 Lu4 Si24 Ru8'
_cell_volume   606.79970792
_cell_formula_units_Z   1
loop_
 _symmetry_equiv_pos_site_id
 _symmetry_equiv_pos_as_xyz
  1  'x, y, z'
loop_
 _atom_site_type_symbol
 _atom_site_label
 _atom_site_symmetry_multiplicity
 _atom_site_fract_x
 _atom_site_fract_y
 _atom_site_fract_z
 _atom_site_occupancy
  Dy  Dy0  1  0.497515  0.997472  0.250161  1
  Er  Er1  1  0.999956  0.999967  0.000016  1
  Lu  Lu2  1  0.001891  0.501950  0.749807  1
  Lu  Lu3  1  0.502231  0.002159  0.749790  1
  Lu  Lu4  1  0.997317  0.497327  0.250167  1
  Lu  Lu5  1  0.500051  0.499986  0.500256  1
  Si  Si6  1  0.386963  0.152705  0.003879  1
  Si  Si7  1  0.652873  0.887328  0.496231  1
  Si  Si8  1  0.110434  0.343280  0.503408  1
  Si  Si9  1  0.843726  0.610995  0.996685  1
  Si  Si10  1  0.613353  0.848286  0.992979  1
  Si  Si11  1  0.347853  0.112792  0.506917  1
  Si  Si12  1  0.889243  0.656281  0.494833  1
  Si  Si13  1  0.155988  0.388794  0.005261  1
  Si  Si14  1  0.612220  0.377784  0.229069  1
  Si  Si15  1  0.879204  0.114146  0.271227  1
  Si  Si16  1  0.885228  0.119223  0.727516  1
  Si  Si17  1  0.620490  0.386985  0.771899  1
  Si  Si18  1  0.390215  0.624226  0.771665  1
  Si  Si19  1  0.122614  0.888174  0.727920  1
  Si  Si20  1  0.704512  0.294958  0.999364  1
  Si  Si21  1  0.794360  0.204786  0.500512  1
  Si  Si22  1  0.295280  0.704689  0.999529  1
  Si  Si23  1  0.205205  0.794928  0.500409  1
  Si  Si24  1  0.168152  0.166551  0.332746  1
  Si  Si25  1  0.666937  0.668692  0.167180  1
  Si  Si26  1  0.332260  0.332531  0.833214  1
  Si  Si27  1  0.833088  0.832459  0.666962  1
  Si  Si28  1  0.376584  0.611196  0.229962  1
  Si  Si29  1  0.112914  0.877876  0.270602  1
  Ru  Ru30  1  0.626597  0.626808  0.871672  1
  Ru  Ru31  1  0.127937  0.127755  0.626479  1
  Ru  Ru32  1  0.872465  0.873009  0.373086  1
  Ru  Ru33  1  0.374141  0.373718  0.128950  1
  Ru  Ru34  1  0.326747  0.665890  0.502121  1
  Ru  Ru35  1  0.166855  0.826250  0.997904  1
  Ru  Ru36  1  0.673178  0.334105  0.501453  1
  Ru  Ru37  1  0.833422  0.173939  0.998169  1
