# generated using pymatgen
data_Pr8Ho11ErPb16
_symmetry_space_group_name_H-M   'P 1'
_cell_length_a   8.29198100
_cell_length_b   8.38815836
_cell_length_c   15.82957800
_cell_angle_alpha   90.00000000
_cell_angle_beta   90.00000000
_cell_angle_gamma   89.98316951
_symmetry_Int_Tables_number   1
_chemical_formula_structural   Pr8Ho11ErPb16
_chemical_formula_sum   'Pr8 Ho11 Er1 Pb16'
_cell_volume   1101.01754025
_cell_formula_units_Z   1
loop_
 _symmetry_equiv_pos_site_id
 _symmetry_equiv_pos_as_xyz
  1  'x, y, z'
loop_
 _atom_site_type_symbol
 _atom_site_label
 _atom_site_symmetry_multiplicity
 _atom_site_fract_x
 _atom_site_fract_y
 _atom_site_fract_z
 _atom_site_occupancy
  Pr  Pr0  1  0.478655  0.677813  0.596986  1
  Pr  Pr1  1  0.978572  0.821945  0.903006  1
  Pr  Pr2  1  0.521405  0.322113  0.096908  1
  Pr  Pr3  1  0.021498  0.177938  0.402995  1
  Pr  Pr4  1  0.521405  0.322113  0.403092  1
  Pr  Pr5  1  0.021498  0.177938  0.097005  1
  Pr  Pr6  1  0.478655  0.677813  0.903014  1
  Pr  Pr7  1  0.978572  0.821945  0.596994  1
  Ho  Ho8  1  0.638396  0.158960  0.623128  1
  Ho  Ho9  1  0.138193  0.341199  0.876931  1
  Ho  Ho10  1  0.361797  0.841009  0.123089  1
  Ho  Ho11  1  0.861759  0.658992  0.377026  1
  Ho  Ho12  1  0.361797  0.841009  0.376911  1
  Ho  Ho13  1  0.861759  0.658992  0.122974  1
  Ho  Ho14  1  0.638396  0.158960  0.876872  1
  Ho  Ho15  1  0.138193  0.341199  0.623069  1
  Ho  Ho16  1  0.305160  0.005180  0.750000  1
  Ho  Ho17  1  0.194942  0.505072  0.250000  1
  Ho  Ho18  1  0.695009  0.994720  0.250000  1
  Er  Er19  1  0.805085  0.494623  0.750000  1
  Pb  Pb20  1  0.701976  0.959078  0.456670  1
  Pb  Pb21  1  0.201889  0.541140  0.043307  1
  Pb  Pb22  1  0.298048  0.041110  0.956706  1
  Pb  Pb23  1  0.797922  0.459013  0.543518  1
  Pb  Pb24  1  0.298048  0.041110  0.543294  1
  Pb  Pb25  1  0.797922  0.459013  0.956482  1
  Pb  Pb26  1  0.701976  0.959078  0.043330  1
  Pb  Pb27  1  0.201889  0.541140  0.456693  1
  Pb  Pb28  1  0.443570  0.371478  0.750000  1
  Pb  Pb29  1  0.943240  0.128981  0.750000  1
  Pb  Pb30  1  0.556643  0.628553  0.250000  1
  Pb  Pb31  1  0.056591  0.871140  0.250000  1
  Pb  Pb32  1  0.668535  0.849252  0.750000  1
  Pb  Pb33  1  0.168340  0.650280  0.750000  1
  Pb  Pb34  1  0.331385  0.150377  0.250000  1
  Pb  Pb35  1  0.831280  0.349722  0.250000  1
