# generated using pymatgen
data_Tb5Dy5(SiPb3)2
_symmetry_space_group_name_H-M   'P 1'
_cell_length_a   9.36830303
_cell_length_b   9.36830261
_cell_length_c   6.53945400
_cell_angle_alpha   90.00000000
_cell_angle_beta   90.00000000
_cell_angle_gamma   120.00898461
_symmetry_Int_Tables_number   1
_chemical_formula_structural   Tb5Dy5(SiPb3)2
_chemical_formula_sum   'Tb5 Dy5 Si2 Pb6'
_cell_volume   496.99799389
_cell_formula_units_Z   1
loop_
 _symmetry_equiv_pos_site_id
 _symmetry_equiv_pos_as_xyz
  1  'x, y, z'
loop_
 _atom_site_type_symbol
 _atom_site_label
 _atom_site_symmetry_multiplicity
 _atom_site_fract_x
 _atom_site_fract_y
 _atom_site_fract_z
 _atom_site_occupancy
  Tb  Tb0  1  0.248783  0.999979  0.250000  1
  Tb  Tb1  1  0.999954  0.751190  0.750000  1
  Tb  Tb2  1  0.999979  0.248783  0.250000  1
  Tb  Tb3  1  0.751190  0.999954  0.750000  1
  Tb  Tb4  1  0.248768  0.248768  0.750000  1
  Dy  Dy5  1  0.333386  0.666686  0.499979  1
  Dy  Dy6  1  0.666686  0.333386  0.499979  1
  Dy  Dy7  1  0.333386  0.666686  0.000021  1
  Dy  Dy8  1  0.666686  0.333386  0.000021  1
  Dy  Dy9  1  0.751509  0.751509  0.250000  1
  Si  Si10  1  0.999790  0.999790  0.000257  1
  Si  Si11  1  0.999790  0.999790  0.499743  1
  Pb  Pb12  1  0.607790  0.999881  0.250000  1
  Pb  Pb13  1  0.392286  0.000004  0.750000  1
  Pb  Pb14  1  0.999881  0.607790  0.250000  1
  Pb  Pb15  1  0.607705  0.607705  0.750000  1
  Pb  Pb16  1  0.392428  0.392428  0.250000  1
  Pb  Pb17  1  0.000004  0.392286  0.750000  1
