# generated using pymatgen
data_YHo2Ir7Rh2
_symmetry_space_group_name_H-M   'P 1'
_cell_length_a   5.31443900
_cell_length_b   5.31473604
_cell_length_c   17.45120100
_cell_angle_alpha   90.00000000
_cell_angle_beta   90.00000000
_cell_angle_gamma   120.00071006
_symmetry_Int_Tables_number   1
_chemical_formula_structural   YHo2Ir7Rh2
_chemical_formula_sum   'Y2 Ho4 Ir14 Rh4'
_cell_volume   426.86640036
_cell_formula_units_Z   2
loop_
 _symmetry_equiv_pos_site_id
 _symmetry_equiv_pos_as_xyz
  1  'x, y, z'
loop_
 _atom_site_type_symbol
 _atom_site_label
 _atom_site_symmetry_multiplicity
 _atom_site_fract_x
 _atom_site_fract_y
 _atom_site_fract_z
 _atom_site_occupancy
  Y  Y0  1  0.333337  0.666668  0.750000  1
  Y  Y1  1  0.666663  0.333332  0.250000  1
  Ho  Ho2  1  0.333336  0.666669  0.958851  1
  Ho  Ho3  1  0.666664  0.333331  0.041149  1
  Ho  Ho4  1  0.666664  0.333331  0.458851  1
  Ho  Ho5  1  0.333336  0.666669  0.541149  1
  Ir  Ir6  1  0.167705  0.832283  0.374480  1
  Ir  Ir7  1  0.167709  0.335424  0.374480  1
  Ir  Ir8  1  0.664572  0.832284  0.374482  1
  Ir  Ir9  1  0.832295  0.167717  0.625520  1
  Ir  Ir10  1  0.832291  0.664576  0.625520  1
  Ir  Ir11  1  0.335428  0.167716  0.625518  1
  Ir  Ir12  1  0.832295  0.167717  0.874480  1
  Ir  Ir13  1  0.832291  0.664576  0.874480  1
  Ir  Ir14  1  0.335428  0.167716  0.874482  1
  Ir  Ir15  1  0.167705  0.832283  0.125520  1
  Ir  Ir16  1  0.167709  0.335424  0.125520  1
  Ir  Ir17  1  0.664572  0.832284  0.125518  1
  Ir  Ir18  1  0.000000  0.000000  0.500000  1
  Ir  Ir19  1  0.000000  0.000000  0.000000  1
  Rh  Rh20  1  0.333315  0.666654  0.250000  1
  Rh  Rh21  1  0.666685  0.333346  0.750000  1
  Rh  Rh22  1  0.000037  0.000032  0.250000  1
  Rh  Rh23  1  0.999963  0.999968  0.750000  1
