# generated using pymatgen
data_Tb3Dy7In4(HgPd)4
_symmetry_space_group_name_H-M   'P 1'
_cell_length_a   3.63557400
_cell_length_b   8.04210898
_cell_length_c   18.37308441
_cell_angle_alpha   89.95257833
_cell_angle_beta   90.00000000
_cell_angle_gamma   90.00000000
_symmetry_Int_Tables_number   1
_chemical_formula_structural   Tb3Dy7In4(HgPd)4
_chemical_formula_sum   'Tb3 Dy7 In4 Hg4 Pd4'
_cell_volume   537.18622129
_cell_formula_units_Z   1
loop_
 _symmetry_equiv_pos_site_id
 _symmetry_equiv_pos_as_xyz
  1  'x, y, z'
loop_
 _atom_site_type_symbol
 _atom_site_label
 _atom_site_symmetry_multiplicity
 _atom_site_fract_x
 _atom_site_fract_y
 _atom_site_fract_z
 _atom_site_occupancy
  Tb  Tb0  1  0.000000  0.499978  0.500035  1
  Tb  Tb1  1  0.000000  0.999992  0.999872  1
  Tb  Tb2  1  0.000000  0.742624  0.284106  1
  Dy  Dy3  1  0.000000  0.257443  0.715953  1
  Dy  Dy4  1  0.000000  0.757173  0.783919  1
  Dy  Dy5  1  0.000000  0.242525  0.216026  1
  Dy  Dy6  1  0.000000  0.608563  0.083455  1
  Dy  Dy7  1  0.000000  0.391050  0.916152  1
  Dy  Dy8  1  0.000000  0.891377  0.583954  1
  Dy  Dy9  1  0.000000  0.109081  0.416707  1
  In  In10  1  0.500000  0.581772  0.649481  1
  In  In11  1  0.500000  0.417713  0.350532  1
  In  In12  1  0.500000  0.918946  0.149205  1
  In  In13  1  0.500000  0.081603  0.850309  1
  Hg  Hg14  1  0.500000  0.712369  0.932713  1
  Hg  Hg15  1  0.500000  0.287317  0.067116  1
  Hg  Hg16  1  0.500000  0.788042  0.433386  1
  Hg  Hg17  1  0.500000  0.212258  0.567276  1
  Pd  Pd18  1  0.500000  0.528711  0.197518  1
  Pd  Pd19  1  0.500000  0.469953  0.801963  1
  Pd  Pd20  1  0.500000  0.970109  0.697893  1
  Pd  Pd21  1  0.500000  0.031401  0.302430  1
