# generated using pymatgen
data_Tb14Dy3Ho3Pb16
_symmetry_space_group_name_H-M   'P 1'
_cell_length_a   8.22232024
_cell_length_b   15.70601603
_cell_length_c   8.31198701
_cell_angle_alpha   90.00578474
_cell_angle_beta   90.01323084
_cell_angle_gamma   89.99705884
_symmetry_Int_Tables_number   1
_chemical_formula_structural   Tb14Dy3Ho3Pb16
_chemical_formula_sum   'Tb14 Dy3 Ho3 Pb16'
_cell_volume   1073.40908108
_cell_formula_units_Z   1
loop_
 _symmetry_equiv_pos_site_id
 _symmetry_equiv_pos_as_xyz
  1  'x, y, z'
loop_
 _atom_site_type_symbol
 _atom_site_label
 _atom_site_symmetry_multiplicity
 _atom_site_fract_x
 _atom_site_fract_y
 _atom_site_fract_z
 _atom_site_occupancy
  Tb  Tb0  1  0.377184  0.120221  0.840484  1
  Tb  Tb1  1  0.877195  0.379745  0.659514  1
  Tb  Tb2  1  0.377192  0.379741  0.840439  1
  Tb  Tb3  1  0.877197  0.120308  0.659568  1
  Tb  Tb4  1  0.622691  0.879754  0.159485  1
  Tb  Tb5  1  0.122908  0.620231  0.340365  1
  Tb  Tb6  1  0.466433  0.600161  0.677119  1
  Tb  Tb7  1  0.966572  0.899826  0.823053  1
  Tb  Tb8  1  0.533513  0.100218  0.322955  1
  Tb  Tb9  1  0.033496  0.399824  0.177048  1
  Tb  Tb10  1  0.533521  0.399847  0.322965  1
  Tb  Tb11  1  0.033503  0.100124  0.177037  1
  Tb  Tb12  1  0.466401  0.899817  0.677057  1
  Tb  Tb13  1  0.966537  0.600189  0.823112  1
  Dy  Dy14  1  0.622767  0.620273  0.159450  1
  Dy  Dy15  1  0.122992  0.879734  0.340391  1
  Dy  Dy16  1  0.791296  0.749986  0.496547  1
  Ho  Ho17  1  0.291109  0.750018  0.003529  1
  Ho  Ho18  1  0.208869  0.249982  0.503409  1
  Ho  Ho19  1  0.708883  0.250000  0.996643  1
  Pb  Pb20  1  0.718876  0.457307  0.967399  1
  Pb  Pb21  1  0.218879  0.042696  0.532569  1
  Pb  Pb22  1  0.280928  0.957168  0.032953  1
  Pb  Pb23  1  0.780914  0.542676  0.466995  1
  Pb  Pb24  1  0.281274  0.542835  0.032801  1
  Pb  Pb25  1  0.781243  0.957315  0.467151  1
  Pb  Pb26  1  0.718951  0.042823  0.967251  1
  Pb  Pb27  1  0.218938  0.457176  0.532717  1
  Pb  Pb28  1  0.427363  0.749997  0.372741  1
  Pb  Pb29  1  0.927798  0.750006  0.126846  1
  Pb  Pb30  1  0.572241  0.250001  0.627001  1
  Pb  Pb31  1  0.072245  0.250001  0.873018  1
  Pb  Pb32  1  0.654772  0.749956  0.848770  1
  Pb  Pb33  1  0.155035  0.750039  0.651717  1
  Pb  Pb34  1  0.345123  0.250004  0.151664  1
  Pb  Pb35  1  0.845161  0.250001  0.348237  1
