# generated using pymatgen
data_TbPrFe5Co3B8
_symmetry_space_group_name_H-M   'P 1'
_cell_length_a   7.03032600
_cell_length_b   7.01630002
_cell_length_c   3.80216314
_cell_angle_alpha   89.98693568
_cell_angle_beta   90.08653418
_cell_angle_gamma   89.91336102
_symmetry_Int_Tables_number   1
_chemical_formula_structural   TbPrFe5Co3B8
_chemical_formula_sum   'Tb1 Pr1 Fe5 Co3 B8'
_cell_volume   187.54839796
_cell_formula_units_Z   1
loop_
 _symmetry_equiv_pos_site_id
 _symmetry_equiv_pos_as_xyz
  1  'x, y, z'
loop_
 _atom_site_type_symbol
 _atom_site_label
 _atom_site_symmetry_multiplicity
 _atom_site_fract_x
 _atom_site_fract_y
 _atom_site_fract_z
 _atom_site_occupancy
  Tb  Tb0  1  0.999177  0.999936  0.993049  1
  Pr  Pr1  1  0.501202  0.501503  0.493571  1
  Fe  Fe2  1  0.869674  0.385420  0.106210  1
  Fe  Fe3  1  0.131283  0.615197  0.107576  1
  Fe  Fe4  1  0.887802  0.634781  0.607113  1
  Fe  Fe5  1  0.112919  0.366042  0.606589  1
  Fe  Fe6  1  0.635140  0.113009  0.392927  1
  Co  Co7  1  0.359392  0.886944  0.393311  1
  Co  Co8  1  0.614309  0.863757  0.893242  1
  Co  Co9  1  0.382875  0.134159  0.892889  1
  B  B10  1  0.333272  0.799675  0.898451  1
  B  B11  1  0.667701  0.199187  0.895957  1
  B  B12  1  0.294598  0.163807  0.395401  1
  B  B13  1  0.713568  0.841807  0.396858  1
  B  B14  1  0.162928  0.701699  0.608567  1
  B  B15  1  0.835631  0.294031  0.605933  1
  B  B16  1  0.192857  0.332097  0.106072  1
  B  B17  1  0.805672  0.666948  0.106285  1
