# generated using pymatgen
data_Ho2Er2PdPt3O14
_symmetry_space_group_name_H-M   'P 1'
_cell_length_a   7.23054620
_cell_length_b   7.23054688
_cell_length_c   7.23784844
_cell_angle_alpha   60.04122404
_cell_angle_beta   60.04123157
_cell_angle_gamma   60.00653199
_symmetry_Int_Tables_number   1
_chemical_formula_structural   Ho2Er2PdPt3O14
_chemical_formula_sum   'Ho2 Er2 Pd1 Pt3 O14'
_cell_volume   267.74942874
_cell_formula_units_Z   1
loop_
 _symmetry_equiv_pos_site_id
 _symmetry_equiv_pos_as_xyz
  1  'x, y, z'
loop_
 _atom_site_type_symbol
 _atom_site_label
 _atom_site_symmetry_multiplicity
 _atom_site_fract_x
 _atom_site_fract_y
 _atom_site_fract_z
 _atom_site_occupancy
  Ho  Ho0  1  0.625000  0.125000  0.625000  1
  Ho  Ho1  1  0.125000  0.625000  0.625000  1
  Er  Er2  1  0.625000  0.625000  0.125000  1
  Er  Er3  1  0.625000  0.625000  0.625000  1
  Pd  Pd4  1  0.125000  0.125000  0.625000  1
  Pt  Pt5  1  0.625000  0.125000  0.125000  1
  Pt  Pt6  1  0.125000  0.125000  0.125000  1
  Pt  Pt7  1  0.125000  0.625000  0.125000  1
  O  O8  1  0.032709  0.468119  0.465620  1
  O  O9  1  0.782485  0.782485  0.217315  1
  O  O10  1  0.782637  0.218010  0.216738  1
  O  O11  1  0.749127  0.749127  0.750988  1
  O  O12  1  0.031990  0.467363  0.033262  1
  O  O13  1  0.468119  0.032709  0.465620  1
  O  O14  1  0.033277  0.033277  0.465478  1
  O  O15  1  0.500873  0.500873  0.499012  1
  O  O16  1  0.216723  0.216723  0.784522  1
  O  O17  1  0.218010  0.782637  0.216738  1
  O  O18  1  0.781881  0.217291  0.784380  1
  O  O19  1  0.467363  0.031990  0.033262  1
  O  O20  1  0.467515  0.467515  0.032685  1
  O  O21  1  0.217291  0.781881  0.784380  1
