# generated using pymatgen
data_Pu8SeS11
_symmetry_space_group_name_H-M   'P 1'
_cell_length_a   10.67485301
_cell_length_b   3.91085800
_cell_length_c   10.42325510
_cell_angle_alpha   90.00000000
_cell_angle_beta   90.10045048
_cell_angle_gamma   90.00000000
_symmetry_Int_Tables_number   1
_chemical_formula_structural   Pu8SeS11
_chemical_formula_sum   'Pu8 Se1 S11'
_cell_volume   435.14765775
_cell_formula_units_Z   1
loop_
 _symmetry_equiv_pos_site_id
 _symmetry_equiv_pos_as_xyz
  1  'x, y, z'
loop_
 _atom_site_type_symbol
 _atom_site_label
 _atom_site_symmetry_multiplicity
 _atom_site_fract_x
 _atom_site_fract_y
 _atom_site_fract_z
 _atom_site_occupancy
  Pu  Pu0  1  0.495985  0.250000  0.184245  1
  Pu  Pu1  1  0.997097  0.250000  0.316999  1
  Pu  Pu2  1  0.498442  0.750000  0.816221  1
  Pu  Pu3  1  0.009237  0.750000  0.680765  1
  Pu  Pu4  1  0.686370  0.750000  0.491462  1
  Pu  Pu5  1  0.185735  0.750000  0.008950  1
  Pu  Pu6  1  0.314152  0.250000  0.507378  1
  Pu  Pu7  1  0.814619  0.250000  0.999879  1
  Se  Se8  1  0.766678  0.750000  0.793616  1
  S  S9  1  0.548311  0.250000  0.630836  1
  S  S10  1  0.050180  0.250000  0.869036  1
  S  S11  1  0.449777  0.750000  0.368452  1
  S  S12  1  0.951001  0.750000  0.132916  1
  S  S13  1  0.623599  0.750000  0.054042  1
  S  S14  1  0.125978  0.750000  0.444529  1
  S  S15  1  0.374282  0.250000  0.946877  1
  S  S16  1  0.877300  0.250000  0.552682  1
  S  S17  1  0.731451  0.250000  0.297684  1
  S  S18  1  0.231108  0.250000  0.202004  1
  S  S19  1  0.268697  0.750000  0.701429  1
