# generated using pymatgen
data_CeNdDy2(Cu5Sn)4
_symmetry_space_group_name_H-M   'P 1'
_cell_length_a   5.03462400
_cell_length_b   8.24676999
_cell_length_c   10.55733321
_cell_angle_alpha   89.72866419
_cell_angle_beta   90.00000000
_cell_angle_gamma   90.00000000
_symmetry_Int_Tables_number   1
_chemical_formula_structural   CeNdDy2(Cu5Sn)4
_chemical_formula_sum   'Ce1 Nd1 Dy2 Cu20 Sn4'
_cell_volume   438.32907845
_cell_formula_units_Z   1
loop_
 _symmetry_equiv_pos_site_id
 _symmetry_equiv_pos_as_xyz
  1  'x, y, z'
loop_
 _atom_site_type_symbol
 _atom_site_label
 _atom_site_symmetry_multiplicity
 _atom_site_fract_x
 _atom_site_fract_y
 _atom_site_fract_z
 _atom_site_occupancy
  Ce  Ce0  1  0.250000  0.752149  0.058231  1
  Nd  Nd1  1  0.250000  0.252092  0.442125  1
  Dy  Dy2  1  0.750000  0.248474  0.939236  1
  Dy  Dy3  1  0.750000  0.747556  0.560416  1
  Cu  Cu4  1  0.250000  0.817627  0.745421  1
  Cu  Cu5  1  0.750000  0.182851  0.255901  1
  Cu  Cu6  1  0.750000  0.683768  0.242919  1
  Cu  Cu7  1  0.250000  0.317367  0.755678  1
  Cu  Cu8  1  0.501765  0.567813  0.811878  1
  Cu  Cu9  1  0.499229  0.431318  0.187539  1
  Cu  Cu10  1  0.499607  0.931450  0.312278  1
  Cu  Cu11  1  0.000771  0.431318  0.187539  1
  Cu  Cu12  1  0.501638  0.067693  0.688544  1
  Cu  Cu13  1  0.998235  0.567813  0.811878  1
  Cu  Cu14  1  0.998362  0.067693  0.688544  1
  Cu  Cu15  1  0.000393  0.931450  0.312278  1
  Cu  Cu16  1  0.250000  0.911211  0.518043  1
  Cu  Cu17  1  0.750000  0.077514  0.484508  1
  Cu  Cu18  1  0.750000  0.579425  0.016152  1
  Cu  Cu19  1  0.250000  0.414476  0.982318  1
  Cu  Cu20  1  0.250000  0.566098  0.603458  1
  Cu  Cu21  1  0.750000  0.442618  0.397325  1
  Cu  Cu22  1  0.750000  0.940848  0.101976  1
  Cu  Cu23  1  0.250000  0.064399  0.896834  1
  Sn  Sn24  1  0.250000  0.641000  0.359768  1
  Sn  Sn25  1  0.750000  0.362029  0.641009  1
  Sn  Sn26  1  0.750000  0.862117  0.859103  1
  Sn  Sn27  1  0.250000  0.139834  0.139104  1
