# generated using pymatgen
data_La7YbSnPd24
_symmetry_space_group_name_H-M   'P 1'
_cell_length_a   8.58504775
_cell_length_b   8.58504775
_cell_length_c   8.58504775
_cell_angle_alpha   89.94821216
_cell_angle_beta   89.94821216
_cell_angle_gamma   89.94821216
_symmetry_Int_Tables_number   1
_chemical_formula_structural   La7YbSnPd24
_chemical_formula_sum   'La7 Yb1 Sn1 Pd24'
_cell_volume   632.74338517
_cell_formula_units_Z   1
loop_
 _symmetry_equiv_pos_site_id
 _symmetry_equiv_pos_as_xyz
  1  'x, y, z'
loop_
 _atom_site_type_symbol
 _atom_site_label
 _atom_site_symmetry_multiplicity
 _atom_site_fract_x
 _atom_site_fract_y
 _atom_site_fract_z
 _atom_site_occupancy
  La  La0  1  0.748358  0.748358  0.748358  1
  La  La1  1  0.747797  0.747797  0.252024  1
  La  La2  1  0.747797  0.252024  0.747797  1
  La  La3  1  0.252176  0.252176  0.747725  1
  La  La4  1  0.252176  0.747725  0.252176  1
  La  La5  1  0.252024  0.747797  0.747797  1
  La  La6  1  0.747725  0.252176  0.252176  1
  Yb  Yb7  1  0.251775  0.251775  0.251775  1
  Sn  Sn8  1  0.000698  0.000698  0.000698  1
  Pd  Pd9  1  0.267552  0.498138  0.002145  1
  Pd  Pd10  1  0.732571  0.499924  0.999714  1
  Pd  Pd11  1  0.002145  0.267552  0.498138  1
  Pd  Pd12  1  0.498138  0.267552  0.002145  1
  Pd  Pd13  1  0.999714  0.732571  0.499924  1
  Pd  Pd14  1  0.499924  0.732571  0.999714  1
  Pd  Pd15  1  0.498138  0.002145  0.267552  1
  Pd  Pd16  1  0.267552  0.002145  0.498138  1
  Pd  Pd17  1  0.499924  0.999714  0.732571  1
  Pd  Pd18  1  0.732571  0.999714  0.499924  1
  Pd  Pd19  1  0.002145  0.498138  0.267552  1
  Pd  Pd20  1  0.999714  0.499924  0.732571  1
  Pd  Pd21  1  0.256003  0.497752  0.497752  1
  Pd  Pd22  1  0.743775  0.500159  0.500159  1
  Pd  Pd23  1  0.497752  0.256003  0.497752  1
  Pd  Pd24  1  0.500159  0.743775  0.500159  1
  Pd  Pd25  1  0.497752  0.497752  0.256003  1
  Pd  Pd26  1  0.500159  0.500159  0.743775  1
  Pd  Pd27  1  0.313642  0.002203  0.002203  1
  Pd  Pd28  1  0.685589  0.000074  0.000074  1
  Pd  Pd29  1  0.002203  0.313642  0.002203  1
  Pd  Pd30  1  0.000074  0.685589  0.000074  1
  Pd  Pd31  1  0.002203  0.002203  0.313642  1
  Pd  Pd32  1  0.000074  0.000074  0.685589  1
