# generated using pymatgen
data_TbY5(Tm2Bi3)2
_symmetry_space_group_name_H-M   'P 1'
_cell_length_a   8.23150100
_cell_length_b   9.47182002
_cell_length_c   12.04565803
_cell_angle_alpha   90.00780203
_cell_angle_beta   90.00000000
_cell_angle_gamma   90.00000000
_symmetry_Int_Tables_number   1
_chemical_formula_structural   TbY5(Tm2Bi3)2
_chemical_formula_sum   'Tb2 Y10 Tm8 Bi12'
_cell_volume   939.16737606
_cell_formula_units_Z   2
loop_
 _symmetry_equiv_pos_site_id
 _symmetry_equiv_pos_as_xyz
  1  'x, y, z'
loop_
 _atom_site_type_symbol
 _atom_site_label
 _atom_site_symmetry_multiplicity
 _atom_site_fract_x
 _atom_site_fract_y
 _atom_site_fract_z
 _atom_site_occupancy
  Tb  Tb0  1  0.186299  0.749654  0.718778  1
  Tb  Tb1  1  0.686299  0.750346  0.781222  1
  Y  Y2  1  0.813603  0.249642  0.281356  1
  Y  Y3  1  0.313603  0.250358  0.218644  1
  Y  Y4  1  0.693229  0.562641  0.059603  1
  Y  Y5  1  0.193229  0.937359  0.440397  1
  Y  Y6  1  0.306941  0.062460  0.940307  1
  Y  Y7  1  0.806941  0.437540  0.559693  1
  Y  Y8  1  0.354395  0.750128  0.215694  1
  Y  Y9  1  0.854395  0.749872  0.284306  1
  Y  Y10  1  0.645684  0.250154  0.784257  1
  Y  Y11  1  0.145684  0.249846  0.715743  1
  Tm  Tm12  1  0.025062  0.750246  0.988591  1
  Tm  Tm13  1  0.525062  0.749754  0.511409  1
  Tm  Tm14  1  0.974834  0.250183  0.011219  1
  Tm  Tm15  1  0.474834  0.249817  0.488781  1
  Tm  Tm16  1  0.307344  0.433752  0.940428  1
  Tm  Tm17  1  0.807344  0.066248  0.559572  1
  Tm  Tm18  1  0.692800  0.933622  0.059483  1
  Tm  Tm19  1  0.192800  0.566378  0.440517  1
  Bi  Bi20  1  0.434268  0.004125  0.672519  1
  Bi  Bi21  1  0.934268  0.495875  0.827481  1
  Bi  Bi22  1  0.565782  0.503715  0.327527  1
  Bi  Bi23  1  0.065782  0.996285  0.172473  1
  Bi  Bi24  1  0.566602  0.995922  0.327729  1
  Bi  Bi25  1  0.066602  0.504078  0.172271  1
  Bi  Bi26  1  0.433428  0.495464  0.672308  1
  Bi  Bi27  1  0.933428  0.004536  0.827692  1
  Bi  Bi28  1  0.406887  0.747525  0.957836  1
  Bi  Bi29  1  0.906887  0.752475  0.542164  1
  Bi  Bi30  1  0.592842  0.247577  0.042300  1
  Bi  Bi31  1  0.092842  0.252423  0.457700  1
