# generated using pymatgen
data_Er2Al9CoPt2
_symmetry_space_group_name_H-M   'P 1'
_cell_length_a   7.52776108
_cell_length_b   7.52776130
_cell_length_c   9.36704100
_cell_angle_alpha   90.00000000
_cell_angle_beta   90.00000000
_cell_angle_gamma   119.40723702
_symmetry_Int_Tables_number   1
_chemical_formula_structural   Er2Al9CoPt2
_chemical_formula_sum   'Er4 Al18 Co2 Pt4'
_cell_volume   462.41075283
_cell_formula_units_Z   2
loop_
 _symmetry_equiv_pos_site_id
 _symmetry_equiv_pos_as_xyz
  1  'x, y, z'
loop_
 _atom_site_type_symbol
 _atom_site_label
 _atom_site_symmetry_multiplicity
 _atom_site_fract_x
 _atom_site_fract_y
 _atom_site_fract_z
 _atom_site_occupancy
  Er  Er0  1  0.994463  0.674045  0.250241  1
  Er  Er1  1  0.005537  0.325955  0.750241  1
  Er  Er2  1  0.674045  0.994463  0.249759  1
  Er  Er3  1  0.325955  0.005537  0.749759  1
  Al  Al4  1  0.136450  0.136450  0.250000  1
  Al  Al5  1  0.863550  0.863550  0.750000  1
  Al  Al6  1  0.340425  0.333322  0.553547  1
  Al  Al7  1  0.659575  0.666678  0.053547  1
  Al  Al8  1  0.333322  0.340425  0.946453  1
  Al  Al9  1  0.666678  0.659575  0.446453  1
  Al  Al10  1  0.340441  0.554928  0.242743  1
  Al  Al11  1  0.659559  0.445072  0.742743  1
  Al  Al12  1  0.554928  0.340441  0.257257  1
  Al  Al13  1  0.445072  0.659559  0.757257  1
  Al  Al14  1  0.007871  0.344664  0.075489  1
  Al  Al15  1  0.992129  0.655336  0.575489  1
  Al  Al16  1  0.344664  0.007871  0.424511  1
  Al  Al17  1  0.655336  0.992129  0.924511  1
  Al  Al18  1  0.011439  0.664355  0.924062  1
  Al  Al19  1  0.988561  0.335645  0.424062  1
  Al  Al20  1  0.664355  0.011439  0.575938  1
  Al  Al21  1  0.335645  0.988561  0.075938  1
  Co  Co22  1  0.329484  0.670516  0.000000  1
  Co  Co23  1  0.670516  0.329484  0.500000  1
  Pt  Pt24  1  0.000253  0.999747  0.000000  1
  Pt  Pt25  1  0.999747  0.000253  0.500000  1
  Pt  Pt26  1  0.672214  0.327786  0.000000  1
  Pt  Pt27  1  0.327786  0.672214  0.500000  1
