# generated using pymatgen
data_CaLu(Cu2P)4
_symmetry_space_group_name_H-M   'P 1'
_cell_length_a   7.23833082
_cell_length_b   7.23833082
_cell_length_c   3.78868400
_cell_angle_alpha   90.00000000
_cell_angle_beta   90.00000000
_cell_angle_gamma   89.41968857
_symmetry_Int_Tables_number   1
_chemical_formula_structural   CaLu(Cu2P)4
_chemical_formula_sum   'Ca1 Lu1 Cu8 P4'
_cell_volume   198.49197991
_cell_formula_units_Z   1
loop_
 _symmetry_equiv_pos_site_id
 _symmetry_equiv_pos_as_xyz
  1  'x, y, z'
loop_
 _atom_site_type_symbol
 _atom_site_label
 _atom_site_symmetry_multiplicity
 _atom_site_fract_x
 _atom_site_fract_y
 _atom_site_fract_z
 _atom_site_occupancy
  Ca  Ca0  1  0.500000  0.500000  0.500000  1
  Lu  Lu1  1  0.000000  0.000000  0.000000  1
  Cu  Cu2  1  0.666240  0.916714  0.500000  1
  Cu  Cu3  1  0.162436  0.584533  0.000000  1
  Cu  Cu4  1  0.415467  0.837564  0.000000  1
  Cu  Cu5  1  0.916714  0.666240  0.500000  1
  Cu  Cu6  1  0.837564  0.415467  0.000000  1
  Cu  Cu7  1  0.584533  0.162436  0.000000  1
  Cu  Cu8  1  0.083286  0.333760  0.500000  1
  Cu  Cu9  1  0.333760  0.083286  0.500000  1
  P  P10  1  0.279079  0.279079  0.000000  1
  P  P11  1  0.720921  0.720921  0.000000  1
  P  P12  1  0.788008  0.211992  0.500000  1
  P  P13  1  0.211992  0.788008  0.500000  1
