# generated using pymatgen
data_Pr9Ho11Ga16
_symmetry_space_group_name_H-M   'P 1'
_cell_length_a   7.57284266
_cell_length_b   8.09960871
_cell_length_c   15.37714700
_cell_angle_alpha   90.00000000
_cell_angle_beta   90.00000000
_cell_angle_gamma   89.83103221
_symmetry_Int_Tables_number   1
_chemical_formula_structural   Pr9Ho11Ga16
_chemical_formula_sum   'Pr9 Ho11 Ga16'
_cell_volume   943.18492312
_cell_formula_units_Z   1
loop_
 _symmetry_equiv_pos_site_id
 _symmetry_equiv_pos_as_xyz
  1  'x, y, z'
loop_
 _atom_site_type_symbol
 _atom_site_label
 _atom_site_symmetry_multiplicity
 _atom_site_fract_x
 _atom_site_fract_y
 _atom_site_fract_z
 _atom_site_occupancy
  Pr  Pr0  1  0.488392  0.319309  0.904808  1
  Pr  Pr1  1  0.988578  0.180815  0.593891  1
  Pr  Pr2  1  0.515054  0.679723  0.407421  1
  Pr  Pr3  1  0.010274  0.819034  0.089912  1
  Pr  Pr4  1  0.515054  0.679723  0.092579  1
  Pr  Pr5  1  0.010274  0.819034  0.410088  1
  Pr  Pr6  1  0.488392  0.319309  0.595192  1
  Pr  Pr7  1  0.988578  0.180815  0.906109  1
  Pr  Pr8  1  0.323029  0.980355  0.250000  1
  Ho  Ho9  1  0.328980  0.822207  0.876162  1
  Ho  Ho10  1  0.829452  0.676158  0.623203  1
  Ho  Ho11  1  0.669728  0.178868  0.380395  1
  Ho  Ho12  1  0.172554  0.324284  0.120287  1
  Ho  Ho13  1  0.669728  0.178868  0.119605  1
  Ho  Ho14  1  0.172554  0.324284  0.379713  1
  Ho  Ho15  1  0.328980  0.822207  0.623838  1
  Ho  Ho16  1  0.829452  0.676158  0.876797  1
  Ho  Ho17  1  0.169184  0.484352  0.750000  1
  Ho  Ho18  1  0.669624  0.012574  0.750000  1
  Ho  Ho19  1  0.832806  0.510056  0.250000  1
  Ga  Ga20  1  0.343544  0.033789  0.036006  1
  Ga  Ga21  1  0.842972  0.469027  0.461367  1
  Ga  Ga22  1  0.657684  0.967708  0.540415  1
  Ga  Ga23  1  0.157740  0.532342  0.959779  1
  Ga  Ga24  1  0.657684  0.967708  0.959585  1
  Ga  Ga25  1  0.157740  0.532342  0.540221  1
  Ga  Ga26  1  0.343544  0.033789  0.463994  1
  Ga  Ga27  1  0.842972  0.469027  0.038633  1
  Ga  Ga28  1  0.536903  0.612306  0.750000  1
  Ga  Ga29  1  0.036332  0.887259  0.750000  1
  Ga  Ga30  1  0.463753  0.390943  0.250000  1
  Ga  Ga31  1  0.952882  0.124565  0.250000  1
  Ga  Ga32  1  0.278794  0.120318  0.750000  1
  Ga  Ga33  1  0.779641  0.378078  0.750000  1
  Ga  Ga34  1  0.730715  0.878045  0.250000  1
  Ga  Ga35  1  0.216437  0.614620  0.250000  1
