# generated using pymatgen
data_LiSm2As5PPd20
_symmetry_space_group_name_H-M   'P 1'
_cell_length_a   8.83227966
_cell_length_b   8.83227887
_cell_length_c   8.87185700
_cell_angle_alpha   59.85165986
_cell_angle_beta   59.85166282
_cell_angle_gamma   60.29668960
_symmetry_Int_Tables_number   1
_chemical_formula_structural   LiSm2As5PPd20
_chemical_formula_sum   'Li1 Sm2 As5 P1 Pd20'
_cell_volume   489.35906822
_cell_formula_units_Z   1
loop_
 _symmetry_equiv_pos_site_id
 _symmetry_equiv_pos_as_xyz
  1  'x, y, z'
loop_
 _atom_site_type_symbol
 _atom_site_label
 _atom_site_symmetry_multiplicity
 _atom_site_fract_x
 _atom_site_fract_y
 _atom_site_fract_z
 _atom_site_occupancy
  Li  Li0  1  0.999733  0.999733  0.000267  1
  Sm  Sm1  1  0.249254  0.249254  0.250746  1
  Sm  Sm2  1  0.749254  0.749254  0.750746  1
  As  As3  1  0.738315  0.259685  0.261685  1
  As  As4  1  0.259685  0.738315  0.740315  1
  As  As5  1  0.259685  0.738315  0.261685  1
  As  As6  1  0.738315  0.259685  0.740315  1
  As  As7  1  0.260622  0.260622  0.739378  1
  P  P8  1  0.738683  0.738683  0.261317  1
  Pd  Pd9  1  0.384369  0.384369  0.383094  1
  Pd  Pd10  1  0.618695  0.618695  0.608253  1
  Pd  Pd11  1  0.384369  0.384369  0.848168  1
  Pd  Pd12  1  0.391747  0.845642  0.381305  1
  Pd  Pd13  1  0.618695  0.618695  0.154358  1
  Pd  Pd14  1  0.616906  0.151832  0.615631  1
  Pd  Pd15  1  0.845642  0.391747  0.381305  1
  Pd  Pd16  1  0.151832  0.616906  0.615631  1
  Pd  Pd17  1  0.351202  0.000487  0.999513  1
  Pd  Pd18  1  0.654153  0.991369  0.008631  1
  Pd  Pd19  1  0.000487  0.351202  0.648798  1
  Pd  Pd20  1  0.991369  0.654153  0.345847  1
  Pd  Pd21  1  0.000487  0.351202  0.999513  1
  Pd  Pd22  1  0.654153  0.991369  0.345847  1
  Pd  Pd23  1  0.991369  0.654153  0.008631  1
  Pd  Pd24  1  0.351202  0.000487  0.648798  1
  Pd  Pd25  1  0.999945  0.999945  0.349815  1
  Pd  Pd26  1  0.999945  0.999945  0.650296  1
  Pd  Pd27  1  0.650185  0.349704  0.000055  1
  Pd  Pd28  1  0.349704  0.650185  0.000055  1
