# generated using pymatgen
data_Eu2DyLu(Ga3Ir)6
_symmetry_space_group_name_H-M   'P 1'
_cell_length_a   7.59366201
_cell_length_b   7.58971041
_cell_length_c   9.63144000
_cell_angle_alpha   90.00000000
_cell_angle_beta   90.00000000
_cell_angle_gamma   119.70147935
_symmetry_Int_Tables_number   1
_chemical_formula_structural   Eu2DyLu(Ga3Ir)6
_chemical_formula_sum   'Eu2 Dy1 Lu1 Ga18 Ir6'
_cell_volume   482.16632686
_cell_formula_units_Z   1
loop_
 _symmetry_equiv_pos_site_id
 _symmetry_equiv_pos_as_xyz
  1  'x, y, z'
loop_
 _atom_site_type_symbol
 _atom_site_label
 _atom_site_symmetry_multiplicity
 _atom_site_fract_x
 _atom_site_fract_y
 _atom_site_fract_z
 _atom_site_occupancy
  Eu  Eu0  1  0.996117  0.669354  0.250000  1
  Eu  Eu1  1  0.669319  0.996180  0.250000  1
  Dy  Dy2  1  0.330345  0.002224  0.750000  1
  Lu  Lu3  1  0.001541  0.329520  0.750000  1
  Ga  Ga4  1  0.666131  0.665966  0.442360  1
  Ga  Ga5  1  0.331770  0.332890  0.932584  1
  Ga  Ga6  1  0.666131  0.665966  0.057640  1
  Ga  Ga7  1  0.331770  0.332890  0.567416  1
  Ga  Ga8  1  0.001032  0.334782  0.426074  1
  Ga  Ga9  1  0.000735  0.664153  0.918759  1
  Ga  Ga10  1  0.334600  0.001214  0.075424  1
  Ga  Ga11  1  0.666523  0.001577  0.581396  1
  Ga  Ga12  1  0.000735  0.664153  0.581241  1
  Ga  Ga13  1  0.001032  0.334782  0.073926  1
  Ga  Ga14  1  0.666523  0.001577  0.918604  1
  Ga  Ga15  1  0.334600  0.001214  0.424576  1
  Ga  Ga16  1  0.130384  0.130319  0.250000  1
  Ga  Ga17  1  0.871241  0.872052  0.750000  1
  Ga  Ga18  1  0.663151  0.453926  0.750000  1
  Ga  Ga19  1  0.337196  0.544046  0.250000  1
  Ga  Ga20  1  0.452443  0.660938  0.750000  1
  Ga  Ga21  1  0.544180  0.337812  0.250000  1
  Ir  Ir22  1  0.002657  0.002831  0.504478  1
  Ir  Ir23  1  0.002657  0.002831  0.995522  1
  Ir  Ir24  1  0.670365  0.328056  0.503588  1
  Ir  Ir25  1  0.328226  0.670344  0.996555  1
  Ir  Ir26  1  0.328226  0.670344  0.503445  1
  Ir  Ir27  1  0.670365  0.328056  0.996412  1
