# generated using pymatgen
data_Li3Y4Er(B6Os)4
_symmetry_space_group_name_H-M   'P 1'
_cell_length_a   3.56460500
_cell_length_b   8.93435841
_cell_length_c   11.29643175
_cell_angle_alpha   89.93592845
_cell_angle_beta   90.00000000
_cell_angle_gamma   90.00000000
_symmetry_Int_Tables_number   1
_chemical_formula_structural   Li3Y4Er(B6Os)4
_chemical_formula_sum   'Li3 Y4 Er1 B24 Os4'
_cell_volume   359.76241818
_cell_formula_units_Z   1
loop_
 _symmetry_equiv_pos_site_id
 _symmetry_equiv_pos_as_xyz
  1  'x, y, z'
loop_
 _atom_site_type_symbol
 _atom_site_label
 _atom_site_symmetry_multiplicity
 _atom_site_fract_x
 _atom_site_fract_y
 _atom_site_fract_z
 _atom_site_occupancy
  Li  Li0  1  0.000000  0.943613  0.372013  1
  Li  Li1  1  0.000000  0.054633  0.625326  1
  Li  Li2  1  0.000000  0.442124  0.131065  1
  Y  Y3  1  0.000000  0.320971  0.410797  1
  Y  Y4  1  0.000000  0.681921  0.581390  1
  Y  Y5  1  0.000000  0.824290  0.090441  1
  Y  Y6  1  0.000000  0.178171  0.916241  1
  Er  Er7  1  0.000000  0.556053  0.871958  1
  B  B8  1  0.500000  0.555314  0.431670  1
  B  B9  1  0.500000  0.444104  0.565782  1
  B  B10  1  0.500000  0.056610  0.068864  1
  B  B11  1  0.500000  0.948176  0.932976  1
  B  B12  1  0.500000  0.758606  0.416834  1
  B  B13  1  0.500000  0.240028  0.580992  1
  B  B14  1  0.500000  0.256429  0.084593  1
  B  B15  1  0.500000  0.751174  0.918521  1
  B  B16  1  0.500000  0.794588  0.264901  1
  B  B17  1  0.500000  0.202682  0.734499  1
  B  B18  1  0.500000  0.294117  0.236493  1
  B  B19  1  0.500000  0.709821  0.762982  1
  B  B20  1  0.500000  0.626415  0.183708  1
  B  B21  1  0.500000  0.367591  0.814769  1
  B  B22  1  0.500000  0.125198  0.318557  1
  B  B23  1  0.500000  0.876686  0.679949  1
  B  B24  1  0.500000  0.979427  0.214839  1
  B  B25  1  0.500000  0.020971  0.784963  1
  B  B26  1  0.500000  0.478931  0.286646  1
  B  B27  1  0.500000  0.517603  0.711051  1
  B  B28  1  0.500000  0.590578  0.032205  1
  B  B29  1  0.500000  0.403735  0.980888  1
  B  B30  1  0.500000  0.092611  0.473555  1
  B  B31  1  0.500000  0.907925  0.524280  1
  Os  Os32  1  0.000000  0.639790  0.317943  1
  Os  Os33  1  0.000000  0.355781  0.678046  1
  Os  Os34  1  0.000000  0.139147  0.183415  1
  Os  Os35  1  0.000000  0.864185  0.816847  1
