# generated using pymatgen
data_Yb3RuPt3PbO14
_symmetry_space_group_name_H-M   'P 1'
_cell_length_a   7.23857757
_cell_length_b   7.23564295
_cell_length_c   7.23564300
_cell_angle_alpha   59.99999521
_cell_angle_beta   60.01340528
_cell_angle_gamma   60.01341448
_symmetry_Int_Tables_number   1
_chemical_formula_structural   Yb3RuPt3PbO14
_chemical_formula_sum   'Yb3 Ru1 Pt3 Pb1 O14'
_cell_volume   268.02819149
_cell_formula_units_Z   1
loop_
 _symmetry_equiv_pos_site_id
 _symmetry_equiv_pos_as_xyz
  1  'x, y, z'
loop_
 _atom_site_type_symbol
 _atom_site_label
 _atom_site_symmetry_multiplicity
 _atom_site_fract_x
 _atom_site_fract_y
 _atom_site_fract_z
 _atom_site_occupancy
  Yb  Yb0  1  0.125000  0.125000  0.125000  1
  Yb  Yb1  1  0.125000  0.125000  0.625000  1
  Yb  Yb2  1  0.125000  0.625000  0.125000  1
  Ru  Ru3  1  0.125000  0.625000  0.625000  1
  Pt  Pt4  1  0.625000  0.625000  0.625000  1
  Pt  Pt5  1  0.625000  0.625000  0.125000  1
  Pt  Pt6  1  0.625000  0.125000  0.625000  1
  Pb  Pb7  1  0.625000  0.125000  0.125000  1
  O  O8  1  0.982018  0.005994  0.005994  1
  O  O9  1  0.267982  0.244006  0.244006  1
  O  O10  1  0.293471  0.299999  0.703265  1
  O  O11  1  0.538204  0.538096  0.961850  1
  O  O12  1  0.711796  0.288150  0.711904  1
  O  O13  1  0.711796  0.288150  0.288150  1
  O  O14  1  0.293471  0.703265  0.703265  1
  O  O15  1  0.293471  0.703265  0.299999  1
  O  O16  1  0.711796  0.711904  0.288150  1
  O  O17  1  0.956529  0.546735  0.546735  1
  O  O18  1  0.538204  0.961850  0.961850  1
  O  O19  1  0.956529  0.950001  0.546735  1
  O  O20  1  0.956529  0.546735  0.950001  1
  O  O21  1  0.538204  0.961850  0.538096  1
