# generated using pymatgen
data_Dy12B3CCl12
_symmetry_space_group_name_H-M   'P 1'
_cell_length_a   9.38739601
_cell_length_b   9.38739789
_cell_length_c   9.38739701
_cell_angle_alpha   109.34035641
_cell_angle_beta   109.34024319
_cell_angle_gamma   109.34029458
_symmetry_Int_Tables_number   1
_chemical_formula_structural   Dy12B3CCl12
_chemical_formula_sum   'Dy12 B3 C1 Cl12'
_cell_volume   639.88375871
_cell_formula_units_Z   1
loop_
 _symmetry_equiv_pos_site_id
 _symmetry_equiv_pos_as_xyz
  1  'x, y, z'
loop_
 _atom_site_type_symbol
 _atom_site_label
 _atom_site_symmetry_multiplicity
 _atom_site_fract_x
 _atom_site_fract_y
 _atom_site_fract_z
 _atom_site_occupancy
  Dy  Dy0  1  0.465482  0.479782  0.234780  1
  Dy  Dy1  1  0.750001  0.235439  0.264561  1
  Dy  Dy2  1  0.750000  0.015265  0.484734  1
  Dy  Dy3  1  0.234781  0.465483  0.479782  1
  Dy  Dy4  1  0.264561  0.750001  0.235439  1
  Dy  Dy5  1  0.034517  0.265219  0.020218  1
  Dy  Dy6  1  0.020218  0.034517  0.265219  1
  Dy  Dy7  1  0.484735  0.750000  0.015265  1
  Dy  Dy8  1  0.479781  0.234780  0.465482  1
  Dy  Dy9  1  0.015266  0.484735  0.750001  1
  Dy  Dy10  1  0.265219  0.020218  0.034518  1
  Dy  Dy11  1  0.235439  0.264562  0.750000  1
  B  B12  1  0.498970  0.001030  0.250000  1
  B  B13  1  0.001030  0.250000  0.498970  1
  B  B14  1  0.250000  0.498970  0.001030  1
  C  C15  1  0.250000  0.249999  0.250001  1
  Cl  Cl16  1  0.250000  0.756029  0.743972  1
  Cl  Cl17  1  0.511508  0.505298  0.753373  1
  Cl  Cl18  1  0.988492  0.746628  0.994702  1
  Cl  Cl19  1  0.743972  0.250001  0.756028  1
  Cl  Cl20  1  0.994702  0.988492  0.746628  1
  Cl  Cl21  1  0.249999  0.994792  0.505208  1
  Cl  Cl22  1  0.753372  0.511508  0.505298  1
  Cl  Cl23  1  0.505208  0.250000  0.994792  1
  Cl  Cl24  1  0.756028  0.743972  0.250000  1
  Cl  Cl25  1  0.746628  0.994702  0.988492  1
  Cl  Cl26  1  0.994792  0.505208  0.250000  1
  Cl  Cl27  1  0.505298  0.753372  0.511508  1
