# generated using pymatgen
data_Cs2La10Ru2Br17
_symmetry_space_group_name_H-M   'P 1'
_cell_length_a   9.68191851
_cell_length_b   11.42499010
_cell_length_c   11.42497968
_cell_angle_alpha   107.44282389
_cell_angle_beta   93.36159531
_cell_angle_gamma   93.35836702
_symmetry_Int_Tables_number   1
_chemical_formula_structural   Cs2La10Ru2Br17
_chemical_formula_sum   'Cs2 La10 Ru2 Br17'
_cell_volume   1199.74146206
_cell_formula_units_Z   1
loop_
 _symmetry_equiv_pos_site_id
 _symmetry_equiv_pos_as_xyz
  1  'x, y, z'
loop_
 _atom_site_type_symbol
 _atom_site_label
 _atom_site_symmetry_multiplicity
 _atom_site_fract_x
 _atom_site_fract_y
 _atom_site_fract_z
 _atom_site_occupancy
  Cs  Cs0  1  0.001066  0.820146  0.181025  1
  Cs  Cs1  1  0.001053  0.181037  0.820128  1
  La  La2  1  0.438599  0.164473  0.164465  1
  La  La3  1  0.574725  0.515496  0.196047  1
  La  La4  1  0.824802  0.293164  0.293188  1
  La  La5  1  0.312229  0.428739  0.428732  1
  La  La6  1  0.425435  0.793820  0.491344  1
  La  La7  1  0.574730  0.196061  0.515518  1
  La  La8  1  0.688810  0.563765  0.563766  1
  La  La9  1  0.167735  0.709518  0.709510  1
  La  La10  1  0.425414  0.491340  0.793808  1
  La  La11  1  0.564150  0.840100  0.840116  1
  Ru  Ru12  1  0.571319  0.354845  0.354845  1
  Ru  Ru13  1  0.427391  0.643985  0.643985  1
  Br  Br14  1  0.579628  0.687569  0.018408  1
  Br  Br15  1  0.714834  0.068862  0.068866  1
  Br  Br16  1  0.857100  0.451846  0.120646  1
  Br  Br17  1  0.132725  0.207815  0.207814  1
  Br  Br18  1  0.284566  0.603472  0.255671  1
  Br  Br19  1  0.420458  0.978984  0.316737  1
  Br  Br20  1  0.716414  0.743465  0.394743  1
  Br  Br21  1  0.857114  0.120668  0.451924  1
  Br  Br22  1  0.000210  0.499788  0.499786  1
  Br  Br23  1  0.143019  0.879409  0.550561  1
  Br  Br24  1  0.284566  0.255669  0.603467  1
  Br  Br25  1  0.579636  0.018395  0.687601  1
  Br  Br26  1  0.716416  0.394768  0.743482  1
  Br  Br27  1  0.866696  0.792573  0.792564  1
  Br  Br28  1  0.143005  0.550568  0.879404  1
  Br  Br29  1  0.285711  0.932926  0.932880  1
  Br  Br30  1  0.420445  0.316735  0.978968  1
