# generated using pymatgen
data_NaAc9(Pr5Pb8)2
_symmetry_space_group_name_H-M   'P 1'
_cell_length_a   8.66730112
_cell_length_b   16.64685600
_cell_length_c   8.72683800
_cell_angle_alpha   90.00000000
_cell_angle_beta   89.84645616
_cell_angle_gamma   90.00000000
_symmetry_Int_Tables_number   1
_chemical_formula_structural   NaAc9(Pr5Pb8)2
_chemical_formula_sum   'Na1 Ac9 Pr10 Pb16'
_cell_volume   1259.13258342
_cell_formula_units_Z   1
loop_
 _symmetry_equiv_pos_site_id
 _symmetry_equiv_pos_as_xyz
  1  'x, y, z'
loop_
 _atom_site_type_symbol
 _atom_site_label
 _atom_site_symmetry_multiplicity
 _atom_site_fract_x
 _atom_site_fract_y
 _atom_site_fract_z
 _atom_site_occupancy
  Na  Na0  1  0.705071  0.250000  0.996658  1
  Ac  Ac1  1  0.478854  0.598257  0.679160  1
  Ac  Ac2  1  0.977266  0.901714  0.821332  1
  Ac  Ac3  1  0.521715  0.097740  0.314566  1
  Ac  Ac4  1  0.014646  0.402850  0.176445  1
  Ac  Ac5  1  0.521715  0.402260  0.314566  1
  Ac  Ac6  1  0.014646  0.097150  0.176445  1
  Ac  Ac7  1  0.478854  0.901743  0.679160  1
  Ac  Ac8  1  0.977266  0.598286  0.821332  1
  Ac  Ac9  1  0.202753  0.250000  0.501781  1
  Pr  Pr10  1  0.630602  0.621003  0.158757  1
  Pr  Pr11  1  0.132347  0.879485  0.342554  1
  Pr  Pr12  1  0.376740  0.119965  0.842473  1
  Pr  Pr13  1  0.869345  0.379745  0.664626  1
  Pr  Pr14  1  0.376740  0.380035  0.842473  1
  Pr  Pr15  1  0.869345  0.120255  0.664626  1
  Pr  Pr16  1  0.630602  0.878997  0.158757  1
  Pr  Pr17  1  0.132347  0.620515  0.342554  1
  Pr  Pr18  1  0.796681  0.750000  0.498257  1
  Pr  Pr19  1  0.296644  0.750000  0.002203  1
  Pb  Pb20  1  0.704646  0.459609  0.956535  1
  Pb  Pb21  1  0.205200  0.041959  0.542031  1
  Pb  Pb22  1  0.294157  0.955924  0.040903  1
  Pb  Pb23  1  0.794322  0.544100  0.458832  1
  Pb  Pb24  1  0.294157  0.544076  0.040903  1
  Pb  Pb25  1  0.794322  0.955900  0.458832  1
  Pb  Pb26  1  0.704646  0.040391  0.956535  1
  Pb  Pb27  1  0.205200  0.458041  0.542031  1
  Pb  Pb28  1  0.434447  0.750000  0.370995  1
  Pb  Pb29  1  0.934144  0.750000  0.128681  1
  Pb  Pb30  1  0.577260  0.250000  0.628930  1
  Pb  Pb31  1  0.065908  0.250000  0.884254  1
  Pb  Pb32  1  0.668744  0.750000  0.858848  1
  Pb  Pb33  1  0.166435  0.750000  0.642581  1
  Pb  Pb34  1  0.330204  0.250000  0.130375  1
  Pb  Pb35  1  0.822027  0.250000  0.360012  1
