# generated using pymatgen
data_Hf7Nb3CuSn7
_symmetry_space_group_name_H-M   'P 1'
_cell_length_a   5.78243301
_cell_length_b   8.59827886
_cell_length_c   8.59814900
_cell_angle_alpha   120.00018526
_cell_angle_beta   89.99793729
_cell_angle_gamma   90.00276301
_symmetry_Int_Tables_number   1
_chemical_formula_structural   Hf7Nb3CuSn7
_chemical_formula_sum   'Hf7 Nb3 Cu1 Sn7'
_cell_volume   370.21748298
_cell_formula_units_Z   1
loop_
 _symmetry_equiv_pos_site_id
 _symmetry_equiv_pos_as_xyz
  1  'x, y, z'
loop_
 _atom_site_type_symbol
 _atom_site_label
 _atom_site_symmetry_multiplicity
 _atom_site_fract_x
 _atom_site_fract_y
 _atom_site_fract_z
 _atom_site_occupancy
  Hf  Hf0  1  0.999979  0.333333  0.666672  1
  Hf  Hf1  1  0.735228  0.275165  0.000472  1
  Hf  Hf2  1  0.735249  0.725306  0.724841  1
  Hf  Hf3  1  0.735250  0.999544  0.274708  1
  Hf  Hf4  1  0.264731  0.725304  0.000476  1
  Hf  Hf5  1  0.264723  0.275156  0.274706  1
  Hf  Hf6  1  0.264723  0.999523  0.724840  1
  Nb  Nb7  1  0.499979  0.333339  0.666682  1
  Nb  Nb8  1  0.499977  0.666661  0.333333  1
  Nb  Nb9  1  0.999979  0.666669  0.333346  1
  Cu  Cu10  1  0.500251  0.999997  0.999876  1
  Sn  Sn11  1  0.753586  0.614192  0.001896  1
  Sn  Sn12  1  0.753574  0.387705  0.385817  1
  Sn  Sn13  1  0.753576  0.998109  0.612303  1
  Sn  Sn14  1  0.246376  0.387697  0.001892  1
  Sn  Sn15  1  0.246418  0.614181  0.612307  1
  Sn  Sn16  1  0.246417  0.998117  0.385826  1
  Sn  Sn17  1  0.999982  0.000001  0.000007  1
