# generated using pymatgen
data_Dy7HoTi11Si16Mo
_symmetry_space_group_name_H-M   'P 1'
_cell_length_a   7.03817860
_cell_length_b   7.03814820
_cell_length_c   12.93912600
_cell_angle_alpha   90.02345607
_cell_angle_beta   89.97783325
_cell_angle_gamma   90.01834254
_symmetry_Int_Tables_number   1
_chemical_formula_structural   Dy7HoTi11Si16Mo
_chemical_formula_sum   'Dy7 Ho1 Ti11 Si16 Mo1'
_cell_volume   640.94909985
_cell_formula_units_Z   1
loop_
 _symmetry_equiv_pos_site_id
 _symmetry_equiv_pos_as_xyz
  1  'x, y, z'
loop_
 _atom_site_type_symbol
 _atom_site_label
 _atom_site_symmetry_multiplicity
 _atom_site_fract_x
 _atom_site_fract_y
 _atom_site_fract_z
 _atom_site_occupancy
  Dy  Dy0  1  0.001394  0.341430  0.532930  1
  Dy  Dy1  1  0.659953  0.996887  0.967007  1
  Dy  Dy2  1  0.160037  0.502793  0.782665  1
  Dy  Dy3  1  0.840053  0.498841  0.284394  1
  Dy  Dy4  1  0.502789  0.160044  0.217343  1
  Dy  Dy5  1  0.498831  0.840044  0.715595  1
  Dy  Dy6  1  0.341431  0.001395  0.467067  1
  Ho  Ho7  1  0.996959  0.659909  0.033004  1
  Ti  Ti8  1  0.348164  0.508329  0.375075  1
  Ti  Ti9  1  0.846339  0.990762  0.376873  1
  Ti  Ti10  1  0.007906  0.152047  0.123895  1
  Ti  Ti11  1  0.990766  0.846335  0.623126  1
  Ti  Ti12  1  0.508329  0.348170  0.624921  1
  Ti  Ti13  1  0.152057  0.007897  0.876112  1
  Ti  Ti14  1  0.826143  0.172624  0.749638  1
  Ti  Ti15  1  0.172619  0.826135  0.250352  1
  Ti  Ti16  1  0.327064  0.327101  0.000004  1
  Ti  Ti17  1  0.492350  0.651951  0.126651  1
  Ti  Ti18  1  0.651959  0.492368  0.873352  1
  Si  Si19  1  0.046649  0.709275  0.435061  1
  Si  Si20  1  0.952708  0.291281  0.934931  1
  Si  Si21  1  0.709274  0.046651  0.564940  1
  Si  Si22  1  0.208376  0.453723  0.185043  1
  Si  Si23  1  0.791421  0.547271  0.684601  1
  Si  Si24  1  0.453689  0.208403  0.814932  1
  Si  Si25  1  0.547275  0.791420  0.315397  1
  Si  Si26  1  0.291191  0.952665  0.065087  1
  Si  Si27  1  0.798001  0.869997  0.184791  1
  Si  Si28  1  0.298750  0.629355  0.565331  1
  Si  Si29  1  0.702528  0.370182  0.065383  1
  Si  Si30  1  0.629356  0.298749  0.434673  1
  Si  Si31  1  0.370094  0.702486  0.934633  1
  Si  Si32  1  0.129796  0.202202  0.315305  1
  Si  Si33  1  0.202202  0.129800  0.684692  1
  Si  Si34  1  0.870030  0.797960  0.815196  1
  Mo  Mo35  1  0.673516  0.673516  0.499999  1
