# generated using pymatgen
data_Y11In9PdRh3
_symmetry_space_group_name_H-M   'P 1'
_cell_length_a   13.16189700
_cell_length_b   13.15411469
_cell_length_c   3.68604900
_cell_angle_alpha   90.00000000
_cell_angle_beta   90.00000000
_cell_angle_gamma   111.64781727
_symmetry_Int_Tables_number   1
_chemical_formula_structural   Y11In9PdRh3
_chemical_formula_sum   'Y11 In9 Pd1 Rh3'
_cell_volume   593.16579083
_cell_formula_units_Z   1
loop_
 _symmetry_equiv_pos_site_id
 _symmetry_equiv_pos_as_xyz
  1  'x, y, z'
loop_
 _atom_site_type_symbol
 _atom_site_label
 _atom_site_symmetry_multiplicity
 _atom_site_fract_x
 _atom_site_fract_y
 _atom_site_fract_z
 _atom_site_occupancy
  Y  Y0  1  0.072688  0.416772  0.000000  1
  Y  Y1  1  0.921973  0.581897  0.000000  1
  Y  Y2  1  0.418258  0.076977  0.000000  1
  Y  Y3  1  0.582366  0.922284  0.000000  1
  Y  Y4  1  0.625873  0.375172  0.000000  1
  Y  Y5  1  0.379299  0.631246  0.000000  1
  Y  Y6  1  0.839559  0.160199  0.000000  1
  Y  Y7  1  0.160539  0.839870  0.000000  1
  Y  Y8  1  0.000144  0.000291  0.000000  1
  Y  Y9  1  0.314803  0.308066  0.000000  1
  Y  Y10  1  0.687950  0.687684  0.000000  1
  In  In11  1  0.839312  0.368299  0.500000  1
  In  In12  1  0.157879  0.631739  0.500000  1
  In  In13  1  0.368096  0.840514  0.500000  1
  In  In14  1  0.631781  0.159954  0.500000  1
  In  In15  1  0.075220  0.218421  0.500000  1
  In  In16  1  0.923573  0.781146  0.500000  1
  In  In17  1  0.219100  0.076047  0.500000  1
  In  In18  1  0.781165  0.923689  0.500000  1
  In  In19  1  0.499917  0.499685  0.500000  1
  Pd  Pd20  1  0.247606  0.449172  0.500000  1
  Rh  Rh21  1  0.755677  0.552301  0.500000  1
  Rh  Rh22  1  0.447342  0.244446  0.500000  1
  Rh  Rh23  1  0.549881  0.754134  0.500000  1
