# generated using pymatgen
data_Sr4Zr3MoO12
_symmetry_space_group_name_H-M   'P 1'
_cell_length_a   5.84287108
_cell_length_b   5.87600135
_cell_length_c   8.23475910
_cell_angle_alpha   90.09520484
_cell_angle_beta   89.99949605
_cell_angle_gamma   90.48326127
_symmetry_Int_Tables_number   1
_chemical_formula_structural   Sr4Zr3MoO12
_chemical_formula_sum   'Sr4 Zr3 Mo1 O12'
_cell_volume   282.71121819
_cell_formula_units_Z   1
loop_
 _symmetry_equiv_pos_site_id
 _symmetry_equiv_pos_as_xyz
  1  'x, y, z'
loop_
 _atom_site_type_symbol
 _atom_site_label
 _atom_site_symmetry_multiplicity
 _atom_site_fract_x
 _atom_site_fract_y
 _atom_site_fract_z
 _atom_site_occupancy
  Sr  Sr0  1  0.507176  0.030346  0.754486  1
  Sr  Sr1  1  0.992259  0.527183  0.754609  1
  Sr  Sr2  1  0.492824  0.969654  0.245514  1
  Sr  Sr3  1  0.007741  0.472817  0.245391  1
  Zr  Zr4  1  0.000000  0.000000  0.500000  1
  Zr  Zr5  1  0.500000  0.500000  0.500000  1
  Zr  Zr6  1  0.000000  0.000000  0.000000  1
  Mo  Mo7  1  0.500000  0.500000  0.000000  1
  O  O8  1  0.426942  0.483625  0.755110  1
  O  O9  1  0.076071  0.983564  0.750147  1
  O  O10  1  0.573058  0.516375  0.244890  1
  O  O11  1  0.923929  0.016436  0.249853  1
  O  O12  1  0.718772  0.770193  0.960934  1
  O  O13  1  0.788613  0.289197  0.538930  1
  O  O14  1  0.290055  0.211594  0.460047  1
  O  O15  1  0.221912  0.725033  0.040254  1
  O  O16  1  0.281228  0.229807  0.039066  1
  O  O17  1  0.211387  0.710803  0.461070  1
  O  O18  1  0.709945  0.788406  0.539953  1
  O  O19  1  0.778088  0.274967  0.959746  1
