# generated using pymatgen
data_Hf8Ti11Si8Ge8Mo
_symmetry_space_group_name_H-M   'P 1'
_cell_length_a   6.67994116
_cell_length_b   6.80717541
_cell_length_c   13.03463400
_cell_angle_alpha   90.00000000
_cell_angle_beta   90.00000000
_cell_angle_gamma   89.99266136
_symmetry_Int_Tables_number   1
_chemical_formula_structural   Hf8Ti11Si8Ge8Mo
_chemical_formula_sum   'Hf8 Ti11 Si8 Ge8 Mo1'
_cell_volume   592.70476249
_cell_formula_units_Z   1
loop_
 _symmetry_equiv_pos_site_id
 _symmetry_equiv_pos_as_xyz
  1  'x, y, z'
loop_
 _atom_site_type_symbol
 _atom_site_label
 _atom_site_symmetry_multiplicity
 _atom_site_fract_x
 _atom_site_fract_y
 _atom_site_fract_z
 _atom_site_occupancy
  Hf  Hf0  1  0.992724  0.176465  0.097680  1
  Hf  Hf1  1  0.008721  0.825646  0.901044  1
  Hf  Hf2  1  0.508605  0.676652  0.901519  1
  Hf  Hf3  1  0.008721  0.825646  0.598956  1
  Hf  Hf4  1  0.492801  0.324008  0.097726  1
  Hf  Hf5  1  0.992724  0.176465  0.402320  1
  Hf  Hf6  1  0.492801  0.324008  0.402274  1
  Hf  Hf7  1  0.508605  0.676652  0.598481  1
  Ti  Ti8  1  0.169933  0.493849  0.750000  1
  Ti  Ti9  1  0.829997  0.504449  0.250000  1
  Ti  Ti10  1  0.330338  0.996783  0.250000  1
  Ti  Ti11  1  0.343386  0.167884  0.627415  1
  Ti  Ti12  1  0.656805  0.830813  0.371886  1
  Ti  Ti13  1  0.156140  0.668517  0.372197  1
  Ti  Ti14  1  0.656805  0.830813  0.128114  1
  Ti  Ti15  1  0.841804  0.330802  0.627469  1
  Ti  Ti16  1  0.343386  0.167884  0.872585  1
  Ti  Ti17  1  0.841804  0.330802  0.872531  1
  Ti  Ti18  1  0.156140  0.668517  0.127803  1
  Si  Si19  1  0.043112  0.118002  0.750000  1
  Si  Si20  1  0.956228  0.882890  0.250000  1
  Si  Si21  1  0.455541  0.617402  0.250000  1
  Si  Si22  1  0.542742  0.382873  0.750000  1
  Si  Si23  1  0.301888  0.861908  0.750000  1
  Si  Si24  1  0.697333  0.136402  0.250000  1
  Si  Si25  1  0.196455  0.363760  0.250000  1
  Si  Si26  1  0.805279  0.634384  0.750000  1
  Ge  Ge27  1  0.182723  0.460272  0.539421  1
  Ge  Ge28  1  0.816839  0.541075  0.460922  1
  Ge  Ge29  1  0.316975  0.959088  0.460640  1
  Ge  Ge30  1  0.816839  0.541075  0.039078  1
  Ge  Ge31  1  0.683352  0.040578  0.538229  1
  Ge  Ge32  1  0.182723  0.460272  0.960579  1
  Ge  Ge33  1  0.683352  0.040578  0.961771  1
  Ge  Ge34  1  0.316975  0.959088  0.039360  1
  Mo  Mo35  1  0.669398  0.003702  0.750000  1
