# generated using pymatgen
data_Tb5Sc3(P3Ir4)4
_symmetry_space_group_name_H-M   'P 1'
_cell_length_a   12.85783300
_cell_length_b   12.85783410
_cell_length_c   3.96672000
_cell_angle_alpha   90.00000000
_cell_angle_beta   90.00000000
_cell_angle_gamma   119.99999974
_symmetry_Int_Tables_number   1
_chemical_formula_structural   Tb5Sc3(P3Ir4)4
_chemical_formula_sum   'Tb5 Sc3 P12 Ir16'
_cell_volume   567.93388037
_cell_formula_units_Z   1
loop_
 _symmetry_equiv_pos_site_id
 _symmetry_equiv_pos_as_xyz
  1  'x, y, z'
loop_
 _atom_site_type_symbol
 _atom_site_label
 _atom_site_symmetry_multiplicity
 _atom_site_fract_x
 _atom_site_fract_y
 _atom_site_fract_z
 _atom_site_occupancy
  Tb  Tb0  1  0.333333  0.666667  0.500000  1
  Tb  Tb1  1  0.666667  0.333333  0.500000  1
  Tb  Tb2  1  0.000000  0.811781  0.000000  1
  Tb  Tb3  1  0.188219  0.188219  0.000000  1
  Tb  Tb4  1  0.811781  0.000000  0.000000  1
  Sc  Sc5  1  0.000000  0.444759  0.500000  1
  Sc  Sc6  1  0.555241  0.555241  0.500000  1
  Sc  Sc7  1  0.444759  0.000000  0.500000  1
  P  P8  1  0.000000  0.645416  0.500000  1
  P  P9  1  0.354584  0.354584  0.500000  1
  P  P10  1  0.645416  0.000000  0.500000  1
  P  P11  1  0.517157  0.686704  0.000000  1
  P  P12  1  0.313296  0.830454  0.000000  1
  P  P13  1  0.169546  0.482843  0.000000  1
  P  P14  1  0.482843  0.169546  0.000000  1
  P  P15  1  0.686704  0.517157  0.000000  1
  P  P16  1  0.830454  0.313296  0.000000  1
  P  P17  1  0.000000  0.177150  0.500000  1
  P  P18  1  0.822850  0.822850  0.500000  1
  P  P19  1  0.177150  0.000000  0.500000  1
  Ir  Ir20  1  0.510195  0.867994  0.000000  1
  Ir  Ir21  1  0.132006  0.642202  0.000000  1
  Ir  Ir22  1  0.357798  0.489805  0.000000  1
  Ir  Ir23  1  0.489805  0.357798  0.000000  1
  Ir  Ir24  1  0.867994  0.510195  0.000000  1
  Ir  Ir25  1  0.642202  0.132006  0.000000  1
  Ir  Ir26  1  0.000000  0.278100  0.000000  1
  Ir  Ir27  1  0.721900  0.721900  0.000000  1
  Ir  Ir28  1  0.278100  0.000000  0.000000  1
  Ir  Ir29  1  0.627705  0.806536  0.500000  1
  Ir  Ir30  1  0.193464  0.821169  0.500000  1
  Ir  Ir31  1  0.178831  0.372295  0.500000  1
  Ir  Ir32  1  0.372295  0.178831  0.500000  1
  Ir  Ir33  1  0.806536  0.627705  0.500000  1
  Ir  Ir34  1  0.821169  0.193464  0.500000  1
  Ir  Ir35  1  0.000000  0.000000  0.500000  1
