# generated using pymatgen
data_Yb4TiAl2RuO12
_symmetry_space_group_name_H-M   'P 1'
_cell_length_a   5.27465530
_cell_length_b   5.37415817
_cell_length_c   7.49065351
_cell_angle_alpha   89.65518816
_cell_angle_beta   89.92966347
_cell_angle_gamma   89.88106247
_symmetry_Int_Tables_number   1
_chemical_formula_structural   Yb4TiAl2RuO12
_chemical_formula_sum   'Yb4 Ti1 Al2 Ru1 O12'
_cell_volume   212.33183652
_cell_formula_units_Z   1
loop_
 _symmetry_equiv_pos_site_id
 _symmetry_equiv_pos_as_xyz
  1  'x, y, z'
loop_
 _atom_site_type_symbol
 _atom_site_label
 _atom_site_symmetry_multiplicity
 _atom_site_fract_x
 _atom_site_fract_y
 _atom_site_fract_z
 _atom_site_occupancy
  Yb  Yb0  1  0.513125  0.546820  0.260123  1
  Yb  Yb1  1  0.992346  0.044787  0.261397  1
  Yb  Yb2  1  0.486875  0.453180  0.739877  1
  Yb  Yb3  1  0.007654  0.955213  0.738603  1
  Ti  Ti4  1  0.500000  0.000000  0.500000  1
  Al  Al5  1  0.000000  0.500000  0.500000  1
  Al  Al6  1  0.500000  0.000000  0.000000  1
  Ru  Ru7  1  0.000000  0.500000  0.000000  1
  O  O8  1  0.425541  0.982704  0.242030  1
  O  O9  1  0.081484  0.481420  0.249849  1
  O  O10  1  0.574459  0.017296  0.757970  1
  O  O11  1  0.918516  0.518580  0.750151  1
  O  O12  1  0.795744  0.795017  0.044346  1
  O  O13  1  0.719177  0.290226  0.462266  1
  O  O14  1  0.208696  0.218565  0.538148  1
  O  O15  1  0.295078  0.707246  0.955931  1
  O  O16  1  0.204256  0.204983  0.955654  1
  O  O17  1  0.280823  0.709774  0.537734  1
  O  O18  1  0.791304  0.781435  0.461852  1
  O  O19  1  0.704922  0.292754  0.044069  1
