# generated using pymatgen
data_Cs3K(GeH3)4
_symmetry_space_group_name_H-M   'P 1'
_cell_length_a   7.49692581
_cell_length_b   5.88449000
_cell_length_c   9.62259314
_cell_angle_alpha   90.00001117
_cell_angle_beta   89.65636586
_cell_angle_gamma   89.99978117
_symmetry_Int_Tables_number   1
_chemical_formula_structural   Cs3K(GeH3)4
_chemical_formula_sum   'Cs3 K1 Ge4 H12'
_cell_volume   424.49869019
_cell_formula_units_Z   1
loop_
 _symmetry_equiv_pos_site_id
 _symmetry_equiv_pos_as_xyz
  1  'x, y, z'
loop_
 _atom_site_type_symbol
 _atom_site_label
 _atom_site_symmetry_multiplicity
 _atom_site_fract_x
 _atom_site_fract_y
 _atom_site_fract_z
 _atom_site_occupancy
  Cs  Cs0  1  0.153440  0.500001  0.190083  1
  Cs  Cs1  1  0.655211  0.999999  0.310991  1
  Cs  Cs2  1  0.347107  0.500001  0.690241  1
  K  K3  1  0.845601  0.000011  0.816139  1
  Ge  Ge4  1  0.654905  0.500002  0.036421  1
  Ge  Ge5  1  0.148042  0.999993  0.455547  1
  Ge  Ge6  1  0.854432  0.500005  0.553871  1
  Ge  Ge7  1  0.343634  0.999996  0.948812  1
  H  H8  1  0.801757  0.301455  0.064746  1
  H  H9  1  0.801756  0.698545  0.064746  1
  H  H10  1  0.303440  0.999998  0.113920  1
  H  H11  1  0.804334  0.500002  0.390508  1
  H  H12  1  0.296481  0.196406  0.427544  1
  H  H13  1  0.296485  0.803588  0.427546  1
  H  H14  1  0.708611  0.301583  0.586655  1
  H  H15  1  0.708608  0.698423  0.586654  1
  H  H16  1  0.186943  0.999998  0.620111  1
  H  H17  1  0.699219  0.500000  0.872542  1
  H  H18  1  0.194993  0.195425  0.921464  1
  H  H19  1  0.194991  0.804573  0.921463  1
