# generated using pymatgen
data_Y3HoAg4
_symmetry_space_group_name_H-M   'P 1'
_cell_length_a   6.28834500
_cell_length_b   6.28834406
_cell_length_c   10.45038500
_cell_angle_alpha   90.00000000
_cell_angle_beta   90.00000000
_cell_angle_gamma   110.46211137
_symmetry_Int_Tables_number   1
_chemical_formula_structural   Y3HoAg4
_chemical_formula_sum   'Y6 Ho2 Ag8'
_cell_volume   387.16834365
_cell_formula_units_Z   2
loop_
 _symmetry_equiv_pos_site_id
 _symmetry_equiv_pos_as_xyz
  1  'x, y, z'
loop_
 _atom_site_type_symbol
 _atom_site_label
 _atom_site_symmetry_multiplicity
 _atom_site_fract_x
 _atom_site_fract_y
 _atom_site_fract_z
 _atom_site_occupancy
  Y  Y0  1  0.508524  0.508524  0.250000  1
  Y  Y1  1  0.491476  0.491476  0.750000  1
  Y  Y2  1  0.249358  0.750642  0.500000  1
  Y  Y3  1  0.249358  0.750642  0.000000  1
  Y  Y4  1  0.750642  0.249358  0.500000  1
  Y  Y5  1  0.750642  0.249358  0.000000  1
  Ho  Ho6  1  0.993134  0.993134  0.250000  1
  Ho  Ho7  1  0.006866  0.006866  0.750000  1
  Ag  Ag8  1  0.248041  0.248041  0.009432  1
  Ag  Ag9  1  0.751959  0.751959  0.990568  1
  Ag  Ag10  1  0.248041  0.248041  0.490568  1
  Ag  Ag11  1  0.751959  0.751959  0.509432  1
  Ag  Ag12  1  0.490855  0.009135  0.250000  1
  Ag  Ag13  1  0.990865  0.509145  0.750000  1
  Ag  Ag14  1  0.509145  0.990865  0.750000  1
  Ag  Ag15  1  0.009135  0.490855  0.250000  1
