# generated using pymatgen
data_Tb15HoIn4TcRh3
_symmetry_space_group_name_H-M   'P 1'
_cell_length_a   9.68904239
_cell_length_b   9.72312762
_cell_length_c   9.69938500
_cell_angle_alpha   60.08075382
_cell_angle_beta   59.96469287
_cell_angle_gamma   60.00189300
_symmetry_Int_Tables_number   1
_chemical_formula_structural   Tb15HoIn4TcRh3
_chemical_formula_sum   'Tb15 Ho1 In4 Tc1 Rh3'
_cell_volume   646.35401034
_cell_formula_units_Z   1
loop_
 _symmetry_equiv_pos_site_id
 _symmetry_equiv_pos_as_xyz
  1  'x, y, z'
loop_
 _atom_site_type_symbol
 _atom_site_label
 _atom_site_symmetry_multiplicity
 _atom_site_fract_x
 _atom_site_fract_y
 _atom_site_fract_z
 _atom_site_occupancy
  Tb  Tb0  1  0.810369  0.192859  0.807543  1
  Tb  Tb1  1  0.190176  0.193382  0.808221  1
  Tb  Tb2  1  0.649833  0.047325  0.651421  1
  Tb  Tb3  1  0.062436  0.060919  0.438322  1
  Tb  Tb4  1  0.445576  0.436338  0.059043  1
  Tb  Tb5  1  0.650054  0.651319  0.650618  1
  Tb  Tb6  1  0.810369  0.192859  0.189229  1
  Tb  Tb7  1  0.191706  0.809178  0.808061  1
  Tb  Tb8  1  0.047778  0.651350  0.650436  1
  Tb  Tb9  1  0.438909  0.060571  0.063191  1
  Tb  Tb10  1  0.438909  0.060571  0.437329  1
  Tb  Tb11  1  0.058375  0.437672  0.058483  1
  Tb  Tb12  1  0.650054  0.651319  0.048010  1
  Tb  Tb13  1  0.191706  0.809178  0.191055  1
  Tb  Tb14  1  0.058375  0.437672  0.445470  1
  Ho  Ho15  1  0.809705  0.808363  0.190966  1
  In  In16  1  0.417635  0.416806  0.417580  1
  In  In17  1  0.417635  0.416806  0.747980  1
  In  In18  1  0.418800  0.744828  0.418186  1
  In  In19  1  0.747927  0.416885  0.417594  1
  Tc  Tc20  1  0.856513  0.424582  0.859454  1
  Rh  Rh21  1  0.857739  0.860045  0.860254  1
  Rh  Rh22  1  0.857739  0.860045  0.421962  1
  Rh  Rh23  1  0.421683  0.859131  0.859593  1
