# generated using pymatgen
data_SrCaLa2Al6O14
_symmetry_space_group_name_H-M   'P 1'
_cell_length_a   7.91009646
_cell_length_b   5.23654169
_cell_length_c   7.91591163
_cell_angle_alpha   90.27782160
_cell_angle_beta   89.44913862
_cell_angle_gamma   89.72905231
_symmetry_Int_Tables_number   1
_chemical_formula_structural   SrCaLa2Al6O14
_chemical_formula_sum   'Sr1 Ca1 La2 Al6 O14'
_cell_volume   327.86658094
_cell_formula_units_Z   1
loop_
 _symmetry_equiv_pos_site_id
 _symmetry_equiv_pos_as_xyz
  1  'x, y, z'
loop_
 _atom_site_type_symbol
 _atom_site_label
 _atom_site_symmetry_multiplicity
 _atom_site_fract_x
 _atom_site_fract_y
 _atom_site_fract_z
 _atom_site_occupancy
  Sr  Sr0  1  0.163462  0.510630  0.418875  1
  Ca  Ca1  1  0.662356  0.481689  0.577090  1
  La  La2  1  0.838151  0.507895  0.092640  1
  La  La3  1  0.342268  0.491141  0.906700  1
  Al  Al4  1  0.363365  0.962431  0.607477  1
  Al  Al5  1  0.851188  0.035864  0.395689  1
  Al  Al6  1  0.645561  0.958905  0.889402  1
  Al  Al7  1  0.141547  0.038699  0.105855  1
  Al  Al8  1  0.500135  0.003057  0.245559  1
  Al  Al9  1  0.000525  0.004472  0.754091  1
  O  O10  1  0.367300  0.296007  0.625529  1
  O  O11  1  0.846491  0.701820  0.383274  1
  O  O12  1  0.639552  0.293457  0.901112  1
  O  O13  1  0.137878  0.704725  0.097032  1
  O  O14  1  0.000079  0.171737  0.254238  1
  O  O15  1  0.513038  0.812537  0.740048  1
  O  O16  1  0.406018  0.823750  0.407975  1
  O  O17  1  0.900347  0.180752  0.592342  1
  O  O18  1  0.582417  0.801367  0.081254  1
  O  O19  1  0.081209  0.205908  0.917423  1
  O  O20  1  0.338463  0.187850  0.148807  1
  O  O21  1  0.844721  0.811480  0.852583  1
  O  O22  1  0.663052  0.197953  0.329462  1
  O  O23  1  0.170878  0.815872  0.675544  1
