# generated using pymatgen
data_Pr6Co13P12Ru5
_symmetry_space_group_name_H-M   'P 1'
_cell_length_a   3.82798600
_cell_length_b   10.72710829
_cell_length_c   12.54504886
_cell_angle_alpha   90.34634098
_cell_angle_beta   90.00000000
_cell_angle_gamma   90.00000000
_symmetry_Int_Tables_number   1
_chemical_formula_structural   Pr6Co13P12Ru5
_chemical_formula_sum   'Pr6 Co13 P12 Ru5'
_cell_volume   515.13069397
_cell_formula_units_Z   1
loop_
 _symmetry_equiv_pos_site_id
 _symmetry_equiv_pos_as_xyz
  1  'x, y, z'
loop_
 _atom_site_type_symbol
 _atom_site_label
 _atom_site_symmetry_multiplicity
 _atom_site_fract_x
 _atom_site_fract_y
 _atom_site_fract_z
 _atom_site_occupancy
  Pr  Pr0  1  0.000000  0.502875  0.525630  1
  Pr  Pr1  1  0.500000  0.995139  0.478468  1
  Pr  Pr2  1  0.500000  0.818281  0.202878  1
  Pr  Pr3  1  0.500000  0.183481  0.201243  1
  Pr  Pr4  1  0.000000  0.682930  0.795434  1
  Pr  Pr5  1  0.000000  0.316376  0.798835  1
  Co  Co6  1  0.000000  0.500381  0.987079  1
  Co  Co7  1  0.500000  0.999604  0.012420  1
  Co  Co8  1  0.000000  0.798485  0.573991  1
  Co  Co9  1  0.500000  0.880541  0.713307  1
  Co  Co10  1  0.500000  0.115177  0.716451  1
  Co  Co11  1  0.000000  0.619131  0.284721  1
  Co  Co12  1  0.000000  0.383997  0.283687  1
  Co  Co13  1  0.500000  0.332967  0.992039  1
  Co  Co14  1  0.500000  0.667732  0.991982  1
  Co  Co15  1  0.000000  0.166824  0.007260  1
  Co  Co16  1  0.000000  0.832617  0.007436  1
  Co  Co17  1  0.500000  0.498943  0.707044  1
  Co  Co18  1  0.000000  0.001650  0.293198  1
  P  P19  1  0.500000  0.308077  0.619784  1
  P  P20  1  0.500000  0.695080  0.618177  1
  P  P21  1  0.000000  0.191084  0.380677  1
  P  P22  1  0.000000  0.811413  0.383302  1
  P  P23  1  0.500000  0.500275  0.887319  1
  P  P24  1  0.000000  0.000221  0.112336  1
  P  P25  1  0.500000  0.847486  0.897472  1
  P  P26  1  0.500000  0.150777  0.897846  1
  P  P27  1  0.000000  0.652144  0.102328  1
  P  P28  1  0.000000  0.348939  0.101493  1
  P  P29  1  0.500000  0.499836  0.339524  1
  P  P30  1  0.000000  0.997287  0.658926  1
  Ru  Ru31  1  0.500000  0.299063  0.426684  1
  Ru  Ru32  1  0.500000  0.702520  0.428500  1
  Ru  Ru33  1  0.000000  0.199942  0.573841  1
  Ru  Ru34  1  0.500000  0.500936  0.154432  1
  Ru  Ru35  1  0.000000  0.997789  0.844254  1
