# generated using pymatgen
data_BaSr(Cd2Pt)4
_symmetry_space_group_name_H-M   'P 1'
_cell_length_a   8.48586121
_cell_length_b   8.48586121
_cell_length_c   4.51538200
_cell_angle_alpha   90.00000000
_cell_angle_beta   90.00000000
_cell_angle_gamma   90.59452193
_symmetry_Int_Tables_number   1
_chemical_formula_structural   BaSr(Cd2Pt)4
_chemical_formula_sum   'Ba1 Sr1 Cd8 Pt4'
_cell_volume   325.13443310
_cell_formula_units_Z   1
loop_
 _symmetry_equiv_pos_site_id
 _symmetry_equiv_pos_as_xyz
  1  'x, y, z'
loop_
 _atom_site_type_symbol
 _atom_site_label
 _atom_site_symmetry_multiplicity
 _atom_site_fract_x
 _atom_site_fract_y
 _atom_site_fract_z
 _atom_site_occupancy
  Ba  Ba0  1  0.000000  0.000000  0.000000  1
  Sr  Sr1  1  0.500000  0.500000  0.500000  1
  Cd  Cd2  1  0.342881  0.091214  0.500000  1
  Cd  Cd3  1  0.657119  0.908786  0.500000  1
  Cd  Cd4  1  0.840286  0.411152  0.000000  1
  Cd  Cd5  1  0.159714  0.588848  0.000000  1
  Cd  Cd6  1  0.091214  0.342881  0.500000  1
  Cd  Cd7  1  0.908786  0.657119  0.500000  1
  Cd  Cd8  1  0.411152  0.840286  0.000000  1
  Cd  Cd9  1  0.588848  0.159714  0.000000  1
  Pt  Pt10  1  0.777231  0.222769  0.500000  1
  Pt  Pt11  1  0.222769  0.777231  0.500000  1
  Pt  Pt12  1  0.282333  0.282333  0.000000  1
  Pt  Pt13  1  0.717667  0.717667  0.000000  1
