# generated using pymatgen
data_Dy10(InSb)3
_symmetry_space_group_name_H-M   'P 1'
_cell_length_a   6.52180109
_cell_length_b   8.98349253
_cell_length_c   8.98349335
_cell_angle_alpha   60.00172227
_cell_angle_beta   90.00152067
_cell_angle_gamma   89.99848604
_symmetry_Int_Tables_number   1
_chemical_formula_structural   Dy10(InSb)3
_chemical_formula_sum   'Dy10 In3 Sb3'
_cell_volume   455.82294040
_cell_formula_units_Z   1
loop_
 _symmetry_equiv_pos_site_id
 _symmetry_equiv_pos_as_xyz
  1  'x, y, z'
loop_
 _atom_site_type_symbol
 _atom_site_label
 _atom_site_symmetry_multiplicity
 _atom_site_fract_x
 _atom_site_fract_y
 _atom_site_fract_z
 _atom_site_occupancy
  Dy  Dy0  1  0.501032  0.333287  0.333277  1
  Dy  Dy1  1  0.501032  0.666723  0.666713  1
  Dy  Dy2  1  0.998945  0.666655  0.666647  1
  Dy  Dy3  1  0.998945  0.333353  0.333345  1
  Dy  Dy4  1  0.750004  0.239600  0.760400  1
  Dy  Dy5  1  0.750017  0.760396  0.000004  1
  Dy  Dy6  1  0.750017  0.999996  0.239604  1
  Dy  Dy7  1  0.250065  0.760884  0.239116  1
  Dy  Dy8  1  0.250001  0.239177  0.999984  1
  Dy  Dy9  1  0.250001  0.000016  0.760823  1
  In  In10  1  0.749913  0.606027  0.393973  1
  In  In11  1  0.750038  0.393934  0.000000  1
  In  In12  1  0.750038  0.000000  0.606066  1
  Sb  Sb13  1  0.250055  0.393605  0.606395  1
  Sb  Sb14  1  0.249949  0.606323  0.999975  1
  Sb  Sb15  1  0.249949  0.000025  0.393677  1
