# generated using pymatgen
data_NaCu4SbAs
_symmetry_space_group_name_H-M   'P 1'
_cell_length_a   8.53917570
_cell_length_b   8.53917572
_cell_length_c   8.53917468
_cell_angle_alpha   28.29867156
_cell_angle_beta   28.29867404
_cell_angle_gamma   28.29867003
_symmetry_Int_Tables_number   1
_chemical_formula_structural   NaCu4SbAs
_chemical_formula_sum   'Na1 Cu4 Sb1 As1'
_cell_volume   123.64866627
_cell_formula_units_Z   1
loop_
 _symmetry_equiv_pos_site_id
 _symmetry_equiv_pos_as_xyz
  1  'x, y, z'
loop_
 _atom_site_type_symbol
 _atom_site_label
 _atom_site_symmetry_multiplicity
 _atom_site_fract_x
 _atom_site_fract_y
 _atom_site_fract_z
 _atom_site_occupancy
  Na  Na0  1  0.989892  0.989892  0.989892  1
  Cu  Cu1  1  0.145545  0.145545  0.145545  1
  Cu  Cu2  1  0.856424  0.856424  0.856424  1
  Cu  Cu3  1  0.453966  0.453966  0.453966  1
  Cu  Cu4  1  0.561329  0.561329  0.561329  1
  Sb  Sb5  1  0.746994  0.746994  0.746994  1
  As  As6  1  0.245850  0.245850  0.245850  1
