# generated using pymatgen
data_Ho14Tm6FeCo3Bi8
_symmetry_space_group_name_H-M   'P 1'
_cell_length_a   7.90923090
_cell_length_b   8.86527968
_cell_length_c   12.33615341
_cell_angle_alpha   89.95867593
_cell_angle_beta   90.00973347
_cell_angle_gamma   90.09632703
_symmetry_Int_Tables_number   1
_chemical_formula_structural   Ho14Tm6FeCo3Bi8
_chemical_formula_sum   'Ho14 Tm6 Fe1 Co3 Bi8'
_cell_volume   864.97931972
_cell_formula_units_Z   1
loop_
 _symmetry_equiv_pos_site_id
 _symmetry_equiv_pos_as_xyz
  1  'x, y, z'
loop_
 _atom_site_type_symbol
 _atom_site_label
 _atom_site_symmetry_multiplicity
 _atom_site_fract_x
 _atom_site_fract_y
 _atom_site_fract_z
 _atom_site_occupancy
  Ho  Ho0  1  0.347690  0.749836  0.700448  1
  Ho  Ho1  1  0.651478  0.250125  0.300745  1
  Ho  Ho2  1  0.848249  0.250478  0.800101  1
  Ho  Ho3  1  0.151194  0.749556  0.199321  1
  Ho  Ho4  1  0.886637  0.749055  0.811997  1
  Ho  Ho5  1  0.114512  0.250847  0.188425  1
  Ho  Ho6  1  0.385540  0.250064  0.687463  1
  Ho  Ho7  1  0.613645  0.749995  0.313321  1
  Ho  Ho8  1  0.824043  0.961894  0.062905  1
  Ho  Ho9  1  0.174531  0.035228  0.937332  1
  Ho  Ho10  1  0.053873  0.749930  0.496749  1
  Ho  Ho11  1  0.946732  0.250020  0.502743  1
  Ho  Ho12  1  0.554658  0.250566  0.002924  1
  Ho  Ho13  1  0.445360  0.749328  0.996523  1
  Tm  Tm14  1  0.673626  0.537070  0.563169  1
  Tm  Tm15  1  0.326326  0.461734  0.436996  1
  Tm  Tm16  1  0.172764  0.463972  0.937623  1
  Tm  Tm17  1  0.326248  0.038119  0.437139  1
  Tm  Tm18  1  0.825861  0.539356  0.062696  1
  Tm  Tm19  1  0.673666  0.962997  0.563024  1
  Fe  Fe20  1  0.068823  0.749012  0.991066  1
  Co  Co21  1  0.933068  0.250937  0.008223  1
  Co  Co22  1  0.564924  0.250030  0.507783  1
  Co  Co23  1  0.435284  0.749977  0.493056  1
  Bi  Bi24  1  0.571525  0.508801  0.826395  1
  Bi  Bi25  1  0.429469  0.491163  0.173182  1
  Bi  Bi26  1  0.071466  0.491139  0.672711  1
  Bi  Bi27  1  0.428209  0.008759  0.173190  1
  Bi  Bi28  1  0.928241  0.509090  0.326794  1
  Bi  Bi29  1  0.572669  0.991176  0.826412  1
  Bi  Bi30  1  0.928777  0.991114  0.326908  1
  Bi  Bi31  1  0.070910  0.008632  0.672632  1
