# generated using pymatgen
data_Zr6Zn21Co2C
_symmetry_space_group_name_H-M   'P 1'
_cell_length_a   8.64690196
_cell_length_b   8.66130680
_cell_length_c   8.64690100
_cell_angle_alpha   59.94403519
_cell_angle_beta   59.70362922
_cell_angle_gamma   59.94407360
_symmetry_Int_Tables_number   1
_chemical_formula_structural   Zr6Zn21Co2C
_chemical_formula_sum   'Zr6 Zn21 Co2 C1'
_cell_volume   456.50036393
_cell_formula_units_Z   1
loop_
 _symmetry_equiv_pos_site_id
 _symmetry_equiv_pos_as_xyz
  1  'x, y, z'
loop_
 _atom_site_type_symbol
 _atom_site_label
 _atom_site_symmetry_multiplicity
 _atom_site_fract_x
 _atom_site_fract_y
 _atom_site_fract_z
 _atom_site_occupancy
  Zr  Zr0  1  0.687501  0.307011  0.312502  1
  Zr  Zr1  1  0.312499  0.692989  0.687498  1
  Zr  Zr2  1  0.307938  0.692064  0.307938  1
  Zr  Zr3  1  0.692062  0.307936  0.692062  1
  Zr  Zr4  1  0.312502  0.307011  0.687501  1
  Zr  Zr5  1  0.687498  0.692989  0.312499  1
  Zn  Zn6  1  0.116847  0.114088  0.116847  1
  Zn  Zn7  1  0.883153  0.885912  0.883153  1
  Zn  Zn8  1  0.128288  0.111634  0.648438  1
  Zn  Zn9  1  0.116851  0.652220  0.116851  1
  Zn  Zn10  1  0.871712  0.888366  0.351562  1
  Zn  Zn11  1  0.883149  0.347780  0.883149  1
  Zn  Zn12  1  0.648438  0.111634  0.128288  1
  Zn  Zn13  1  0.351562  0.888366  0.871712  1
  Zn  Zn14  1  0.500000  0.000000  0.000000  1
  Zn  Zn15  1  0.000000  0.500000  0.500000  1
  Zn  Zn16  1  0.000000  0.500000  0.000000  1
  Zn  Zn17  1  0.000000  0.000000  0.500000  1
  Zn  Zn18  1  0.500000  0.500000  0.000000  1
  Zn  Zn19  1  0.335291  0.322583  0.335292  1
  Zn  Zn20  1  0.664709  0.677417  0.664708  1
  Zn  Zn21  1  0.330358  0.331480  0.006687  1
  Zn  Zn22  1  0.335290  0.006840  0.335290  1
  Zn  Zn23  1  0.669642  0.668520  0.993313  1
  Zn  Zn24  1  0.664710  0.993160  0.664710  1
  Zn  Zn25  1  0.006687  0.331480  0.330358  1
  Zn  Zn26  1  0.993313  0.668520  0.669642  1
  Co  Co27  1  0.500000  0.000000  0.500000  1
  Co  Co28  1  0.000000  0.000000  0.000000  1
  C  C29  1  0.500000  0.500000  0.500000  1
