# generated using pymatgen
data_Ho13Er7FeCo3Bi8
_symmetry_space_group_name_H-M   'P 1'
_cell_length_a   7.94215224
_cell_length_b   8.87286576
_cell_length_c   12.35453666
_cell_angle_alpha   89.99023133
_cell_angle_beta   89.97677548
_cell_angle_gamma   90.03556806
_symmetry_Int_Tables_number   1
_chemical_formula_structural   Ho13Er7FeCo3Bi8
_chemical_formula_sum   'Ho13 Er7 Fe1 Co3 Bi8'
_cell_volume   870.61963144
_cell_formula_units_Z   1
loop_
 _symmetry_equiv_pos_site_id
 _symmetry_equiv_pos_as_xyz
  1  'x, y, z'
loop_
 _atom_site_type_symbol
 _atom_site_label
 _atom_site_symmetry_multiplicity
 _atom_site_fract_x
 _atom_site_fract_y
 _atom_site_fract_z
 _atom_site_occupancy
  Ho  Ho0  1  0.347099  0.749967  0.700251  1
  Ho  Ho1  1  0.652296  0.250006  0.300625  1
  Ho  Ho2  1  0.847621  0.250180  0.800231  1
  Ho  Ho3  1  0.151621  0.749905  0.199394  1
  Ho  Ho4  1  0.886270  0.749758  0.811968  1
  Ho  Ho5  1  0.114298  0.250272  0.188542  1
  Ho  Ho6  1  0.385543  0.249976  0.687874  1
  Ho  Ho7  1  0.614045  0.749993  0.312644  1
  Ho  Ho8  1  0.174320  0.035771  0.937433  1
  Ho  Ho9  1  0.053203  0.749981  0.497106  1
  Ho  Ho10  1  0.946902  0.250019  0.502619  1
  Ho  Ho11  1  0.554460  0.250137  0.002816  1
  Ho  Ho12  1  0.445861  0.749784  0.996769  1
  Er  Er13  1  0.674508  0.537263  0.563227  1
  Er  Er14  1  0.325455  0.461631  0.436802  1
  Er  Er15  1  0.173624  0.463863  0.937503  1
  Er  Er16  1  0.325412  0.038303  0.436835  1
  Er  Er17  1  0.825434  0.538571  0.062829  1
  Er  Er18  1  0.674533  0.962737  0.563171  1
  Er  Er19  1  0.825329  0.961874  0.062857  1
  Fe  Fe20  1  0.067867  0.749939  0.991398  1
  Co  Co21  1  0.933001  0.250252  0.008249  1
  Co  Co22  1  0.565335  0.249995  0.507948  1
  Co  Co23  1  0.434751  0.749973  0.492481  1
  Bi  Bi24  1  0.571663  0.509063  0.826469  1
  Bi  Bi25  1  0.429026  0.490976  0.173108  1
  Bi  Bi26  1  0.071574  0.491054  0.673016  1
  Bi  Bi27  1  0.428823  0.008951  0.173052  1
  Bi  Bi28  1  0.928209  0.509194  0.326720  1
  Bi  Bi29  1  0.572211  0.990886  0.826464  1
  Bi  Bi30  1  0.928358  0.990876  0.326663  1
  Bi  Bi31  1  0.071347  0.008850  0.672935  1
