# generated using pymatgen
data_Hf18BeRe5PW3
_symmetry_space_group_name_H-M   'P 1'
_cell_length_a   8.57379700
_cell_length_b   8.57268290
_cell_length_c   8.61404584
_cell_angle_alpha   119.83420482
_cell_angle_beta   90.00000000
_cell_angle_gamma   90.00000000
_symmetry_Int_Tables_number   1
_chemical_formula_structural   Hf18BeRe5PW3
_chemical_formula_sum   'Hf18 Be1 Re5 P1 W3'
_cell_volume   549.22576721
_cell_formula_units_Z   1
loop_
 _symmetry_equiv_pos_site_id
 _symmetry_equiv_pos_as_xyz
  1  'x, y, z'
loop_
 _atom_site_type_symbol
 _atom_site_label
 _atom_site_symmetry_multiplicity
 _atom_site_fract_x
 _atom_site_fract_y
 _atom_site_fract_z
 _atom_site_occupancy
  Hf  Hf0  1  0.549137  0.804198  0.608309  1
  Hf  Hf1  1  0.549248  0.802771  0.195832  1
  Hf  Hf2  1  0.549237  0.393067  0.195897  1
  Hf  Hf3  1  0.445983  0.198976  0.397884  1
  Hf  Hf4  1  0.445687  0.198892  0.801442  1
  Hf  Hf5  1  0.445684  0.602554  0.801445  1
  Hf  Hf6  1  0.054017  0.198976  0.397884  1
  Hf  Hf7  1  0.054313  0.198892  0.801442  1
  Hf  Hf8  1  0.054316  0.602554  0.801445  1
  Hf  Hf9  1  0.950863  0.804198  0.608309  1
  Hf  Hf10  1  0.950752  0.802771  0.195832  1
  Hf  Hf11  1  0.950763  0.393067  0.195897  1
  Hf  Hf12  1  0.750000  0.458087  0.916276  1
  Hf  Hf13  1  0.750000  0.461317  0.539806  1
  Hf  Hf14  1  0.750000  0.078600  0.539789  1
  Hf  Hf15  1  0.250000  0.540076  0.080075  1
  Hf  Hf16  1  0.250000  0.540688  0.459957  1
  Hf  Hf17  1  0.250000  0.919417  0.460223  1
  Be  Be18  1  0.250000  0.333226  0.666548  1
  Re  Re19  1  0.750000  0.111802  0.889030  1
  Re  Re20  1  0.750000  0.777221  0.888984  1
  Re  Re21  1  0.250000  0.888848  0.778439  1
  Re  Re22  1  0.250000  0.888821  0.111832  1
  Re  Re23  1  0.250000  0.222739  0.111136  1
  P  P24  1  0.750000  0.668673  0.337308  1
  W  W25  1  0.750000  0.110393  0.220824  1
  W  W26  1  0.498775  0.999586  0.999076  1
  W  W27  1  0.001225  0.999586  0.999076  1
