# generated using pymatgen
data_CaTb2(GdSn2)2
_symmetry_space_group_name_H-M   'P 1'
_cell_length_a   7.96338900
_cell_length_b   8.36385000
_cell_length_c   15.77378200
_cell_angle_alpha   90.00000000
_cell_angle_beta   90.00000000
_cell_angle_gamma   90.00000000
_symmetry_Int_Tables_number   1
_chemical_formula_structural   CaTb2(GdSn2)2
_chemical_formula_sum   'Ca4 Tb8 Gd8 Sn16'
_cell_volume   1050.60630002
_cell_formula_units_Z   4
loop_
 _symmetry_equiv_pos_site_id
 _symmetry_equiv_pos_as_xyz
  1  'x, y, z'
loop_
 _atom_site_type_symbol
 _atom_site_label
 _atom_site_symmetry_multiplicity
 _atom_site_fract_x
 _atom_site_fract_y
 _atom_site_fract_z
 _atom_site_occupancy
  Ca  Ca0  1  0.173603  0.496266  0.750000  1
  Ca  Ca1  1  0.673603  0.003734  0.750000  1
  Ca  Ca2  1  0.826397  0.503734  0.250000  1
  Ca  Ca3  1  0.326397  0.996266  0.250000  1
  Tb  Tb4  1  0.341417  0.830172  0.876732  1
  Tb  Tb5  1  0.841417  0.669828  0.623268  1
  Tb  Tb6  1  0.658583  0.169828  0.376732  1
  Tb  Tb7  1  0.158583  0.330172  0.123268  1
  Tb  Tb8  1  0.658583  0.169828  0.123268  1
  Tb  Tb9  1  0.158583  0.330172  0.376732  1
  Tb  Tb10  1  0.341417  0.830172  0.623268  1
  Tb  Tb11  1  0.841417  0.669828  0.876732  1
  Gd  Gd12  1  0.498623  0.318038  0.906095  1
  Gd  Gd13  1  0.998623  0.181962  0.593905  1
  Gd  Gd14  1  0.501377  0.681962  0.406095  1
  Gd  Gd15  1  0.001377  0.818038  0.093905  1
  Gd  Gd16  1  0.501377  0.681962  0.093905  1
  Gd  Gd17  1  0.001377  0.818038  0.406095  1
  Gd  Gd18  1  0.498623  0.318038  0.593905  1
  Gd  Gd19  1  0.998623  0.181962  0.906095  1
  Sn  Sn20  1  0.316775  0.039316  0.037511  1
  Sn  Sn21  1  0.816775  0.460684  0.462489  1
  Sn  Sn22  1  0.683225  0.960684  0.537511  1
  Sn  Sn23  1  0.183225  0.539316  0.962489  1
  Sn  Sn24  1  0.683225  0.960684  0.962489  1
  Sn  Sn25  1  0.183225  0.539316  0.537511  1
  Sn  Sn26  1  0.316775  0.039316  0.462489  1
  Sn  Sn27  1  0.816775  0.460684  0.037511  1
  Sn  Sn28  1  0.541282  0.612276  0.750000  1
  Sn  Sn29  1  0.041282  0.887724  0.750000  1
  Sn  Sn30  1  0.458718  0.387724  0.250000  1
  Sn  Sn31  1  0.958718  0.112276  0.250000  1
  Sn  Sn32  1  0.300378  0.139068  0.750000  1
  Sn  Sn33  1  0.800378  0.360932  0.750000  1
  Sn  Sn34  1  0.699622  0.860932  0.250000  1
  Sn  Sn35  1  0.199622  0.639068  0.250000  1
