# generated using pymatgen
data_Dy5Y3Ho2Cd3Ru
_symmetry_space_group_name_H-M   'P 1'
_cell_length_a   9.61125001
_cell_length_b   9.61124912
_cell_length_c   9.84466600
_cell_angle_alpha   90.00121312
_cell_angle_beta   89.99878665
_cell_angle_gamma   120.00447570
_symmetry_Int_Tables_number   1
_chemical_formula_structural   Dy5Y3Ho2Cd3Ru
_chemical_formula_sum   'Dy10 Y6 Ho4 Cd6 Ru2'
_cell_volume   787.53839822
_cell_formula_units_Z   2
loop_
 _symmetry_equiv_pos_site_id
 _symmetry_equiv_pos_as_xyz
  1  'x, y, z'
loop_
 _atom_site_type_symbol
 _atom_site_label
 _atom_site_symmetry_multiplicity
 _atom_site_fract_x
 _atom_site_fract_y
 _atom_site_fract_z
 _atom_site_occupancy
  Dy  Dy0  1  0.209829  0.790171  0.439831  1
  Dy  Dy1  1  0.209853  0.419689  0.439782  1
  Dy  Dy2  1  0.580311  0.790147  0.439782  1
  Dy  Dy3  1  0.790175  0.209825  0.560169  1
  Dy  Dy4  1  0.790176  0.580346  0.560159  1
  Dy  Dy5  1  0.419654  0.209824  0.560159  1
  Dy  Dy6  1  0.790191  0.209809  0.939869  1
  Dy  Dy7  1  0.790151  0.580362  0.939857  1
  Dy  Dy8  1  0.419638  0.209849  0.939857  1
  Dy  Dy9  1  0.209909  0.790091  0.060192  1
  Y  Y10  1  0.541141  0.458859  0.249944  1
  Y  Y11  1  0.541194  0.082339  0.249979  1
  Y  Y12  1  0.917661  0.458806  0.249979  1
  Y  Y13  1  0.458790  0.541210  0.750074  1
  Y  Y14  1  0.458827  0.917599  0.750039  1
  Y  Y15  1  0.082401  0.541173  0.750039  1
  Ho  Ho16  1  0.999999  0.000001  0.500023  1
  Ho  Ho17  1  0.999970  0.000030  0.000015  1
  Ho  Ho18  1  0.209929  0.419792  0.060181  1
  Ho  Ho19  1  0.580208  0.790071  0.060181  1
  Cd  Cd20  1  0.885485  0.114515  0.249971  1
  Cd  Cd21  1  0.885471  0.770971  0.249982  1
  Cd  Cd22  1  0.229029  0.114529  0.249982  1
  Cd  Cd23  1  0.114512  0.885488  0.750011  1
  Cd  Cd24  1  0.114520  0.229048  0.750033  1
  Cd  Cd25  1  0.770952  0.885480  0.750033  1
  Ru  Ru26  1  0.333358  0.666642  0.249898  1
  Ru  Ru27  1  0.666668  0.333332  0.749978  1
