# generated using pymatgen
data_Ti8Al6Ga9Co7
_symmetry_space_group_name_H-M   'P 1'
_cell_length_a   8.42061096
_cell_length_b   8.42061040
_cell_length_c   8.42061058
_cell_angle_alpha   120.29955317
_cell_angle_beta   119.82166873
_cell_angle_gamma   89.89555141
_symmetry_Int_Tables_number   1
_chemical_formula_structural   Ti8Al6Ga9Co7
_chemical_formula_sum   'Ti8 Al6 Ga9 Co7'
_cell_volume   421.80085714
_cell_formula_units_Z   1
loop_
 _symmetry_equiv_pos_site_id
 _symmetry_equiv_pos_as_xyz
  1  'x, y, z'
loop_
 _atom_site_type_symbol
 _atom_site_label
 _atom_site_symmetry_multiplicity
 _atom_site_fract_x
 _atom_site_fract_y
 _atom_site_fract_z
 _atom_site_occupancy
  Ti  Ti0  1  0.791388  0.287112  0.071943  1
  Ti  Ti1  1  0.215168  0.287112  0.495723  1
  Ti  Ti2  1  0.209788  0.709788  0.500000  1
  Ti  Ti3  1  0.215168  0.719445  0.928057  1
  Ti  Ti4  1  0.791388  0.719445  0.504277  1
  Ti  Ti5  1  0.783127  0.283127  0.500000  1
  Ti  Ti6  1  0.378547  0.122586  0.744038  1
  Ti  Ti7  1  0.378547  0.634509  0.255962  1
  Al  Al8  1  0.379698  0.121270  0.258428  1
  Al  Al9  1  0.862844  0.121270  0.741572  1
  Al  Al10  1  0.620519  0.877518  0.256998  1
  Al  Al11  1  0.620519  0.363522  0.743002  1
  Al  Al12  1  0.619598  0.878162  0.741435  1
  Al  Al13  1  0.136726  0.878162  0.258565  1
  Ga  Ga14  1  0.996285  0.496285  0.500000  1
  Ga  Ga15  1  0.155756  0.345018  0.189260  1
  Ga  Ga16  1  0.155756  0.966496  0.810740  1
  Ga  Ga17  1  0.153248  0.346515  0.806733  1
  Ga  Ga18  1  0.539781  0.346515  0.193267  1
  Ga  Ga19  1  0.845042  0.653912  0.808871  1
  Ga  Ga20  1  0.845042  0.036171  0.191129  1
  Ga  Ga21  1  0.844544  0.654397  0.190145  1
  Ga  Ga22  1  0.464252  0.654397  0.809855  1
  Co  Co23  1  0.002163  0.001204  0.502328  1
  Co  Co24  1  0.498875  0.001204  0.999041  1
  Co  Co25  1  0.497783  0.497783  0.000000  1
  Co  Co26  1  0.498875  0.499834  0.497672  1
  Co  Co27  1  0.002163  0.499834  0.000959  1
  Co  Co28  1  0.999845  0.999845  0.000000  1
  Co  Co29  1  0.497557  0.997557  0.500000  1
