# generated using pymatgen
data_Ca4Pr13Sm3Sn16
_symmetry_space_group_name_H-M   'P 1'
_cell_length_a   8.12636863
_cell_length_b   8.52501031
_cell_length_c   16.14401822
_cell_angle_alpha   90.03877937
_cell_angle_beta   89.99255335
_cell_angle_gamma   90.03201488
_symmetry_Int_Tables_number   1
_chemical_formula_structural   Ca4Pr13Sm3Sn16
_chemical_formula_sum   'Ca4 Pr13 Sm3 Sn16'
_cell_volume   1118.41478706
_cell_formula_units_Z   1
loop_
 _symmetry_equiv_pos_site_id
 _symmetry_equiv_pos_as_xyz
  1  'x, y, z'
loop_
 _atom_site_type_symbol
 _atom_site_label
 _atom_site_symmetry_multiplicity
 _atom_site_fract_x
 _atom_site_fract_y
 _atom_site_fract_z
 _atom_site_occupancy
  Ca  Ca0  1  0.163288  0.496397  0.749822  1
  Ca  Ca1  1  0.662741  0.004815  0.749898  1
  Ca  Ca2  1  0.836861  0.504275  0.250848  1
  Ca  Ca3  1  0.337036  0.993907  0.250428  1
  Pr  Pr4  1  0.165408  0.327230  0.124027  1
  Pr  Pr5  1  0.665941  0.171628  0.124779  1
  Pr  Pr6  1  0.165976  0.327161  0.375879  1
  Pr  Pr7  1  0.335274  0.828221  0.624910  1
  Pr  Pr8  1  0.835631  0.673409  0.874752  1
  Pr  Pr9  1  0.490787  0.317374  0.903802  1
  Pr  Pr10  1  0.991431  0.184742  0.596508  1
  Pr  Pr11  1  0.509598  0.683504  0.404187  1
  Pr  Pr12  1  0.008861  0.815491  0.096050  1
  Pr  Pr13  1  0.508742  0.681413  0.095932  1
  Pr  Pr14  1  0.007880  0.817697  0.404494  1
  Pr  Pr15  1  0.492086  0.317912  0.595831  1
  Pr  Pr16  1  0.990439  0.183472  0.903019  1
  Sm  Sm17  1  0.332128  0.829193  0.874916  1
  Sm  Sm18  1  0.833253  0.671358  0.624318  1
  Sm  Sm19  1  0.666932  0.170672  0.375951  1
  Sn  Sn20  1  0.325605  0.034032  0.036937  1
  Sn  Sn21  1  0.823708  0.463211  0.462647  1
  Sn  Sn22  1  0.677625  0.963754  0.537819  1
  Sn  Sn23  1  0.176669  0.538191  0.961497  1
  Sn  Sn24  1  0.671058  0.962555  0.961803  1
  Sn  Sn25  1  0.172792  0.538243  0.537838  1
  Sn  Sn26  1  0.328430  0.037104  0.462460  1
  Sn  Sn27  1  0.824254  0.462569  0.036654  1
  Sn  Sn28  1  0.531231  0.606263  0.749992  1
  Sn  Sn29  1  0.031020  0.895969  0.749598  1
  Sn  Sn30  1  0.470015  0.394546  0.250852  1
  Sn  Sn31  1  0.967893  0.103116  0.251099  1
  Sn  Sn32  1  0.292352  0.141044  0.750087  1
  Sn  Sn33  1  0.791747  0.360878  0.749805  1
  Sn  Sn34  1  0.707519  0.859043  0.250321  1
  Sn  Sn35  1  0.207789  0.639611  0.250240  1
