# generated using pymatgen
data_Dy3Sb(PN2)6
_symmetry_space_group_name_H-M   'P 1'
_cell_length_a   7.41818350
_cell_length_b   7.41818214
_cell_length_c   7.41818200
_cell_angle_alpha   109.36657112
_cell_angle_beta   109.36657561
_cell_angle_gamma   109.36655836
_symmetry_Int_Tables_number   1
_chemical_formula_structural   Dy3Sb(PN2)6
_chemical_formula_sum   'Dy3 Sb1 P6 N12'
_cell_volume   315.45837125
_cell_formula_units_Z   1
loop_
 _symmetry_equiv_pos_site_id
 _symmetry_equiv_pos_as_xyz
  1  'x, y, z'
loop_
 _atom_site_type_symbol
 _atom_site_label
 _atom_site_symmetry_multiplicity
 _atom_site_fract_x
 _atom_site_fract_y
 _atom_site_fract_z
 _atom_site_occupancy
  Dy  Dy0  1  0.020432  0.380419  0.020432  1
  Dy  Dy1  1  0.020432  0.020432  0.380419  1
  Dy  Dy2  1  0.380419  0.020432  0.020432  1
  Sb  Sb3  1  0.933769  0.933769  0.933769  1
  P  P4  1  0.505871  0.259989  0.748109  1
  P  P5  1  0.259989  0.748109  0.505871  1
  P  P6  1  0.748109  0.505871  0.259989  1
  P  P7  1  0.748109  0.259989  0.505871  1
  P  P8  1  0.505871  0.748109  0.259989  1
  P  P9  1  0.259989  0.505871  0.748109  1
  N  N10  1  0.376149  0.665520  0.376149  1
  N  N11  1  0.665520  0.376149  0.376149  1
  N  N12  1  0.376149  0.376149  0.665520  1
  N  N13  1  0.719580  0.307470  0.719580  1
  N  N14  1  0.000795  0.593879  0.311607  1
  N  N15  1  0.311607  0.593879  0.000795  1
  N  N16  1  0.311607  0.000795  0.593879  1
  N  N17  1  0.000795  0.311607  0.593879  1
  N  N18  1  0.719580  0.719580  0.307470  1
  N  N19  1  0.593879  0.000795  0.311607  1
  N  N20  1  0.307470  0.719580  0.719580  1
  N  N21  1  0.593879  0.311607  0.000795  1
