# generated using pymatgen
data_NpPa(BN)2
_symmetry_space_group_name_H-M   'P 1'
_cell_length_a   6.21857905
_cell_length_b   6.21858021
_cell_length_c   3.32630400
_cell_angle_alpha   90.00000000
_cell_angle_beta   90.00000000
_cell_angle_gamma   146.21111545
_symmetry_Int_Tables_number   1
_chemical_formula_structural   NpPa(BN)2
_chemical_formula_sum   'Np1 Pa1 B2 N2'
_cell_volume   71.53590762
_cell_formula_units_Z   1
loop_
 _symmetry_equiv_pos_site_id
 _symmetry_equiv_pos_as_xyz
  1  'x, y, z'
loop_
 _atom_site_type_symbol
 _atom_site_label
 _atom_site_symmetry_multiplicity
 _atom_site_fract_x
 _atom_site_fract_y
 _atom_site_fract_z
 _atom_site_occupancy
  Np  Np0  1  0.864146  0.135854  0.750000  1
  Pa  Pa1  1  0.138778  0.861222  0.250000  1
  B  B2  1  0.533175  0.466825  0.750000  1
  B  B3  1  0.465088  0.534912  0.250000  1
  N  N4  1  0.660876  0.339124  0.750000  1
  N  N5  1  0.337938  0.662062  0.250000  1
