# generated using pymatgen
data_GdSiNO2
_symmetry_space_group_name_H-M   'P 1'
_cell_length_a   7.15089645
_cell_length_b   7.15089619
_cell_length_c   9.29008700
_cell_angle_alpha   90.00000000
_cell_angle_beta   90.00000000
_cell_angle_gamma   120.25514020
_symmetry_Int_Tables_number   1
_chemical_formula_structural   GdSiNO2
_chemical_formula_sum   'Gd6 Si6 N6 O12'
_cell_volume   410.34492802
_cell_formula_units_Z   6
loop_
 _symmetry_equiv_pos_site_id
 _symmetry_equiv_pos_as_xyz
  1  'x, y, z'
loop_
 _atom_site_type_symbol
 _atom_site_label
 _atom_site_symmetry_multiplicity
 _atom_site_fract_x
 _atom_site_fract_y
 _atom_site_fract_z
 _atom_site_occupancy
  Gd  Gd0  1  0.825029  0.174971  0.500000  1
  Gd  Gd1  1  0.174971  0.825029  0.000000  1
  Gd  Gd2  1  0.825029  0.174971  0.000000  1
  Gd  Gd3  1  0.174971  0.825029  0.500000  1
  Gd  Gd4  1  0.500000  0.500000  0.500000  1
  Gd  Gd5  1  0.500000  0.500000  0.000000  1
  Si  Si6  1  0.164155  0.407218  0.250000  1
  Si  Si7  1  0.592782  0.835845  0.750000  1
  Si  Si8  1  0.917683  0.917683  0.250000  1
  Si  Si9  1  0.835845  0.592782  0.750000  1
  Si  Si10  1  0.082317  0.082317  0.750000  1
  Si  Si11  1  0.407218  0.164155  0.250000  1
  N  N12  1  0.601183  0.601183  0.750000  1
  N  N13  1  0.836801  0.072045  0.750000  1
  N  N14  1  0.072045  0.836801  0.750000  1
  N  N15  1  0.927955  0.163199  0.250000  1
  N  N16  1  0.398817  0.398817  0.250000  1
  N  N17  1  0.163199  0.927955  0.250000  1
  O  O18  1  0.165211  0.524104  0.096114  1
  O  O19  1  0.475896  0.834789  0.903886  1
  O  O20  1  0.475896  0.834789  0.596114  1
  O  O21  1  0.524104  0.165211  0.096114  1
  O  O22  1  0.803931  0.803931  0.406164  1
  O  O23  1  0.834789  0.475896  0.903886  1
  O  O24  1  0.834789  0.475896  0.596114  1
  O  O25  1  0.196069  0.196069  0.593836  1
  O  O26  1  0.196069  0.196069  0.906164  1
  O  O27  1  0.803931  0.803931  0.093836  1
  O  O28  1  0.524104  0.165211  0.403886  1
  O  O29  1  0.165211  0.524104  0.403886  1
