# generated using pymatgen
data_Y2Ho2Al24CuPd8
_symmetry_space_group_name_H-M   'P 1'
_cell_length_a   7.55182564
_cell_length_b   7.57199891
_cell_length_c   13.13866800
_cell_angle_alpha   84.59100301
_cell_angle_beta   79.01767290
_cell_angle_gamma   59.91555757
_symmetry_Int_Tables_number   1
_chemical_formula_structural   Y2Ho2Al24CuPd8
_chemical_formula_sum   'Y2 Ho2 Al24 Cu1 Pd8'
_cell_volume   638.18476938
_cell_formula_units_Z   1
loop_
 _symmetry_equiv_pos_site_id
 _symmetry_equiv_pos_as_xyz
  1  'x, y, z'
loop_
 _atom_site_type_symbol
 _atom_site_label
 _atom_site_symmetry_multiplicity
 _atom_site_fract_x
 _atom_site_fract_y
 _atom_site_fract_z
 _atom_site_occupancy
  Y  Y0  1  0.392488  0.169216  0.807770  1
  Y  Y1  1  0.606533  0.831669  0.191850  1
  Ho  Ho2  1  0.734598  0.498310  0.807538  1
  Ho  Ho3  1  0.266759  0.501500  0.191962  1
  Al  Al4  1  0.684238  0.833321  0.944468  1
  Al  Al5  1  0.315851  0.166162  0.055464  1
  Al  Al6  1  0.145347  0.834849  0.562162  1
  Al  Al7  1  0.854968  0.166626  0.436514  1
  Al  Al8  1  0.479340  0.167717  0.560076  1
  Al  Al9  1  0.520463  0.833585  0.439773  1
  Al  Al10  1  0.217820  0.165391  0.329215  1
  Al  Al11  1  0.785099  0.831824  0.671051  1
  Al  Al12  1  0.433367  0.506918  0.671382  1
  Al  Al13  1  0.563567  0.493439  0.328552  1
  Al  Al14  1  0.109159  0.162919  0.669712  1
  Al  Al15  1  0.890706  0.840164  0.330124  1
  Al  Al16  1  0.353167  0.499000  0.944264  1
  Al  Al17  1  0.647227  0.500530  0.055538  1
  Al  Al18  1  0.015042  0.167489  0.954654  1
  Al  Al19  1  0.984635  0.831970  0.046002  1
  Al  Al20  1  0.186383  0.500604  0.442036  1
  Al  Al21  1  0.813713  0.500145  0.559947  1
  Al  Al22  1  0.733253  0.163978  0.184172  1
  Al  Al23  1  0.266133  0.835657  0.816073  1
  Al  Al24  1  0.062116  0.628535  0.813113  1
  Al  Al25  1  0.938734  0.369645  0.185338  1
  Al  Al26  1  0.855051  0.041491  0.815759  1
  Al  Al27  1  0.144865  0.957574  0.184150  1
  Cu  Cu28  1  0.119229  0.491877  0.639272  1
  Pd  Pd29  1  0.880311  0.508000  0.362719  1
  Pd  Pd30  1  0.657057  0.171354  0.999608  1
  Pd  Pd31  1  0.343272  0.828010  0.999679  1
  Pd  Pd32  1  0.536619  0.167832  0.362832  1
  Pd  Pd33  1  0.462276  0.833235  0.637818  1
  Pd  Pd34  1  0.778637  0.175367  0.637147  1
  Pd  Pd35  1  0.221567  0.824246  0.362911  1
  Pd  Pd36  1  0.000407  0.499847  0.999352  1
