# generated using pymatgen
data_TbNd8YSn6
_symmetry_space_group_name_H-M   'P 1'
_cell_length_a   9.24122500
_cell_length_b   9.24122559
_cell_length_c   6.80109700
_cell_angle_alpha   90.00000000
_cell_angle_beta   90.00000000
_cell_angle_gamma   120.00000148
_symmetry_Int_Tables_number   1
_chemical_formula_structural   TbNd8YSn6
_chemical_formula_sum   'Tb1 Nd8 Y1 Sn6'
_cell_volume   503.00084006
_cell_formula_units_Z   1
loop_
 _symmetry_equiv_pos_site_id
 _symmetry_equiv_pos_as_xyz
  1  'x, y, z'
loop_
 _atom_site_type_symbol
 _atom_site_label
 _atom_site_symmetry_multiplicity
 _atom_site_fract_x
 _atom_site_fract_y
 _atom_site_fract_z
 _atom_site_occupancy
  Tb  Tb0  1  0.333333  0.666667  0.000000  1
  Nd  Nd1  1  0.758728  0.758633  0.248611  1
  Nd  Nd2  1  0.999905  0.241272  0.248611  1
  Nd  Nd3  1  0.758728  0.000095  0.751389  1
  Nd  Nd4  1  0.333333  0.666667  0.500000  1
  Nd  Nd5  1  0.241367  0.000095  0.248611  1
  Nd  Nd6  1  0.666667  0.333333  0.500000  1
  Nd  Nd7  1  0.999905  0.758633  0.751389  1
  Nd  Nd8  1  0.241367  0.241272  0.751389  1
  Y  Y9  1  0.666667  0.333333  0.000000  1
  Sn  Sn10  1  0.603162  0.602899  0.757160  1
  Sn  Sn11  1  0.397101  0.000263  0.757160  1
  Sn  Sn12  1  0.603162  0.000263  0.242840  1
  Sn  Sn13  1  0.999737  0.396838  0.757160  1
  Sn  Sn14  1  0.397101  0.396838  0.242840  1
  Sn  Sn15  1  0.999737  0.602899  0.242840  1
