# generated using pymatgen
data_Pr3CdHg2Pd3
_symmetry_space_group_name_H-M   'P 1'
_cell_length_a   7.86206541
_cell_length_b   7.82293264
_cell_length_c   4.01583400
_cell_angle_alpha   90.00000000
_cell_angle_beta   90.00000000
_cell_angle_gamma   119.83549471
_symmetry_Int_Tables_number   1
_chemical_formula_structural   Pr3CdHg2Pd3
_chemical_formula_sum   'Pr3 Cd1 Hg2 Pd3'
_cell_volume   214.25460126
_cell_formula_units_Z   1
loop_
 _symmetry_equiv_pos_site_id
 _symmetry_equiv_pos_as_xyz
  1  'x, y, z'
loop_
 _atom_site_type_symbol
 _atom_site_label
 _atom_site_symmetry_multiplicity
 _atom_site_fract_x
 _atom_site_fract_y
 _atom_site_fract_z
 _atom_site_occupancy
  Pr  Pr0  1  0.405954  0.402983  0.500000  1
  Pr  Pr1  1  0.000000  0.603592  0.500000  1
  Pr  Pr2  1  0.594046  0.997029  0.500000  1
  Cd  Cd3  1  0.000000  0.256808  0.000000  1
  Hg  Hg4  1  0.739325  0.741552  0.000000  1
  Hg  Hg5  1  0.260675  0.002228  0.000000  1
  Pd  Pd6  1  0.671961  0.332023  0.000000  1
  Pd  Pd7  1  0.000000  0.003722  0.500000  1
  Pd  Pd8  1  0.328039  0.660062  0.000000  1
