# generated using pymatgen
data_Sc12In(CuI8)2
_symmetry_space_group_name_H-M   'P 1'
_cell_length_a   9.17470775
_cell_length_b   11.85364743
_cell_length_c   12.55247000
_cell_angle_alpha   117.16252042
_cell_angle_beta   101.12570684
_cell_angle_gamma   100.89917166
_symmetry_Int_Tables_number   1
_chemical_formula_structural   Sc12In(CuI8)2
_chemical_formula_sum   'Sc12 In1 Cu2 I16'
_cell_volume   1130.08748391
_cell_formula_units_Z   1
loop_
 _symmetry_equiv_pos_site_id
 _symmetry_equiv_pos_as_xyz
  1  'x, y, z'
loop_
 _atom_site_type_symbol
 _atom_site_label
 _atom_site_symmetry_multiplicity
 _atom_site_fract_x
 _atom_site_fract_y
 _atom_site_fract_z
 _atom_site_occupancy
  Sc  Sc0  1  0.093003  0.258810  0.351598  1
  Sc  Sc1  1  0.906997  0.741190  0.648402  1
  Sc  Sc2  1  0.770959  0.537324  0.322403  1
  Sc  Sc3  1  0.229041  0.462676  0.677597  1
  Sc  Sc4  1  0.289123  0.741345  0.647427  1
  Sc  Sc5  1  0.710877  0.258655  0.352573  1
  Sc  Sc6  1  0.153200  0.537010  0.321709  1
  Sc  Sc7  1  0.846800  0.462990  0.678291  1
  Sc  Sc8  1  0.409467  0.363348  0.281717  1
  Sc  Sc9  1  0.590533  0.636652  0.718283  1
  Sc  Sc10  1  0.459776  0.315304  0.519777  1
  Sc  Sc11  1  0.540224  0.684696  0.480223  1
  In  In12  1  0.000000  0.500000  0.500000  1
  Cu  Cu13  1  0.328075  0.499905  0.499653  1
  Cu  Cu14  1  0.671926  0.500095  0.500347  1
  I  I15  1  0.399496  0.742178  0.886608  1
  I  I16  1  0.600504  0.257822  0.113392  1
  I  I17  1  0.190194  0.969396  0.785643  1
  I  I18  1  0.809806  0.030604  0.214357  1
  I  I19  1  0.335678  0.092446  0.250176  1
  I  I20  1  0.664322  0.907554  0.749824  1
  I  I21  1  0.560896  0.436680  0.800098  1
  I  I22  1  0.439104  0.563320  0.199902  1
  I  I23  1  0.312562  0.829680  0.462839  1
  I  I24  1  0.687438  0.170320  0.537161  1
  I  I25  1  0.169232  0.169791  0.534889  1
  I  I26  1  0.830768  0.830209  0.465111  1
  I  I27  1  0.926822  0.576127  0.157124  1
  I  I28  1  0.073178  0.423873  0.842876  1
  I  I29  1  0.921264  0.741769  0.887366  1
  I  I30  1  0.078736  0.258231  0.112634  1
