# generated using pymatgen
data_Be3Fe3Mo6C
_symmetry_space_group_name_H-M   'P 1'
_cell_length_a   7.61424646
_cell_length_b   7.60321291
_cell_length_c   7.60321174
_cell_angle_alpha   59.95307763
_cell_angle_beta   59.95197708
_cell_angle_gamma   59.95198184
_symmetry_Int_Tables_number   1
_chemical_formula_structural   Be3Fe3Mo6C
_chemical_formula_sum   'Be6 Fe6 Mo12 C2'
_cell_volume   310.91132639
_cell_formula_units_Z   2
loop_
 _symmetry_equiv_pos_site_id
 _symmetry_equiv_pos_as_xyz
  1  'x, y, z'
loop_
 _atom_site_type_symbol
 _atom_site_label
 _atom_site_symmetry_multiplicity
 _atom_site_fract_x
 _atom_site_fract_y
 _atom_site_fract_z
 _atom_site_occupancy
  Be  Be0  1  0.421000  0.421771  0.736231  1
  Be  Be1  1  0.421000  0.736231  0.421771  1
  Be  Be2  1  0.739499  0.420639  0.420639  1
  Be  Be3  1  0.419225  0.420639  0.420639  1
  Be  Be4  1  0.829817  0.828383  0.511981  1
  Be  Be5  1  0.829817  0.511981  0.828383  1
  Fe  Fe6  1  0.515577  0.827830  0.827830  1
  Fe  Fe7  1  0.828760  0.827830  0.827830  1
  Fe  Fe8  1  0.624946  0.620552  0.129557  1
  Fe  Fe9  1  0.624946  0.129557  0.620552  1
  Fe  Fe10  1  0.127259  0.622692  0.622692  1
  Fe  Fe11  1  0.627357  0.622692  0.622692  1
  Mo  Mo12  1  0.051983  0.049782  0.446974  1
  Mo  Mo13  1  0.451260  0.049782  0.446974  1
  Mo  Mo14  1  0.048517  0.451483  0.451483  1
  Mo  Mo15  1  0.451260  0.446974  0.049782  1
  Mo  Mo16  1  0.051983  0.446974  0.049782  1
  Mo  Mo17  1  0.446981  0.053019  0.053019  1
  Mo  Mo18  1  0.198364  0.203525  0.800473  1
  Mo  Mo19  1  0.797638  0.203525  0.800473  1
  Mo  Mo20  1  0.200449  0.799551  0.799551  1
  Mo  Mo21  1  0.797638  0.800473  0.203525  1
  Mo  Mo22  1  0.198364  0.800473  0.203525  1
  Mo  Mo23  1  0.797942  0.202058  0.202058  1
  C  C24  1  0.248588  0.251412  0.251412  1
  C  C25  1  0.999831  0.000169  0.000169  1
