# generated using pymatgen
data_Li4TmLu3Pt4
_symmetry_space_group_name_H-M   'P 1'
_cell_length_a   3.97047700
_cell_length_b   6.91970785
_cell_length_c   8.30007402
_cell_angle_alpha   89.86655964
_cell_angle_beta   90.00000000
_cell_angle_gamma   90.00000000
_symmetry_Int_Tables_number   1
_chemical_formula_structural   Li4TmLu3Pt4
_chemical_formula_sum   'Li4 Tm1 Lu3 Pt4'
_cell_volume   228.04010446
_cell_formula_units_Z   1
loop_
 _symmetry_equiv_pos_site_id
 _symmetry_equiv_pos_as_xyz
  1  'x, y, z'
loop_
 _atom_site_type_symbol
 _atom_site_label
 _atom_site_symmetry_multiplicity
 _atom_site_fract_x
 _atom_site_fract_y
 _atom_site_fract_z
 _atom_site_occupancy
  Li  Li0  1  0.250000  0.628145  0.559842  1
  Li  Li1  1  0.750000  0.371605  0.440825  1
  Li  Li2  1  0.750000  0.872347  0.059375  1
  Li  Li3  1  0.250000  0.127167  0.940110  1
  Tm  Tm4  1  0.250000  0.545142  0.178523  1
  Lu  Lu5  1  0.750000  0.454693  0.821158  1
  Lu  Lu6  1  0.750000  0.955283  0.678329  1
  Lu  Lu7  1  0.250000  0.045478  0.322464  1
  Pt  Pt8  1  0.250000  0.744963  0.873214  1
  Pt  Pt9  1  0.750000  0.253347  0.124751  1
  Pt  Pt10  1  0.750000  0.756413  0.375712  1
  Pt  Pt11  1  0.250000  0.245418  0.625696  1
