# generated using pymatgen
data_HfSc7Si16(MoW5)2
_symmetry_space_group_name_H-M   'P 1'
_cell_length_a   6.57867836
_cell_length_b   6.78808813
_cell_length_c   12.67726805
_cell_angle_alpha   89.91170275
_cell_angle_beta   89.98420417
_cell_angle_gamma   90.01616585
_symmetry_Int_Tables_number   1
_chemical_formula_structural   HfSc7Si16(MoW5)2
_chemical_formula_sum   'Hf1 Sc7 Si16 Mo2 W10'
_cell_volume   566.12358710
_cell_formula_units_Z   1
loop_
 _symmetry_equiv_pos_site_id
 _symmetry_equiv_pos_as_xyz
  1  'x, y, z'
loop_
 _atom_site_type_symbol
 _atom_site_label
 _atom_site_symmetry_multiplicity
 _atom_site_fract_x
 _atom_site_fract_y
 _atom_site_fract_z
 _atom_site_occupancy
  Hf  Hf0  1  0.506096  0.669722  0.594063  1
  Sc  Sc1  1  0.995334  0.169332  0.093085  1
  Sc  Sc2  1  0.005323  0.830857  0.907736  1
  Sc  Sc3  1  0.505170  0.669445  0.907590  1
  Sc  Sc4  1  0.006793  0.830570  0.592012  1
  Sc  Sc5  1  0.495236  0.330139  0.092943  1
  Sc  Sc6  1  0.994486  0.169490  0.407135  1
  Sc  Sc7  1  0.495345  0.331228  0.407323  1
  Si  Si8  1  0.032498  0.120402  0.750298  1
  Si  Si9  1  0.966293  0.879185  0.249319  1
  Si  Si10  1  0.465038  0.619547  0.249091  1
  Si  Si11  1  0.535137  0.378813  0.751041  1
  Si  Si12  1  0.299200  0.859054  0.750819  1
  Si  Si13  1  0.699337  0.141620  0.250145  1
  Si  Si14  1  0.199291  0.358350  0.249937  1
  Si  Si15  1  0.802582  0.641723  0.751495  1
  Si  Si16  1  0.167929  0.461626  0.543160  1
  Si  Si17  1  0.831518  0.537379  0.455861  1
  Si  Si18  1  0.332300  0.963478  0.456062  1
  Si  Si19  1  0.833733  0.536114  0.044964  1
  Si  Si20  1  0.667981  0.038778  0.543409  1
  Si  Si21  1  0.165887  0.463421  0.955006  1
  Si  Si22  1  0.665500  0.037188  0.954668  1
  Si  Si23  1  0.333950  0.963085  0.044929  1
  Mo  Mo24  1  0.831328  0.335634  0.876042  1
  Mo  Mo25  1  0.168764  0.664269  0.123523  1
  W  W26  1  0.167056  0.505360  0.748093  1
  W  W27  1  0.833977  0.495537  0.251217  1
  W  W28  1  0.334621  0.004157  0.250538  1
  W  W29  1  0.665107  0.992572  0.748317  1
  W  W30  1  0.331598  0.164116  0.624111  1
  W  W31  1  0.667177  0.834841  0.376270  1
  W  W32  1  0.168495  0.665185  0.375355  1
  W  W33  1  0.668817  0.835126  0.124273  1
  W  W34  1  0.830857  0.337796  0.624848  1
  W  W35  1  0.330249  0.164860  0.875324  1
