# generated using pymatgen
data_La3Nd(Zn5Ge)2
_symmetry_space_group_name_H-M   'P 1'
_cell_length_a   8.48608468
_cell_length_b   8.48608440
_cell_length_c   8.95902100
_cell_angle_alpha   90.00000000
_cell_angle_beta   90.00000000
_cell_angle_gamma   149.18197308
_symmetry_Int_Tables_number   1
_chemical_formula_structural   La3Nd(Zn5Ge)2
_chemical_formula_sum   'La3 Nd1 Zn10 Ge2'
_cell_volume   330.52987393
_cell_formula_units_Z   1
loop_
 _symmetry_equiv_pos_site_id
 _symmetry_equiv_pos_as_xyz
  1  'x, y, z'
loop_
 _atom_site_type_symbol
 _atom_site_label
 _atom_site_symmetry_multiplicity
 _atom_site_fract_x
 _atom_site_fract_y
 _atom_site_fract_z
 _atom_site_occupancy
  La  La0  1  0.204347  0.795653  0.250000  1
  La  La1  1  0.999738  0.000262  0.500247  1
  La  La2  1  0.999738  0.000262  0.999753  1
  Nd  Nd3  1  0.795670  0.204330  0.750000  1
  Zn  Zn4  1  0.813839  0.186161  0.393441  1
  Zn  Zn5  1  0.186412  0.813588  0.608845  1
  Zn  Zn6  1  0.813839  0.186161  0.106559  1
  Zn  Zn7  1  0.186412  0.813588  0.891155  1
  Zn  Zn8  1  0.652358  0.347642  0.480724  1
  Zn  Zn9  1  0.347859  0.652141  0.522045  1
  Zn  Zn10  1  0.652358  0.347642  0.019276  1
  Zn  Zn11  1  0.347859  0.652141  0.977955  1
  Zn  Zn12  1  0.402900  0.597100  0.250000  1
  Zn  Zn13  1  0.597119  0.402881  0.750000  1
  Ge  Ge14  1  0.557677  0.442323  0.250000  1
  Ge  Ge15  1  0.441875  0.558125  0.750000  1
