# generated using pymatgen
data_Dy4Er2InSi2
_symmetry_space_group_name_H-M   'P 1'
_cell_length_a   8.49891446
_cell_length_b   8.49891556
_cell_length_c   8.49891537
_cell_angle_alpha   112.18021672
_cell_angle_beta   111.01207292
_cell_angle_gamma   105.30244505
_symmetry_Int_Tables_number   1
_chemical_formula_structural   Dy4Er2InSi2
_chemical_formula_sum   'Dy8 Er4 In2 Si4'
_cell_volume   470.66126705
_cell_formula_units_Z   2
loop_
 _symmetry_equiv_pos_site_id
 _symmetry_equiv_pos_as_xyz
  1  'x, y, z'
loop_
 _atom_site_type_symbol
 _atom_site_label
 _atom_site_symmetry_multiplicity
 _atom_site_fract_x
 _atom_site_fract_y
 _atom_site_fract_z
 _atom_site_occupancy
  Dy  Dy0  1  0.185859  0.277904  0.463763  1
  Dy  Dy1  1  0.814141  0.722096  0.536237  1
  Dy  Dy2  1  0.185859  0.722096  0.907955  1
  Dy  Dy3  1  0.814141  0.277904  0.092045  1
  Dy  Dy4  1  0.319621  0.616499  0.296878  1
  Dy  Dy5  1  0.680379  0.383501  0.703122  1
  Dy  Dy6  1  0.319621  0.022745  0.703122  1
  Dy  Dy7  1  0.680379  0.977255  0.296878  1
  Er  Er8  1  0.442658  0.238349  0.204310  1
  Er  Er9  1  0.557342  0.761651  0.795690  1
  Er  Er10  1  0.034038  0.238349  0.795690  1
  Er  Er11  1  0.965962  0.761651  0.204310  1
  In  In12  1  0.500000  0.500000  0.000000  1
  In  In13  1  0.000000  0.000000  0.000000  1
  Si  Si14  1  0.368677  0.000000  0.368677  1
  Si  Si15  1  0.631323  0.000000  0.631323  1
  Si  Si16  1  0.115714  0.615714  0.500000  1
  Si  Si17  1  0.884286  0.384286  0.500000  1
