# generated using pymatgen
data_Al2Tl2As2O7
_symmetry_space_group_name_H-M   'P 1'
_cell_length_a   5.49728997
_cell_length_b   7.19946154
_cell_length_c   7.19946100
_cell_angle_alpha   93.19395197
_cell_angle_beta   112.44428399
_cell_angle_gamma   67.55572204
_symmetry_Int_Tables_number   1
_chemical_formula_structural   Al2Tl2As2O7
_chemical_formula_sum   'Al2 Tl2 As2 O7'
_cell_volume   242.04858946
_cell_formula_units_Z   1
loop_
 _symmetry_equiv_pos_site_id
 _symmetry_equiv_pos_as_xyz
  1  'x, y, z'
loop_
 _atom_site_type_symbol
 _atom_site_label
 _atom_site_symmetry_multiplicity
 _atom_site_fract_x
 _atom_site_fract_y
 _atom_site_fract_z
 _atom_site_occupancy
  Al  Al0  1  0.059269  0.104425  0.222964  1
  Al  Al1  1  0.059269  0.777036  0.895575  1
  Tl  Tl2  1  0.813906  0.686094  0.313907  1
  Tl  Tl3  1  0.655934  0.344066  0.655935  1
  As  As4  1  0.384383  0.322763  0.091531  1
  As  As5  1  0.384383  0.908468  0.677237  1
  O  O6  1  0.983733  0.016267  0.983734  1
  O  O7  1  0.258787  0.589224  0.106801  1
  O  O8  1  0.257434  0.261880  0.267386  1
  O  O9  1  0.748073  0.261880  0.267386  1
  O  O10  1  0.258787  0.893199  0.410777  1
  O  O11  1  0.257434  0.732615  0.738121  1
  O  O12  1  0.748073  0.732615  0.738121  1
