# generated using pymatgen
data_Tb4NdGdTa2O14
_symmetry_space_group_name_H-M   'P 1'
_cell_length_a   6.52187234
_cell_length_b   6.52187170
_cell_length_c   7.60457833
_cell_angle_alpha   90.02735275
_cell_angle_beta   89.97264242
_cell_angle_gamma   109.28379416
_symmetry_Int_Tables_number   1
_chemical_formula_structural   Tb4NdGdTa2O14
_chemical_formula_sum   'Tb4 Nd1 Gd1 Ta2 O14'
_cell_volume   305.31139720
_cell_formula_units_Z   1
loop_
 _symmetry_equiv_pos_site_id
 _symmetry_equiv_pos_as_xyz
  1  'x, y, z'
loop_
 _atom_site_type_symbol
 _atom_site_label
 _atom_site_symmetry_multiplicity
 _atom_site_fract_x
 _atom_site_fract_y
 _atom_site_fract_z
 _atom_site_occupancy
  Tb  Tb0  1  0.000275  0.534397  0.251611  1
  Tb  Tb1  1  0.999725  0.465603  0.748389  1
  Tb  Tb2  1  0.534397  0.000275  0.748389  1
  Tb  Tb3  1  0.465603  0.999725  0.251611  1
  Nd  Nd4  1  0.500000  0.500000  0.000000  1
  Gd  Gd5  1  0.500000  0.500000  0.500000  1
  Ta  Ta6  1  0.000000  0.000000  0.500000  1
  Ta  Ta7  1  0.000000  0.000000  0.000000  1
  O  O8  1  0.936616  0.063384  0.750212  1
  O  O9  1  0.063384  0.936616  0.249788  1
  O  O10  1  0.360306  0.639694  0.254223  1
  O  O11  1  0.639694  0.360306  0.745777  1
  O  O12  1  0.367091  0.632909  0.744924  1
  O  O13  1  0.632909  0.367091  0.255076  1
  O  O14  1  0.319734  0.068904  0.968327  1
  O  O15  1  0.680702  0.930439  0.468371  1
  O  O16  1  0.319298  0.069561  0.531629  1
  O  O17  1  0.680266  0.931096  0.031673  1
  O  O18  1  0.069561  0.319298  0.468371  1
  O  O19  1  0.931096  0.680266  0.968327  1
  O  O20  1  0.930439  0.680702  0.531629  1
  O  O21  1  0.068904  0.319734  0.031673  1
