# generated using pymatgen
data_Ac3La13(CdOs)4
_symmetry_space_group_name_H-M   'P 1'
_cell_length_a   10.17812678
_cell_length_b   10.17473094
_cell_length_c   10.17812700
_cell_angle_alpha   59.98895498
_cell_angle_beta   59.99999603
_cell_angle_gamma   59.98895631
_symmetry_Int_Tables_number   1
_chemical_formula_structural   Ac3La13(CdOs)4
_chemical_formula_sum   'Ac3 La13 Cd4 Os4'
_cell_volume   745.19704685
_cell_formula_units_Z   1
loop_
 _symmetry_equiv_pos_site_id
 _symmetry_equiv_pos_as_xyz
  1  'x, y, z'
loop_
 _atom_site_type_symbol
 _atom_site_label
 _atom_site_symmetry_multiplicity
 _atom_site_fract_x
 _atom_site_fract_y
 _atom_site_fract_z
 _atom_site_occupancy
  Ac  Ac0  1  0.943679  0.940740  0.557790  1
  Ac  Ac1  1  0.557790  0.940740  0.557790  1
  Ac  Ac2  1  0.557790  0.940740  0.943679  1
  La  La3  1  0.689712  0.686584  0.311852  1
  La  La4  1  0.154177  0.157108  0.534539  1
  La  La5  1  0.311852  0.686584  0.689712  1
  La  La6  1  0.154177  0.157108  0.154177  1
  La  La7  1  0.534539  0.157108  0.154177  1
  La  La8  1  0.311852  0.686584  0.311852  1
  La  La9  1  0.309634  0.314070  0.688148  1
  La  La10  1  0.688148  0.314070  0.688148  1
  La  La11  1  0.943267  0.555694  0.557772  1
  La  La12  1  0.557772  0.555694  0.943267  1
  La  La13  1  0.154711  0.535867  0.154711  1
  La  La14  1  0.688148  0.314070  0.309634  1
  La  La15  1  0.943267  0.555694  0.943267  1
  Cd  Cd16  1  0.234040  0.920645  0.922658  1
  Cd  Cd17  1  0.922658  0.920645  0.922658  1
  Cd  Cd18  1  0.922658  0.920645  0.234040  1
  Cd  Cd19  1  0.920924  0.237228  0.920924  1
  Os  Os20  1  0.912439  0.362857  0.362352  1
  Os  Os21  1  0.362352  0.362857  0.912439  1
  Os  Os22  1  0.362063  0.913811  0.362063  1
  Os  Os23  1  0.362352  0.362857  0.362352  1
