# generated using pymatgen
data_Yb20AgAu15
_symmetry_space_group_name_H-M   'P 1'
_cell_length_a   7.77070466
_cell_length_b   7.87952857
_cell_length_c   15.03995548
_cell_angle_alpha   90.02233033
_cell_angle_beta   89.54258589
_cell_angle_gamma   90.03871164
_symmetry_Int_Tables_number   1
_chemical_formula_structural   Yb20AgAu15
_chemical_formula_sum   'Yb20 Ag1 Au15'
_cell_volume   920.85916956
_cell_formula_units_Z   1
loop_
 _symmetry_equiv_pos_site_id
 _symmetry_equiv_pos_as_xyz
  1  'x, y, z'
loop_
 _atom_site_type_symbol
 _atom_site_label
 _atom_site_symmetry_multiplicity
 _atom_site_fract_x
 _atom_site_fract_y
 _atom_site_fract_z
 _atom_site_occupancy
  Yb  Yb0  1  0.001318  0.175866  0.401193  1
  Yb  Yb1  1  0.838074  0.667203  0.375911  1
  Yb  Yb2  1  0.503844  0.321393  0.096228  1
  Yb  Yb3  1  0.164875  0.334377  0.622721  1
  Yb  Yb4  1  0.340554  0.833810  0.377747  1
  Yb  Yb5  1  0.156591  0.337460  0.878885  1
  Yb  Yb6  1  0.345253  0.836502  0.121907  1
  Yb  Yb7  1  0.176734  0.492856  0.249881  1
  Yb  Yb8  1  0.494199  0.319378  0.403963  1
  Yb  Yb9  1  0.824015  0.507297  0.751357  1
  Yb  Yb10  1  0.995883  0.822131  0.904461  1
  Yb  Yb11  1  0.003699  0.823583  0.595874  1
  Yb  Yb12  1  0.497708  0.681750  0.597763  1
  Yb  Yb13  1  0.658617  0.160574  0.623687  1
  Yb  Yb14  1  0.321789  0.992266  0.751190  1
  Yb  Yb15  1  0.655984  0.162855  0.878680  1
  Yb  Yb16  1  0.677287  0.008263  0.249242  1
  Yb  Yb17  1  0.844606  0.662905  0.121671  1
  Yb  Yb18  1  0.496194  0.679441  0.904200  1
  Yb  Yb19  1  0.004724  0.178808  0.096581  1
  Ag  Ag20  1  0.822607  0.464065  0.540303  1
  Au  Au21  1  0.806808  0.361663  0.249799  1
  Au  Au22  1  0.460534  0.383470  0.750683  1
  Au  Au23  1  0.692938  0.860291  0.750200  1
  Au  Au24  1  0.685433  0.968818  0.043821  1
  Au  Au25  1  0.815457  0.470003  0.955861  1
  Au  Au26  1  0.171132  0.532041  0.457161  1
  Au  Au27  1  0.184690  0.531105  0.044547  1
  Au  Au28  1  0.191892  0.638772  0.750121  1
  Au  Au29  1  0.307310  0.139141  0.250001  1
  Au  Au30  1  0.540869  0.616377  0.249046  1
  Au  Au31  1  0.041576  0.882262  0.248884  1
  Au  Au32  1  0.315685  0.031853  0.956904  1
  Au  Au33  1  0.958642  0.119040  0.750357  1
  Au  Au34  1  0.677886  0.971758  0.455090  1
  Au  Au35  1  0.324590  0.030625  0.544078  1
