# generated using pymatgen
data_La6Ga2Tc
_symmetry_space_group_name_H-M   'P 1'
_cell_length_a   8.92769730
_cell_length_b   8.92769852
_cell_length_c   8.92769892
_cell_angle_alpha   105.24456992
_cell_angle_beta   111.36744262
_cell_angle_gamma   111.88299472
_symmetry_Int_Tables_number   1
_chemical_formula_structural   La6Ga2Tc
_chemical_formula_sum   'La12 Ga4 Tc2'
_cell_volume   545.54197459
_cell_formula_units_Z   2
loop_
 _symmetry_equiv_pos_site_id
 _symmetry_equiv_pos_as_xyz
  1  'x, y, z'
loop_
 _atom_site_type_symbol
 _atom_site_label
 _atom_site_symmetry_multiplicity
 _atom_site_fract_x
 _atom_site_fract_y
 _atom_site_fract_z
 _atom_site_occupancy
  La  La0  1  0.695401  0.262202  0.957603  1
  La  La1  1  0.304599  0.737798  0.042397  1
  La  La2  1  0.695401  0.737798  0.433199  1
  La  La3  1  0.304599  0.262202  0.566801  1
  La  La4  1  0.809556  0.151528  0.341973  1
  La  La5  1  0.809556  0.467583  0.658027  1
  La  La6  1  0.190444  0.848472  0.658027  1
  La  La7  1  0.190444  0.532417  0.341973  1
  La  La8  1  0.590645  0.768348  0.822296  1
  La  La9  1  0.946051  0.768348  0.177704  1
  La  La10  1  0.053949  0.231652  0.822296  1
  La  La11  1  0.409355  0.231652  0.177704  1
  Ga  Ga12  1  0.500000  0.500000  0.000000  1
  Ga  Ga13  1  0.500000  0.000000  0.500000  1
  Ga  Ga14  1  0.000000  0.119693  0.119693  1
  Ga  Ga15  1  0.000000  0.880307  0.880307  1
  Tc  Tc16  1  0.826895  0.500000  0.326895  1
  Tc  Tc17  1  0.173105  0.500000  0.673105  1
