# generated using pymatgen
data_K2Er2Zr3Se10
_symmetry_space_group_name_H-M   'P 1'
_cell_length_a   6.79625420
_cell_length_b   11.47529493
_cell_length_c   9.15832987
_cell_angle_alpha   59.72757815
_cell_angle_beta   68.37486351
_cell_angle_gamma   90.07202589
_symmetry_Int_Tables_number   1
_chemical_formula_structural   K2Er2Zr3Se10
_chemical_formula_sum   'K2 Er2 Zr3 Se10'
_cell_volume   557.65724351
_cell_formula_units_Z   1
loop_
 _symmetry_equiv_pos_site_id
 _symmetry_equiv_pos_as_xyz
  1  'x, y, z'
loop_
 _atom_site_type_symbol
 _atom_site_label
 _atom_site_symmetry_multiplicity
 _atom_site_fract_x
 _atom_site_fract_y
 _atom_site_fract_z
 _atom_site_occupancy
  K  K0  1  0.785293  0.073831  0.427527  1
  K  K1  1  0.011342  0.526280  0.974104  1
  Er  Er2  1  0.799327  0.601104  0.403267  1
  Er  Er3  1  0.202617  0.398586  0.593664  1
  Zr  Zr4  1  0.398659  0.797070  0.201255  1
  Zr  Zr5  1  0.600703  0.202502  0.804217  1
  Zr  Zr6  1  0.999713  0.999346  0.998168  1
  Se  Se7  1  0.003299  0.846750  0.341788  1
  Se  Se8  1  0.594829  0.036075  0.150568  1
  Se  Se9  1  0.189298  0.231091  0.959936  1
  Se  Se10  1  0.777296  0.428134  0.766966  1
  Se  Se11  1  0.383506  0.647215  0.544258  1
  Se  Se12  1  0.404436  0.964649  0.852272  1
  Se  Se13  1  0.996794  0.152139  0.657559  1
  Se  Se14  1  0.621100  0.350764  0.453736  1
  Se  Se15  1  0.224682  0.572963  0.231089  1
  Se  Se16  1  0.807105  0.771502  0.039625  1
