# generated using pymatgen
data_K8ScFe7P8(O4F)8
_symmetry_space_group_name_H-M   'P 1'
_cell_length_a   6.44680100
_cell_length_b   10.80440100
_cell_length_c   13.05242200
_cell_angle_alpha   90.00000000
_cell_angle_beta   90.00000000
_cell_angle_gamma   90.00000000
_symmetry_Int_Tables_number   1
_chemical_formula_structural   K8ScFe7P8(O4F)8
_chemical_formula_sum   'K8 Sc1 Fe7 P8 O32 F8'
_cell_volume   909.15109394
_cell_formula_units_Z   1
loop_
 _symmetry_equiv_pos_site_id
 _symmetry_equiv_pos_as_xyz
  1  'x, y, z'
loop_
 _atom_site_type_symbol
 _atom_site_label
 _atom_site_symmetry_multiplicity
 _atom_site_fract_x
 _atom_site_fract_y
 _atom_site_fract_z
 _atom_site_occupancy
  K  K0  1  0.772851  0.203119  0.375345  1
  K  K1  1  0.302615  0.943017  0.894552  1
  K  K2  1  0.802811  0.442785  0.605263  1
  K  K3  1  0.198408  0.944225  0.395845  1
  K  K4  1  0.697197  0.441723  0.104700  1
  K  K5  1  0.272295  0.703070  0.122678  1
  K  K6  1  0.727118  0.203224  0.875171  1
  K  K7  1  0.226751  0.703116  0.624906  1
  Sc  Sc8  1  0.751286  0.749260  0.253742  1
  Fe  Fe9  1  0.249052  0.248727  0.746851  1
  Fe  Fe10  1  0.749064  0.748685  0.752998  1
  Fe  Fe11  1  0.251044  0.248701  0.246722  1
  Fe  Fe12  1  0.492921  0.497741  0.389337  1
  Fe  Fe13  1  0.506694  0.999232  0.611843  1
  Fe  Fe14  1  0.006935  0.498944  0.888272  1
  Fe  Fe15  1  0.993587  0.000351  0.110565  1
  P  P16  1  0.000515  0.493373  0.317672  1
  P  P17  1  0.494819  0.998772  0.181906  1
  P  P18  1  0.501784  0.496058  0.817350  1
  P  P19  1  0.001987  0.996258  0.682731  1
  P  P20  1  0.170062  0.248235  0.999648  1
  P  P21  1  0.829591  0.748023  0.998018  1
  P  P22  1  0.329944  0.247329  0.500217  1
  P  P23  1  0.670580  0.747623  0.502717  1
  O  O24  1  0.307367  0.972738  0.110485  1
  O  O25  1  0.810423  0.023267  0.615145  1
  O  O26  1  0.310513  0.523123  0.885071  1
  O  O27  1  0.689491  0.022941  0.115823  1
  O  O28  1  0.035431  0.377649  0.248182  1
  O  O29  1  0.964618  0.881584  0.753199  1
  O  O30  1  0.463954  0.381113  0.747004  1
  O  O31  1  0.525746  0.884979  0.253288  1
  O  O32  1  0.518519  0.858494  0.515392  1
  O  O33  1  0.481890  0.358359  0.486431  1
  O  O34  1  0.980091  0.859288  0.013730  1
  O  O35  1  0.018972  0.359540  0.985809  1
  O  O36  1  0.808101  0.469131  0.386526  1
  O  O37  1  0.191972  0.969406  0.612942  1
  O  O38  1  0.692002  0.469114  0.887002  1
  O  O39  1  0.189879  0.520352  0.386600  1
  O  O40  1  0.530630  0.630975  0.488873  1
  O  O41  1  0.470943  0.130659  0.511395  1
  O  O42  1  0.971254  0.631642  0.987606  1
  O  O43  1  0.452075  0.110531  0.254152  1
  O  O44  1  0.811924  0.768487  0.409218  1
  O  O45  1  0.192830  0.267243  0.595875  1
  O  O46  1  0.693575  0.768098  0.902255  1
  O  O47  1  0.307418  0.267674  0.095196  1
  O  O48  1  0.691309  0.729103  0.093402  1
  O  O49  1  0.305989  0.229589  0.902920  1
  O  O50  1  0.804236  0.728424  0.599875  1
  O  O51  1  0.193909  0.229081  0.403619  1
  O  O52  1  0.959984  0.603122  0.243787  1
  O  O53  1  0.047938  0.107498  0.755337  1
  O  O54  1  0.547337  0.606969  0.744573  1
  O  O55  1  0.027952  0.131976  0.010713  1
  F  F56  1  0.987336  0.871458  0.227010  1
  F  F57  1  0.018850  0.368548  0.772334  1
  F  F58  1  0.518474  0.868906  0.727654  1
  F  F59  1  0.481256  0.368531  0.272651  1
  F  F60  1  0.025675  0.119783  0.230144  1
  F  F61  1  0.974486  0.619538  0.769707  1
  F  F62  1  0.474097  0.119913  0.730458  1
  F  F63  1  0.521642  0.616790  0.269562  1
