# generated using pymatgen
data_Tb4Ti3Nb3Si8
_symmetry_space_group_name_H-M   'P 1'
_cell_length_a   7.08026610
_cell_length_b   7.08070992
_cell_length_c   13.03235509
_cell_angle_alpha   90.09141575
_cell_angle_beta   89.99711185
_cell_angle_gamma   90.00898070
_symmetry_Int_Tables_number   1
_chemical_formula_structural   Tb4Ti3Nb3Si8
_chemical_formula_sum   'Tb8 Ti6 Nb6 Si16'
_cell_volume   653.35426230
_cell_formula_units_Z   2
loop_
 _symmetry_equiv_pos_site_id
 _symmetry_equiv_pos_as_xyz
  1  'x, y, z'
loop_
 _atom_site_type_symbol
 _atom_site_label
 _atom_site_symmetry_multiplicity
 _atom_site_fract_x
 _atom_site_fract_y
 _atom_site_fract_z
 _atom_site_occupancy
  Tb  Tb0  1  0.341306  0.001396  0.466356  1
  Tb  Tb1  1  0.498318  0.841373  0.716318  1
  Tb  Tb2  1  0.501792  0.157853  0.216810  1
  Tb  Tb3  1  0.840026  0.499035  0.283550  1
  Tb  Tb4  1  0.159183  0.501464  0.782890  1
  Tb  Tb5  1  0.658176  0.998021  0.966692  1
  Tb  Tb6  1  0.001040  0.340948  0.533057  1
  Tb  Tb7  1  0.998542  0.660394  0.033264  1
  Ti  Ti8  1  0.509309  0.347257  0.624613  1
  Ti  Ti9  1  0.653314  0.490441  0.875674  1
  Ti  Ti10  1  0.348186  0.508992  0.375923  1
  Ti  Ti11  1  0.847313  0.990533  0.374098  1
  Ti  Ti12  1  0.009068  0.151999  0.125692  1
  Ti  Ti13  1  0.990840  0.847227  0.626045  1
  Nb  Nb14  1  0.327671  0.327828  0.000263  1
  Nb  Nb15  1  0.172459  0.827651  0.250314  1
  Nb  Nb16  1  0.828448  0.172309  0.749994  1
  Nb  Nb17  1  0.672100  0.671705  0.500025  1
  Nb  Nb18  1  0.152182  0.009091  0.874420  1
  Nb  Nb19  1  0.490516  0.652404  0.123749  1
  Si  Si20  1  0.204960  0.130650  0.683011  1
  Si  Si21  1  0.369868  0.704200  0.932664  1
  Si  Si22  1  0.629824  0.296546  0.434412  1
  Si  Si23  1  0.705597  0.366950  0.066547  1
  Si  Si24  1  0.296341  0.630014  0.565520  1
  Si  Si25  1  0.797072  0.870628  0.184383  1
  Si  Si26  1  0.129868  0.203628  0.316149  1
  Si  Si27  1  0.867290  0.794767  0.815948  1
  Si  Si28  1  0.291057  0.954295  0.063990  1
  Si  Si29  1  0.546860  0.791844  0.314290  1
  Si  Si30  1  0.454199  0.210613  0.812665  1
  Si  Si31  1  0.791131  0.546039  0.686409  1
  Si  Si32  1  0.207195  0.451977  0.187292  1
  Si  Si33  1  0.709798  0.046556  0.563248  1
  Si  Si34  1  0.952633  0.293799  0.936734  1
  Si  Si35  1  0.046522  0.709571  0.436993  1
