# generated using pymatgen
data_Tb5YAl6Cr(FeO8)3
_symmetry_space_group_name_H-M   'P 1'
_cell_length_a   10.64815041
_cell_length_b   10.64743874
_cell_length_c   10.64777900
_cell_angle_alpha   109.47686414
_cell_angle_beta   109.47945939
_cell_angle_gamma   109.45748867
_symmetry_Int_Tables_number   1
_chemical_formula_structural   Tb5YAl6Cr(FeO8)3
_chemical_formula_sum   'Tb10 Y2 Al12 Cr2 Fe6 O48'
_cell_volume   929.29937529
_cell_formula_units_Z   2
loop_
 _symmetry_equiv_pos_site_id
 _symmetry_equiv_pos_as_xyz
  1  'x, y, z'
loop_
 _atom_site_type_symbol
 _atom_site_label
 _atom_site_symmetry_multiplicity
 _atom_site_fract_x
 _atom_site_fract_y
 _atom_site_fract_z
 _atom_site_occupancy
  Tb  Tb0  1  0.249988  0.374982  0.124981  1
  Tb  Tb1  1  0.375044  0.750231  0.125342  1
  Tb  Tb2  1  0.375143  0.125014  0.250310  1
  Tb  Tb3  1  0.875046  0.624752  0.249936  1
  Tb  Tb4  1  0.124958  0.250291  0.375183  1
  Tb  Tb5  1  0.749999  0.125129  0.375124  1
  Tb  Tb6  1  0.875017  0.749712  0.624887  1
  Tb  Tb7  1  0.250096  0.874933  0.624952  1
  Tb  Tb8  1  0.624848  0.874978  0.749678  1
  Tb  Tb9  1  0.124862  0.375159  0.749871  1
  Y  Y10  1  0.624982  0.249881  0.874709  1
  Y  Y11  1  0.750017  0.624943  0.875049  1
  Al  Al12  1  0.874969  0.250473  0.125310  1
  Al  Al13  1  0.750010  0.874767  0.124768  1
  Al  Al14  1  0.625394  0.375001  0.250248  1
  Al  Al15  1  0.125370  0.875123  0.250288  1
  Al  Al16  1  0.250012  0.625140  0.375145  1
  Al  Al17  1  0.624860  0.750348  0.375333  1
  Al  Al18  1  0.375364  0.249707  0.624847  1
  Al  Al19  1  0.749968  0.375002  0.625041  1
  Al  Al20  1  0.874602  0.124946  0.749693  1
  Al  Al21  1  0.374620  0.624915  0.749738  1
  Al  Al22  1  0.250042  0.125099  0.875060  1
  Al  Al23  1  0.124811  0.749487  0.874516  1
  Cr  Cr24  1  0.500123  0.000119  0.500179  1
  Cr  Cr25  1  0.999901  0.499980  0.499985  1
  Fe  Fe26  1  0.999973  0.999905  0.999952  1
  Fe  Fe27  1  0.499976  0.000039  0.999948  1
  Fe  Fe28  1  0.999892  0.500029  0.999923  1
  Fe  Fe29  1  0.500028  0.499894  0.999914  1
  Fe  Fe30  1  0.000038  0.999992  0.500001  1
  Fe  Fe31  1  0.500017  0.500012  0.500133  1
  O  O32  1  0.314972  0.900855  0.023398  1
  O  O33  1  0.208363  0.122616  0.023643  1
  O  O34  1  0.708444  0.684460  0.085265  1
  O  O35  1  0.876843  0.400866  0.085253  1
  O  O36  1  0.622643  0.414233  0.099188  1
  O  O37  1  0.976696  0.685078  0.099092  1
  O  O38  1  0.599012  0.914154  0.122575  1
  O  O39  1  0.023284  0.208279  0.122626  1
  O  O40  1  0.476624  0.599306  0.184891  1
  O  O41  1  0.208212  0.585763  0.184895  1
  O  O42  1  0.585761  0.184597  0.208496  1
  O  O43  1  0.122714  0.023519  0.208351  1
  O  O44  1  0.476772  0.377577  0.291776  1
  O  O45  1  0.316072  0.914839  0.292739  1
  O  O46  1  0.914689  0.292677  0.315972  1
  O  O47  1  0.901045  0.023647  0.315146  1
  O  O48  1  0.585228  0.901315  0.377916  1
  O  O49  1  0.291714  0.476609  0.377524  1
  O  O50  1  0.085870  0.877319  0.401152  1
  O  O51  1  0.815992  0.523397  0.401316  1
  O  O52  1  0.098949  0.622120  0.414785  1
  O  O53  1  0.814926  0.791510  0.413981  1
  O  O54  1  0.599033  0.184200  0.476875  1
  O  O55  1  0.377419  0.291617  0.476333  1
  O  O56  1  0.400995  0.815886  0.523177  1
  O  O57  1  0.622604  0.708349  0.523697  1
  O  O58  1  0.900939  0.377874  0.585149  1
  O  O59  1  0.185129  0.208440  0.585957  1
  O  O60  1  0.914251  0.122712  0.598881  1
  O  O61  1  0.183926  0.476600  0.598713  1
  O  O62  1  0.415244  0.098933  0.622660  1
  O  O63  1  0.708385  0.523730  0.623068  1
  O  O64  1  0.085254  0.707352  0.683952  1
  O  O65  1  0.098937  0.976252  0.684778  1
  O  O66  1  0.684042  0.085448  0.707447  1
  O  O67  1  0.523312  0.622334  0.708419  1
  O  O68  1  0.414232  0.815316  0.791498  1
  O  O69  1  0.877283  0.976563  0.791637  1
  O  O70  1  0.523777  0.400557  0.815315  1
  O  O71  1  0.791578  0.414556  0.815309  1
  O  O72  1  0.401130  0.085942  0.877380  1
  O  O73  1  0.976544  0.791593  0.877345  1
  O  O74  1  0.377309  0.585584  0.900752  1
  O  O75  1  0.023301  0.315040  0.900851  1
  O  O76  1  0.291604  0.315310  0.914244  1
  O  O77  1  0.122643  0.598889  0.914274  1
  O  O78  1  0.684804  0.099298  0.976245  1
  O  O79  1  0.791525  0.876896  0.976013  1
