# generated using pymatgen
data_Sc5Nb3Os8
_symmetry_space_group_name_H-M   'P 1'
_cell_length_a   6.40262000
_cell_length_b   4.54916800
_cell_length_c   9.08939400
_cell_angle_alpha   90.00000000
_cell_angle_beta   90.00008949
_cell_angle_gamma   90.00000000
_symmetry_Int_Tables_number   1
_chemical_formula_structural   Sc5Nb3Os8
_chemical_formula_sum   'Sc5 Nb3 Os8'
_cell_volume   264.74308893
_cell_formula_units_Z   1
loop_
 _symmetry_equiv_pos_site_id
 _symmetry_equiv_pos_as_xyz
  1  'x, y, z'
loop_
 _atom_site_type_symbol
 _atom_site_label
 _atom_site_symmetry_multiplicity
 _atom_site_fract_x
 _atom_site_fract_y
 _atom_site_fract_z
 _atom_site_occupancy
  Sc  Sc0  1  0.250000  0.250001  0.125003  1
  Sc  Sc1  1  0.749997  0.250001  0.124999  1
  Sc  Sc2  1  0.250003  0.749999  0.372684  1
  Sc  Sc3  1  0.750007  0.250001  0.625006  1
  Sc  Sc4  1  0.249997  0.749999  0.877303  1
  Nb  Nb5  1  0.750003  0.749999  0.373768  1
  Nb  Nb6  1  0.250004  0.250001  0.625002  1
  Nb  Nb7  1  0.749995  0.749999  0.876253  1
  Os  Os8  1  0.507028  0.749999  0.124996  1
  Os  Os9  1  0.992967  0.749999  0.124991  1
  Os  Os10  1  0.502961  0.250001  0.380195  1
  Os  Os11  1  0.997044  0.250001  0.380195  1
  Os  Os12  1  0.000497  0.749999  0.625001  1
  Os  Os13  1  0.499506  0.749999  0.625000  1
  Os  Os14  1  0.997043  0.250001  0.869803  1
  Os  Os15  1  0.502948  0.250001  0.869803  1
