# generated using pymatgen
data_Eu2CrSbF10
_symmetry_space_group_name_H-M   'P 1'
_cell_length_a   4.36333500
_cell_length_b   8.76270300
_cell_length_c   11.13578000
_cell_angle_alpha   90.00000000
_cell_angle_beta   90.00000000
_cell_angle_gamma   90.00000000
_symmetry_Int_Tables_number   1
_chemical_formula_structural   Eu2CrSbF10
_chemical_formula_sum   'Eu4 Cr2 Sb2 F20'
_cell_volume   425.77219081
_cell_formula_units_Z   2
loop_
 _symmetry_equiv_pos_site_id
 _symmetry_equiv_pos_as_xyz
  1  'x, y, z'
loop_
 _atom_site_type_symbol
 _atom_site_label
 _atom_site_symmetry_multiplicity
 _atom_site_fract_x
 _atom_site_fract_y
 _atom_site_fract_z
 _atom_site_occupancy
  Eu  Eu0  1  0.999942  0.250000  0.000000  1
  Eu  Eu1  1  0.000058  0.750000  0.500000  1
  Eu  Eu2  1  0.000058  0.750000  0.000000  1
  Eu  Eu3  1  0.999942  0.250000  0.500000  1
  Cr  Cr4  1  0.380565  0.056765  0.250000  1
  Cr  Cr5  1  0.380565  0.443235  0.750000  1
  Sb  Sb6  1  0.619435  0.556765  0.250000  1
  Sb  Sb7  1  0.619435  0.943235  0.750000  1
  F  F8  1  0.083826  0.986729  0.386557  1
  F  F9  1  0.083826  0.513271  0.613443  1
  F  F10  1  0.916174  0.486729  0.113443  1
  F  F11  1  0.916174  0.013271  0.886557  1
  F  F12  1  0.916174  0.013271  0.613443  1
  F  F13  1  0.916174  0.486729  0.386557  1
  F  F14  1  0.083826  0.513271  0.886557  1
  F  F15  1  0.083826  0.986729  0.113443  1
  F  F16  1  0.064147  0.214355  0.250000  1
  F  F17  1  0.064147  0.285645  0.750000  1
  F  F18  1  0.935853  0.714355  0.250000  1
  F  F19  1  0.935853  0.785645  0.750000  1
  F  F20  1  0.485578  0.702918  0.111168  1
  F  F21  1  0.485578  0.797082  0.888832  1
  F  F22  1  0.514422  0.202918  0.388832  1
  F  F23  1  0.514422  0.297082  0.611168  1
  F  F24  1  0.514422  0.297082  0.888832  1
  F  F25  1  0.514422  0.202918  0.111168  1
  F  F26  1  0.485578  0.797082  0.611168  1
  F  F27  1  0.485578  0.702918  0.388832  1
