# generated using pymatgen
data_DyHo3Cd3Ni2
_symmetry_space_group_name_H-M   'P 1'
_cell_length_a   3.62162900
_cell_length_b   7.40186493
_cell_length_c   8.03861044
_cell_angle_alpha   71.87606709
_cell_angle_beta   90.00000000
_cell_angle_gamma   90.00000000
_symmetry_Int_Tables_number   1
_chemical_formula_structural   DyHo3Cd3Ni2
_chemical_formula_sum   'Dy1 Ho3 Cd3 Ni2'
_cell_volume   204.79816973
_cell_formula_units_Z   1
loop_
 _symmetry_equiv_pos_site_id
 _symmetry_equiv_pos_as_xyz
  1  'x, y, z'
loop_
 _atom_site_type_symbol
 _atom_site_label
 _atom_site_symmetry_multiplicity
 _atom_site_fract_x
 _atom_site_fract_y
 _atom_site_fract_z
 _atom_site_occupancy
  Dy  Dy0  1  0.500000  0.606088  0.684050  1
  Ho  Ho1  1  0.500000  0.915451  0.219144  1
  Ho  Ho2  1  0.500000  0.084623  0.780635  1
  Ho  Ho3  1  0.500000  0.394311  0.316637  1
  Cd  Cd4  1  0.000000  0.703195  0.005611  1
  Cd  Cd5  1  0.000000  0.296340  0.995454  1
  Cd  Cd6  1  0.000000  0.000565  0.499555  1
  Ni  Ni7  1  0.000000  0.657314  0.390017  1
  Ni  Ni8  1  0.000000  0.342114  0.608896  1
