# generated using pymatgen
data_Tm8Hf5Si16W7
_symmetry_space_group_name_H-M   'P 1'
_cell_length_a   6.77904656
_cell_length_b   7.00032813
_cell_length_c   13.33215110
_cell_angle_alpha   89.94051620
_cell_angle_beta   90.06588723
_cell_angle_gamma   89.86848993
_symmetry_Int_Tables_number   1
_chemical_formula_structural   Tm8Hf5Si16W7
_chemical_formula_sum   'Tm8 Hf5 Si16 W7'
_cell_volume   632.68214071
_cell_formula_units_Z   1
loop_
 _symmetry_equiv_pos_site_id
 _symmetry_equiv_pos_as_xyz
  1  'x, y, z'
loop_
 _atom_site_type_symbol
 _atom_site_label
 _atom_site_symmetry_multiplicity
 _atom_site_fract_x
 _atom_site_fract_y
 _atom_site_fract_z
 _atom_site_occupancy
  Tm  Tm0  1  0.502422  0.672098  0.597683  1
  Tm  Tm1  1  0.002204  0.828212  0.906122  1
  Tm  Tm2  1  0.497576  0.326665  0.092771  1
  Tm  Tm3  1  0.996248  0.174063  0.404182  1
  Tm  Tm4  1  0.498062  0.328080  0.403416  1
  Tm  Tm5  1  0.996843  0.174574  0.094902  1
  Tm  Tm6  1  0.502557  0.673926  0.903623  1
  Tm  Tm7  1  0.002945  0.827812  0.596456  1
  Hf  Hf8  1  0.664850  0.173060  0.626224  1
  Hf  Hf9  1  0.163313  0.329841  0.875651  1
  Hf  Hf10  1  0.337312  0.829360  0.123154  1
  Hf  Hf11  1  0.834882  0.669198  0.374128  1
  Hf  Hf12  1  0.329772  0.825216  0.373733  1
  Si  Si13  1  0.665678  0.967321  0.456690  1
  Si  Si14  1  0.154944  0.534295  0.045765  1
  Si  Si15  1  0.345661  0.034577  0.953430  1
  Si  Si16  1  0.843895  0.465990  0.546612  1
  Si  Si17  1  0.327248  0.041710  0.544021  1
  Si  Si18  1  0.826976  0.461057  0.959638  1
  Si  Si19  1  0.673414  0.961867  0.039474  1
  Si  Si20  1  0.169097  0.531591  0.465654  1
  Si  Si21  1  0.466634  0.381664  0.752878  1
  Si  Si22  1  0.966945  0.117523  0.749761  1
  Si  Si23  1  0.537344  0.613200  0.247159  1
  Si  Si24  1  0.028403  0.880632  0.245166  1
  Si  Si25  1  0.703279  0.866624  0.750857  1
  Si  Si26  1  0.201688  0.635576  0.750429  1
  Si  Si27  1  0.294494  0.138646  0.249100  1
  Si  Si28  1  0.797702  0.363961  0.247656  1
  W  W29  1  0.826018  0.669295  0.122695  1
  W  W30  1  0.673277  0.170334  0.874334  1
  W  W31  1  0.169774  0.329298  0.630005  1
  W  W32  1  0.838537  0.493635  0.750975  1
  W  W33  1  0.339474  0.009358  0.751497  1
  W  W34  1  0.160439  0.505939  0.246962  1
  W  W35  1  0.660096  0.993805  0.247198  1
