# generated using pymatgen
data_Tm2Th3IrOs2
_symmetry_space_group_name_H-M   'P 1'
_cell_length_a   8.38579538
_cell_length_b   8.38579628
_cell_length_c   6.31109600
_cell_angle_alpha   90.00000000
_cell_angle_beta   90.00000000
_cell_angle_gamma   119.89707119
_symmetry_Int_Tables_number   1
_chemical_formula_structural   Tm2Th3IrOs2
_chemical_formula_sum   'Tm4 Th6 Ir2 Os4'
_cell_volume   384.74545180
_cell_formula_units_Z   2
loop_
 _symmetry_equiv_pos_site_id
 _symmetry_equiv_pos_as_xyz
  1  'x, y, z'
loop_
 _atom_site_type_symbol
 _atom_site_label
 _atom_site_symmetry_multiplicity
 _atom_site_fract_x
 _atom_site_fract_y
 _atom_site_fract_z
 _atom_site_occupancy
  Tm  Tm0  1  0.332476  0.667524  0.000000  1
  Tm  Tm1  1  0.667524  0.332476  0.000000  1
  Tm  Tm2  1  0.667524  0.332476  0.500000  1
  Tm  Tm3  1  0.332476  0.667524  0.500000  1
  Th  Th4  1  0.254506  0.996279  0.250000  1
  Th  Th5  1  0.745494  0.003721  0.750000  1
  Th  Th6  1  0.996279  0.254506  0.250000  1
  Th  Th7  1  0.003721  0.745494  0.750000  1
  Th  Th8  1  0.746074  0.746074  0.250000  1
  Th  Th9  1  0.253926  0.253926  0.750000  1
  Ir  Ir10  1  0.386000  0.386000  0.250000  1
  Ir  Ir11  1  0.614000  0.614000  0.750000  1
  Os  Os12  1  0.613549  0.998150  0.250000  1
  Os  Os13  1  0.386451  0.001850  0.750000  1
  Os  Os14  1  0.998150  0.613549  0.250000  1
  Os  Os15  1  0.001850  0.386451  0.750000  1
