# generated using pymatgen
data_Rb4SnSe4
_symmetry_space_group_name_H-M   'P 1'
_cell_length_a   8.76291900
_cell_length_b   10.77669200
_cell_length_c   15.46624000
_cell_angle_alpha   90.00000000
_cell_angle_beta   90.00000000
_cell_angle_gamma   90.00000000
_symmetry_Int_Tables_number   1
_chemical_formula_structural   Rb4SnSe4
_chemical_formula_sum   'Rb16 Sn4 Se16'
_cell_volume   1460.55869078
_cell_formula_units_Z   4
loop_
 _symmetry_equiv_pos_site_id
 _symmetry_equiv_pos_as_xyz
  1  'x, y, z'
loop_
 _atom_site_type_symbol
 _atom_site_label
 _atom_site_symmetry_multiplicity
 _atom_site_fract_x
 _atom_site_fract_y
 _atom_site_fract_z
 _atom_site_occupancy
  Rb  Rb0  1  0.000000  0.000000  0.000000  1
  Rb  Rb1  1  0.500000  0.000000  0.500000  1
  Rb  Rb2  1  0.000000  0.500000  0.000000  1
  Rb  Rb3  1  0.500000  0.500000  0.500000  1
  Rb  Rb4  1  0.986608  0.750000  0.423241  1
  Rb  Rb5  1  0.486608  0.250000  0.076759  1
  Rb  Rb6  1  0.013392  0.250000  0.576759  1
  Rb  Rb7  1  0.513392  0.750000  0.923241  1
  Rb  Rb8  1  0.842398  0.049803  0.272373  1
  Rb  Rb9  1  0.342398  0.950197  0.227627  1
  Rb  Rb10  1  0.157602  0.549803  0.727627  1
  Rb  Rb11  1  0.657602  0.450197  0.772373  1
  Rb  Rb12  1  0.157602  0.950197  0.727627  1
  Rb  Rb13  1  0.657602  0.049803  0.772373  1
  Rb  Rb14  1  0.842398  0.450197  0.272373  1
  Rb  Rb15  1  0.342398  0.549803  0.227627  1
  Sn  Sn16  1  0.761137  0.750000  0.665367  1
  Sn  Sn17  1  0.238863  0.250000  0.334633  1
  Sn  Sn18  1  0.738863  0.750000  0.165367  1
  Sn  Sn19  1  0.261137  0.250000  0.834633  1
  Se  Se20  1  0.966805  0.250000  0.827336  1
  Se  Se21  1  0.533195  0.250000  0.327336  1
  Se  Se22  1  0.466805  0.750000  0.672664  1
  Se  Se23  1  0.033195  0.750000  0.172664  1
  Se  Se24  1  0.646497  0.555920  0.086248  1
  Se  Se25  1  0.146497  0.444080  0.413752  1
  Se  Se26  1  0.353503  0.055920  0.913752  1
  Se  Se27  1  0.853503  0.944080  0.586248  1
  Se  Se28  1  0.353503  0.444080  0.913752  1
  Se  Se29  1  0.853503  0.555920  0.586248  1
  Se  Se30  1  0.646497  0.944080  0.086248  1
  Se  Se31  1  0.146497  0.055920  0.413752  1
  Se  Se32  1  0.626243  0.750000  0.320563  1
  Se  Se33  1  0.126243  0.250000  0.179437  1
  Se  Se34  1  0.373757  0.250000  0.679437  1
  Se  Se35  1  0.873757  0.750000  0.820563  1
