# generated using pymatgen
data_Ho16MgHg3Rh4
_symmetry_space_group_name_H-M   'P 1'
_cell_length_a   9.56965801
_cell_length_b   9.55866343
_cell_length_c   9.55866400
_cell_angle_alpha   59.99999804
_cell_angle_beta   60.03799608
_cell_angle_gamma   60.03799783
_symmetry_Int_Tables_number   1
_chemical_formula_structural   Ho16MgHg3Rh4
_chemical_formula_sum   'Ho16 Mg1 Hg3 Rh4'
_cell_volume   618.62143865
_cell_formula_units_Z   1
loop_
 _symmetry_equiv_pos_site_id
 _symmetry_equiv_pos_as_xyz
  1  'x, y, z'
loop_
 _atom_site_type_symbol
 _atom_site_label
 _atom_site_symmetry_multiplicity
 _atom_site_fract_x
 _atom_site_fract_y
 _atom_site_fract_z
 _atom_site_occupancy
  Ho  Ho0  1  0.810709  0.189430  0.189430  1
  Ho  Ho1  1  0.186388  0.812970  0.812970  1
  Ho  Ho2  1  0.186388  0.812970  0.187671  1
  Ho  Ho3  1  0.810709  0.189430  0.810432  1
  Ho  Ho4  1  0.186388  0.187671  0.812970  1
  Ho  Ho5  1  0.810709  0.810432  0.189430  1
  Ho  Ho6  1  0.933607  0.564512  0.564512  1
  Ho  Ho7  1  0.563508  0.936012  0.936012  1
  Ho  Ho8  1  0.563508  0.936012  0.564468  1
  Ho  Ho9  1  0.933607  0.564512  0.937369  1
  Ho  Ho10  1  0.563508  0.564468  0.936012  1
  Ho  Ho11  1  0.933607  0.937369  0.564512  1
  Ho  Ho12  1  0.351247  0.348912  0.348912  1
  Ho  Ho13  1  0.351247  0.348912  0.950929  1
  Ho  Ho14  1  0.351247  0.950929  0.348912  1
  Ho  Ho15  1  0.942910  0.352363  0.352363  1
  Mg  Mg16  1  0.280302  0.573233  0.573233  1
  Hg  Hg17  1  0.581130  0.585720  0.585720  1
  Hg  Hg18  1  0.581130  0.585720  0.247431  1
  Hg  Hg19  1  0.581130  0.247431  0.585720  1
  Rh  Rh20  1  0.141600  0.143655  0.143655  1
  Rh  Rh21  1  0.141600  0.143655  0.571090  1
  Rh  Rh22  1  0.141600  0.571090  0.143655  1
  Rh  Rh23  1  0.572224  0.142592  0.142592  1
