# generated using pymatgen
data_Sm2GdIrI3
_symmetry_space_group_name_H-M   'P 1'
_cell_length_a   4.28612900
_cell_length_b   8.99915875
_cell_length_c   12.47321200
_cell_angle_alpha   86.28237474
_cell_angle_beta   90.00000000
_cell_angle_gamma   90.00000000
_symmetry_Int_Tables_number   1
_chemical_formula_structural   Sm2GdIrI3
_chemical_formula_sum   'Sm4 Gd2 Ir2 I6'
_cell_volume   480.09879369
_cell_formula_units_Z   2
loop_
 _symmetry_equiv_pos_site_id
 _symmetry_equiv_pos_as_xyz
  1  'x, y, z'
loop_
 _atom_site_type_symbol
 _atom_site_label
 _atom_site_symmetry_multiplicity
 _atom_site_fract_x
 _atom_site_fract_y
 _atom_site_fract_z
 _atom_site_occupancy
  Sm  Sm0  1  0.750000  0.098166  0.679731  1
  Sm  Sm1  1  0.250000  0.901834  0.320269  1
  Sm  Sm2  1  0.250000  0.264349  0.897991  1
  Sm  Sm3  1  0.750000  0.735651  0.102009  1
  Gd  Gd4  1  0.750000  0.134491  0.127549  1
  Gd  Gd5  1  0.250000  0.865509  0.872451  1
  Ir  Ir6  1  0.750000  0.056679  0.905544  1
  Ir  Ir7  1  0.250000  0.943321  0.094456  1
  I  I8  1  0.250000  0.355615  0.638350  1
  I  I9  1  0.750000  0.644385  0.361650  1
  I  I10  1  0.750000  0.146865  0.391546  1
  I  I11  1  0.250000  0.853135  0.608454  1
  I  I12  1  0.250000  0.422691  0.134437  1
  I  I13  1  0.750000  0.577309  0.865563  1
