# generated using pymatgen
data_Tm2UAlGa2Ir3
_symmetry_space_group_name_H-M   'P 1'
_cell_length_a   7.10153446
_cell_length_b   7.29430300
_cell_length_c   3.83444200
_cell_angle_alpha   90.00000000
_cell_angle_beta   90.00000000
_cell_angle_gamma   121.04649956
_symmetry_Int_Tables_number   1
_chemical_formula_structural   Tm2UAlGa2Ir3
_chemical_formula_sum   'Tm2 U1 Al1 Ga2 Ir3'
_cell_volume   170.17344538
_cell_formula_units_Z   1
loop_
 _symmetry_equiv_pos_site_id
 _symmetry_equiv_pos_as_xyz
  1  'x, y, z'
loop_
 _atom_site_type_symbol
 _atom_site_label
 _atom_site_symmetry_multiplicity
 _atom_site_fract_x
 _atom_site_fract_y
 _atom_site_fract_z
 _atom_site_occupancy
  Tm  Tm0  1  0.404017  0.406560  0.500000  1
  Tm  Tm1  1  0.591382  0.004991  0.500000  1
  U  U2  1  0.002598  0.582623  0.500000  1
  Al  Al3  1  0.743869  0.752855  0.000000  1
  Ga  Ga4  1  0.261486  0.008762  0.000000  1
  Ga  Ga5  1  0.996133  0.234458  0.000000  1
  Ir  Ir6  1  0.697303  0.366805  0.000000  1
  Ir  Ir7  1  0.308844  0.663095  0.000000  1
  Ir  Ir8  1  0.994369  0.979847  0.500000  1
