# generated using pymatgen
data_Ta2TiSi2Mo
_symmetry_space_group_name_H-M   'P 1'
_cell_length_a   3.43513100
_cell_length_b   6.71328900
_cell_length_c   8.12646600
_cell_angle_alpha   90.00000000
_cell_angle_beta   90.00000000
_cell_angle_gamma   90.00000000
_symmetry_Int_Tables_number   1
_chemical_formula_structural   Ta2TiSi2Mo
_chemical_formula_sum   'Ta4 Ti2 Si4 Mo2'
_cell_volume   187.40465311
_cell_formula_units_Z   2
loop_
 _symmetry_equiv_pos_site_id
 _symmetry_equiv_pos_as_xyz
  1  'x, y, z'
loop_
 _atom_site_type_symbol
 _atom_site_label
 _atom_site_symmetry_multiplicity
 _atom_site_fract_x
 _atom_site_fract_y
 _atom_site_fract_z
 _atom_site_occupancy
  Ta  Ta0  1  0.250000  0.043122  0.334034  1
  Ta  Ta1  1  0.250000  0.543122  0.165966  1
  Ta  Ta2  1  0.750000  0.959451  0.664853  1
  Ta  Ta3  1  0.750000  0.459451  0.835147  1
  Ti  Ti4  1  0.250000  0.132979  0.936951  1
  Ti  Ti5  1  0.250000  0.632979  0.563049  1
  Si  Si6  1  0.250000  0.252980  0.641530  1
  Si  Si7  1  0.250000  0.752980  0.858470  1
  Si  Si8  1  0.750000  0.746866  0.360328  1
  Si  Si9  1  0.750000  0.246866  0.139672  1
  Mo  Mo10  1  0.750000  0.864603  0.062131  1
  Mo  Mo11  1  0.750000  0.364603  0.437869  1
