# generated using pymatgen
data_Lu4Ga4Co3Pt
_symmetry_space_group_name_H-M   'P 1'
_cell_length_a   4.16077400
_cell_length_b   6.60004109
_cell_length_c   7.59319440
_cell_angle_alpha   89.93220239
_cell_angle_beta   90.00000000
_cell_angle_gamma   90.00000000
_symmetry_Int_Tables_number   1
_chemical_formula_structural   Lu4Ga4Co3Pt
_chemical_formula_sum   'Lu4 Ga4 Co3 Pt1'
_cell_volume   208.51868688
_cell_formula_units_Z   1
loop_
 _symmetry_equiv_pos_site_id
 _symmetry_equiv_pos_as_xyz
  1  'x, y, z'
loop_
 _atom_site_type_symbol
 _atom_site_label
 _atom_site_symmetry_multiplicity
 _atom_site_fract_x
 _atom_site_fract_y
 _atom_site_fract_z
 _atom_site_occupancy
  Lu  Lu0  1  0.250000  0.965159  0.314124  1
  Lu  Lu1  1  0.250000  0.476298  0.177096  1
  Lu  Lu2  1  0.750000  0.021577  0.687236  1
  Lu  Lu3  1  0.750000  0.528223  0.818527  1
  Ga  Ga4  1  0.250000  0.357806  0.577195  1
  Ga  Ga5  1  0.250000  0.846743  0.935952  1
  Ga  Ga6  1  0.750000  0.663511  0.438014  1
  Ga  Ga7  1  0.750000  0.146341  0.052360  1
  Co  Co8  1  0.250000  0.227491  0.880762  1
  Co  Co9  1  0.250000  0.733447  0.619887  1
  Co  Co10  1  0.750000  0.766962  0.118430  1
  Pt  Pt11  1  0.750000  0.266441  0.380417  1
