# generated using pymatgen
data_Dy9Lu(Tl2Te)2
_symmetry_space_group_name_H-M   'P 1'
_cell_length_a   6.53429100
_cell_length_b   8.97301649
_cell_length_c   8.99897400
_cell_angle_alpha   120.15483012
_cell_angle_beta   90.00020167
_cell_angle_gamma   89.99824489
_symmetry_Int_Tables_number   1
_chemical_formula_structural   Dy9Lu(Tl2Te)2
_chemical_formula_sum   'Dy9 Lu1 Tl4 Te2'
_cell_volume   456.22688691
_cell_formula_units_Z   1
loop_
 _symmetry_equiv_pos_site_id
 _symmetry_equiv_pos_as_xyz
  1  'x, y, z'
loop_
 _atom_site_type_symbol
 _atom_site_label
 _atom_site_symmetry_multiplicity
 _atom_site_fract_x
 _atom_site_fract_y
 _atom_site_fract_z
 _atom_site_occupancy
  Dy  Dy0  1  0.497000  0.332349  0.669366  1
  Dy  Dy1  1  0.496908  0.667388  0.336360  1
  Dy  Dy2  1  0.003101  0.667323  0.336352  1
  Dy  Dy3  1  0.003121  0.332404  0.669389  1
  Dy  Dy4  1  0.749946  0.233651  0.992561  1
  Dy  Dy5  1  0.749947  0.767380  0.758930  1
  Dy  Dy6  1  0.749979  0.000405  0.236612  1
  Dy  Dy7  1  0.249888  0.764515  0.001635  1
  Dy  Dy8  1  0.249932  0.233743  0.235851  1
  Lu  Lu9  1  0.249944  0.999913  0.763284  1
  Tl  Tl10  1  0.750057  0.000512  0.597657  1
  Tl  Tl11  1  0.250129  0.393716  0.003030  1
  Tl  Tl12  1  0.250020  0.606310  0.608850  1
  Tl  Tl13  1  0.249916  0.000644  0.397762  1
  Te  Te14  1  0.750082  0.610277  0.002216  1
  Te  Te15  1  0.750034  0.389473  0.390145  1
