# generated using pymatgen
data_DyLu3Al14(Ga2Ir3)2
_symmetry_space_group_name_H-M   'P 1'
_cell_length_a   7.50965600
_cell_length_b   7.51313433
_cell_length_c   9.49447100
_cell_angle_alpha   90.00000000
_cell_angle_beta   90.00000000
_cell_angle_gamma   119.48561822
_symmetry_Int_Tables_number   1
_chemical_formula_structural   DyLu3Al14(Ga2Ir3)2
_chemical_formula_sum   'Dy1 Lu3 Al14 Ga4 Ir6'
_cell_volume   466.30535555
_cell_formula_units_Z   1
loop_
 _symmetry_equiv_pos_site_id
 _symmetry_equiv_pos_as_xyz
  1  'x, y, z'
loop_
 _atom_site_type_symbol
 _atom_site_label
 _atom_site_symmetry_multiplicity
 _atom_site_fract_x
 _atom_site_fract_y
 _atom_site_fract_z
 _atom_site_occupancy
  Dy  Dy0  1  0.994257  0.671441  0.250000  1
  Lu  Lu1  1  0.003835  0.324720  0.750000  1
  Lu  Lu2  1  0.671994  0.994292  0.250000  1
  Lu  Lu3  1  0.325052  0.004355  0.750000  1
  Al  Al4  1  0.002177  0.334805  0.072329  1
  Al  Al5  1  0.999779  0.664187  0.924128  1
  Al  Al6  1  0.999779  0.664187  0.575872  1
  Al  Al7  1  0.336364  0.002812  0.427629  1
  Al  Al8  1  0.002177  0.334805  0.427671  1
  Al  Al9  1  0.664216  0.999858  0.574833  1
  Al  Al10  1  0.664216  0.999858  0.925167  1
  Al  Al11  1  0.336364  0.002812  0.072371  1
  Al  Al12  1  0.333256  0.333348  0.561176  1
  Al  Al13  1  0.665792  0.666386  0.450198  1
  Al  Al14  1  0.665792  0.666386  0.049802  1
  Al  Al15  1  0.333256  0.333348  0.938824  1
  Al  Al16  1  0.662408  0.449139  0.750000  1
  Al  Al17  1  0.449102  0.662945  0.750000  1
  Ga  Ga18  1  0.129964  0.130481  0.250000  1
  Ga  Ga19  1  0.866192  0.866729  0.750000  1
  Ga  Ga20  1  0.341710  0.549767  0.250000  1
  Ga  Ga21  1  0.548406  0.339310  0.250000  1
  Ir  Ir22  1  0.672657  0.328193  0.997673  1
  Ir  Ir23  1  0.328443  0.672790  0.997708  1
  Ir  Ir24  1  0.328443  0.672790  0.502292  1
  Ir  Ir25  1  0.672657  0.328193  0.502327  1
  Ir  Ir26  1  0.000856  0.001029  0.999383  1
  Ir  Ir27  1  0.000856  0.001029  0.500617  1
