# generated using pymatgen
data_Cs2AgSe16
_symmetry_space_group_name_H-M   'P 1'
_cell_length_a   13.26554000
_cell_length_b   13.26554000
_cell_length_c   7.27831200
_cell_angle_alpha   90.00000000
_cell_angle_beta   90.00000000
_cell_angle_gamma   90.00000000
_symmetry_Int_Tables_number   1
_chemical_formula_structural   Cs2AgSe16
_chemical_formula_sum   'Cs4 Ag2 Se32'
_cell_volume   1280.79768982
_cell_formula_units_Z   2
loop_
 _symmetry_equiv_pos_site_id
 _symmetry_equiv_pos_as_xyz
  1  'x, y, z'
loop_
 _atom_site_type_symbol
 _atom_site_label
 _atom_site_symmetry_multiplicity
 _atom_site_fract_x
 _atom_site_fract_y
 _atom_site_fract_z
 _atom_site_occupancy
  Cs  Cs0  1  0.500000  0.000000  0.000000  1
  Cs  Cs1  1  0.000000  0.500000  0.000000  1
  Cs  Cs2  1  0.500000  0.500000  0.500000  1
  Cs  Cs3  1  0.000000  0.000000  0.500000  1
  Ag  Ag4  1  0.000000  0.000000  0.000000  1
  Ag  Ag5  1  0.500000  0.500000  0.000000  1
  Se  Se6  1  0.186956  0.424613  0.584084  1
  Se  Se7  1  0.813044  0.575387  0.584084  1
  Se  Se8  1  0.575387  0.186956  0.415916  1
  Se  Se9  1  0.424613  0.813044  0.415916  1
  Se  Se10  1  0.313044  0.924613  0.584084  1
  Se  Se11  1  0.075387  0.313044  0.415916  1
  Se  Se12  1  0.807498  0.961611  0.957019  1
  Se  Se13  1  0.038389  0.807498  0.042981  1
  Se  Se14  1  0.961611  0.192502  0.042981  1
  Se  Se15  1  0.192502  0.038389  0.957019  1
  Se  Se16  1  0.538389  0.692502  0.042981  1
  Se  Se17  1  0.461611  0.307498  0.042981  1
  Se  Se18  1  0.692502  0.461611  0.957019  1
  Se  Se19  1  0.307498  0.538389  0.957019  1
  Se  Se20  1  0.789354  0.205789  0.124390  1
  Se  Se21  1  0.794211  0.789354  0.875610  1
  Se  Se22  1  0.205789  0.210646  0.875610  1
  Se  Se23  1  0.210646  0.794211  0.124390  1
  Se  Se24  1  0.294211  0.710646  0.875610  1
  Se  Se25  1  0.705789  0.289354  0.875610  1
  Se  Se26  1  0.710646  0.705789  0.124390  1
  Se  Se27  1  0.289354  0.294211  0.124390  1
  Se  Se28  1  0.921045  0.312046  0.585021  1
  Se  Se29  1  0.687954  0.921045  0.414979  1
  Se  Se30  1  0.312046  0.078955  0.414979  1
  Se  Se31  1  0.078955  0.687954  0.585021  1
  Se  Se32  1  0.187954  0.578955  0.414979  1
  Se  Se33  1  0.812046  0.421045  0.414979  1
  Se  Se34  1  0.578955  0.812046  0.585021  1
  Se  Se35  1  0.421045  0.187954  0.585021  1
  Se  Se36  1  0.686956  0.075387  0.584084  1
  Se  Se37  1  0.924613  0.686956  0.415916  1
