# generated using pymatgen
data_Ho6Er6InCo6
_symmetry_space_group_name_H-M   'P 1'
_cell_length_a   8.29906170
_cell_length_b   8.30211279
_cell_length_c   8.29906153
_cell_angle_alpha   109.47004705
_cell_angle_beta   109.50319951
_cell_angle_gamma   109.42554565
_symmetry_Int_Tables_number   1
_chemical_formula_structural   Ho6Er6InCo6
_chemical_formula_sum   'Ho6 Er6 In1 Co6'
_cell_volume   440.25494049
_cell_formula_units_Z   1
loop_
 _symmetry_equiv_pos_site_id
 _symmetry_equiv_pos_as_xyz
  1  'x, y, z'
loop_
 _atom_site_type_symbol
 _atom_site_label
 _atom_site_symmetry_multiplicity
 _atom_site_fract_x
 _atom_site_fract_y
 _atom_site_fract_z
 _atom_site_occupancy
  Ho  Ho0  1  0.697889  0.891309  0.193420  1
  Ho  Ho1  1  0.302111  0.108691  0.806580  1
  Ho  Ho2  1  0.504715  0.806220  0.698118  1
  Ho  Ho3  1  0.495285  0.193780  0.301882  1
  Ho  Ho4  1  0.108102  0.806220  0.301503  1
  Ho  Ho5  1  0.891898  0.193780  0.698497  1
  Er  Er6  1  0.806515  0.697394  0.504033  1
  Er  Er7  1  0.193485  0.302606  0.495967  1
  Er  Er8  1  0.193361  0.697394  0.890880  1
  Er  Er9  1  0.806639  0.302606  0.109120  1
  Er  Er10  1  0.697505  0.504340  0.806836  1
  Er  Er11  1  0.302495  0.495660  0.193164  1
  In  In12  1  0.000000  0.000000  0.000000  1
  Co  Co13  1  0.886448  0.386466  0.500018  1
  Co  Co14  1  0.113552  0.613534  0.499982  1
  Co  Co15  1  0.386183  0.500000  0.886183  1
  Co  Co16  1  0.613817  0.500000  0.113817  1
  Co  Co17  1  0.499876  0.886093  0.386218  1
  Co  Co18  1  0.500124  0.113907  0.613782  1
