# generated using pymatgen
data_Zr6Si6Tc5Ir
_symmetry_space_group_name_H-M   'P 1'
_cell_length_a   7.76365037
_cell_length_b   7.79358917
_cell_length_c   7.76376664
_cell_angle_alpha   126.75492460
_cell_angle_beta   126.73727967
_cell_angle_gamma   78.57479339
_symmetry_Int_Tables_number   1
_chemical_formula_structural   Zr6Si6Tc5Ir
_chemical_formula_sum   'Zr6 Si6 Tc5 Ir1'
_cell_volume   292.12466167
_cell_formula_units_Z   1
loop_
 _symmetry_equiv_pos_site_id
 _symmetry_equiv_pos_as_xyz
  1  'x, y, z'
loop_
 _atom_site_type_symbol
 _atom_site_label
 _atom_site_symmetry_multiplicity
 _atom_site_fract_x
 _atom_site_fract_y
 _atom_site_fract_z
 _atom_site_occupancy
  Zr  Zr0  1  0.450117  0.661163  0.706377  1
  Zr  Zr1  1  0.546933  0.253259  0.202999  1
  Zr  Zr2  1  0.750307  0.845393  0.598760  1
  Zr  Zr3  1  0.246743  0.845572  0.095068  1
  Zr  Zr4  1  0.050435  0.253292  0.706147  1
  Zr  Zr5  1  0.954680  0.661118  0.211023  1
  Si  Si6  1  0.248910  0.253329  0.499273  1
  Si  Si7  1  0.753813  0.253288  0.004742  1
  Si  Si8  1  0.333046  0.586028  0.252755  1
  Si  Si9  1  0.666479  0.920186  0.253805  1
  Si  Si10  1  0.166313  0.921740  0.755220  1
  Si  Si11  1  0.832054  0.585235  0.753322  1
  Tc  Tc12  1  0.500690  0.503435  0.002656  1
  Tc  Tc13  1  0.999077  0.503860  0.504809  1
  Tc  Tc14  1  0.125501  0.253339  0.127015  1
  Tc  Tc15  1  0.873870  0.001783  0.128061  1
  Tc  Tc16  1  0.375864  0.004183  0.628269  1
  Ir  Ir17  1  0.625169  0.253400  0.629305  1
