# generated using pymatgen
data_Ho20Ir8RuRh3
_symmetry_space_group_name_H-M   'P 1'
_cell_length_a   10.80851500
_cell_length_b   10.80851500
_cell_length_c   6.39109400
_cell_angle_alpha   90.00000000
_cell_angle_beta   90.00000000
_cell_angle_gamma   90.00000000
_symmetry_Int_Tables_number   1
_chemical_formula_structural   Ho20Ir8RuRh3
_chemical_formula_sum   'Ho20 Ir8 Ru1 Rh3'
_cell_volume   746.63314312
_cell_formula_units_Z   1
loop_
 _symmetry_equiv_pos_site_id
 _symmetry_equiv_pos_as_xyz
  1  'x, y, z'
loop_
 _atom_site_type_symbol
 _atom_site_label
 _atom_site_symmetry_multiplicity
 _atom_site_fract_x
 _atom_site_fract_y
 _atom_site_fract_z
 _atom_site_occupancy
  Ho  Ho0  1  0.292080  0.087443  0.376352  1
  Ho  Ho1  1  0.292545  0.912601  0.880608  1
  Ho  Ho2  1  0.707455  0.087399  0.880608  1
  Ho  Ho3  1  0.707920  0.912557  0.376352  1
  Ho  Ho4  1  0.587399  0.792545  0.880608  1
  Ho  Ho5  1  0.587443  0.207920  0.376352  1
  Ho  Ho6  1  0.412557  0.792080  0.376352  1
  Ho  Ho7  1  0.412601  0.207455  0.880608  1
  Ho  Ho8  1  0.209613  0.411392  0.621588  1
  Ho  Ho9  1  0.209567  0.588359  0.121216  1
  Ho  Ho10  1  0.790433  0.411641  0.121216  1
  Ho  Ho11  1  0.790387  0.588608  0.621588  1
  Ho  Ho12  1  0.911641  0.709567  0.121216  1
  Ho  Ho13  1  0.911392  0.290387  0.621588  1
  Ho  Ho14  1  0.088608  0.709613  0.621588  1
  Ho  Ho15  1  0.088359  0.290433  0.121216  1
  Ho  Ho16  1  0.000000  0.000000  0.499216  1
  Ho  Ho17  1  0.000000  0.000000  0.999232  1
  Ho  Ho18  1  0.500000  0.500000  0.999232  1
  Ho  Ho19  1  0.500000  0.500000  0.499216  1
  Ir  Ir20  1  0.847044  0.154258  0.250282  1
  Ir  Ir21  1  0.847062  0.846172  0.749867  1
  Ir  Ir22  1  0.152938  0.153828  0.749867  1
  Ir  Ir23  1  0.152956  0.845742  0.250282  1
  Ir  Ir24  1  0.653828  0.347062  0.749867  1
  Ir  Ir25  1  0.654258  0.652956  0.250282  1
  Ir  Ir26  1  0.345742  0.347044  0.250282  1
  Ir  Ir27  1  0.346172  0.652938  0.749867  1
  Ru  Ru28  1  0.500000  0.000000  0.123794  1
  Rh  Rh29  1  0.500000  0.000000  0.622681  1
  Rh  Rh30  1  0.000000  0.500000  0.878395  1
  Rh  Rh31  1  0.000000  0.500000  0.378590  1
