# generated using pymatgen
data_HoOs3Pb4O13
_symmetry_space_group_name_H-M   'P 1'
_cell_length_a   7.60930670
_cell_length_b   7.60930614
_cell_length_c   7.60930508
_cell_angle_alpha   58.50739644
_cell_angle_beta   58.50740222
_cell_angle_gamma   58.50739862
_symmetry_Int_Tables_number   1
_chemical_formula_structural   HoOs3Pb4O13
_chemical_formula_sum   'Ho1 Os3 Pb4 O13'
_cell_volume   300.90744136
_cell_formula_units_Z   1
loop_
 _symmetry_equiv_pos_site_id
 _symmetry_equiv_pos_as_xyz
  1  'x, y, z'
loop_
 _atom_site_type_symbol
 _atom_site_label
 _atom_site_symmetry_multiplicity
 _atom_site_fract_x
 _atom_site_fract_y
 _atom_site_fract_z
 _atom_site_occupancy
  Ho  Ho0  1  0.501632  0.501632  0.501632  1
  Os  Os1  1  0.000591  0.501349  0.501349  1
  Os  Os2  1  0.501349  0.501349  0.000591  1
  Os  Os3  1  0.501349  0.000591  0.501349  1
  Pb  Pb4  1  0.998057  0.998057  0.998057  1
  Pb  Pb5  1  0.502488  0.004140  0.004140  1
  Pb  Pb6  1  0.004140  0.004140  0.502488  1
  Pb  Pb7  1  0.004140  0.502488  0.004140  1
  O  O8  1  0.868077  0.407670  0.407670  1
  O  O9  1  0.423139  0.801957  0.801957  1
  O  O10  1  0.407670  0.407670  0.868077  1
  O  O11  1  0.801957  0.801957  0.423139  1
  O  O12  1  0.801957  0.423139  0.801957  1
  O  O13  1  0.407670  0.868077  0.407670  1
  O  O14  1  0.143885  0.584268  0.584268  1
  O  O15  1  0.585906  0.191809  0.191809  1
  O  O16  1  0.584268  0.584268  0.143885  1
  O  O17  1  0.191809  0.191809  0.585906  1
  O  O18  1  0.191809  0.585906  0.191809  1
  O  O19  1  0.584268  0.143885  0.584268  1
  O  O20  1  0.118837  0.118837  0.118837  1
