# generated using pymatgen
data_TbNd2In4Te
_symmetry_space_group_name_H-M   'P 1'
_cell_length_a   8.54292091
_cell_length_b   8.54292081
_cell_length_c   8.54292210
_cell_angle_alpha   119.18486778
_cell_angle_beta   119.18486293
_cell_angle_gamma   91.41775608
_symmetry_Int_Tables_number   1
_chemical_formula_structural   TbNd2In4Te
_chemical_formula_sum   'Tb2 Nd4 In8 Te2'
_cell_volume   446.14750063
_cell_formula_units_Z   2
loop_
 _symmetry_equiv_pos_site_id
 _symmetry_equiv_pos_as_xyz
  1  'x, y, z'
loop_
 _atom_site_type_symbol
 _atom_site_label
 _atom_site_symmetry_multiplicity
 _atom_site_fract_x
 _atom_site_fract_y
 _atom_site_fract_z
 _atom_site_occupancy
  Tb  Tb0  1  0.750000  0.750000  0.000000  1
  Tb  Tb1  1  0.250000  0.250000  0.000000  1
  Nd  Nd2  1  0.659457  0.159457  0.818914  1
  Nd  Nd3  1  0.340543  0.840543  0.181086  1
  Nd  Nd4  1  0.159457  0.340543  0.500000  1
  Nd  Nd5  1  0.840543  0.659457  0.500000  1
  In  In6  1  0.332869  0.832869  0.792345  1
  In  In7  1  0.667131  0.167131  0.207655  1
  In  In8  1  0.040522  0.540522  0.207655  1
  In  In9  1  0.832869  0.040522  0.500000  1
  In  In10  1  0.459478  0.667131  0.500000  1
  In  In11  1  0.959478  0.459478  0.792345  1
  In  In12  1  0.167131  0.959478  0.500000  1
  In  In13  1  0.540522  0.332869  0.500000  1
  Te  Te14  1  0.500000  0.500000  0.000000  1
  Te  Te15  1  0.000000  0.000000  0.000000  1
