# generated using pymatgen
data_ScCd3As(PN2)6
_symmetry_space_group_name_H-M   'P 1'
_cell_length_a   7.43620475
_cell_length_b   7.43620454
_cell_length_c   7.43620546
_cell_angle_alpha   109.56057053
_cell_angle_beta   109.56056563
_cell_angle_gamma   109.56055496
_symmetry_Int_Tables_number   1
_chemical_formula_structural   ScCd3As(PN2)6
_chemical_formula_sum   'Sc1 Cd3 As1 P6 N12'
_cell_volume   315.49117763
_cell_formula_units_Z   1
loop_
 _symmetry_equiv_pos_site_id
 _symmetry_equiv_pos_as_xyz
  1  'x, y, z'
loop_
 _atom_site_type_symbol
 _atom_site_label
 _atom_site_symmetry_multiplicity
 _atom_site_fract_x
 _atom_site_fract_y
 _atom_site_fract_z
 _atom_site_occupancy
  Sc  Sc0  1  0.380069  0.380069  0.380069  1
  Cd  Cd1  1  0.999312  0.669841  0.999312  1
  Cd  Cd2  1  0.669841  0.999312  0.999312  1
  Cd  Cd3  1  0.999312  0.999312  0.669841  1
  As  As4  1  0.027934  0.027934  0.027934  1
  P  P5  1  0.496086  0.246326  0.747263  1
  P  P6  1  0.496086  0.747263  0.246326  1
  P  P7  1  0.747263  0.246326  0.496086  1
  P  P8  1  0.246326  0.496086  0.747263  1
  P  P9  1  0.747263  0.496086  0.246326  1
  P  P10  1  0.246326  0.747263  0.496086  1
  N  N11  1  0.997101  0.707357  0.420973  1
  N  N12  1  0.281235  0.689423  0.281235  1
  N  N13  1  0.290450  0.575490  0.575490  1
  N  N14  1  0.575490  0.575490  0.290450  1
  N  N15  1  0.575490  0.290450  0.575490  1
  N  N16  1  0.707357  0.997101  0.420973  1
  N  N17  1  0.420973  0.997101  0.707357  1
  N  N18  1  0.707357  0.420973  0.997101  1
  N  N19  1  0.281235  0.281235  0.689423  1
  N  N20  1  0.689423  0.281235  0.281235  1
  N  N21  1  0.997101  0.420973  0.707357  1
  N  N22  1  0.420973  0.707357  0.997101  1
