# generated using pymatgen
data_Th10Sn7Au
_symmetry_space_group_name_H-M   'P 1'
_cell_length_a   9.63126200
_cell_length_b   9.63126101
_cell_length_c   6.63699200
_cell_angle_alpha   90.00000000
_cell_angle_beta   90.00000000
_cell_angle_gamma   119.99999652
_symmetry_Int_Tables_number   1
_chemical_formula_structural   Th10Sn7Au
_chemical_formula_sum   'Th10 Sn7 Au1'
_cell_volume   533.17317479
_cell_formula_units_Z   1
loop_
 _symmetry_equiv_pos_site_id
 _symmetry_equiv_pos_as_xyz
  1  'x, y, z'
loop_
 _atom_site_type_symbol
 _atom_site_label
 _atom_site_symmetry_multiplicity
 _atom_site_fract_x
 _atom_site_fract_y
 _atom_site_fract_z
 _atom_site_occupancy
  Th  Th0  1  0.000000  0.724636  0.750076  1
  Th  Th1  1  0.275364  0.275364  0.750076  1
  Th  Th2  1  0.333333  0.666667  0.500000  1
  Th  Th3  1  0.666667  0.333333  0.500000  1
  Th  Th4  1  0.724636  0.724636  0.249924  1
  Th  Th5  1  0.724636  0.000000  0.750076  1
  Th  Th6  1  0.000000  0.275364  0.249924  1
  Th  Th7  1  0.275364  0.000000  0.249924  1
  Th  Th8  1  0.333333  0.666667  0.000000  1
  Th  Th9  1  0.666667  0.333333  0.000000  1
  Sn  Sn10  1  0.620884  0.620884  0.749677  1
  Sn  Sn11  1  0.000000  0.379116  0.749677  1
  Sn  Sn12  1  0.379116  0.000000  0.749677  1
  Sn  Sn13  1  0.620884  0.000000  0.250323  1
  Sn  Sn14  1  0.379116  0.379116  0.250323  1
  Sn  Sn15  1  0.000000  0.620884  0.250323  1
  Sn  Sn16  1  0.000000  0.000000  0.500000  1
  Au  Au17  1  0.000000  0.000000  0.000000  1
