# generated using pymatgen
data_YHoTm2(Si3Rh)2
_symmetry_space_group_name_H-M   'P 1'
_cell_length_a   8.15370927
_cell_length_b   8.15370787
_cell_length_c   7.83137400
_cell_angle_alpha   90.00000000
_cell_angle_beta   90.00000000
_cell_angle_gamma   119.97047856
_symmetry_Int_Tables_number   1
_chemical_formula_structural   YHoTm2(Si3Rh)2
_chemical_formula_sum   'Y2 Ho2 Tm4 Si12 Rh4'
_cell_volume   451.03275485
_cell_formula_units_Z   2
loop_
 _symmetry_equiv_pos_site_id
 _symmetry_equiv_pos_as_xyz
  1  'x, y, z'
loop_
 _atom_site_type_symbol
 _atom_site_label
 _atom_site_symmetry_multiplicity
 _atom_site_fract_x
 _atom_site_fract_y
 _atom_site_fract_z
 _atom_site_occupancy
  Y  Y0  1  0.000079  0.999921  0.250000  1
  Y  Y1  1  0.999925  0.000075  0.750000  1
  Ho  Ho2  1  0.491028  0.981804  0.750000  1
  Ho  Ho3  1  0.018196  0.508972  0.750000  1
  Tm  Tm4  1  0.509027  0.490973  0.250000  1
  Tm  Tm5  1  0.509007  0.018073  0.250000  1
  Tm  Tm6  1  0.981927  0.490993  0.250000  1
  Tm  Tm7  1  0.491152  0.508848  0.750000  1
  Si  Si8  1  0.167242  0.832758  0.499132  1
  Si  Si9  1  0.167532  0.334658  0.499550  1
  Si  Si10  1  0.665342  0.832468  0.499550  1
  Si  Si11  1  0.832718  0.167282  0.499593  1
  Si  Si12  1  0.832581  0.665398  0.499705  1
  Si  Si13  1  0.334602  0.167419  0.499705  1
  Si  Si14  1  0.832718  0.167282  0.000407  1
  Si  Si15  1  0.832581  0.665398  0.000295  1
  Si  Si16  1  0.334602  0.167419  0.000295  1
  Si  Si17  1  0.167242  0.832758  0.000868  1
  Si  Si18  1  0.167532  0.334658  0.000450  1
  Si  Si19  1  0.665342  0.832468  0.000450  1
  Rh  Rh20  1  0.333547  0.666453  0.464273  1
  Rh  Rh21  1  0.666266  0.333734  0.532954  1
  Rh  Rh22  1  0.666266  0.333734  0.967046  1
  Rh  Rh23  1  0.333547  0.666453  0.035727  1
