# generated using pymatgen
data_NdHoTh3Ge3C
_symmetry_space_group_name_H-M   'P 1'
_cell_length_a   8.87471200
_cell_length_b   8.87471110
_cell_length_c   6.46101800
_cell_angle_alpha   90.00000000
_cell_angle_beta   90.00000000
_cell_angle_gamma   120.00000337
_symmetry_Int_Tables_number   1
_chemical_formula_structural   NdHoTh3Ge3C
_chemical_formula_sum   'Nd2 Ho2 Th6 Ge6 C2'
_cell_volume   440.69696578
_cell_formula_units_Z   2
loop_
 _symmetry_equiv_pos_site_id
 _symmetry_equiv_pos_as_xyz
  1  'x, y, z'
loop_
 _atom_site_type_symbol
 _atom_site_label
 _atom_site_symmetry_multiplicity
 _atom_site_fract_x
 _atom_site_fract_y
 _atom_site_fract_z
 _atom_site_occupancy
  Nd  Nd0  1  0.666667  0.333333  0.000000  1
  Nd  Nd1  1  0.333333  0.666667  0.000000  1
  Ho  Ho2  1  0.333333  0.666667  0.500000  1
  Ho  Ho3  1  0.666667  0.333333  0.500000  1
  Th  Th4  1  0.770313  0.770313  0.748776  1
  Th  Th5  1  0.229687  0.000000  0.748776  1
  Th  Th6  1  0.000000  0.229687  0.748776  1
  Th  Th7  1  0.229687  0.229687  0.251224  1
  Th  Th8  1  0.770313  0.000000  0.251224  1
  Th  Th9  1  0.000000  0.770313  0.251224  1
  Ge  Ge10  1  0.401223  0.401223  0.739517  1
  Ge  Ge11  1  0.598777  0.000000  0.739517  1
  Ge  Ge12  1  0.000000  0.598777  0.739517  1
  Ge  Ge13  1  0.598777  0.598777  0.260483  1
  Ge  Ge14  1  0.401223  0.000000  0.260483  1
  Ge  Ge15  1  0.000000  0.401223  0.260483  1
  C  C16  1  0.000000  0.000000  0.000000  1
  C  C17  1  0.000000  0.000000  0.500000  1
