# generated using pymatgen
data_AcBePt4
_symmetry_space_group_name_H-M   'P 1'
_cell_length_a   5.54956700
_cell_length_b   5.54956675
_cell_length_c   8.10826200
_cell_angle_alpha   90.00000000
_cell_angle_beta   90.00000000
_cell_angle_gamma   119.99999554
_symmetry_Int_Tables_number   1
_chemical_formula_structural   AcBePt4
_chemical_formula_sum   'Ac2 Be2 Pt8'
_cell_volume   216.26020135
_cell_formula_units_Z   2
loop_
 _symmetry_equiv_pos_site_id
 _symmetry_equiv_pos_as_xyz
  1  'x, y, z'
loop_
 _atom_site_type_symbol
 _atom_site_label
 _atom_site_symmetry_multiplicity
 _atom_site_fract_x
 _atom_site_fract_y
 _atom_site_fract_z
 _atom_site_occupancy
  Ac  Ac0  1  0.000000  0.000000  0.500000  1
  Ac  Ac1  1  0.000000  0.000000  0.000000  1
  Be  Be2  1  0.333333  0.666667  0.000000  1
  Be  Be3  1  0.666667  0.333333  0.000000  1
  Pt  Pt4  1  0.333333  0.666667  0.500000  1
  Pt  Pt5  1  0.666667  0.333333  0.500000  1
  Pt  Pt6  1  0.500000  0.000000  0.214935  1
  Pt  Pt7  1  0.500000  0.000000  0.785065  1
  Pt  Pt8  1  0.000000  0.500000  0.214935  1
  Pt  Pt9  1  0.000000  0.500000  0.785065  1
  Pt  Pt10  1  0.500000  0.500000  0.214935  1
  Pt  Pt11  1  0.500000  0.500000  0.785065  1
