# generated using pymatgen
data_LaYb(CdBi2)2
_symmetry_space_group_name_H-M   'P 1'
_cell_length_a   10.86171091
_cell_length_b   10.86171067
_cell_length_c   10.86171053
_cell_angle_alpha   154.49724137
_cell_angle_beta   154.49723486
_cell_angle_gamma   36.37727891
_symmetry_Int_Tables_number   1
_chemical_formula_structural   LaYb(CdBi2)2
_chemical_formula_sum   'La1 Yb1 Cd2 Bi4'
_cell_volume   237.23616844
_cell_formula_units_Z   1
loop_
 _symmetry_equiv_pos_site_id
 _symmetry_equiv_pos_as_xyz
  1  'x, y, z'
loop_
 _atom_site_type_symbol
 _atom_site_label
 _atom_site_symmetry_multiplicity
 _atom_site_fract_x
 _atom_site_fract_y
 _atom_site_fract_z
 _atom_site_occupancy
  La  La0  1  0.118863  0.118863  0.000000  1
  Yb  Yb1  1  0.883702  0.883702  0.000000  1
  Cd  Cd2  1  0.751748  0.251748  0.500000  1
  Cd  Cd3  1  0.251748  0.751748  0.500000  1
  Bi  Bi4  1  0.646917  0.646917  0.000000  1
  Bi  Bi5  1  0.998919  0.498919  0.500000  1
  Bi  Bi6  1  0.349184  0.349184  0.000000  1
  Bi  Bi7  1  0.498919  0.998919  0.500000  1
