# generated using pymatgen
data_TiNb6InSe12
_symmetry_space_group_name_H-M   'P 1'
_cell_length_a   6.06409100
_cell_length_b   6.06409311
_cell_length_c   14.50455600
_cell_angle_alpha   90.00000000
_cell_angle_beta   90.00000000
_cell_angle_gamma   119.99999397
_symmetry_Int_Tables_number   1
_chemical_formula_structural   TiNb6InSe12
_chemical_formula_sum   'Ti1 Nb6 In1 Se12'
_cell_volume   461.91989494
_cell_formula_units_Z   1
loop_
 _symmetry_equiv_pos_site_id
 _symmetry_equiv_pos_as_xyz
  1  'x, y, z'
loop_
 _atom_site_type_symbol
 _atom_site_label
 _atom_site_symmetry_multiplicity
 _atom_site_fract_x
 _atom_site_fract_y
 _atom_site_fract_z
 _atom_site_occupancy
  Ti  Ti0  1  0.666667  0.333333  0.750000  1
  Nb  Nb1  1  0.000000  0.000000  0.528863  1
  Nb  Nb2  1  0.000000  0.000000  0.971137  1
  Nb  Nb3  1  0.333333  0.666667  0.970974  1
  Nb  Nb4  1  0.666667  0.333333  0.970336  1
  Nb  Nb5  1  0.666667  0.333333  0.529664  1
  Nb  Nb6  1  0.333333  0.666667  0.529026  1
  In  In7  1  0.333333  0.666667  0.250000  1
  Se  Se8  1  0.333596  0.332863  0.413786  1
  Se  Se9  1  0.667137  0.000734  0.413786  1
  Se  Se10  1  0.999266  0.666404  0.413786  1
  Se  Se11  1  0.328709  0.332752  0.644930  1
  Se  Se12  1  0.004044  0.671291  0.644930  1
  Se  Se13  1  0.667248  0.995956  0.644930  1
  Se  Se14  1  0.667248  0.671291  0.855070  1
  Se  Se15  1  0.328709  0.995956  0.855070  1
  Se  Se16  1  0.004044  0.332752  0.855070  1
  Se  Se17  1  0.667137  0.666404  0.086214  1
  Se  Se18  1  0.999266  0.332863  0.086214  1
  Se  Se19  1  0.333596  0.000734  0.086214  1
