# generated using pymatgen
data_SrPrPd10
_symmetry_space_group_name_H-M   'P 1'
_cell_length_a   4.48046800
_cell_length_b   5.44684100
_cell_length_c   9.36301200
_cell_angle_alpha   90.00000000
_cell_angle_beta   90.00000000
_cell_angle_gamma   90.00000000
_symmetry_Int_Tables_number   1
_chemical_formula_structural   SrPrPd10
_chemical_formula_sum   'Sr1 Pr1 Pd10'
_cell_volume   228.49866011
_cell_formula_units_Z   1
loop_
 _symmetry_equiv_pos_site_id
 _symmetry_equiv_pos_as_xyz
  1  'x, y, z'
loop_
 _atom_site_type_symbol
 _atom_site_label
 _atom_site_symmetry_multiplicity
 _atom_site_fract_x
 _atom_site_fract_y
 _atom_site_fract_z
 _atom_site_occupancy
  Sr  Sr0  1  0.000000  0.000000  0.000000  1
  Pr  Pr1  1  0.000000  0.500000  0.500000  1
  Pd  Pd2  1  0.000000  0.000000  0.337615  1
  Pd  Pd3  1  0.000000  0.500000  0.826544  1
  Pd  Pd4  1  0.000000  0.500000  0.173456  1
  Pd  Pd5  1  0.000000  0.000000  0.662385  1
  Pd  Pd6  1  0.500000  0.500000  0.000000  1
  Pd  Pd7  1  0.500000  0.000000  0.500000  1
  Pd  Pd8  1  0.500000  0.251864  0.253517  1
  Pd  Pd9  1  0.500000  0.748136  0.746483  1
  Pd  Pd10  1  0.500000  0.748136  0.253517  1
  Pd  Pd11  1  0.500000  0.251864  0.746483  1
