# generated using pymatgen
data_K2Rb4TbLuF12
_symmetry_space_group_name_H-M   'P 1'
_cell_length_a   6.72462768
_cell_length_b   6.54766086
_cell_length_c   11.36680416
_cell_angle_alpha   55.12374394
_cell_angle_beta   89.98434356
_cell_angle_gamma   89.95087432
_symmetry_Int_Tables_number   1
_chemical_formula_structural   K2Rb4TbLuF12
_chemical_formula_sum   'K2 Rb4 Tb1 Lu1 F12'
_cell_volume   410.59381538
_cell_formula_units_Z   1
loop_
 _symmetry_equiv_pos_site_id
 _symmetry_equiv_pos_as_xyz
  1  'x, y, z'
loop_
 _atom_site_type_symbol
 _atom_site_label
 _atom_site_symmetry_multiplicity
 _atom_site_fract_x
 _atom_site_fract_y
 _atom_site_fract_z
 _atom_site_occupancy
  K  K0  1  0.500000  0.500000  0.000000  1
  K  K1  1  0.000000  0.500000  0.500000  1
  Rb  Rb2  1  0.043653  0.734586  0.753580  1
  Rb  Rb3  1  0.956347  0.265414  0.246420  1
  Rb  Rb4  1  0.544458  0.262728  0.749090  1
  Rb  Rb5  1  0.455542  0.737272  0.250910  1
  Tb  Tb6  1  0.500000  0.000000  0.500000  1
  Lu  Lu7  1  0.000000  0.000000  0.000000  1
  F  F8  1  0.766435  0.764758  0.554388  1
  F  F9  1  0.233565  0.235242  0.445612  1
  F  F10  1  0.257995  0.228230  0.947542  1
  F  F11  1  0.742005  0.771770  0.052458  1
  F  F12  1  0.461894  0.861519  0.727006  1
  F  F13  1  0.538106  0.138481  0.272994  1
  F  F14  1  0.963165  0.133946  0.780236  1
  F  F15  1  0.036835  0.866054  0.219764  1
  F  F16  1  0.314878  0.689014  0.539318  1
  F  F17  1  0.685122  0.310986  0.460682  1
  F  F18  1  0.819525  0.300842  0.962110  1
  F  F19  1  0.180475  0.699158  0.037890  1
