# generated using pymatgen
data_Tb3Er5Cd2IrPt
_symmetry_space_group_name_H-M   'P 1'
_cell_length_a   9.61667767
_cell_length_b   9.61667744
_cell_length_c   9.59780400
_cell_angle_alpha   60.06490022
_cell_angle_beta   60.06490099
_cell_angle_gamma   60.19110573
_symmetry_Int_Tables_number   1
_chemical_formula_structural   Tb3Er5Cd2IrPt
_chemical_formula_sum   'Tb6 Er10 Cd4 Ir2 Pt2'
_cell_volume   629.15387384
_cell_formula_units_Z   2
loop_
 _symmetry_equiv_pos_site_id
 _symmetry_equiv_pos_as_xyz
  1  'x, y, z'
loop_
 _atom_site_type_symbol
 _atom_site_label
 _atom_site_symmetry_multiplicity
 _atom_site_fract_x
 _atom_site_fract_y
 _atom_site_fract_z
 _atom_site_occupancy
  Tb  Tb0  1  0.188479  0.813205  0.810922  1
  Tb  Tb1  1  0.813205  0.188479  0.187394  1
  Tb  Tb2  1  0.813205  0.188479  0.810922  1
  Tb  Tb3  1  0.188479  0.813205  0.187394  1
  Tb  Tb4  1  0.812204  0.812204  0.187796  1
  Tb  Tb5  1  0.187944  0.187944  0.812056  1
  Er  Er6  1  0.600498  0.600498  0.596245  1
  Er  Er7  1  0.600498  0.600498  0.202761  1
  Er  Er8  1  0.604999  0.196457  0.599273  1
  Er  Er9  1  0.196457  0.604999  0.599273  1
  Er  Er10  1  0.057551  0.438688  0.440255  1
  Er  Er11  1  0.438688  0.057551  0.063506  1
  Er  Er12  1  0.438688  0.057551  0.440255  1
  Er  Er13  1  0.057551  0.438688  0.063506  1
  Er  Er14  1  0.440417  0.440417  0.059583  1
  Er  Er15  1  0.061819  0.061819  0.438181  1
  Cd  Cd16  1  0.830973  0.830973  0.830683  1
  Cd  Cd17  1  0.830973  0.830973  0.507372  1
  Cd  Cd18  1  0.830832  0.507001  0.831084  1
  Cd  Cd19  1  0.507001  0.830832  0.831084  1
  Ir  Ir20  1  0.391509  0.823602  0.392445  1
  Ir  Ir21  1  0.823602  0.391509  0.392445  1
  Pt  Pt22  1  0.392216  0.392216  0.393776  1
  Pt  Pt23  1  0.392216  0.392216  0.821792  1
