# generated using pymatgen
data_Sr2Ga2Pt5
_symmetry_space_group_name_H-M   'P 1'
_cell_length_a   13.08318603
_cell_length_b   13.08318599
_cell_length_c   13.08318724
_cell_angle_alpha   24.91702146
_cell_angle_beta   24.91702275
_cell_angle_gamma   24.91702238
_symmetry_Int_Tables_number   1
_chemical_formula_structural   Sr2Ga2Pt5
_chemical_formula_sum   'Sr4 Ga4 Pt10'
_cell_volume   349.66461296
_cell_formula_units_Z   2
loop_
 _symmetry_equiv_pos_site_id
 _symmetry_equiv_pos_as_xyz
  1  'x, y, z'
loop_
 _atom_site_type_symbol
 _atom_site_label
 _atom_site_symmetry_multiplicity
 _atom_site_fract_x
 _atom_site_fract_y
 _atom_site_fract_z
 _atom_site_occupancy
  Sr  Sr0  1  0.949087  0.949087  0.949087  1
  Sr  Sr1  1  0.050913  0.050913  0.050913  1
  Sr  Sr2  1  0.850899  0.850899  0.850899  1
  Sr  Sr3  1  0.149101  0.149101  0.149101  1
  Ga  Ga4  1  0.720737  0.720737  0.720737  1
  Ga  Ga5  1  0.279263  0.279263  0.279263  1
  Ga  Ga6  1  0.613281  0.613281  0.613281  1
  Ga  Ga7  1  0.386719  0.386719  0.386719  1
  Pt  Pt8  1  0.500000  0.500000  0.500000  1
  Pt  Pt9  1  0.500000  0.500000  0.000000  1
  Pt  Pt10  1  0.000000  0.500000  0.500000  1
  Pt  Pt11  1  0.500000  0.000000  0.500000  1
  Pt  Pt12  1  0.394401  0.892029  0.394401  1
  Pt  Pt13  1  0.394401  0.394401  0.892029  1
  Pt  Pt14  1  0.892029  0.394401  0.394401  1
  Pt  Pt15  1  0.605599  0.107971  0.605599  1
  Pt  Pt16  1  0.605599  0.605599  0.107971  1
  Pt  Pt17  1  0.107971  0.605599  0.605599  1
