# generated using pymatgen
data_SrYb3As2O
_symmetry_space_group_name_H-M   'P 1'
_cell_length_a   8.56495067
_cell_length_b   8.56495072
_cell_length_c   8.56495075
_cell_angle_alpha   149.17833209
_cell_angle_beta   149.17833135
_cell_angle_gamma   44.14887698
_symmetry_Int_Tables_number   1
_chemical_formula_structural   SrYb3As2O
_chemical_formula_sum   'Sr1 Yb3 As2 O1'
_cell_volume   164.46774748
_cell_formula_units_Z   1
loop_
 _symmetry_equiv_pos_site_id
 _symmetry_equiv_pos_as_xyz
  1  'x, y, z'
loop_
 _atom_site_type_symbol
 _atom_site_label
 _atom_site_symmetry_multiplicity
 _atom_site_fract_x
 _atom_site_fract_y
 _atom_site_fract_z
 _atom_site_occupancy
  Sr  Sr0  1  0.322635  0.322635  0.000000  1
  Yb  Yb1  1  0.662714  0.662714  0.000000  1
  Yb  Yb2  1  0.501519  0.001519  0.500000  1
  Yb  Yb3  1  0.001519  0.501519  0.500000  1
  As  As4  1  0.865473  0.865473  0.000000  1
  As  As5  1  0.130905  0.130905  0.000000  1
  O  O6  1  0.515236  0.515236  0.000000  1
