# generated using pymatgen
data_Tb2HoCoI3
_symmetry_space_group_name_H-M   'P 1'
_cell_length_a   4.10839600
_cell_length_b   8.86598958
_cell_length_c   12.19683900
_cell_angle_alpha   86.15960871
_cell_angle_beta   90.00000000
_cell_angle_gamma   90.00000000
_symmetry_Int_Tables_number   1
_chemical_formula_structural   Tb2HoCoI3
_chemical_formula_sum   'Tb4 Ho2 Co2 I6'
_cell_volume   443.27220544
_cell_formula_units_Z   2
loop_
 _symmetry_equiv_pos_site_id
 _symmetry_equiv_pos_as_xyz
  1  'x, y, z'
loop_
 _atom_site_type_symbol
 _atom_site_label
 _atom_site_symmetry_multiplicity
 _atom_site_fract_x
 _atom_site_fract_y
 _atom_site_fract_z
 _atom_site_occupancy
  Tb  Tb0  1  0.750000  0.096654  0.686342  1
  Tb  Tb1  1  0.250000  0.903346  0.313658  1
  Tb  Tb2  1  0.250000  0.256329  0.899187  1
  Tb  Tb3  1  0.750000  0.743671  0.100813  1
  Ho  Ho4  1  0.750000  0.129042  0.123236  1
  Ho  Ho5  1  0.250000  0.870958  0.876764  1
  Co  Co6  1  0.750000  0.052626  0.909387  1
  Co  Co7  1  0.250000  0.947374  0.090613  1
  I  I8  1  0.250000  0.355703  0.637042  1
  I  I9  1  0.750000  0.644297  0.362958  1
  I  I10  1  0.750000  0.145353  0.390668  1
  I  I11  1  0.250000  0.854647  0.609332  1
  I  I12  1  0.250000  0.421124  0.133946  1
  I  I13  1  0.750000  0.578876  0.866054  1
