# generated using pymatgen
data_Sc10AgGePb6
_symmetry_space_group_name_H-M   'P 1'
_cell_length_a   8.78558500
_cell_length_b   8.78558543
_cell_length_c   6.31946200
_cell_angle_alpha   90.00000000
_cell_angle_beta   90.00000000
_cell_angle_gamma   120.00000216
_symmetry_Int_Tables_number   1
_chemical_formula_structural   Sc10AgGePb6
_chemical_formula_sum   'Sc10 Ag1 Ge1 Pb6'
_cell_volume   422.42743848
_cell_formula_units_Z   1
loop_
 _symmetry_equiv_pos_site_id
 _symmetry_equiv_pos_as_xyz
  1  'x, y, z'
loop_
 _atom_site_type_symbol
 _atom_site_label
 _atom_site_symmetry_multiplicity
 _atom_site_fract_x
 _atom_site_fract_y
 _atom_site_fract_z
 _atom_site_occupancy
  Sc  Sc0  1  0.259908  0.000000  0.729105  1
  Sc  Sc1  1  0.740092  0.000000  0.270895  1
  Sc  Sc2  1  0.000000  0.259908  0.729105  1
  Sc  Sc3  1  0.000000  0.740092  0.270895  1
  Sc  Sc4  1  0.740092  0.740092  0.729105  1
  Sc  Sc5  1  0.259908  0.259908  0.270895  1
  Sc  Sc6  1  0.333333  0.666667  0.500000  1
  Sc  Sc7  1  0.666667  0.333333  0.500000  1
  Sc  Sc8  1  0.666667  0.333333  0.000000  1
  Sc  Sc9  1  0.333333  0.666667  0.000000  1
  Ag  Ag10  1  0.000000  0.000000  0.000000  1
  Ge  Ge11  1  0.000000  0.000000  0.500000  1
  Pb  Pb12  1  0.609330  0.000000  0.752034  1
  Pb  Pb13  1  0.390670  0.000000  0.247966  1
  Pb  Pb14  1  0.000000  0.609330  0.752034  1
  Pb  Pb15  1  0.000000  0.390670  0.247966  1
  Pb  Pb16  1  0.390670  0.390670  0.752034  1
  Pb  Pb17  1  0.609330  0.609330  0.247966  1
