# generated using pymatgen
data_Ba20Si3Bi8P
_symmetry_space_group_name_H-M   'P 1'
_cell_length_a   14.35918124
_cell_length_b   10.60252100
_cell_length_c   9.15845199
_cell_angle_alpha   90.00000000
_cell_angle_beta   89.67902183
_cell_angle_gamma   90.00000000
_symmetry_Int_Tables_number   1
_chemical_formula_structural   Ba20Si3Bi8P
_chemical_formula_sum   'Ba20 Si3 Bi8 P1'
_cell_volume   1394.29309460
_cell_formula_units_Z   1
loop_
 _symmetry_equiv_pos_site_id
 _symmetry_equiv_pos_as_xyz
  1  'x, y, z'
loop_
 _atom_site_type_symbol
 _atom_site_label
 _atom_site_symmetry_multiplicity
 _atom_site_fract_x
 _atom_site_fract_y
 _atom_site_fract_z
 _atom_site_occupancy
  Ba  Ba0  1  0.073111  0.528509  0.818877  1
  Ba  Ba1  1  0.573917  0.969747  0.680722  1
  Ba  Ba2  1  0.926221  0.028493  0.181104  1
  Ba  Ba3  1  0.426522  0.474160  0.319800  1
  Ba  Ba4  1  0.926221  0.471507  0.181104  1
  Ba  Ba5  1  0.426522  0.025840  0.319800  1
  Ba  Ba6  1  0.073111  0.971491  0.818877  1
  Ba  Ba7  1  0.573917  0.530253  0.680722  1
  Ba  Ba8  1  0.000263  0.750000  0.442288  1
  Ba  Ba9  1  0.499570  0.750000  0.059877  1
  Ba  Ba10  1  0.999928  0.250000  0.558150  1
  Ba  Ba11  1  0.499593  0.250000  0.941972  1
  Ba  Ba12  1  0.210967  0.750000  0.164516  1
  Ba  Ba13  1  0.712490  0.750000  0.332341  1
  Ba  Ba14  1  0.786163  0.250000  0.832371  1
  Ba  Ba15  1  0.285569  0.250000  0.669051  1
  Ba  Ba16  1  0.303049  0.750000  0.641913  1
  Ba  Ba17  1  0.800658  0.750000  0.856627  1
  Ba  Ba18  1  0.699803  0.250000  0.355112  1
  Ba  Ba19  1  0.199188  0.250000  0.144651  1
  Si  Si20  1  0.988361  0.750000  0.062325  1
  Si  Si21  1  0.511371  0.250000  0.559182  1
  Si  Si22  1  0.011936  0.250000  0.937811  1
  Bi  Bi23  1  0.332648  0.508540  0.936750  1
  Bi  Bi24  1  0.829459  0.992728  0.562218  1
  Bi  Bi25  1  0.667348  0.005297  0.063626  1
  Bi  Bi26  1  0.171407  0.494929  0.437645  1
  Bi  Bi27  1  0.667348  0.494703  0.063626  1
  Bi  Bi28  1  0.171407  0.005071  0.437645  1
  Bi  Bi29  1  0.332648  0.991460  0.936750  1
  Bi  Bi30  1  0.829459  0.507272  0.562218  1
  P  P31  1  0.489829  0.750000  0.440328  1
