# generated using pymatgen
data_Sc8Ti3Nb4Si16W5
_symmetry_space_group_name_H-M   'P 1'
_cell_length_a   6.61306447
_cell_length_b   6.81377658
_cell_length_c   12.95986201
_cell_angle_alpha   89.94827896
_cell_angle_beta   90.07965429
_cell_angle_gamma   89.98693767
_symmetry_Int_Tables_number   1
_chemical_formula_structural   Sc8Ti3Nb4Si16W5
_chemical_formula_sum   'Sc8 Ti3 Nb4 Si16 W5'
_cell_volume   583.96983628
_cell_formula_units_Z   1
loop_
 _symmetry_equiv_pos_site_id
 _symmetry_equiv_pos_as_xyz
  1  'x, y, z'
loop_
 _atom_site_type_symbol
 _atom_site_label
 _atom_site_symmetry_multiplicity
 _atom_site_fract_x
 _atom_site_fract_y
 _atom_site_fract_z
 _atom_site_occupancy
  Sc  Sc0  1  0.498541  0.672817  0.593844  1
  Sc  Sc1  1  0.999591  0.826634  0.905148  1
  Sc  Sc2  1  0.500754  0.325982  0.093786  1
  Sc  Sc3  1  0.000769  0.174819  0.407415  1
  Sc  Sc4  1  0.502178  0.325834  0.406330  1
  Sc  Sc5  1  0.999897  0.175131  0.093144  1
  Sc  Sc6  1  0.499360  0.674483  0.905760  1
  Sc  Sc7  1  0.999683  0.825084  0.593510  1
  Ti  Ti8  1  0.664948  0.168995  0.625724  1
  Ti  Ti9  1  0.166858  0.330112  0.873087  1
  Ti  Ti10  1  0.332916  0.829971  0.126177  1
  Nb  Nb11  1  0.834087  0.667840  0.375484  1
  Nb  Nb12  1  0.332851  0.830548  0.375904  1
  Nb  Nb13  1  0.832890  0.668840  0.125471  1
  Nb  Nb14  1  0.666831  0.170004  0.872850  1
  Si  Si15  1  0.670199  0.967252  0.460444  1
  Si  Si16  1  0.171597  0.535506  0.039917  1
  Si  Si17  1  0.328615  0.035494  0.959222  1
  Si  Si18  1  0.832096  0.460931  0.543575  1
  Si  Si19  1  0.330265  0.038774  0.543532  1
  Si  Si20  1  0.834087  0.464956  0.957510  1
  Si  Si21  1  0.665706  0.965331  0.041762  1
  Si  Si22  1  0.170117  0.533703  0.461149  1
  Si  Si23  1  0.464662  0.387653  0.748839  1
  Si  Si24  1  0.967430  0.114199  0.748368  1
  Si  Si25  1  0.532094  0.612066  0.249265  1
  Si  Si26  1  0.034020  0.889124  0.249419  1
  Si  Si27  1  0.704656  0.857711  0.748035  1
  Si  Si28  1  0.203374  0.641391  0.750823  1
  Si  Si29  1  0.295495  0.142276  0.249408  1
  Si  Si30  1  0.796070  0.355199  0.249946  1
  W  W31  1  0.167864  0.332441  0.626434  1
  W  W32  1  0.840406  0.492508  0.748590  1
  W  W33  1  0.340333  0.007231  0.749594  1
  W  W34  1  0.160414  0.505943  0.250098  1
  W  W35  1  0.658345  0.993219  0.250436  1
