# generated using pymatgen
data_LiTb14Nd2Cd3Pt4
_symmetry_space_group_name_H-M   'P 1'
_cell_length_a   9.76283031
_cell_length_b   9.76283060
_cell_length_c   9.75252445
_cell_angle_alpha   60.09703310
_cell_angle_beta   60.09703498
_cell_angle_gamma   59.99835929
_symmetry_Int_Tables_number   1
_chemical_formula_structural   LiTb14Nd2Cd3Pt4
_chemical_formula_sum   'Li1 Tb14 Nd2 Cd3 Pt4'
_cell_volume   658.23891620
_cell_formula_units_Z   1
loop_
 _symmetry_equiv_pos_site_id
 _symmetry_equiv_pos_as_xyz
  1  'x, y, z'
loop_
 _atom_site_type_symbol
 _atom_site_label
 _atom_site_symmetry_multiplicity
 _atom_site_fract_x
 _atom_site_fract_y
 _atom_site_fract_z
 _atom_site_occupancy
  Li  Li0  1  0.572119  0.572119  0.570959  1
  Tb  Tb1  1  0.351120  0.351120  0.349882  1
  Tb  Tb2  1  0.351193  0.351193  0.947104  1
  Tb  Tb3  1  0.351899  0.945481  0.352085  1
  Tb  Tb4  1  0.945481  0.351899  0.352085  1
  Tb  Tb5  1  0.810310  0.192194  0.191067  1
  Tb  Tb6  1  0.186697  0.813243  0.812786  1
  Tb  Tb7  1  0.192194  0.810310  0.191067  1
  Tb  Tb8  1  0.813243  0.186697  0.812786  1
  Tb  Tb9  1  0.191519  0.191519  0.810525  1
  Tb  Tb10  1  0.812581  0.812581  0.186726  1
  Tb  Tb11  1  0.938893  0.562683  0.562682  1
  Tb  Tb12  1  0.561530  0.937619  0.938050  1
  Tb  Tb13  1  0.562683  0.938893  0.562682  1
  Tb  Tb14  1  0.937619  0.561530  0.938050  1
  Nd  Nd15  1  0.567152  0.567152  0.932450  1
  Nd  Nd16  1  0.934355  0.934355  0.564445  1
  Cd  Cd17  1  0.582880  0.582880  0.255496  1
  Cd  Cd18  1  0.579980  0.255676  0.583608  1
  Cd  Cd19  1  0.255676  0.579980  0.583608  1
  Pt  Pt20  1  0.144393  0.144393  0.143073  1
  Pt  Pt21  1  0.144009  0.144009  0.571156  1
  Pt  Pt22  1  0.141108  0.571369  0.143816  1
  Pt  Pt23  1  0.571369  0.141108  0.143816  1
