# generated using pymatgen
data_HoMn(NbS2)8
_symmetry_space_group_name_H-M   'P 1'
_cell_length_a   6.74447900
_cell_length_b   6.74447825
_cell_length_c   13.12648600
_cell_angle_alpha   90.00000000
_cell_angle_beta   90.00000000
_cell_angle_gamma   120.00000856
_symmetry_Int_Tables_number   1
_chemical_formula_structural   HoMn(NbS2)8
_chemical_formula_sum   'Ho1 Mn1 Nb8 S16'
_cell_volume   517.10154989
_cell_formula_units_Z   1
loop_
 _symmetry_equiv_pos_site_id
 _symmetry_equiv_pos_as_xyz
  1  'x, y, z'
loop_
 _atom_site_type_symbol
 _atom_site_label
 _atom_site_symmetry_multiplicity
 _atom_site_fract_x
 _atom_site_fract_y
 _atom_site_fract_z
 _atom_site_occupancy
  Ho  Ho0  1  0.000000  0.000000  0.500000  1
  Mn  Mn1  1  0.000000  0.000000  0.000000  1
  Nb  Nb2  1  0.505164  0.494836  0.762726  1
  Nb  Nb3  1  0.010326  0.505164  0.237274  1
  Nb  Nb4  1  0.494836  0.989674  0.237274  1
  Nb  Nb5  1  0.505164  0.010326  0.762726  1
  Nb  Nb6  1  0.989674  0.494836  0.762726  1
  Nb  Nb7  1  0.494836  0.505164  0.237274  1
  Nb  Nb8  1  0.000000  0.000000  0.761876  1
  Nb  Nb9  1  0.000000  0.000000  0.238124  1
  S  S10  1  0.832033  0.167967  0.357248  1
  S  S11  1  0.832033  0.664067  0.357248  1
  S  S12  1  0.335933  0.167967  0.357248  1
  S  S13  1  0.665384  0.832692  0.880897  1
  S  S14  1  0.167967  0.335933  0.642752  1
  S  S15  1  0.167308  0.832692  0.880897  1
  S  S16  1  0.167308  0.334616  0.880897  1
  S  S17  1  0.832692  0.167308  0.119103  1
  S  S18  1  0.334616  0.167308  0.119103  1
  S  S19  1  0.664067  0.832033  0.642752  1
  S  S20  1  0.333333  0.666667  0.117053  1
  S  S21  1  0.666667  0.333333  0.640378  1
  S  S22  1  0.666667  0.333333  0.882947  1
  S  S23  1  0.333333  0.666667  0.359622  1
  S  S24  1  0.832692  0.665384  0.119103  1
  S  S25  1  0.167967  0.832033  0.642752  1
