# generated using pymatgen
data_NbP2Se2Br5
_symmetry_space_group_name_H-M   'P 1'
_cell_length_a   6.97556136
_cell_length_b   14.30300800
_cell_length_c   28.70113800
_cell_angle_alpha   90.00000000
_cell_angle_beta   93.72620709
_cell_angle_gamma   90.00000000
_symmetry_Int_Tables_number   1
_chemical_formula_structural   NbP2Se2Br5
_chemical_formula_sum   'Nb8 P16 Se16 Br40'
_cell_volume   2857.50230848
_cell_formula_units_Z   8
loop_
 _symmetry_equiv_pos_site_id
 _symmetry_equiv_pos_as_xyz
  1  'x, y, z'
loop_
 _atom_site_type_symbol
 _atom_site_label
 _atom_site_symmetry_multiplicity
 _atom_site_fract_x
 _atom_site_fract_y
 _atom_site_fract_z
 _atom_site_occupancy
  Nb  Nb0  1  0.775941  0.282104  0.529842  1
  Nb  Nb1  1  0.681297  0.612613  0.706963  1
  Nb  Nb2  1  0.224059  0.717896  0.470158  1
  Nb  Nb3  1  0.818703  0.112613  0.793037  1
  Nb  Nb4  1  0.724059  0.782104  0.970158  1
  Nb  Nb5  1  0.275941  0.217896  0.029842  1
  Nb  Nb6  1  0.318703  0.387387  0.293037  1
  Nb  Nb7  1  0.181297  0.887387  0.206963  1
  P  P8  1  0.078430  0.928282  0.619667  1
  P  P9  1  0.418596  0.339698  0.100029  1
  P  P10  1  0.062540  0.906584  0.297222  1
  P  P11  1  0.714414  0.078838  0.642509  1
  P  P12  1  0.937460  0.093416  0.702778  1
  P  P13  1  0.081404  0.839698  0.399971  1
  P  P14  1  0.785586  0.578838  0.857491  1
  P  P15  1  0.214414  0.421162  0.142509  1
  P  P16  1  0.285586  0.921162  0.357491  1
  P  P17  1  0.578430  0.571718  0.119667  1
  P  P18  1  0.921570  0.071718  0.380333  1
  P  P19  1  0.421570  0.428282  0.880333  1
  P  P20  1  0.562540  0.593416  0.797222  1
  P  P21  1  0.581404  0.660302  0.899971  1
  P  P22  1  0.918596  0.160302  0.600029  1
  P  P23  1  0.437460  0.406584  0.202778  1
  Se  Se24  1  0.151031  0.975275  0.694993  1
  Se  Se25  1  0.129206  0.054366  0.573164  1
  Se  Se26  1  0.463116  0.728663  0.831609  1
  Se  Se27  1  0.747204  0.931829  0.618681  1
  Se  Se28  1  0.252796  0.068171  0.381319  1
  Se  Se29  1  0.247204  0.568171  0.118681  1
  Se  Se30  1  0.848969  0.024725  0.305007  1
  Se  Se31  1  0.370794  0.554366  0.926836  1
  Se  Se32  1  0.651031  0.524725  0.194993  1
  Se  Se33  1  0.536884  0.271337  0.168391  1
  Se  Se34  1  0.870794  0.945634  0.426836  1
  Se  Se35  1  0.752796  0.431829  0.881319  1
  Se  Se36  1  0.036884  0.228663  0.668391  1
  Se  Se37  1  0.963116  0.771337  0.331609  1
  Se  Se38  1  0.348969  0.475275  0.805007  1
  Se  Se39  1  0.629206  0.445634  0.073164  1
  Br  Br40  1  0.386116  0.868712  0.496208  1
  Br  Br41  1  0.140683  0.531819  0.266807  1
  Br  Br42  1  0.508564  0.893409  0.923436  1
  Br  Br43  1  0.113884  0.368712  0.003792  1
  Br  Br44  1  0.068034  0.227912  0.489834  1
  Br  Br45  1  0.943730  0.753454  0.207871  1
  Br  Br46  1  0.420947  0.787591  0.253246  1
  Br  Br47  1  0.613884  0.131288  0.503792  1
  Br  Br48  1  0.556270  0.253454  0.292129  1
  Br  Br49  1  0.143977  0.112689  0.968839  1
  Br  Br50  1  0.600340  0.490089  0.317198  1
  Br  Br51  1  0.859317  0.468181  0.733193  1
  Br  Br52  1  0.643977  0.387311  0.468839  1
  Br  Br53  1  0.640683  0.968181  0.766807  1
  Br  Br54  1  0.399660  0.509911  0.682802  1
  Br  Br55  1  0.026848  0.196624  0.087905  1
  Br  Br56  1  0.526848  0.303376  0.587905  1
  Br  Br57  1  0.899660  0.990089  0.182802  1
  Br  Br58  1  0.856023  0.887311  0.031161  1
  Br  Br59  1  0.931966  0.772088  0.510166  1
  Br  Br60  1  0.079053  0.287591  0.246754  1
  Br  Br61  1  0.443730  0.746546  0.707871  1
  Br  Br62  1  0.579053  0.212409  0.746754  1
  Br  Br63  1  0.359317  0.031819  0.233193  1
  Br  Br64  1  0.920947  0.712409  0.753246  1
  Br  Br65  1  0.473152  0.696624  0.412095  1
  Br  Br66  1  0.431966  0.727912  0.010166  1
  Br  Br67  1  0.991436  0.393409  0.576564  1
  Br  Br68  1  0.356023  0.612689  0.531161  1
  Br  Br69  1  0.491436  0.106591  0.076564  1
  Br  Br70  1  0.809256  0.637374  0.630486  1
  Br  Br71  1  0.056270  0.246546  0.792129  1
  Br  Br72  1  0.886116  0.631288  0.996208  1
  Br  Br73  1  0.190744  0.362626  0.369514  1
  Br  Br74  1  0.100340  0.009911  0.817198  1
  Br  Br75  1  0.690744  0.137374  0.869514  1
  Br  Br76  1  0.973152  0.803376  0.912095  1
  Br  Br77  1  0.568034  0.272088  0.989834  1
  Br  Br78  1  0.309256  0.862626  0.130486  1
  Br  Br79  1  0.008564  0.606591  0.423436  1
