# generated using pymatgen
data_Zn3In2SnRh6
_symmetry_space_group_name_H-M   'P 1'
_cell_length_a   4.45416900
_cell_length_b   6.24929000
_cell_length_c   13.38304900
_cell_angle_alpha   90.00062425
_cell_angle_beta   89.99923307
_cell_angle_gamma   89.99992474
_symmetry_Int_Tables_number   1
_chemical_formula_structural   Zn3In2SnRh6
_chemical_formula_sum   'Zn6 In4 Sn2 Rh12'
_cell_volume   372.52243900
_cell_formula_units_Z   2
loop_
 _symmetry_equiv_pos_site_id
 _symmetry_equiv_pos_as_xyz
  1  'x, y, z'
loop_
 _atom_site_type_symbol
 _atom_site_label
 _atom_site_symmetry_multiplicity
 _atom_site_fract_x
 _atom_site_fract_y
 _atom_site_fract_z
 _atom_site_occupancy
  Zn  Zn0  1  0.000000  0.499992  0.997222  1
  Zn  Zn1  1  0.499880  0.000004  0.169516  1
  Zn  Zn2  1  0.999875  0.500007  0.336411  1
  Zn  Zn3  1  0.499998  0.999983  0.500419  1
  Zn  Zn4  1  0.000123  0.500012  0.666282  1
  Zn  Zn5  1  0.500119  0.999989  0.830190  1
  In  In6  1  0.999886  0.999982  0.333460  1
  In  In7  1  0.500000  0.500043  0.500043  1
  In  In8  1  0.000115  0.999972  0.666515  1
  In  In9  1  0.500119  0.500003  0.833274  1
  Sn  Sn10  1  0.999995  0.000008  0.999769  1
  Sn  Sn11  1  0.499889  0.500016  0.166846  1
  Rh  Rh12  1  0.499995  0.247606  0.002569  1
  Rh  Rh13  1  0.499994  0.752397  0.002565  1
  Rh  Rh14  1  0.999890  0.252304  0.164131  1
  Rh  Rh15  1  0.999886  0.747692  0.164136  1
  Rh  Rh16  1  0.499876  0.252267  0.330405  1
  Rh  Rh17  1  0.499873  0.747724  0.330418  1
  Rh  Rh18  1  0.999998  0.250046  0.499576  1
  Rh  Rh19  1  0.999999  0.749953  0.499577  1
  Rh  Rh20  1  0.500116  0.250057  0.667111  1
  Rh  Rh21  1  0.500118  0.749939  0.667111  1
  Rh  Rh22  1  0.000131  0.247717  0.836233  1
  Rh  Rh23  1  0.000126  0.752284  0.836223  1
