# generated using pymatgen
data_YEr2Be(SiIr3)2
_symmetry_space_group_name_H-M   'P 1'
_cell_length_a   5.53437600
_cell_length_b   5.53437582
_cell_length_c   14.92692800
_cell_angle_alpha   90.00000000
_cell_angle_beta   90.00000000
_cell_angle_gamma   120.00000109
_symmetry_Int_Tables_number   1
_chemical_formula_structural   YEr2Be(SiIr3)2
_chemical_formula_sum   'Y2 Er4 Be2 Si4 Ir12'
_cell_volume   395.94820033
_cell_formula_units_Z   2
loop_
 _symmetry_equiv_pos_site_id
 _symmetry_equiv_pos_as_xyz
  1  'x, y, z'
loop_
 _atom_site_type_symbol
 _atom_site_label
 _atom_site_symmetry_multiplicity
 _atom_site_fract_x
 _atom_site_fract_y
 _atom_site_fract_z
 _atom_site_occupancy
  Y  Y0  1  0.333333  0.666667  0.750000  1
  Y  Y1  1  0.666667  0.333333  0.250000  1
  Er  Er2  1  0.333333  0.666667  0.538107  1
  Er  Er3  1  0.666667  0.333333  0.461893  1
  Er  Er4  1  0.666667  0.333333  0.038107  1
  Er  Er5  1  0.333333  0.666667  0.961893  1
  Be  Be6  1  0.000000  0.000000  0.250000  1
  Be  Be7  1  0.000000  0.000000  0.750000  1
  Si  Si8  1  0.333333  0.666667  0.250000  1
  Si  Si9  1  0.666667  0.333333  0.750000  1
  Si  Si10  1  0.000000  0.000000  0.000000  1
  Si  Si11  1  0.000000  0.000000  0.500000  1
  Ir  Ir12  1  0.165043  0.330088  0.131149  1
  Ir  Ir13  1  0.834957  0.669912  0.868851  1
  Ir  Ir14  1  0.669912  0.834957  0.131149  1
  Ir  Ir15  1  0.834957  0.669912  0.631149  1
  Ir  Ir16  1  0.330088  0.165043  0.868851  1
  Ir  Ir17  1  0.165043  0.330088  0.368851  1
  Ir  Ir18  1  0.165043  0.834957  0.131149  1
  Ir  Ir19  1  0.330088  0.165043  0.631149  1
  Ir  Ir20  1  0.834957  0.165043  0.868851  1
  Ir  Ir21  1  0.669912  0.834957  0.368851  1
  Ir  Ir22  1  0.834957  0.165043  0.631149  1
  Ir  Ir23  1  0.165043  0.834957  0.368851  1
