# generated using pymatgen
data_Sr2ErC2(O2F)3
_symmetry_space_group_name_H-M   'P 1'
_cell_length_a   9.40459700
_cell_length_b   6.75528000
_cell_length_c   11.26543700
_cell_angle_alpha   90.00000000
_cell_angle_beta   90.00000000
_cell_angle_gamma   90.00000000
_symmetry_Int_Tables_number   1
_chemical_formula_structural   Sr2ErC2(O2F)3
_chemical_formula_sum   'Sr8 Er4 C8 O24 F12'
_cell_volume   715.70094095
_cell_formula_units_Z   4
loop_
 _symmetry_equiv_pos_site_id
 _symmetry_equiv_pos_as_xyz
  1  'x, y, z'
loop_
 _atom_site_type_symbol
 _atom_site_label
 _atom_site_symmetry_multiplicity
 _atom_site_fract_x
 _atom_site_fract_y
 _atom_site_fract_z
 _atom_site_occupancy
  Sr  Sr0  1  0.381641  0.237213  0.070783  1
  Sr  Sr1  1  0.118359  0.737213  0.070783  1
  Sr  Sr2  1  0.618359  0.237213  0.429218  1
  Sr  Sr3  1  0.881641  0.737213  0.429218  1
  Sr  Sr4  1  0.118359  0.262787  0.570783  1
  Sr  Sr5  1  0.381641  0.762787  0.570783  1
  Sr  Sr6  1  0.881641  0.262787  0.929217  1
  Sr  Sr7  1  0.618359  0.762787  0.929217  1
  Er  Er8  1  0.000000  0.272921  0.250000  1
  Er  Er9  1  0.500000  0.772921  0.250000  1
  Er  Er10  1  0.500000  0.227079  0.750000  1
  Er  Er11  1  0.000000  0.727079  0.750000  1
  C  C12  1  0.694351  0.476056  0.176905  1
  C  C13  1  0.805650  0.976056  0.176905  1
  C  C14  1  0.305650  0.476056  0.323094  1
  C  C15  1  0.194350  0.976056  0.323094  1
  C  C16  1  0.805650  0.023944  0.676906  1
  C  C17  1  0.694351  0.523944  0.676906  1
  C  C18  1  0.194350  0.023944  0.823094  1
  C  C19  1  0.305650  0.523944  0.823094  1
  O  O20  1  0.913809  0.017313  0.109118  1
  O  O21  1  0.586191  0.517313  0.109118  1
  O  O22  1  0.800810  0.378242  0.137781  1
  O  O23  1  0.699190  0.878242  0.137781  1
  O  O24  1  0.188515  0.039595  0.213403  1
  O  O25  1  0.311486  0.539595  0.213403  1
  O  O26  1  0.811486  0.039595  0.286596  1
  O  O27  1  0.688515  0.539595  0.286596  1
  O  O28  1  0.199190  0.378242  0.362219  1
  O  O29  1  0.300810  0.878242  0.362219  1
  O  O30  1  0.086191  0.017313  0.390882  1
  O  O31  1  0.413809  0.517313  0.390882  1
  O  O32  1  0.586191  0.482687  0.609118  1
  O  O33  1  0.913809  0.982687  0.609118  1
  O  O34  1  0.699190  0.121758  0.637781  1
  O  O35  1  0.800810  0.621758  0.637781  1
  O  O36  1  0.311486  0.460405  0.713404  1
  O  O37  1  0.188515  0.960405  0.713404  1
  O  O38  1  0.688515  0.460405  0.786597  1
  O  O39  1  0.811486  0.960405  0.786597  1
  O  O40  1  0.300810  0.121758  0.862219  1
  O  O41  1  0.199190  0.621758  0.862219  1
  O  O42  1  0.413809  0.482687  0.890882  1
  O  O43  1  0.086191  0.982687  0.890882  1
  F  F44  1  0.096063  0.355144  0.071700  1
  F  F45  1  0.403937  0.855142  0.071700  1
  F  F46  1  0.500000  0.113701  0.250000  1
  F  F47  1  0.000000  0.613701  0.250000  1
  F  F48  1  0.903937  0.355144  0.428300  1
  F  F49  1  0.596063  0.855142  0.428300  1
  F  F50  1  0.403937  0.144856  0.571700  1
  F  F51  1  0.096063  0.644856  0.571700  1
  F  F52  1  0.000000  0.386297  0.750000  1
  F  F53  1  0.500000  0.886297  0.750000  1
  F  F54  1  0.596063  0.144856  0.928300  1
  F  F55  1  0.903937  0.644856  0.928300  1
