# generated using pymatgen
data_Dy4Ta3Ti(Fe4P3)4
_symmetry_space_group_name_H-M   'P 1'
_cell_length_a   3.68027500
_cell_length_b   10.45367911
_cell_length_c   12.29794658
_cell_angle_alpha   89.92653388
_cell_angle_beta   90.00000000
_cell_angle_gamma   90.00000000
_symmetry_Int_Tables_number   1
_chemical_formula_structural   Dy4Ta3Ti(Fe4P3)4
_chemical_formula_sum   'Dy4 Ta3 Ti1 Fe16 P12'
_cell_volume   473.13130157
_cell_formula_units_Z   1
loop_
 _symmetry_equiv_pos_site_id
 _symmetry_equiv_pos_as_xyz
  1  'x, y, z'
loop_
 _atom_site_type_symbol
 _atom_site_label
 _atom_site_symmetry_multiplicity
 _atom_site_fract_x
 _atom_site_fract_y
 _atom_site_fract_z
 _atom_site_occupancy
  Dy  Dy0  1  0.250000  0.583436  0.713172  1
  Dy  Dy1  1  0.250000  0.916838  0.213040  1
  Dy  Dy2  1  0.750000  0.415188  0.287013  1
  Dy  Dy3  1  0.750000  0.083638  0.787433  1
  Ta  Ta4  1  0.250000  0.796022  0.492158  1
  Ta  Ta5  1  0.750000  0.297140  0.008159  1
  Ta  Ta6  1  0.750000  0.203802  0.507323  1
  Ti  Ti7  1  0.250000  0.700529  0.992638  1
  Fe  Fe8  1  0.250000  0.416407  0.491949  1
  Fe  Fe9  1  0.250000  0.083278  0.991581  1
  Fe  Fe10  1  0.750000  0.583474  0.507955  1
  Fe  Fe11  1  0.750000  0.916207  0.008241  1
  Fe  Fe12  1  0.250000  0.217471  0.170335  1
  Fe  Fe13  1  0.250000  0.284057  0.671576  1
  Fe  Fe14  1  0.750000  0.783928  0.828762  1
  Fe  Fe15  1  0.750000  0.715571  0.328101  1
  Fe  Fe16  1  0.250000  0.878990  0.699364  1
  Fe  Fe17  1  0.250000  0.622698  0.197910  1
  Fe  Fe18  1  0.750000  0.120123  0.301850  1
  Fe  Fe19  1  0.750000  0.378787  0.801372  1
  Fe  Fe20  1  0.250000  0.465131  0.932838  1
  Fe  Fe21  1  0.250000  0.035693  0.434365  1
  Fe  Fe22  1  0.750000  0.537419  0.066553  1
  Fe  Fe23  1  0.750000  0.963743  0.566751  1
  P  P24  1  0.250000  0.427016  0.112377  1
  P  P25  1  0.250000  0.074560  0.613358  1
  P  P26  1  0.750000  0.575763  0.888192  1
  P  P27  1  0.750000  0.925536  0.387089  1
  P  P28  1  0.250000  0.273471  0.856076  1
  P  P29  1  0.250000  0.225505  0.354260  1
  P  P30  1  0.750000  0.728530  0.141773  1
  P  P31  1  0.750000  0.772825  0.644483  1
  P  P32  1  0.250000  0.595609  0.376874  1
  P  P33  1  0.250000  0.900798  0.879785  1
  P  P34  1  0.750000  0.404097  0.622473  1
  P  P35  1  0.750000  0.096717  0.122822  1
