# generated using pymatgen
data_Dy2Y2Co17(TcP4)3
_symmetry_space_group_name_H-M   'P 1'
_cell_length_a   3.69683500
_cell_length_b   10.33913954
_cell_length_c   11.79351374
_cell_angle_alpha   89.95577355
_cell_angle_beta   90.00000000
_cell_angle_gamma   90.00000000
_symmetry_Int_Tables_number   1
_chemical_formula_structural   Dy2Y2Co17(TcP4)3
_chemical_formula_sum   'Dy2 Y2 Co17 Tc3 P12'
_cell_volume   450.77264378
_cell_formula_units_Z   1
loop_
 _symmetry_equiv_pos_site_id
 _symmetry_equiv_pos_as_xyz
  1  'x, y, z'
loop_
 _atom_site_type_symbol
 _atom_site_label
 _atom_site_symmetry_multiplicity
 _atom_site_fract_x
 _atom_site_fract_y
 _atom_site_fract_z
 _atom_site_occupancy
  Dy  Dy0  1  0.250000  0.915363  0.204839  1
  Dy  Dy1  1  0.750000  0.083939  0.795097  1
  Y  Y2  1  0.250000  0.581982  0.702574  1
  Y  Y3  1  0.750000  0.414563  0.296059  1
  Co  Co4  1  0.750000  0.215398  0.509935  1
  Co  Co5  1  0.250000  0.405686  0.488471  1
  Co  Co6  1  0.250000  0.093067  0.988806  1
  Co  Co7  1  0.750000  0.592553  0.510280  1
  Co  Co8  1  0.750000  0.907227  0.011127  1
  Co  Co9  1  0.250000  0.220136  0.177144  1
  Co  Co10  1  0.250000  0.277718  0.676098  1
  Co  Co11  1  0.750000  0.778461  0.822701  1
  Co  Co12  1  0.750000  0.721702  0.323343  1
  Co  Co13  1  0.250000  0.886135  0.701118  1
  Co  Co14  1  0.250000  0.613978  0.202270  1
  Co  Co15  1  0.750000  0.116152  0.301376  1
  Co  Co16  1  0.750000  0.385326  0.797750  1
  Co  Co17  1  0.250000  0.464362  0.932106  1
  Co  Co18  1  0.250000  0.035622  0.432332  1
  Co  Co19  1  0.750000  0.536048  0.068571  1
  Co  Co20  1  0.750000  0.967002  0.568286  1
  Tc  Tc21  1  0.250000  0.710999  0.989273  1
  Tc  Tc22  1  0.250000  0.789545  0.489397  1
  Tc  Tc23  1  0.750000  0.288936  0.010783  1
  P  P24  1  0.250000  0.419544  0.113442  1
  P  P25  1  0.250000  0.081907  0.611575  1
  P  P26  1  0.750000  0.579153  0.886533  1
  P  P27  1  0.750000  0.921071  0.387220  1
  P  P28  1  0.250000  0.270070  0.864892  1
  P  P29  1  0.250000  0.229990  0.369394  1
  P  P30  1  0.750000  0.730030  0.134532  1
  P  P31  1  0.750000  0.771038  0.632995  1
  P  P32  1  0.250000  0.596165  0.391718  1
  P  P33  1  0.250000  0.903631  0.890656  1
  P  P34  1  0.750000  0.398075  0.606656  1
  P  P35  1  0.750000  0.097421  0.110647  1
