# generated using pymatgen
data_Y2Lu3Ru2
_symmetry_space_group_name_H-M   'P 1'
_cell_length_a   6.23777748
_cell_length_b   7.24986522
_cell_length_c   8.38024228
_cell_angle_alpha   97.13617258
_cell_angle_beta   111.84960759
_cell_angle_gamma   89.99999990
_symmetry_Int_Tables_number   1
_chemical_formula_structural   Y2Lu3Ru2
_chemical_formula_sum   'Y4 Lu6 Ru4'
_cell_volume   348.59075856
_cell_formula_units_Z   2
loop_
 _symmetry_equiv_pos_site_id
 _symmetry_equiv_pos_as_xyz
  1  'x, y, z'
loop_
 _atom_site_type_symbol
 _atom_site_label
 _atom_site_symmetry_multiplicity
 _atom_site_fract_x
 _atom_site_fract_y
 _atom_site_fract_z
 _atom_site_occupancy
  Y  Y0  1  0.522869  0.081457  0.809583  1
  Y  Y1  1  0.477131  0.918543  0.190417  1
  Y  Y2  1  0.713286  0.418543  0.190417  1
  Y  Y3  1  0.286714  0.581457  0.809583  1
  Lu  Lu4  1  0.301262  0.314936  0.433930  1
  Lu  Lu5  1  0.698738  0.685064  0.566070  1
  Lu  Lu6  1  0.867333  0.185064  0.566070  1
  Lu  Lu7  1  0.132667  0.814936  0.433930  1
  Lu  Lu8  1  0.079421  0.250000  0.000000  1
  Lu  Lu9  1  0.920579  0.750000  0.000000  1
  Ru  Ru10  1  0.314841  0.574934  0.223367  1
  Ru  Ru11  1  0.685159  0.425066  0.776633  1
  Ru  Ru12  1  0.091476  0.925066  0.776633  1
  Ru  Ru13  1  0.908524  0.074934  0.223367  1
