# generated using pymatgen
data_Li2Ho3(TlIn)2
_symmetry_space_group_name_H-M   'P 1'
_cell_length_a   7.32040960
_cell_length_b   7.45070942
_cell_length_c   4.67726200
_cell_angle_alpha   90.00000000
_cell_angle_beta   90.00000000
_cell_angle_gamma   120.59058280
_symmetry_Int_Tables_number   1
_chemical_formula_structural   Li2Ho3(TlIn)2
_chemical_formula_sum   'Li2 Ho3 Tl2 In2'
_cell_volume   219.60383542
_cell_formula_units_Z   1
loop_
 _symmetry_equiv_pos_site_id
 _symmetry_equiv_pos_as_xyz
  1  'x, y, z'
loop_
 _atom_site_type_symbol
 _atom_site_label
 _atom_site_symmetry_multiplicity
 _atom_site_fract_x
 _atom_site_fract_y
 _atom_site_fract_z
 _atom_site_occupancy
  Li  Li0  1  0.770337  0.766288  0.500000  1
  Li  Li1  1  0.229663  0.995951  0.500000  1
  Ho  Ho2  1  0.000000  0.556737  0.000000  1
  Ho  Ho3  1  0.435445  0.442783  0.000000  1
  Ho  Ho4  1  0.564555  0.007338  0.000000  1
  Tl  Tl5  1  0.654372  0.340574  0.500000  1
  Tl  Tl6  1  0.345628  0.686203  0.500000  1
  In  In7  1  0.000000  0.227786  0.500000  1
  In  In8  1  0.000000  0.976342  0.000000  1
