# generated using pymatgen
data_Re3Tc3IrRh
_symmetry_space_group_name_H-M   'P 1'
_cell_length_a   5.56474700
_cell_length_b   5.56474702
_cell_length_c   4.37768100
_cell_angle_alpha   90.00000000
_cell_angle_beta   90.00000000
_cell_angle_gamma   120.00000584
_symmetry_Int_Tables_number   1
_chemical_formula_structural   Re3Tc3IrRh
_chemical_formula_sum   'Re3 Tc3 Ir1 Rh1'
_cell_volume   117.39931614
_cell_formula_units_Z   1
loop_
 _symmetry_equiv_pos_site_id
 _symmetry_equiv_pos_as_xyz
  1  'x, y, z'
loop_
 _atom_site_type_symbol
 _atom_site_label
 _atom_site_symmetry_multiplicity
 _atom_site_fract_x
 _atom_site_fract_y
 _atom_site_fract_z
 _atom_site_occupancy
  Re  Re0  1  0.160744  0.321490  0.250000  1
  Re  Re1  1  0.678510  0.839256  0.250000  1
  Re  Re2  1  0.160744  0.839256  0.250000  1
  Tc  Tc3  1  0.839202  0.678406  0.750000  1
  Tc  Tc4  1  0.321594  0.160798  0.750000  1
  Tc  Tc5  1  0.839202  0.160798  0.750000  1
  Ir  Ir6  1  0.333333  0.666667  0.750000  1
  Rh  Rh7  1  0.666667  0.333333  0.250000  1
