# generated using pymatgen
data_Na7Li(PPt3)4
_symmetry_space_group_name_H-M   'P 1'
_cell_length_a   7.34747543
_cell_length_b   7.34747543
_cell_length_c   7.34747543
_cell_angle_alpha   90.02773312
_cell_angle_beta   89.97226688
_cell_angle_gamma   90.02773312
_symmetry_Int_Tables_number   1
_chemical_formula_structural   Na7Li(PPt3)4
_chemical_formula_sum   'Na7 Li1 P4 Pt12'
_cell_volume   396.65622546
_cell_formula_units_Z   1
loop_
 _symmetry_equiv_pos_site_id
 _symmetry_equiv_pos_as_xyz
  1  'x, y, z'
loop_
 _atom_site_type_symbol
 _atom_site_label
 _atom_site_symmetry_multiplicity
 _atom_site_fract_x
 _atom_site_fract_y
 _atom_site_fract_z
 _atom_site_occupancy
  Na  Na0  1  0.288009  0.288111  0.287909  1
  Na  Na1  1  0.038238  0.461762  0.538238  1
  Na  Na2  1  0.539319  0.036819  0.461100  1
  Na  Na3  1  0.463181  0.538900  0.039319  1
  Na  Na4  1  0.211889  0.712091  0.788009  1
  Na  Na5  1  0.961100  0.960681  0.963181  1
  Na  Na6  1  0.787909  0.211991  0.711889  1
  Li  Li7  1  0.709848  0.790152  0.209848  1
  P  P8  1  0.874360  0.374251  0.124413  1
  P  P9  1  0.375324  0.124676  0.875324  1
  P  P10  1  0.624413  0.625640  0.625749  1
  P  P11  1  0.125749  0.875587  0.374360  1
  Pt  Pt12  1  0.169975  0.079295  0.624799  1
  Pt  Pt13  1  0.420705  0.375201  0.669975  1
  Pt  Pt14  1  0.074632  0.627659  0.171954  1
  Pt  Pt15  1  0.918046  0.121642  0.328164  1
  Pt  Pt16  1  0.333651  0.918430  0.126467  1
  Pt  Pt17  1  0.671954  0.425368  0.372341  1
  Pt  Pt18  1  0.581570  0.873533  0.833651  1
  Pt  Pt19  1  0.626467  0.166349  0.081570  1
  Pt  Pt20  1  0.378358  0.671836  0.418046  1
  Pt  Pt21  1  0.872341  0.828046  0.574632  1
  Pt  Pt22  1  0.124799  0.330025  0.920705  1
  Pt  Pt23  1  0.828164  0.581954  0.878358  1
