# generated using pymatgen
data_HfTa(GaPt6)2
_symmetry_space_group_name_H-M   'P 1'
_cell_length_a   5.63375917
_cell_length_b   5.63375980
_cell_length_c   7.97624400
_cell_angle_alpha   90.00000000
_cell_angle_beta   90.00000000
_cell_angle_gamma   89.99630827
_symmetry_Int_Tables_number   1
_chemical_formula_structural   HfTa(GaPt6)2
_chemical_formula_sum   'Hf1 Ta1 Ga2 Pt12'
_cell_volume   253.15996949
_cell_formula_units_Z   1
loop_
 _symmetry_equiv_pos_site_id
 _symmetry_equiv_pos_as_xyz
  1  'x, y, z'
loop_
 _atom_site_type_symbol
 _atom_site_label
 _atom_site_symmetry_multiplicity
 _atom_site_fract_x
 _atom_site_fract_y
 _atom_site_fract_z
 _atom_site_occupancy
  Hf  Hf0  1  0.500000  0.000000  0.749848  1
  Ta  Ta1  1  0.000000  0.500000  0.750164  1
  Ga  Ga2  1  0.500000  0.000000  0.249988  1
  Ga  Ga3  1  0.000000  0.500000  0.250121  1
  Pt  Pt4  1  0.246212  0.253788  0.997728  1
  Pt  Pt5  1  0.753867  0.253867  0.502347  1
  Pt  Pt6  1  0.750152  0.250152  0.998543  1
  Pt  Pt7  1  0.753788  0.746212  0.997728  1
  Pt  Pt8  1  0.500000  0.500000  0.749984  1
  Pt  Pt9  1  0.249848  0.250152  0.501352  1
  Pt  Pt10  1  0.750152  0.749848  0.501352  1
  Pt  Pt11  1  0.246133  0.746133  0.502347  1
  Pt  Pt12  1  0.500000  0.500000  0.249985  1
  Pt  Pt13  1  0.000000  0.000000  0.749984  1
  Pt  Pt14  1  0.000000  0.000000  0.249985  1
  Pt  Pt15  1  0.249848  0.749848  0.998543  1
