# generated using pymatgen
data_Sr2HgSbPt2
_symmetry_space_group_name_H-M   'P 1'
_cell_length_a   4.76570700
_cell_length_b   7.80072500
_cell_length_c   8.10714900
_cell_angle_alpha   90.00000000
_cell_angle_beta   90.00000000
_cell_angle_gamma   90.00000000
_symmetry_Int_Tables_number   1
_chemical_formula_structural   Sr2HgSbPt2
_chemical_formula_sum   'Sr4 Hg2 Sb2 Pt4'
_cell_volume   301.39112588
_cell_formula_units_Z   2
loop_
 _symmetry_equiv_pos_site_id
 _symmetry_equiv_pos_as_xyz
  1  'x, y, z'
loop_
 _atom_site_type_symbol
 _atom_site_label
 _atom_site_symmetry_multiplicity
 _atom_site_fract_x
 _atom_site_fract_y
 _atom_site_fract_z
 _atom_site_occupancy
  Sr  Sr0  1  0.750000  0.981556  0.692810  1
  Sr  Sr1  1  0.250000  0.009200  0.304175  1
  Sr  Sr2  1  0.750000  0.490800  0.804175  1
  Sr  Sr3  1  0.250000  0.518444  0.192810  1
  Hg  Hg4  1  0.250000  0.675402  0.587316  1
  Hg  Hg5  1  0.750000  0.824598  0.087316  1
  Sb  Sb6  1  0.750000  0.317219  0.418883  1
  Sb  Sb7  1  0.250000  0.182781  0.918883  1
  Pt  Pt8  1  0.250000  0.821907  0.902911  1
  Pt  Pt9  1  0.250000  0.278742  0.593905  1
  Pt  Pt10  1  0.750000  0.678093  0.402911  1
  Pt  Pt11  1  0.750000  0.221258  0.093905  1
