# generated using pymatgen
data_Ca5YRuWO12
_symmetry_space_group_name_H-M   'P 1'
_cell_length_a   6.58818453
_cell_length_b   6.56395033
_cell_length_c   6.60305247
_cell_angle_alpha   92.06517029
_cell_angle_beta   92.29789833
_cell_angle_gamma   92.18890075
_symmetry_Int_Tables_number   1
_chemical_formula_structural   Ca5YRuWO12
_chemical_formula_sum   'Ca5 Y1 Ru1 W1 O12'
_cell_volume   284.90612576
_cell_formula_units_Z   1
loop_
 _symmetry_equiv_pos_site_id
 _symmetry_equiv_pos_as_xyz
  1  'x, y, z'
loop_
 _atom_site_type_symbol
 _atom_site_label
 _atom_site_symmetry_multiplicity
 _atom_site_fract_x
 _atom_site_fract_y
 _atom_site_fract_z
 _atom_site_occupancy
  Ca  Ca0  1  0.740536  0.927609  0.435793  1
  Ca  Ca1  1  0.560053  0.256093  0.074267  1
  Ca  Ca2  1  0.438661  0.740511  0.927288  1
  Ca  Ca3  1  0.260403  0.068944  0.564032  1
  Ca  Ca4  1  0.073130  0.565987  0.259030  1
  Y  Y5  1  0.926352  0.432655  0.739887  1
  Ru  Ru6  1  0.498384  0.500003  0.499311  1
  W  W7  1  0.999556  0.000249  0.000723  1
  O  O8  1  0.941224  0.288919  0.061308  1
  O  O9  1  0.932516  0.071768  0.713925  1
  O  O10  1  0.793015  0.578569  0.460440  1
  O  O11  1  0.717524  0.933397  0.057523  1
  O  O12  1  0.589669  0.451395  0.789967  1
  O  O13  1  0.547334  0.212992  0.421178  1
  O  O14  1  0.453000  0.785405  0.581136  1
  O  O15  1  0.419394  0.548534  0.215361  1
  O  O16  1  0.281477  0.063549  0.939939  1
  O  O17  1  0.208148  0.420530  0.554565  1
  O  O18  1  0.067800  0.941476  0.279960  1
  O  O19  1  0.051825  0.711414  0.924369  1
