# generated using pymatgen
data_Be7Co3Ni2(W6C)2
_symmetry_space_group_name_H-M   'P 1'
_cell_length_a   7.58429386
_cell_length_b   7.56791520
_cell_length_c   7.56791512
_cell_angle_alpha   60.14544403
_cell_angle_beta   60.10271540
_cell_angle_gamma   60.10270936
_symmetry_Int_Tables_number   1
_chemical_formula_structural   Be7Co3Ni2(W6C)2
_chemical_formula_sum   'Be7 Co3 Ni2 W12 C2'
_cell_volume   307.96527084
_cell_formula_units_Z   1
loop_
 _symmetry_equiv_pos_site_id
 _symmetry_equiv_pos_as_xyz
  1  'x, y, z'
loop_
 _atom_site_type_symbol
 _atom_site_label
 _atom_site_symmetry_multiplicity
 _atom_site_fract_x
 _atom_site_fract_y
 _atom_site_fract_z
 _atom_site_occupancy
  Be  Be0  1  0.422650  0.418771  0.735175  1
  Be  Be1  1  0.422650  0.735175  0.418771  1
  Be  Be2  1  0.732531  0.420997  0.420997  1
  Be  Be3  1  0.418980  0.420442  0.420442  1
  Be  Be4  1  0.827331  0.829353  0.518763  1
  Be  Be5  1  0.827331  0.518763  0.829353  1
  Be  Be6  1  0.520240  0.828009  0.828009  1
  Co  Co7  1  0.833434  0.834650  0.834650  1
  Co  Co8  1  0.618944  0.619446  0.130219  1
  Co  Co9  1  0.618944  0.130219  0.619446  1
  Ni  Ni10  1  0.131294  0.619340  0.619340  1
  Ni  Ni11  1  0.624272  0.624768  0.624768  1
  W  W12  1  0.049250  0.049287  0.448183  1
  W  W13  1  0.449141  0.050241  0.449459  1
  W  W14  1  0.049858  0.448078  0.448078  1
  W  W15  1  0.449141  0.449459  0.050241  1
  W  W16  1  0.049250  0.448183  0.049287  1
  W  W17  1  0.449431  0.048853  0.048853  1
  W  W18  1  0.201806  0.200013  0.800617  1
  W  W19  1  0.800530  0.203253  0.800068  1
  W  W20  1  0.202541  0.800739  0.800739  1
  W  W21  1  0.800530  0.800068  0.203253  1
  W  W22  1  0.201806  0.800617  0.200013  1
  W  W23  1  0.799073  0.201908  0.201908  1
  C  C24  1  0.248891  0.248516  0.248516  1
  C  C25  1  0.000153  0.000853  0.000853  1
