# generated using pymatgen
data_Dy2Ga9Ni2Os
_symmetry_space_group_name_H-M   'P 1'
_cell_length_a   7.47141220
_cell_length_b   7.47141251
_cell_length_c   9.41753600
_cell_angle_alpha   90.00000000
_cell_angle_beta   90.00000000
_cell_angle_gamma   120.03160563
_symmetry_Int_Tables_number   1
_chemical_formula_structural   Dy2Ga9Ni2Os
_chemical_formula_sum   'Dy4 Ga18 Ni4 Os2'
_cell_volume   455.12944237
_cell_formula_units_Z   2
loop_
 _symmetry_equiv_pos_site_id
 _symmetry_equiv_pos_as_xyz
  1  'x, y, z'
loop_
 _atom_site_type_symbol
 _atom_site_label
 _atom_site_symmetry_multiplicity
 _atom_site_fract_x
 _atom_site_fract_y
 _atom_site_fract_z
 _atom_site_occupancy
  Dy  Dy0  1  0.333896  0.003928  0.749352  1
  Dy  Dy1  1  0.666104  0.996072  0.249352  1
  Dy  Dy2  1  0.003928  0.333896  0.750648  1
  Dy  Dy3  1  0.996072  0.666104  0.250648  1
  Ga  Ga4  1  0.880407  0.880407  0.750000  1
  Ga  Ga5  1  0.119593  0.119593  0.250000  1
  Ga  Ga6  1  0.669167  0.669608  0.438184  1
  Ga  Ga7  1  0.330833  0.330392  0.938184  1
  Ga  Ga8  1  0.669608  0.669167  0.061816  1
  Ga  Ga9  1  0.330392  0.330833  0.561816  1
  Ga  Ga10  1  0.453740  0.663417  0.752395  1
  Ga  Ga11  1  0.546260  0.336583  0.252395  1
  Ga  Ga12  1  0.663417  0.453740  0.747605  1
  Ga  Ga13  1  0.336583  0.546260  0.247605  1
  Ga  Ga14  1  0.004410  0.333286  0.075783  1
  Ga  Ga15  1  0.995590  0.666714  0.575783  1
  Ga  Ga16  1  0.333286  0.004410  0.424217  1
  Ga  Ga17  1  0.666714  0.995590  0.924217  1
  Ga  Ga18  1  0.005794  0.669690  0.924520  1
  Ga  Ga19  1  0.994206  0.330310  0.424520  1
  Ga  Ga20  1  0.669690  0.005794  0.575480  1
  Ga  Ga21  1  0.330310  0.994206  0.075480  1
  Ni  Ni22  1  0.000210  0.999790  0.500000  1
  Ni  Ni23  1  0.999790  0.000210  0.000000  1
  Ni  Ni24  1  0.669438  0.330562  0.500000  1
  Ni  Ni25  1  0.330562  0.669438  0.000000  1
  Os  Os26  1  0.327185  0.672815  0.500000  1
  Os  Os27  1  0.672815  0.327185  0.000000  1
