# generated using pymatgen
data_Th2CoSi5Rh2
_symmetry_space_group_name_H-M   'P 1'
_cell_length_a   8.16594130
_cell_length_b   8.15909428
_cell_length_c   8.15909555
_cell_angle_alpha   137.60255264
_cell_angle_beta   105.67583070
_cell_angle_gamma   89.49012612
_symmetry_Int_Tables_number   1
_chemical_formula_structural   Th2CoSi5Rh2
_chemical_formula_sum   'Th4 Co2 Si10 Rh4'
_cell_volume   337.34992220
_cell_formula_units_Z   2
loop_
 _symmetry_equiv_pos_site_id
 _symmetry_equiv_pos_as_xyz
  1  'x, y, z'
loop_
 _atom_site_type_symbol
 _atom_site_label
 _atom_site_symmetry_multiplicity
 _atom_site_fract_x
 _atom_site_fract_y
 _atom_site_fract_z
 _atom_site_occupancy
  Th  Th0  1  0.361147  0.630008  0.731140  1
  Th  Th1  1  0.894870  0.131849  0.763020  1
  Th  Th2  1  0.105130  0.868151  0.236980  1
  Th  Th3  1  0.638853  0.369992  0.268860  1
  Co  Co4  1  0.251769  0.137555  0.114216  1
  Co  Co5  1  0.748231  0.862445  0.885784  1
  Si  Si6  1  0.272948  0.507488  0.244666  1
  Si  Si7  1  0.727052  0.971718  0.234539  1
  Si  Si8  1  0.000000  0.775470  0.775470  1
  Si  Si9  1  0.240979  0.390781  0.850197  1
  Si  Si10  1  0.759021  0.609219  0.149803  1
  Si  Si11  1  0.454695  0.110508  0.344187  1
  Si  Si12  1  0.000000  0.224530  0.224530  1
  Si  Si13  1  0.545305  0.889492  0.655813  1
  Si  Si14  1  0.727052  0.492512  0.755334  1
  Si  Si15  1  0.272948  0.028282  0.765461  1
  Rh  Rh16  1  0.027650  0.635478  0.392171  1
  Rh  Rh17  1  0.972350  0.364522  0.607829  1
  Rh  Rh18  1  0.500000  0.751401  0.251401  1
  Rh  Rh19  1  0.500000  0.248599  0.748599  1
