# generated using pymatgen
data_Lu7Ru2PtSe
_symmetry_space_group_name_H-M   'P 1'
_cell_length_a   8.77210682
_cell_length_b   8.77210830
_cell_length_c   8.77210746
_cell_angle_alpha   154.41934852
_cell_angle_beta   117.61051826
_cell_angle_gamma   68.56550897
_symmetry_Int_Tables_number   1
_chemical_formula_structural   Lu7Ru2PtSe
_chemical_formula_sum   'Lu7 Ru2 Pt1 Se1'
_cell_volume   255.81452173
_cell_formula_units_Z   1
loop_
 _symmetry_equiv_pos_site_id
 _symmetry_equiv_pos_as_xyz
  1  'x, y, z'
loop_
 _atom_site_type_symbol
 _atom_site_label
 _atom_site_symmetry_multiplicity
 _atom_site_fract_x
 _atom_site_fract_y
 _atom_site_fract_z
 _atom_site_occupancy
  Lu  Lu0  1  0.617230  0.357979  0.259252  1
  Lu  Lu1  1  0.901273  0.642021  0.259252  1
  Lu  Lu2  1  0.013082  0.000000  0.013082  1
  Lu  Lu3  1  0.531949  0.119196  0.412753  1
  Lu  Lu4  1  0.293557  0.880804  0.412753  1
  Lu  Lu5  1  0.944653  0.316467  0.628187  1
  Lu  Lu6  1  0.311719  0.683533  0.628187  1
  Ru  Ru7  1  0.167571  0.238234  0.929337  1
  Ru  Ru8  1  0.691102  0.761766  0.929337  1
  Pt  Pt9  1  0.246380  0.500000  0.746380  1
  Se  Se10  1  0.672342  0.000000  0.672342  1
