# generated using pymatgen
data_TbHo3Al17GaIr6
_symmetry_space_group_name_H-M   'P 1'
_cell_length_a   7.54126313
_cell_length_b   7.54269326
_cell_length_c   9.49277300
_cell_angle_alpha   90.00000000
_cell_angle_beta   90.00000000
_cell_angle_gamma   119.40605452
_symmetry_Int_Tables_number   1
_chemical_formula_structural   TbHo3Al17GaIr6
_chemical_formula_sum   'Tb1 Ho3 Al17 Ga1 Ir6'
_cell_volume   470.39481514
_cell_formula_units_Z   1
loop_
 _symmetry_equiv_pos_site_id
 _symmetry_equiv_pos_as_xyz
  1  'x, y, z'
loop_
 _atom_site_type_symbol
 _atom_site_label
 _atom_site_symmetry_multiplicity
 _atom_site_fract_x
 _atom_site_fract_y
 _atom_site_fract_z
 _atom_site_occupancy
  Tb  Tb0  1  0.993952  0.673357  0.250000  1
  Ho  Ho1  1  0.005204  0.328374  0.750000  1
  Ho  Ho2  1  0.673523  0.994089  0.250000  1
  Ho  Ho3  1  0.328425  0.005294  0.750000  1
  Al  Al4  1  0.870186  0.870372  0.750000  1
  Al  Al5  1  0.001117  0.335063  0.072977  1
  Al  Al6  1  0.998827  0.664384  0.925211  1
  Al  Al7  1  0.998827  0.664384  0.574789  1
  Al  Al8  1  0.335782  0.001402  0.427010  1
  Al  Al9  1  0.001117  0.335063  0.427023  1
  Al  Al10  1  0.664409  0.998842  0.574313  1
  Al  Al11  1  0.664409  0.998842  0.925687  1
  Al  Al12  1  0.335782  0.001402  0.072990  1
  Al  Al13  1  0.333259  0.333288  0.553672  1
  Al  Al14  1  0.665726  0.666019  0.449345  1
  Al  Al15  1  0.665726  0.666019  0.050655  1
  Al  Al16  1  0.333259  0.333288  0.946328  1
  Al  Al17  1  0.339023  0.549358  0.250000  1
  Al  Al18  1  0.660483  0.451111  0.750000  1
  Al  Al19  1  0.548826  0.338031  0.250000  1
  Al  Al20  1  0.451188  0.660700  0.750000  1
  Ga  Ga21  1  0.133193  0.133597  0.250000  1
  Ir  Ir22  1  0.671462  0.327574  0.999896  1
  Ir  Ir23  1  0.327828  0.671570  0.999917  1
  Ir  Ir24  1  0.327828  0.671570  0.500083  1
  Ir  Ir25  1  0.671462  0.327574  0.500104  1
  Ir  Ir26  1  0.999590  0.999715  0.997836  1
  Ir  Ir27  1  0.999590  0.999715  0.502164  1
