# generated using pymatgen
data_ErPa7Ti12Si15Sn
_symmetry_space_group_name_H-M   'P 1'
_cell_length_a   7.07323221
_cell_length_b   7.05568151
_cell_length_c   13.07547719
_cell_angle_alpha   89.88813733
_cell_angle_beta   89.71354535
_cell_angle_gamma   90.10130564
_symmetry_Int_Tables_number   1
_chemical_formula_structural   ErPa7Ti12Si15Sn
_chemical_formula_sum   'Er1 Pa7 Ti12 Si15 Sn1'
_cell_volume   652.54052830
_cell_formula_units_Z   1
loop_
 _symmetry_equiv_pos_site_id
 _symmetry_equiv_pos_as_xyz
  1  'x, y, z'
loop_
 _atom_site_type_symbol
 _atom_site_label
 _atom_site_symmetry_multiplicity
 _atom_site_fract_x
 _atom_site_fract_y
 _atom_site_fract_z
 _atom_site_occupancy
  Er  Er0  1  0.339986  0.996409  0.463278  1
  Pa  Pa1  1  0.505113  0.828974  0.720261  1
  Pa  Pa2  1  0.505415  0.165646  0.217463  1
  Pa  Pa3  1  0.836295  0.495909  0.281294  1
  Pa  Pa4  1  0.168233  0.513250  0.784100  1
  Pa  Pa5  1  0.666700  0.998956  0.969972  1
  Pa  Pa6  1  0.987374  0.348790  0.525093  1
  Pa  Pa7  1  0.999168  0.665932  0.032476  1
  Ti  Ti8  1  0.331767  0.330812  0.001529  1
  Ti  Ti9  1  0.169134  0.828242  0.248382  1
  Ti  Ti10  1  0.817985  0.168357  0.751485  1
  Ti  Ti11  1  0.673274  0.664472  0.500374  1
  Ti  Ti12  1  0.158352  0.000094  0.883422  1
  Ti  Ti13  1  0.499593  0.657586  0.126791  1
  Ti  Ti14  1  0.509279  0.351390  0.626218  1
  Ti  Ti15  1  0.660430  0.499338  0.876236  1
  Ti  Ti16  1  0.340935  0.502350  0.372992  1
  Ti  Ti17  1  0.838558  0.999305  0.373805  1
  Ti  Ti18  1  0.003527  0.157401  0.124636  1
  Ti  Ti19  1  0.980939  0.824854  0.620112  1
  Si  Si20  1  0.377688  0.704004  0.936491  1
  Si  Si21  1  0.620075  0.296700  0.432868  1
  Si  Si22  1  0.705742  0.375087  0.065903  1
  Si  Si23  1  0.294275  0.627737  0.565133  1
  Si  Si24  1  0.798543  0.873001  0.184686  1
  Si  Si25  1  0.128730  0.201004  0.315781  1
  Si  Si26  1  0.874932  0.799861  0.817085  1
  Si  Si27  1  0.293481  0.960313  0.067929  1
  Si  Si28  1  0.542117  0.790035  0.315154  1
  Si  Si29  1  0.464530  0.210294  0.819786  1
  Si  Si30  1  0.794246  0.534681  0.687427  1
  Si  Si31  1  0.209729  0.458659  0.184156  1
  Si  Si32  1  0.704608  0.042826  0.564380  1
  Si  Si33  1  0.961552  0.292384  0.933745  1
  Si  Si34  1  0.040826  0.713539  0.430735  1
  Sn  Sn35  1  0.196864  0.121808  0.678819  1
