# generated using pymatgen
data_Ho16Cd4PdRu3
_symmetry_space_group_name_H-M   'P 1'
_cell_length_a   9.54193503
_cell_length_b   9.65710345
_cell_length_c   9.65710400
_cell_angle_alpha   59.99999810
_cell_angle_beta   59.59992552
_cell_angle_gamma   59.59992987
_symmetry_Int_Tables_number   1
_chemical_formula_structural   Ho16Cd4PdRu3
_chemical_formula_sum   'Ho16 Cd4 Pd1 Ru3'
_cell_volume   625.40649091
_cell_formula_units_Z   1
loop_
 _symmetry_equiv_pos_site_id
 _symmetry_equiv_pos_as_xyz
  1  'x, y, z'
loop_
 _atom_site_type_symbol
 _atom_site_label
 _atom_site_symmetry_multiplicity
 _atom_site_fract_x
 _atom_site_fract_y
 _atom_site_fract_z
 _atom_site_occupancy
  Ho  Ho0  1  0.345555  0.351493  0.351493  1
  Ho  Ho1  1  0.345555  0.351493  0.951460  1
  Ho  Ho2  1  0.345555  0.951460  0.351493  1
  Ho  Ho3  1  0.963563  0.345479  0.345479  1
  Ho  Ho4  1  0.816042  0.188988  0.188988  1
  Ho  Ho5  1  0.187045  0.811830  0.811830  1
  Ho  Ho6  1  0.187045  0.811830  0.189296  1
  Ho  Ho7  1  0.816042  0.188988  0.805982  1
  Ho  Ho8  1  0.187045  0.189296  0.811830  1
  Ho  Ho9  1  0.816042  0.805982  0.188988  1
  Ho  Ho10  1  0.935313  0.563105  0.563105  1
  Ho  Ho11  1  0.559081  0.937367  0.937367  1
  Ho  Ho12  1  0.559081  0.937367  0.566185  1
  Ho  Ho13  1  0.935313  0.563105  0.938478  1
  Ho  Ho14  1  0.559081  0.566185  0.937367  1
  Ho  Ho15  1  0.935313  0.938478  0.563105  1
  Cd  Cd16  1  0.580352  0.580019  0.580019  1
  Cd  Cd17  1  0.580352  0.580019  0.259609  1
  Cd  Cd18  1  0.580352  0.259609  0.580019  1
  Cd  Cd19  1  0.257175  0.580941  0.580941  1
  Pd  Pd20  1  0.572178  0.142607  0.142607  1
  Ru  Ru21  1  0.145641  0.139400  0.139400  1
  Ru  Ru22  1  0.145641  0.139400  0.575559  1
  Ru  Ru23  1  0.145641  0.575559  0.139400  1
