# generated using pymatgen
data_Nb20Ir9Os
_symmetry_space_group_name_H-M   'P 1'
_cell_length_a   9.99092688
_cell_length_b   9.99092660
_cell_length_c   5.12619800
_cell_angle_alpha   90.00000000
_cell_angle_beta   90.00000000
_cell_angle_gamma   90.10770752
_symmetry_Int_Tables_number   1
_chemical_formula_structural   Nb20Ir9Os
_chemical_formula_sum   'Nb20 Ir9 Os1'
_cell_volume   511.68909147
_cell_formula_units_Z   1
loop_
 _symmetry_equiv_pos_site_id
 _symmetry_equiv_pos_as_xyz
  1  'x, y, z'
loop_
 _atom_site_type_symbol
 _atom_site_label
 _atom_site_symmetry_multiplicity
 _atom_site_fract_x
 _atom_site_fract_y
 _atom_site_fract_z
 _atom_site_occupancy
  Nb  Nb0  1  0.395316  0.395316  0.000000  1
  Nb  Nb1  1  0.893795  0.106205  0.500000  1
  Nb  Nb2  1  0.106205  0.893795  0.500000  1
  Nb  Nb3  1  0.604684  0.604684  0.000000  1
  Nb  Nb4  1  0.128393  0.462466  0.000000  1
  Nb  Nb5  1  0.963004  0.372192  0.500000  1
  Nb  Nb6  1  0.036996  0.627808  0.500000  1
  Nb  Nb7  1  0.871607  0.537534  0.000000  1
  Nb  Nb8  1  0.372192  0.963004  0.500000  1
  Nb  Nb9  1  0.627808  0.036996  0.500000  1
  Nb  Nb10  1  0.462466  0.128393  0.000000  1
  Nb  Nb11  1  0.537534  0.871607  0.000000  1
  Nb  Nb12  1  0.178787  0.178787  0.251517  1
  Nb  Nb13  1  0.679028  0.320972  0.750901  1
  Nb  Nb14  1  0.320972  0.679028  0.750901  1
  Nb  Nb15  1  0.821213  0.821213  0.251517  1
  Nb  Nb16  1  0.320972  0.679028  0.249099  1
  Nb  Nb17  1  0.679028  0.320972  0.249099  1
  Nb  Nb18  1  0.178787  0.178787  0.748483  1
  Nb  Nb19  1  0.821213  0.821213  0.748483  1
  Ir  Ir20  1  0.000000  0.000000  0.000000  1
  Ir  Ir21  1  0.261605  0.931025  0.000000  1
  Ir  Ir22  1  0.431061  0.238643  0.500000  1
  Ir  Ir23  1  0.568939  0.761357  0.500000  1
  Ir  Ir24  1  0.738395  0.068975  0.000000  1
  Ir  Ir25  1  0.238643  0.431061  0.500000  1
  Ir  Ir26  1  0.761357  0.568939  0.500000  1
  Ir  Ir27  1  0.931025  0.261605  0.000000  1
  Ir  Ir28  1  0.068975  0.738395  0.000000  1
  Os  Os29  1  0.500000  0.500000  0.500000  1
