# generated using pymatgen
data_LiYb3MgCdPb3
_symmetry_space_group_name_H-M   'P 1'
_cell_length_a   7.72577618
_cell_length_b   7.67327841
_cell_length_c   4.77738000
_cell_angle_alpha   90.00000000
_cell_angle_beta   90.00000000
_cell_angle_gamma   120.29902668
_symmetry_Int_Tables_number   1
_chemical_formula_structural   LiYb3MgCdPb3
_chemical_formula_sum   'Li1 Yb3 Mg1 Cd1 Pb3'
_cell_volume   244.52709168
_cell_formula_units_Z   1
loop_
 _symmetry_equiv_pos_site_id
 _symmetry_equiv_pos_as_xyz
  1  'x, y, z'
loop_
 _atom_site_type_symbol
 _atom_site_label
 _atom_site_symmetry_multiplicity
 _atom_site_fract_x
 _atom_site_fract_y
 _atom_site_fract_z
 _atom_site_occupancy
  Li  Li0  1  0.763000  0.766398  0.000000  1
  Yb  Yb1  1  0.427743  0.429730  0.500000  1
  Yb  Yb2  1  0.571866  0.005936  0.500000  1
  Yb  Yb3  1  0.004300  0.560979  0.500000  1
  Mg  Mg4  1  0.237088  0.000423  0.000000  1
  Cd  Cd5  1  0.998884  0.240501  0.000000  1
  Pb  Pb6  1  0.666153  0.344359  0.000000  1
  Pb  Pb7  1  0.347576  0.674407  0.000000  1
  Pb  Pb8  1  0.983389  0.977267  0.500000  1
