# generated using pymatgen
data_Dy6Lu4Sn5Sb
_symmetry_space_group_name_H-M   'P 1'
_cell_length_a   8.86922600
_cell_length_b   8.86922656
_cell_length_c   6.40515200
_cell_angle_alpha   90.00000000
_cell_angle_beta   90.00000000
_cell_angle_gamma   119.98009067
_symmetry_Int_Tables_number   1
_chemical_formula_structural   Dy6Lu4Sn5Sb
_chemical_formula_sum   'Dy6 Lu4 Sn5 Sb1'
_cell_volume   436.43405900
_cell_formula_units_Z   1
loop_
 _symmetry_equiv_pos_site_id
 _symmetry_equiv_pos_as_xyz
  1  'x, y, z'
loop_
 _atom_site_type_symbol
 _atom_site_label
 _atom_site_symmetry_multiplicity
 _atom_site_fract_x
 _atom_site_fract_y
 _atom_site_fract_z
 _atom_site_occupancy
  Dy  Dy0  1  0.761132  0.761132  0.750000  1
  Dy  Dy1  1  0.238556  0.998511  0.750000  1
  Dy  Dy2  1  0.998511  0.238556  0.750000  1
  Dy  Dy3  1  0.239621  0.239621  0.250000  1
  Dy  Dy4  1  0.761067  0.000608  0.250000  1
  Dy  Dy5  1  0.000608  0.761067  0.250000  1
  Lu  Lu6  1  0.667030  0.333187  0.000277  1
  Lu  Lu7  1  0.333187  0.667030  0.000277  1
  Lu  Lu8  1  0.333187  0.667030  0.499723  1
  Lu  Lu9  1  0.667030  0.333187  0.499723  1
  Sn  Sn10  1  0.601815  0.999830  0.750000  1
  Sn  Sn11  1  0.999830  0.601815  0.750000  1
  Sn  Sn12  1  0.603889  0.603889  0.250000  1
  Sn  Sn13  1  0.397618  0.000839  0.250000  1
  Sn  Sn14  1  0.000839  0.397618  0.250000  1
  Sb  Sb15  1  0.396079  0.396079  0.750000  1
