# generated using pymatgen
data_GdAlGeO5
_symmetry_space_group_name_H-M   'P 1'
_cell_length_a   5.70264600
_cell_length_b   7.38826900
_cell_length_c   8.45495500
_cell_angle_alpha   90.00000000
_cell_angle_beta   90.00000000
_cell_angle_gamma   90.00000000
_symmetry_Int_Tables_number   1
_chemical_formula_structural   GdAlGeO5
_chemical_formula_sum   'Gd4 Al4 Ge4 O20'
_cell_volume   356.22993592
_cell_formula_units_Z   4
loop_
 _symmetry_equiv_pos_site_id
 _symmetry_equiv_pos_as_xyz
  1  'x, y, z'
loop_
 _atom_site_type_symbol
 _atom_site_label
 _atom_site_symmetry_multiplicity
 _atom_site_fract_x
 _atom_site_fract_y
 _atom_site_fract_z
 _atom_site_occupancy
  Gd  Gd0  1  0.000000  0.356762  0.325909  1
  Gd  Gd1  1  0.000000  0.643238  0.674091  1
  Gd  Gd2  1  0.000000  0.856762  0.174091  1
  Gd  Gd3  1  0.000000  0.143238  0.825909  1
  Al  Al4  1  0.250554  0.500000  0.000000  1
  Al  Al5  1  0.749446  0.000000  0.500000  1
  Al  Al6  1  0.749446  0.500000  0.000000  1
  Al  Al7  1  0.250554  0.000000  0.500000  1
  Ge  Ge8  1  0.500000  0.120279  0.143662  1
  Ge  Ge9  1  0.500000  0.879721  0.856338  1
  Ge  Ge10  1  0.500000  0.620279  0.356338  1
  Ge  Ge11  1  0.500000  0.379721  0.643662  1
  O  O12  1  0.000000  0.341157  0.052517  1
  O  O13  1  0.000000  0.658843  0.947483  1
  O  O14  1  0.000000  0.841157  0.447483  1
  O  O15  1  0.000000  0.158843  0.552517  1
  O  O16  1  0.500000  0.346240  0.068850  1
  O  O17  1  0.500000  0.653760  0.931150  1
  O  O18  1  0.500000  0.846240  0.431150  1
  O  O19  1  0.500000  0.153760  0.568850  1
  O  O20  1  0.255593  0.105083  0.287545  1
  O  O21  1  0.255593  0.894917  0.712455  1
  O  O22  1  0.744407  0.605083  0.212455  1
  O  O23  1  0.744407  0.394917  0.787545  1
  O  O24  1  0.744407  0.894917  0.712455  1
  O  O25  1  0.744407  0.105083  0.287545  1
  O  O26  1  0.255593  0.394917  0.787545  1
  O  O27  1  0.255593  0.605083  0.212455  1
  O  O28  1  0.287001  0.000000  0.000000  1
  O  O29  1  0.712999  0.500000  0.500000  1
  O  O30  1  0.712999  0.000000  0.000000  1
  O  O31  1  0.287001  0.500000  0.500000  1
