# generated using pymatgen
data_InBi11S18
_symmetry_space_group_name_H-M   'P 1'
_cell_length_a   4.06704400
_cell_length_b   10.92124019
_cell_length_c   18.50751511
_cell_angle_alpha   80.22068503
_cell_angle_beta   90.00000000
_cell_angle_gamma   90.00000000
_symmetry_Int_Tables_number   1
_chemical_formula_structural   InBi11S18
_chemical_formula_sum   'In1 Bi11 S18'
_cell_volume   810.10634658
_cell_formula_units_Z   1
loop_
 _symmetry_equiv_pos_site_id
 _symmetry_equiv_pos_as_xyz
  1  'x, y, z'
loop_
 _atom_site_type_symbol
 _atom_site_label
 _atom_site_symmetry_multiplicity
 _atom_site_fract_x
 _atom_site_fract_y
 _atom_site_fract_z
 _atom_site_occupancy
  In  In0  1  0.750000  0.798623  0.718021  1
  Bi  Bi1  1  0.750000  0.899965  0.414136  1
  Bi  Bi2  1  0.250000  0.091363  0.590962  1
  Bi  Bi3  1  0.750000  0.436231  0.099651  1
  Bi  Bi4  1  0.250000  0.579013  0.885460  1
  Bi  Bi5  1  0.750000  0.815484  0.036720  1
  Bi  Bi6  1  0.250000  0.191462  0.963557  1
  Bi  Bi7  1  0.750000  0.521547  0.409070  1
  Bi  Bi8  1  0.250000  0.476098  0.598148  1
  Bi  Bi9  1  0.250000  0.828098  0.224297  1
  Bi  Bi10  1  0.750000  0.161286  0.777575  1
  Bi  Bi11  1  0.250000  0.202740  0.278709  1
  S  S12  1  0.750000  0.388662  0.963083  1
  S  S13  1  0.250000  0.619318  0.026550  1
  S  S14  1  0.250000  0.718427  0.371174  1
  S  S15  1  0.750000  0.276533  0.632831  1
  S  S16  1  0.250000  0.988107  0.733563  1
  S  S17  1  0.750000  0.995274  0.269773  1
  S  S18  1  0.250000  0.374470  0.474294  1
  S  S19  1  0.750000  0.623332  0.532472  1
  S  S20  1  0.750000  0.362924  0.285175  1
  S  S21  1  0.250000  0.654235  0.713274  1
  S  S22  1  0.250000  0.265718  0.125651  1
  S  S23  1  0.750000  0.747390  0.863345  1
  S  S24  1  0.750000  0.047008  0.924640  1
  S  S25  1  0.250000  0.955291  0.079589  1
  S  S26  1  0.750000  0.925431  0.584073  1
  S  S27  1  0.250000  0.062691  0.427337  1
  S  S28  1  0.250000  0.305667  0.818693  1
  S  S29  1  0.750000  0.687613  0.178178  1
