# generated using pymatgen
data_Tm20Ir5Os4Pd3
_symmetry_space_group_name_H-M   'P 1'
_cell_length_a   10.81765845
_cell_length_b   10.81765802
_cell_length_c   6.39227900
_cell_angle_alpha   89.97036605
_cell_angle_beta   89.97036605
_cell_angle_gamma   90.19794721
_symmetry_Int_Tables_number   1
_chemical_formula_structural   Tm20Ir5Os4Pd3
_chemical_formula_sum   'Tm20 Ir5 Os4 Pd3'
_cell_volume   748.03087972
_cell_formula_units_Z   1
loop_
 _symmetry_equiv_pos_site_id
 _symmetry_equiv_pos_as_xyz
  1  'x, y, z'
loop_
 _atom_site_type_symbol
 _atom_site_label
 _atom_site_symmetry_multiplicity
 _atom_site_fract_x
 _atom_site_fract_y
 _atom_site_fract_z
 _atom_site_occupancy
  Tm  Tm0  1  0.296867  0.083663  0.368864  1
  Tm  Tm1  1  0.296088  0.909346  0.877752  1
  Tm  Tm2  1  0.701465  0.088696  0.871359  1
  Tm  Tm3  1  0.700070  0.910716  0.370869  1
  Tm  Tm4  1  0.581217  0.792509  0.877620  1
  Tm  Tm5  1  0.580927  0.207162  0.377244  1
  Tm  Tm6  1  0.412681  0.793139  0.377595  1
  Tm  Tm7  1  0.417683  0.206822  0.877120  1
  Tm  Tm8  1  0.207491  0.418783  0.622380  1
  Tm  Tm9  1  0.206861  0.587319  0.122405  1
  Tm  Tm10  1  0.792838  0.419073  0.122756  1
  Tm  Tm11  1  0.793178  0.582317  0.622880  1
  Tm  Tm12  1  0.916337  0.703133  0.131136  1
  Tm  Tm13  1  0.911304  0.298535  0.628641  1
  Tm  Tm14  1  0.090654  0.703912  0.622248  1
  Tm  Tm15  1  0.089284  0.299930  0.129131  1
  Tm  Tm16  1  0.001809  0.997231  0.498508  1
  Tm  Tm17  1  0.002769  0.998191  0.001492  1
  Tm  Tm18  1  0.499576  0.499730  0.000583  1
  Tm  Tm19  1  0.500270  0.500424  0.499417  1
  Ir  Ir20  1  0.149956  0.850044  0.250000  1
  Ir  Ir21  1  0.652859  0.347141  0.750000  1
  Ir  Ir22  1  0.653483  0.652845  0.249619  1
  Ir  Ir23  1  0.347155  0.346517  0.250381  1
  Ir  Ir24  1  0.348110  0.651890  0.750000  1
  Os  Os25  1  0.500804  0.000000  0.123190  1
  Os  Os26  1  0.500426  0.999775  0.624878  1
  Os  Os27  1  0.000225  0.499574  0.875122  1
  Os  Os28  1  0.000000  0.499196  0.376810  1
  Pd  Pd29  1  0.848325  0.151675  0.250000  1
  Pd  Pd30  1  0.846529  0.847243  0.750353  1
  Pd  Pd31  1  0.152757  0.153471  0.749647  1
