# generated using pymatgen
data_HoPbF7
_symmetry_space_group_name_H-M   'P 1'
_cell_length_a   5.79601400
_cell_length_b   6.13043665
_cell_length_c   8.37717264
_cell_angle_alpha   102.90178316
_cell_angle_beta   90.00000000
_cell_angle_gamma   90.00000000
_symmetry_Int_Tables_number   1
_chemical_formula_structural   HoPbF7
_chemical_formula_sum   'Ho2 Pb2 F14'
_cell_volume   290.14389450
_cell_formula_units_Z   2
loop_
 _symmetry_equiv_pos_site_id
 _symmetry_equiv_pos_as_xyz
  1  'x, y, z'
loop_
 _atom_site_type_symbol
 _atom_site_label
 _atom_site_symmetry_multiplicity
 _atom_site_fract_x
 _atom_site_fract_y
 _atom_site_fract_z
 _atom_site_occupancy
  Ho  Ho0  1  0.697261  0.652776  0.683696  1
  Ho  Ho1  1  0.197261  0.347224  0.316304  1
  Pb  Pb2  1  0.706731  0.811195  0.226677  1
  Pb  Pb3  1  0.206731  0.188805  0.773323  1
  F  F4  1  0.903064  0.467721  0.481446  1
  F  F5  1  0.403064  0.532279  0.518554  1
  F  F6  1  0.428419  0.915862  0.768475  1
  F  F7  1  0.928419  0.084138  0.231525  1
  F  F8  1  0.939748  0.949205  0.759372  1
  F  F9  1  0.439748  0.050795  0.240628  1
  F  F10  1  0.990474  0.468292  0.792942  1
  F  F11  1  0.490474  0.531708  0.207058  1
  F  F12  1  0.696870  0.758073  0.972933  1
  F  F13  1  0.196870  0.241927  0.027067  1
  F  F14  1  0.701715  0.872712  0.482707  1
  F  F15  1  0.201715  0.127288  0.517293  1
  F  F16  1  0.512076  0.381703  0.782594  1
  F  F17  1  0.012076  0.618297  0.217406  1
