# generated using pymatgen
data_Ca4Zn(Si2Pt)5
_symmetry_space_group_name_H-M   'P 1'
_cell_length_a   8.30837254
_cell_length_b   8.30837245
_cell_length_c   8.30837256
_cell_angle_alpha   138.41238680
_cell_angle_beta   103.87668421
_cell_angle_gamma   90.70048533
_symmetry_Int_Tables_number   1
_chemical_formula_structural   Ca4Zn(Si2Pt)5
_chemical_formula_sum   'Ca4 Zn1 Si10 Pt5'
_cell_volume   352.85548878
_cell_formula_units_Z   1
loop_
 _symmetry_equiv_pos_site_id
 _symmetry_equiv_pos_as_xyz
  1  'x, y, z'
loop_
 _atom_site_type_symbol
 _atom_site_label
 _atom_site_symmetry_multiplicity
 _atom_site_fract_x
 _atom_site_fract_y
 _atom_site_fract_z
 _atom_site_occupancy
  Ca  Ca0  1  0.637931  0.374017  0.263812  1
  Ca  Ca1  1  0.362069  0.625880  0.736085  1
  Ca  Ca2  1  0.110205  0.874120  0.236188  1
  Ca  Ca3  1  0.889795  0.125983  0.763915  1
  Zn  Zn4  1  0.500000  0.250000  0.750000  1
  Si  Si5  1  0.467510  0.117505  0.350287  1
  Si  Si6  1  0.532490  0.882776  0.649994  1
  Si  Si7  1  0.767218  0.617224  0.149713  1
  Si  Si8  1  0.232782  0.382495  0.850006  1
  Si  Si9  1  0.271392  0.521392  0.250000  1
  Si  Si10  1  0.735169  0.485169  0.750000  1
  Si  Si11  1  0.728608  0.978608  0.250000  1
  Si  Si12  1  0.264831  0.014831  0.750000  1
  Si  Si13  1  0.000000  0.250000  0.250000  1
  Si  Si14  1  0.000000  0.750000  0.750000  1
  Pt  Pt15  1  0.500000  0.750000  0.250000  1
  Pt  Pt16  1  0.251872  0.137833  0.118839  1
  Pt  Pt17  1  0.748128  0.866967  0.885961  1
  Pt  Pt18  1  0.018995  0.633033  0.381161  1
  Pt  Pt19  1  0.981005  0.362167  0.614039  1
