# generated using pymatgen
data_La6DyRh3
_symmetry_space_group_name_H-M   'P 1'
_cell_length_a   10.26018300
_cell_length_b   10.26018451
_cell_length_c   6.45204600
_cell_angle_alpha   90.00000000
_cell_angle_beta   90.00000000
_cell_angle_gamma   120.00000481
_symmetry_Int_Tables_number   1
_chemical_formula_structural   La6DyRh3
_chemical_formula_sum   'La12 Dy2 Rh6'
_cell_volume   588.21804482
_cell_formula_units_Z   2
loop_
 _symmetry_equiv_pos_site_id
 _symmetry_equiv_pos_as_xyz
  1  'x, y, z'
loop_
 _atom_site_type_symbol
 _atom_site_label
 _atom_site_symmetry_multiplicity
 _atom_site_fract_x
 _atom_site_fract_y
 _atom_site_fract_z
 _atom_site_occupancy
  La  La0  1  0.874126  0.748252  0.764521  1
  La  La1  1  0.251748  0.125874  0.764521  1
  La  La2  1  0.874126  0.125874  0.764521  1
  La  La3  1  0.125874  0.251748  0.264521  1
  La  La4  1  0.748252  0.874126  0.264521  1
  La  La5  1  0.125874  0.874126  0.264521  1
  La  La6  1  0.457675  0.915350  0.593535  1
  La  La7  1  0.084650  0.542325  0.593535  1
  La  La8  1  0.457675  0.542325  0.593535  1
  La  La9  1  0.542325  0.084650  0.093535  1
  La  La10  1  0.915350  0.457675  0.093535  1
  La  La11  1  0.542325  0.457675  0.093535  1
  Dy  Dy12  1  0.666667  0.333333  0.568137  1
  Dy  Dy13  1  0.333333  0.666667  0.068137  1
  Rh  Rh14  1  0.190215  0.380430  0.855073  1
  Rh  Rh15  1  0.619570  0.809785  0.855073  1
  Rh  Rh16  1  0.190215  0.809785  0.855073  1
  Rh  Rh17  1  0.809785  0.619570  0.355073  1
  Rh  Rh18  1  0.380430  0.190215  0.355073  1
  Rh  Rh19  1  0.809785  0.190215  0.355073  1
