# generated using pymatgen
data_Sc4Fe3Si4Rh
_symmetry_space_group_name_H-M   'P 1'
_cell_length_a   4.06689500
_cell_length_b   6.55789855
_cell_length_c   6.79983121
_cell_angle_alpha   90.36470986
_cell_angle_beta   90.00000000
_cell_angle_gamma   90.00000000
_symmetry_Int_Tables_number   1
_chemical_formula_structural   Sc4Fe3Si4Rh
_chemical_formula_sum   'Sc4 Fe3 Si4 Rh1'
_cell_volume   181.34976106
_cell_formula_units_Z   1
loop_
 _symmetry_equiv_pos_site_id
 _symmetry_equiv_pos_as_xyz
  1  'x, y, z'
loop_
 _atom_site_type_symbol
 _atom_site_label
 _atom_site_symmetry_multiplicity
 _atom_site_fract_x
 _atom_site_fract_y
 _atom_site_fract_z
 _atom_site_occupancy
  Sc  Sc0  1  0.750000  0.518185  0.813978  1
  Sc  Sc1  1  0.250000  0.993001  0.307350  1
  Sc  Sc2  1  0.750000  0.004572  0.695772  1
  Sc  Sc3  1  0.250000  0.493588  0.185392  1
  Fe  Fe4  1  0.250000  0.651906  0.560367  1
  Fe  Fe5  1  0.250000  0.149294  0.937229  1
  Fe  Fe6  1  0.750000  0.842424  0.059661  1
  Si  Si7  1  0.250000  0.797049  0.891506  1
  Si  Si8  1  0.250000  0.299834  0.627084  1
  Si  Si9  1  0.750000  0.198324  0.095241  1
  Si  Si10  1  0.750000  0.710616  0.390026  1
  Rh  Rh11  1  0.750000  0.341206  0.436394  1
