# generated using pymatgen
data_MnCr2NiP2
_symmetry_space_group_name_H-M   'P 1'
_cell_length_a   3.55343600
_cell_length_b   5.79042024
_cell_length_c   6.71644816
_cell_angle_alpha   91.26375561
_cell_angle_beta   90.00000000
_cell_angle_gamma   90.00000000
_symmetry_Int_Tables_number   1
_chemical_formula_structural   MnCr2NiP2
_chemical_formula_sum   'Mn2 Cr4 Ni2 P4'
_cell_volume   138.16326833
_cell_formula_units_Z   2
loop_
 _symmetry_equiv_pos_site_id
 _symmetry_equiv_pos_as_xyz
  1  'x, y, z'
loop_
 _atom_site_type_symbol
 _atom_site_label
 _atom_site_symmetry_multiplicity
 _atom_site_fract_x
 _atom_site_fract_y
 _atom_site_fract_z
 _atom_site_occupancy
  Mn  Mn0  1  0.250000  0.640681  0.942186  1
  Mn  Mn1  1  0.750000  0.359061  0.057597  1
  Cr  Cr2  1  0.250000  0.028966  0.162778  1
  Cr  Cr3  1  0.250000  0.521272  0.322496  1
  Cr  Cr4  1  0.750000  0.970635  0.837095  1
  Cr  Cr5  1  0.750000  0.479096  0.677646  1
  Ni  Ni6  1  0.250000  0.140481  0.562807  1
  Ni  Ni7  1  0.750000  0.859788  0.437360  1
  P  P8  1  0.250000  0.756148  0.627718  1
  P  P9  1  0.250000  0.256866  0.875182  1
  P  P10  1  0.750000  0.244164  0.372416  1
  P  P11  1  0.750000  0.742844  0.124720  1
