# generated using pymatgen
data_Pr2Mn2C3
_symmetry_space_group_name_H-M   'P 1'
_cell_length_a   5.40090977
_cell_length_b   5.40090832
_cell_length_c   5.73726989
_cell_angle_alpha   76.58554164
_cell_angle_beta   76.58554736
_cell_angle_gamma   38.54643040
_symmetry_Int_Tables_number   1
_chemical_formula_structural   Pr2Mn2C3
_chemical_formula_sum   'Pr2 Mn2 C3'
_cell_volume   101.08851050
_cell_formula_units_Z   1
loop_
 _symmetry_equiv_pos_site_id
 _symmetry_equiv_pos_as_xyz
  1  'x, y, z'
loop_
 _atom_site_type_symbol
 _atom_site_label
 _atom_site_symmetry_multiplicity
 _atom_site_fract_x
 _atom_site_fract_y
 _atom_site_fract_z
 _atom_site_occupancy
  Pr  Pr0  1  0.600909  0.600909  0.184963  1
  Pr  Pr1  1  0.399091  0.399091  0.815037  1
  Mn  Mn2  1  0.839882  0.839882  0.404919  1
  Mn  Mn3  1  0.160118  0.160118  0.595081  1
  C  C4  1  0.000000  0.000000  0.500000  1
  C  C5  1  0.303331  0.303331  0.300130  1
  C  C6  1  0.696669  0.696669  0.699870  1
