# generated using pymatgen
data_CeNdHgPd2
_symmetry_space_group_name_H-M   'P 1'
_cell_length_a   7.86010000
_cell_length_b   7.83919800
_cell_length_c   3.84828500
_cell_angle_alpha   90.00000000
_cell_angle_beta   90.00000000
_cell_angle_gamma   90.00000000
_symmetry_Int_Tables_number   1
_chemical_formula_structural   CeNdHgPd2
_chemical_formula_sum   'Ce2 Nd2 Hg2 Pd4'
_cell_volume   237.11931582
_cell_formula_units_Z   2
loop_
 _symmetry_equiv_pos_site_id
 _symmetry_equiv_pos_as_xyz
  1  'x, y, z'
loop_
 _atom_site_type_symbol
 _atom_site_label
 _atom_site_symmetry_multiplicity
 _atom_site_fract_x
 _atom_site_fract_y
 _atom_site_fract_z
 _atom_site_occupancy
  Ce  Ce0  1  0.175061  0.326204  0.500000  1
  Ce  Ce1  1  0.675061  0.173796  0.500000  1
  Nd  Nd2  1  0.324979  0.825451  0.500000  1
  Nd  Nd3  1  0.824979  0.674549  0.500000  1
  Hg  Hg4  1  0.002103  0.999743  0.000000  1
  Hg  Hg5  1  0.502103  0.500257  0.000000  1
  Pd  Pd6  1  0.371469  0.137567  0.000000  1
  Pd  Pd7  1  0.871469  0.362433  0.000000  1
  Pd  Pd8  1  0.126389  0.615983  0.000000  1
  Pd  Pd9  1  0.626389  0.884017  0.000000  1
