# generated using pymatgen
data_Tm5(Hg2Pd)2
_symmetry_space_group_name_H-M   'P 1'
_cell_length_a   3.58000100
_cell_length_b   7.91484600
_cell_length_c   18.02044900
_cell_angle_alpha   90.00000000
_cell_angle_beta   90.00000000
_cell_angle_gamma   90.00000000
_symmetry_Int_Tables_number   1
_chemical_formula_structural   Tm5(Hg2Pd)2
_chemical_formula_sum   'Tm10 Hg8 Pd4'
_cell_volume   510.61224432
_cell_formula_units_Z   2
loop_
 _symmetry_equiv_pos_site_id
 _symmetry_equiv_pos_as_xyz
  1  'x, y, z'
loop_
 _atom_site_type_symbol
 _atom_site_label
 _atom_site_symmetry_multiplicity
 _atom_site_fract_x
 _atom_site_fract_y
 _atom_site_fract_z
 _atom_site_occupancy
  Tm  Tm0  1  0.000000  0.500000  0.500000  1
  Tm  Tm1  1  0.000000  0.000000  0.000000  1
  Tm  Tm2  1  0.000000  0.734834  0.285241  1
  Tm  Tm3  1  0.000000  0.265166  0.714760  1
  Tm  Tm4  1  0.000000  0.765166  0.785240  1
  Tm  Tm5  1  0.000000  0.234834  0.214759  1
  Tm  Tm6  1  0.000000  0.613075  0.083499  1
  Tm  Tm7  1  0.000000  0.386925  0.916501  1
  Tm  Tm8  1  0.000000  0.886925  0.583499  1
  Tm  Tm9  1  0.000000  0.113075  0.416501  1
  Hg  Hg10  1  0.500000  0.712374  0.935874  1
  Hg  Hg11  1  0.500000  0.287626  0.064126  1
  Hg  Hg12  1  0.500000  0.787626  0.435874  1
  Hg  Hg13  1  0.500000  0.212374  0.564126  1
  Hg  Hg14  1  0.500000  0.584647  0.647655  1
  Hg  Hg15  1  0.500000  0.415353  0.352345  1
  Hg  Hg16  1  0.500000  0.915353  0.147655  1
  Hg  Hg17  1  0.500000  0.084647  0.852345  1
  Pd  Pd18  1  0.500000  0.525368  0.196111  1
  Pd  Pd19  1  0.500000  0.474632  0.803889  1
  Pd  Pd20  1  0.500000  0.974632  0.696111  1
  Pd  Pd21  1  0.500000  0.025368  0.303889  1
