# generated using pymatgen
data_TbThIr6
_symmetry_space_group_name_H-M   'P 1'
_cell_length_a   5.35013143
_cell_length_b   5.35013196
_cell_length_c   17.94582453
_cell_angle_alpha   98.57265479
_cell_angle_beta   98.57265597
_cell_angle_gamma   60.00000506
_symmetry_Int_Tables_number   1
_chemical_formula_structural   TbThIr6
_chemical_formula_sum   'Tb3 Th3 Ir18'
_cell_volume   438.22027685
_cell_formula_units_Z   3
loop_
 _symmetry_equiv_pos_site_id
 _symmetry_equiv_pos_as_xyz
  1  'x, y, z'
loop_
 _atom_site_type_symbol
 _atom_site_label
 _atom_site_symmetry_multiplicity
 _atom_site_fract_x
 _atom_site_fract_y
 _atom_site_fract_z
 _atom_site_occupancy
  Tb  Tb0  1  0.429227  0.429227  0.287682  1
  Tb  Tb1  1  0.931213  0.931213  0.793639  1
  Tb  Tb2  1  0.070410  0.070410  0.211230  1
  Th  Th3  1  0.569909  0.569909  0.709727  1
  Th  Th4  1  0.000833  0.000833  0.002500  1
  Th  Th5  1  0.498395  0.498395  0.495182  1
  Ir  Ir6  1  0.458490  0.958350  0.375190  1
  Ir  Ir7  1  0.960260  0.458883  0.878025  1
  Ir  Ir8  1  0.958350  0.958350  0.375190  1
  Ir  Ir9  1  0.458883  0.458883  0.878025  1
  Ir  Ir10  1  0.958350  0.458490  0.375190  1
  Ir  Ir11  1  0.458883  0.960260  0.878025  1
  Ir  Ir12  1  0.041154  0.541629  0.124410  1
  Ir  Ir13  1  0.540263  0.040879  0.622022  1
  Ir  Ir14  1  0.541629  0.541629  0.124410  1
  Ir  Ir15  1  0.040879  0.040879  0.622022  1
  Ir  Ir16  1  0.541629  0.041154  0.124410  1
  Ir  Ir17  1  0.040879  0.540263  0.622022  1
  Ir  Ir18  1  0.333971  0.333971  0.001915  1
  Ir  Ir19  1  0.833182  0.833182  0.499547  1
  Ir  Ir20  1  0.166126  0.166126  0.498379  1
  Ir  Ir21  1  0.666748  0.666748  0.000243  1
  Ir  Ir22  1  0.749983  0.749983  0.249950  1
  Ir  Ir23  1  0.250355  0.250355  0.751067  1
