# generated using pymatgen
data_Y4B16IrPt3
_symmetry_space_group_name_H-M   'P 1'
_cell_length_a   7.04229762
_cell_length_b   7.04229669
_cell_length_c   7.04229800
_cell_angle_alpha   111.77161653
_cell_angle_beta   111.75345342
_cell_angle_gamma   104.97981222
_symmetry_Int_Tables_number   1
_chemical_formula_structural   Y4B16IrPt3
_chemical_formula_sum   'Y4 B16 Ir1 Pt3'
_cell_volume   267.63061116
_cell_formula_units_Z   1
loop_
 _symmetry_equiv_pos_site_id
 _symmetry_equiv_pos_as_xyz
  1  'x, y, z'
loop_
 _atom_site_type_symbol
 _atom_site_label
 _atom_site_symmetry_multiplicity
 _atom_site_fract_x
 _atom_site_fract_y
 _atom_site_fract_z
 _atom_site_occupancy
  Y  Y0  1  0.791479  0.787126  0.995647  1
  Y  Y1  1  0.208521  0.204168  0.995647  1
  Y  Y2  1  0.746819  0.251001  0.504182  1
  Y  Y3  1  0.253181  0.757363  0.504182  1
  B  B4  1  0.265978  0.107073  0.373051  1
  B  B5  1  0.736176  0.893132  0.629307  1
  B  B6  1  0.263824  0.893132  0.156956  1
  B  B7  1  0.734022  0.107073  0.841096  1
  B  B8  1  0.106245  0.737750  0.843995  1
  B  B9  1  0.893051  0.261801  0.154852  1
  B  B10  1  0.106949  0.261801  0.368750  1
  B  B11  1  0.893755  0.737750  0.631504  1
  B  B12  1  0.109861  0.107062  0.522633  1
  B  B13  1  0.588109  0.587633  0.481787  1
  B  B14  1  0.105846  0.587633  0.999523  1
  B  B15  1  0.584428  0.107062  0.997201  1
  B  B16  1  0.894154  0.893677  0.481787  1
  B  B17  1  0.415572  0.412773  0.522633  1
  B  B18  1  0.890139  0.412773  0.997201  1
  B  B19  1  0.411891  0.893677  0.999523  1
  Ir  Ir20  1  0.500000  0.259293  0.759293  1
  Pt  Pt21  1  0.257245  0.499390  0.756635  1
  Pt  Pt22  1  0.742755  0.499390  0.242145  1
  Pt  Pt23  1  0.500000  0.740466  0.240466  1
