# generated using pymatgen
data_SiAg2F6
_symmetry_space_group_name_H-M   'P 1'
_cell_length_a   5.58783023
_cell_length_b   5.58783005
_cell_length_c   5.58783000
_cell_angle_alpha   60.00000029
_cell_angle_beta   60.00000137
_cell_angle_gamma   59.99999641
_symmetry_Int_Tables_number   1
_chemical_formula_structural   SiAg2F6
_chemical_formula_sum   'Si1 Ag2 F6'
_cell_volume   123.37142260
_cell_formula_units_Z   1
loop_
 _symmetry_equiv_pos_site_id
 _symmetry_equiv_pos_as_xyz
  1  'x, y, z'
loop_
 _atom_site_type_symbol
 _atom_site_label
 _atom_site_symmetry_multiplicity
 _atom_site_fract_x
 _atom_site_fract_y
 _atom_site_fract_z
 _atom_site_occupancy
  Si  Si0  1  0.000000  0.000000  0.000000  1
  Ag  Ag1  1  0.250000  0.250000  0.250000  1
  Ag  Ag2  1  0.750000  0.750000  0.750000  1
  F  F3  1  0.782403  0.782403  0.217598  1
  F  F4  1  0.782404  0.217597  0.217597  1
  F  F5  1  0.217597  0.782404  0.217597  1
  F  F6  1  0.217597  0.217597  0.782404  1
  F  F7  1  0.782403  0.217598  0.782403  1
  F  F8  1  0.217598  0.782403  0.782403  1
