# generated using pymatgen
data_TbTmU2(B4Ru)4
_symmetry_space_group_name_H-M   'P 1'
_cell_length_a   3.54481900
_cell_length_b   5.95860845
_cell_length_c   11.53012829
_cell_angle_alpha   90.08998186
_cell_angle_beta   90.00000000
_cell_angle_gamma   90.00000000
_symmetry_Int_Tables_number   1
_chemical_formula_structural   TbTmU2(B4Ru)4
_chemical_formula_sum   'Tb1 Tm1 U2 B16 Ru4'
_cell_volume   243.54124213
_cell_formula_units_Z   1
loop_
 _symmetry_equiv_pos_site_id
 _symmetry_equiv_pos_as_xyz
  1  'x, y, z'
loop_
 _atom_site_type_symbol
 _atom_site_label
 _atom_site_symmetry_multiplicity
 _atom_site_fract_x
 _atom_site_fract_y
 _atom_site_fract_z
 _atom_site_occupancy
  Tb  Tb0  1  0.500000  0.628883  0.351674  1
  Tm  Tm1  1  0.500000  0.371046  0.648422  1
  U  U2  1  0.500000  0.128222  0.150565  1
  U  U3  1  0.500000  0.871652  0.849064  1
  B  B4  1  0.000000  0.473960  0.191664  1
  B  B5  1  0.000000  0.524927  0.807301  1
  B  B6  1  0.000000  0.974854  0.307969  1
  B  B7  1  0.000000  0.026759  0.692179  1
  B  B8  1  0.000000  0.287559  0.312491  1
  B  B9  1  0.000000  0.709977  0.687349  1
  B  B10  1  0.000000  0.791467  0.186430  1
  B  B11  1  0.000000  0.209208  0.812685  1
  B  B12  1  0.000000  0.363791  0.469926  1
  B  B13  1  0.000000  0.636048  0.531854  1
  B  B14  1  0.000000  0.868158  0.032435  1
  B  B15  1  0.000000  0.132145  0.967218  1
  B  B16  1  0.000000  0.385397  0.046662  1
  B  B17  1  0.000000  0.614262  0.952608  1
  B  B18  1  0.000000  0.887495  0.454682  1
  B  B19  1  0.000000  0.114370  0.546935  1
  Ru  Ru20  1  0.500000  0.138804  0.405745  1
  Ru  Ru21  1  0.500000  0.861215  0.595429  1
  Ru  Ru22  1  0.500000  0.641028  0.092624  1
  Ru  Ru23  1  0.500000  0.358773  0.906089  1
