# generated using pymatgen
data_Sr3Ga3Si2AuO14
_symmetry_space_group_name_H-M   'P 1'
_cell_length_a   8.34301100
_cell_length_b   8.34298515
_cell_length_c   5.20673100
_cell_angle_alpha   89.99997947
_cell_angle_beta   89.99972570
_cell_angle_gamma   120.00000110
_symmetry_Int_Tables_number   1
_chemical_formula_structural   Sr3Ga3Si2AuO14
_chemical_formula_sum   'Sr3 Ga3 Si2 Au1 O14'
_cell_volume   313.86295146
_cell_formula_units_Z   1
loop_
 _symmetry_equiv_pos_site_id
 _symmetry_equiv_pos_as_xyz
  1  'x, y, z'
loop_
 _atom_site_type_symbol
 _atom_site_label
 _atom_site_symmetry_multiplicity
 _atom_site_fract_x
 _atom_site_fract_y
 _atom_site_fract_z
 _atom_site_occupancy
  Sr  Sr0  1  0.429616  0.000002  0.999999  1
  Sr  Sr1  1  0.000000  0.429619  0.000001  1
  Sr  Sr2  1  0.570383  0.570385  0.000001  1
  Ga  Ga3  1  0.750809  0.000002  0.500002  1
  Ga  Ga4  1  0.000000  0.750807  0.500000  1
  Ga  Ga5  1  0.249192  0.249193  0.499998  1
  Si  Si6  1  0.666662  0.333330  0.466600  1
  Si  Si7  1  0.333338  0.666668  0.533401  1
  Au  Au8  1  0.000000  0.000002  0.000000  1
  O  O9  1  0.333339  0.666670  0.223249  1
  O  O10  1  0.131316  0.907515  0.233009  1
  O  O11  1  0.092481  0.223800  0.233012  1
  O  O12  1  0.776205  0.868683  0.233018  1
  O  O13  1  0.473302  0.306547  0.333725  1
  O  O14  1  0.693446  0.166752  0.333730  1
  O  O15  1  0.833246  0.526697  0.333730  1
  O  O16  1  0.166754  0.693451  0.666270  1
  O  O17  1  0.306554  0.473305  0.666270  1
  O  O18  1  0.526698  0.833246  0.666275  1
  O  O19  1  0.223795  0.092478  0.766982  1
  O  O20  1  0.907520  0.131320  0.766988  1
  O  O21  1  0.868684  0.776199  0.766991  1
  O  O22  1  0.666660  0.333330  0.776750  1
