# generated using pymatgen
data_Dy4MgNi2Hg
_symmetry_space_group_name_H-M   'P 1'
_cell_length_a   8.51659422
_cell_length_b   8.51659476
_cell_length_c   8.51659425
_cell_angle_alpha   128.09244060
_cell_angle_beta   128.09244802
_cell_angle_gamma   76.47532285
_symmetry_Int_Tables_number   1
_chemical_formula_structural   Dy4MgNi2Hg
_chemical_formula_sum   'Dy8 Mg2 Ni4 Hg2'
_cell_volume   371.72547965
_cell_formula_units_Z   2
loop_
 _symmetry_equiv_pos_site_id
 _symmetry_equiv_pos_as_xyz
  1  'x, y, z'
loop_
 _atom_site_type_symbol
 _atom_site_label
 _atom_site_symmetry_multiplicity
 _atom_site_fract_x
 _atom_site_fract_y
 _atom_site_fract_z
 _atom_site_occupancy
  Dy  Dy0  1  0.798923  0.298923  0.839283  1
  Dy  Dy1  1  0.201077  0.701077  0.160717  1
  Dy  Dy2  1  0.459641  0.959641  0.160717  1
  Dy  Dy3  1  0.298923  0.459641  0.500000  1
  Dy  Dy4  1  0.040359  0.201077  0.500000  1
  Dy  Dy5  1  0.540359  0.040359  0.839283  1
  Dy  Dy6  1  0.701077  0.540359  0.500000  1
  Dy  Dy7  1  0.959641  0.798923  0.500000  1
  Mg  Mg8  1  0.000000  0.000000  0.000000  1
  Mg  Mg9  1  0.500000  0.500000  0.000000  1
  Ni  Ni10  1  0.127279  0.627279  0.754557  1
  Ni  Ni11  1  0.872721  0.372721  0.245443  1
  Ni  Ni12  1  0.627279  0.872721  0.500000  1
  Ni  Ni13  1  0.372721  0.127279  0.500000  1
  Hg  Hg14  1  0.250000  0.250000  0.000000  1
  Hg  Hg15  1  0.750000  0.750000  0.000000  1
