# generated using pymatgen
data_Tb3Nd3Ho4Er6(CdPt)4
_symmetry_space_group_name_H-M   'P 1'
_cell_length_a   9.69503225
_cell_length_b   9.68433506
_cell_length_c   9.69127592
_cell_angle_alpha   60.04934491
_cell_angle_beta   60.08668194
_cell_angle_gamma   60.01084581
_symmetry_Int_Tables_number   1
_chemical_formula_structural   Tb3Nd3Ho4Er6(CdPt)4
_chemical_formula_sum   'Tb3 Nd3 Ho4 Er6 Cd4 Pt4'
_cell_volume   644.11927019
_cell_formula_units_Z   1
loop_
 _symmetry_equiv_pos_site_id
 _symmetry_equiv_pos_as_xyz
  1  'x, y, z'
loop_
 _atom_site_type_symbol
 _atom_site_label
 _atom_site_symmetry_multiplicity
 _atom_site_fract_x
 _atom_site_fract_y
 _atom_site_fract_z
 _atom_site_occupancy
  Tb  Tb0  1  0.939940  0.560576  0.557925  1
  Tb  Tb1  1  0.557925  0.941559  0.939940  1
  Tb  Tb2  1  0.562432  0.937568  0.562432  1
  Nd  Nd3  1  0.937655  0.562345  0.937655  1
  Nd  Nd4  1  0.564373  0.566567  0.934958  1
  Nd  Nd5  1  0.934958  0.934102  0.564373  1
  Ho  Ho6  1  0.351821  0.349302  0.351165  1
  Ho  Ho7  1  0.354403  0.352352  0.942643  1
  Ho  Ho8  1  0.351165  0.947711  0.351821  1
  Ho  Ho9  1  0.942643  0.350600  0.354403  1
  Er  Er10  1  0.812454  0.186282  0.189842  1
  Er  Er11  1  0.189842  0.811422  0.812454  1
  Er  Er12  1  0.188686  0.811314  0.188686  1
  Er  Er13  1  0.812972  0.187028  0.812972  1
  Er  Er14  1  0.187732  0.187570  0.812880  1
  Er  Er15  1  0.812880  0.811818  0.187732  1
  Cd  Cd16  1  0.581424  0.583236  0.578067  1
  Cd  Cd17  1  0.579165  0.582609  0.258458  1
  Cd  Cd18  1  0.578067  0.257274  0.581424  1
  Cd  Cd19  1  0.258458  0.579770  0.579165  1
  Pt  Pt20  1  0.145129  0.143456  0.141144  1
  Pt  Pt21  1  0.142303  0.144349  0.572430  1
  Pt  Pt22  1  0.141144  0.570271  0.145129  1
  Pt  Pt23  1  0.572430  0.140918  0.142303  1
