# generated using pymatgen
data_Ni2RuCl10
_symmetry_space_group_name_H-M   'P 1'
_cell_length_a   9.14194141
_cell_length_b   9.14194227
_cell_length_c   12.51942900
_cell_angle_alpha   86.67966619
_cell_angle_beta   86.67965960
_cell_angle_gamma   142.01081593
_symmetry_Int_Tables_number   1
_chemical_formula_structural   Ni2RuCl10
_chemical_formula_sum   'Ni4 Ru2 Cl20'
_cell_volume   633.74003448
_cell_formula_units_Z   2
loop_
 _symmetry_equiv_pos_site_id
 _symmetry_equiv_pos_as_xyz
  1  'x, y, z'
loop_
 _atom_site_type_symbol
 _atom_site_label
 _atom_site_symmetry_multiplicity
 _atom_site_fract_x
 _atom_site_fract_y
 _atom_site_fract_z
 _atom_site_occupancy
  Ni  Ni0  1  0.954497  0.045503  0.250000  1
  Ni  Ni1  1  0.045503  0.954497  0.750000  1
  Ni  Ni2  1  0.551012  0.448988  0.250000  1
  Ni  Ni3  1  0.448988  0.551012  0.750000  1
  Ru  Ru4  1  0.752892  0.247108  0.250000  1
  Ru  Ru5  1  0.247108  0.752892  0.750000  1
  Cl  Cl6  1  0.034880  0.741636  0.643424  1
  Cl  Cl7  1  0.258364  0.965120  0.856576  1
  Cl  Cl8  1  0.965120  0.258364  0.356576  1
  Cl  Cl9  1  0.741636  0.034880  0.143424  1
  Cl  Cl10  1  0.701484  0.620421  0.855731  1
  Cl  Cl11  1  0.379579  0.298516  0.644269  1
  Cl  Cl12  1  0.298516  0.379579  0.144269  1
  Cl  Cl13  1  0.620421  0.701484  0.355731  1
  Cl  Cl14  1  0.897544  0.403761  0.857443  1
  Cl  Cl15  1  0.596239  0.102456  0.642557  1
  Cl  Cl16  1  0.102456  0.596239  0.142557  1
  Cl  Cl17  1  0.403761  0.897544  0.357443  1
  Cl  Cl18  1  0.793025  0.885336  0.644551  1
  Cl  Cl19  1  0.114664  0.206975  0.855449  1
  Cl  Cl20  1  0.206975  0.114664  0.355449  1
  Cl  Cl21  1  0.885336  0.793025  0.144551  1
  Cl  Cl22  1  0.235096  0.539456  0.643830  1
  Cl  Cl23  1  0.460544  0.764904  0.856170  1
  Cl  Cl24  1  0.764904  0.460544  0.356170  1
  Cl  Cl25  1  0.539456  0.235096  0.143830  1
