# generated using pymatgen
data_Rb8Li4ErIn3Bi8
_symmetry_space_group_name_H-M   'P 1'
_cell_length_a   11.35122003
_cell_length_b   11.35122078
_cell_length_c   7.20709580
_cell_angle_alpha   89.77230541
_cell_angle_beta   90.22769875
_cell_angle_gamma   101.19877079
_symmetry_Int_Tables_number   1
_chemical_formula_structural   Rb8Li4ErIn3Bi8
_chemical_formula_sum   'Rb8 Li4 Er1 In3 Bi8'
_cell_volume   910.94186768
_cell_formula_units_Z   1
loop_
 _symmetry_equiv_pos_site_id
 _symmetry_equiv_pos_as_xyz
  1  'x, y, z'
loop_
 _atom_site_type_symbol
 _atom_site_label
 _atom_site_symmetry_multiplicity
 _atom_site_fract_x
 _atom_site_fract_y
 _atom_site_fract_z
 _atom_site_occupancy
  Rb  Rb0  1  0.577713  0.922252  0.751787  1
  Rb  Rb1  1  0.922252  0.577713  0.248213  1
  Rb  Rb2  1  0.418778  0.071174  0.243205  1
  Rb  Rb3  1  0.071174  0.418778  0.756795  1
  Rb  Rb4  1  0.676598  0.330120  0.778148  1
  Rb  Rb5  1  0.831805  0.169007  0.269498  1
  Rb  Rb6  1  0.330120  0.676598  0.221852  1
  Rb  Rb7  1  0.169007  0.831805  0.730502  1
  Li  Li8  1  0.623245  0.623245  0.000000  1
  Li  Li9  1  0.878370  0.878370  0.500000  1
  Li  Li10  1  0.378134  0.378134  0.000000  1
  Li  Li11  1  0.119740  0.119740  0.500000  1
  Er  Er12  1  0.375783  0.375783  0.500000  1
  In  In13  1  0.866295  0.866295  0.000000  1
  In  In14  1  0.628968  0.628968  0.500000  1
  In  In15  1  0.130643  0.130643  0.000000  1
  Bi  Bi16  1  0.349462  0.151402  0.748780  1
  Bi  Bi17  1  0.151402  0.349462  0.251220  1
  Bi  Bi18  1  0.650202  0.849633  0.253566  1
  Bi  Bi19  1  0.849633  0.650202  0.746434  1
  Bi  Bi20  1  0.902456  0.094359  0.767840  1
  Bi  Bi21  1  0.601322  0.402543  0.262537  1
  Bi  Bi22  1  0.094359  0.902456  0.232160  1
  Bi  Bi23  1  0.402543  0.601322  0.737463  1
