# generated using pymatgen
data_Cs14Be5Fe3S16
_symmetry_space_group_name_H-M   'P 1'
_cell_length_a   10.48416557
_cell_length_b   10.53465391
_cell_length_c   16.90123311
_cell_angle_alpha   63.96720328
_cell_angle_beta   64.12039899
_cell_angle_gamma   48.18652161
_symmetry_Int_Tables_number   1
_chemical_formula_structural   Cs14Be5Fe3S16
_chemical_formula_sum   'Cs14 Be5 Fe3 S16'
_cell_volume   1220.93662939
_cell_formula_units_Z   1
loop_
 _symmetry_equiv_pos_site_id
 _symmetry_equiv_pos_as_xyz
  1  'x, y, z'
loop_
 _atom_site_type_symbol
 _atom_site_label
 _atom_site_symmetry_multiplicity
 _atom_site_fract_x
 _atom_site_fract_y
 _atom_site_fract_z
 _atom_site_occupancy
  Cs  Cs0  1  0.237326  0.767795  0.752242  1
  Cs  Cs1  1  0.765740  0.235081  0.248105  1
  Cs  Cs2  1  0.254497  0.741584  0.988842  1
  Cs  Cs3  1  0.259829  0.742498  0.511276  1
  Cs  Cs4  1  0.750485  0.259951  0.005267  1
  Cs  Cs5  1  0.738704  0.258670  0.488301  1
  Cs  Cs6  1  0.994771  0.520180  0.613988  1
  Cs  Cs7  1  0.462385  0.010635  0.890785  1
  Cs  Cs8  1  0.005484  0.472867  0.391477  1
  Cs  Cs9  1  0.528119  0.996003  0.107871  1
  Cs  Cs10  1  0.002187  0.507040  0.867276  1
  Cs  Cs11  1  0.483577  0.999628  0.632643  1
  Cs  Cs12  1  0.998825  0.490109  0.131516  1
  Cs  Cs13  1  0.511714  0.000671  0.368716  1
  Be  Be14  1  0.676126  0.446574  0.661687  1
  Be  Be15  1  0.555689  0.326484  0.840720  1
  Be  Be16  1  0.325449  0.552598  0.340948  1
  Be  Be17  1  0.447440  0.675780  0.158552  1
  Be  Be18  1  0.904322  0.214816  0.779484  1
  Fe  Fe19  1  0.787501  0.094952  0.721930  1
  Fe  Fe20  1  0.093810  0.789859  0.221283  1
  Fe  Fe21  1  0.211671  0.905338  0.278547  1
  S  S22  1  0.664000  0.472530  0.785446  1
  S  S23  1  0.512385  0.348716  0.714145  1
  S  S24  1  0.348984  0.514672  0.214209  1
  S  S25  1  0.488258  0.649637  0.285563  1
  S  S26  1  0.948065  0.205829  0.639140  1
  S  S27  1  0.797260  0.056918  0.864253  1
  S  S28  1  0.053101  0.787243  0.370107  1
  S  S29  1  0.212152  0.947975  0.129669  1
  S  S30  1  0.658176  0.611726  0.053082  1
  S  S31  1  0.390498  0.340584  0.445919  1
  S  S32  1  0.342888  0.388266  0.945035  1
  S  S33  1  0.612111  0.654341  0.554399  1
  S  S34  1  0.860264  0.874365  0.685157  1
  S  S35  1  0.115032  0.139985  0.812530  1
  S  S36  1  0.133519  0.130291  0.315647  1
  S  S37  1  0.867655  0.867809  0.184244  1
