# generated using pymatgen
data_Pr8ZnSi7I6
_symmetry_space_group_name_H-M   'P 1'
_cell_length_a   12.37702809
_cell_length_b   12.37702836
_cell_length_c   12.48440642
_cell_angle_alpha   82.67006926
_cell_angle_beta   82.67006958
_cell_angle_gamma   19.80077498
_symmetry_Int_Tables_number   1
_chemical_formula_structural   Pr8ZnSi7I6
_chemical_formula_sum   'Pr8 Zn1 Si7 I6'
_cell_volume   642.40312750
_cell_formula_units_Z   1
loop_
 _symmetry_equiv_pos_site_id
 _symmetry_equiv_pos_as_xyz
  1  'x, y, z'
loop_
 _atom_site_type_symbol
 _atom_site_label
 _atom_site_symmetry_multiplicity
 _atom_site_fract_x
 _atom_site_fract_y
 _atom_site_fract_z
 _atom_site_occupancy
  Pr  Pr0  1  0.497436  0.497436  0.160861  1
  Pr  Pr1  1  0.923397  0.923397  0.451418  1
  Pr  Pr2  1  0.355768  0.355768  0.024902  1
  Pr  Pr3  1  0.074388  0.074388  0.557899  1
  Pr  Pr4  1  0.645043  0.645043  0.975519  1
  Pr  Pr5  1  0.638386  0.638386  0.289302  1
  Pr  Pr6  1  0.362244  0.362244  0.707894  1
  Pr  Pr7  1  0.502064  0.502064  0.833929  1
  Zn  Zn8  1  0.523664  0.523664  0.409371  1
  Si  Si9  1  0.042498  0.042498  0.316988  1
  Si  Si10  1  0.049973  0.049973  0.985856  1
  Si  Si11  1  0.477233  0.477233  0.589871  1
  Si  Si12  1  0.903830  0.903830  0.858525  1
  Si  Si13  1  0.949799  0.949799  0.012935  1
  Si  Si14  1  0.958838  0.958838  0.678195  1
  Si  Si15  1  0.095835  0.095835  0.140214  1
  I  I16  1  0.244257  0.244257  0.870700  1
  I  I17  1  0.756455  0.756455  0.129888  1
  I  I18  1  0.798893  0.798893  0.575584  1
  I  I19  1  0.370254  0.370254  0.287880  1
  I  I20  1  0.198591  0.198591  0.425980  1
  I  I21  1  0.631155  0.631155  0.716289  1
