# generated using pymatgen
data_Ta3MnCrGaN
_symmetry_space_group_name_H-M   'P 1'
_cell_length_a   8.13600970
_cell_length_b   8.13600867
_cell_length_c   8.13600900
_cell_angle_alpha   59.99999461
_cell_angle_beta   59.99999878
_cell_angle_gamma   59.99999971
_symmetry_Int_Tables_number   1
_chemical_formula_structural   Ta3MnCrGaN
_chemical_formula_sum   'Ta12 Mn4 Cr4 Ga4 N4'
_cell_volume   380.81957194
_cell_formula_units_Z   4
loop_
 _symmetry_equiv_pos_site_id
 _symmetry_equiv_pos_as_xyz
  1  'x, y, z'
loop_
 _atom_site_type_symbol
 _atom_site_label
 _atom_site_symmetry_multiplicity
 _atom_site_fract_x
 _atom_site_fract_y
 _atom_site_fract_z
 _atom_site_occupancy
  Ta  Ta0  1  0.806314  0.806314  0.193686  1
  Ta  Ta1  1  0.193686  0.193686  0.806314  1
  Ta  Ta2  1  0.806314  0.193686  0.806314  1
  Ta  Ta3  1  0.193686  0.806314  0.193686  1
  Ta  Ta4  1  0.193686  0.806314  0.806314  1
  Ta  Ta5  1  0.806314  0.193686  0.193686  1
  Ta  Ta6  1  0.446194  0.446194  0.053806  1
  Ta  Ta7  1  0.053806  0.053806  0.446194  1
  Ta  Ta8  1  0.446194  0.053806  0.446194  1
  Ta  Ta9  1  0.053806  0.446194  0.053806  1
  Ta  Ta10  1  0.053806  0.446194  0.446194  1
  Ta  Ta11  1  0.446194  0.053806  0.053806  1
  Mn  Mn12  1  0.518925  0.827026  0.827026  1
  Mn  Mn13  1  0.827026  0.518925  0.827026  1
  Mn  Mn14  1  0.827026  0.827026  0.518925  1
  Mn  Mn15  1  0.827026  0.827026  0.827026  1
  Cr  Cr16  1  0.104220  0.631927  0.631927  1
  Cr  Cr17  1  0.631927  0.104220  0.631927  1
  Cr  Cr18  1  0.631927  0.631927  0.104220  1
  Cr  Cr19  1  0.631927  0.631927  0.631927  1
  Ga  Ga20  1  0.752960  0.415679  0.415679  1
  Ga  Ga21  1  0.415679  0.752960  0.415679  1
  Ga  Ga22  1  0.415679  0.415679  0.752960  1
  Ga  Ga23  1  0.415679  0.415679  0.415679  1
  N  N24  1  0.625458  0.124847  0.124847  1
  N  N25  1  0.124847  0.625458  0.124847  1
  N  N26  1  0.124847  0.124847  0.625458  1
  N  N27  1  0.124847  0.124847  0.124847  1
