# generated using pymatgen
data_CaDyIn(AsRh2)6
_symmetry_space_group_name_H-M   'P 1'
_cell_length_a   10.06706300
_cell_length_b   10.06706299
_cell_length_c   3.96882800
_cell_angle_alpha   90.00000000
_cell_angle_beta   90.00000000
_cell_angle_gamma   120.00000332
_symmetry_Int_Tables_number   1
_chemical_formula_structural   CaDyIn(AsRh2)6
_chemical_formula_sum   'Ca1 Dy1 In1 As6 Rh12'
_cell_volume   348.33608598
_cell_formula_units_Z   1
loop_
 _symmetry_equiv_pos_site_id
 _symmetry_equiv_pos_as_xyz
  1  'x, y, z'
loop_
 _atom_site_type_symbol
 _atom_site_label
 _atom_site_symmetry_multiplicity
 _atom_site_fract_x
 _atom_site_fract_y
 _atom_site_fract_z
 _atom_site_occupancy
  Ca  Ca0  1  0.333333  0.666667  0.754740  1
  Dy  Dy1  1  0.666667  0.333333  0.245028  1
  In  In2  1  0.000000  0.000000  0.594032  1
  As  As3  1  0.883768  0.595893  0.747785  1
  As  As4  1  0.404107  0.287875  0.747785  1
  As  As5  1  0.712125  0.116232  0.747785  1
  As  As6  1  0.118150  0.406629  0.253998  1
  As  As7  1  0.593371  0.711521  0.253998  1
  As  As8  1  0.288479  0.881850  0.253998  1
  Rh  Rh9  1  0.618162  0.550196  0.749251  1
  Rh  Rh10  1  0.449804  0.067966  0.749251  1
  Rh  Rh11  1  0.932034  0.381838  0.749251  1
  Rh  Rh12  1  0.389641  0.446004  0.251656  1
  Rh  Rh13  1  0.553996  0.943637  0.251656  1
  Rh  Rh14  1  0.056363  0.610359  0.251656  1
  Rh  Rh15  1  0.129100  0.837508  0.756283  1
  Rh  Rh16  1  0.162492  0.291591  0.756283  1
  Rh  Rh17  1  0.708409  0.870900  0.756283  1
  Rh  Rh18  1  0.879696  0.155672  0.244521  1
  Rh  Rh19  1  0.844328  0.724024  0.244521  1
  Rh  Rh20  1  0.275976  0.120304  0.244521  1
