# generated using pymatgen
data_Dy5Co9(P6Ru5)2
_symmetry_space_group_name_H-M   'P 1'
_cell_length_a   12.35459345
_cell_length_b   12.32142119
_cell_length_c   3.76954500
_cell_angle_alpha   90.00000000
_cell_angle_beta   90.00000000
_cell_angle_gamma   119.81434192
_symmetry_Int_Tables_number   1
_chemical_formula_structural   Dy5Co9(P6Ru5)2
_chemical_formula_sum   'Dy5 Co9 P12 Ru10'
_cell_volume   497.87265534
_cell_formula_units_Z   1
loop_
 _symmetry_equiv_pos_site_id
 _symmetry_equiv_pos_as_xyz
  1  'x, y, z'
loop_
 _atom_site_type_symbol
 _atom_site_label
 _atom_site_symmetry_multiplicity
 _atom_site_fract_x
 _atom_site_fract_y
 _atom_site_fract_z
 _atom_site_occupancy
  Dy  Dy0  1  0.663444  0.333401  0.000000  1
  Dy  Dy1  1  0.332789  0.666704  0.000000  1
  Dy  Dy2  1  0.183321  0.181979  0.500000  1
  Dy  Dy3  1  0.818691  0.998458  0.500000  1
  Dy  Dy4  1  0.999506  0.818869  0.500000  1
  Co  Co5  1  0.802395  0.630338  0.000000  1
  Co  Co6  1  0.368287  0.170892  0.000000  1
  Co  Co7  1  0.195658  0.828283  0.000000  1
  Co  Co8  1  0.629336  0.800483  0.000000  1
  Co  Co9  1  0.176356  0.370232  0.000000  1
  Co  Co10  1  0.718705  0.718421  0.500000  1
  Co  Co11  1  0.279435  0.999610  0.500000  1
  Co  Co12  1  0.007190  0.285045  0.500000  1
  Co  Co13  1  0.999432  0.999046  0.000000  1
  P  P14  1  0.363423  0.363263  0.000000  1
  P  P15  1  0.633185  0.996948  0.000000  1
  P  P16  1  0.000450  0.637612  0.000000  1
  P  P17  1  0.838214  0.315801  0.500000  1
  P  P18  1  0.684855  0.524024  0.500000  1
  P  P19  1  0.473212  0.159543  0.500000  1
  P  P20  1  0.315675  0.840572  0.500000  1
  P  P21  1  0.524307  0.683608  0.500000  1
  P  P22  1  0.162098  0.478125  0.500000  1
  P  P23  1  0.820148  0.820435  0.000000  1
  P  P24  1  0.178140  0.999914  0.000000  1
  P  P25  1  0.005856  0.181130  0.000000  1
  Ru  Ru26  1  0.555373  0.553933  0.000000  1
  Ru  Ru27  1  0.440245  0.995500  0.000000  1
  Ru  Ru28  1  0.008766  0.450678  0.000000  1
  Ru  Ru29  1  0.827179  0.198161  0.000000  1
  Ru  Ru30  1  0.640066  0.125242  0.500000  1
  Ru  Ru31  1  0.872694  0.519326  0.500000  1
  Ru  Ru32  1  0.480492  0.352406  0.500000  1
  Ru  Ru33  1  0.129865  0.650301  0.500000  1
  Ru  Ru34  1  0.518017  0.869856  0.500000  1
  Ru  Ru35  1  0.353194  0.481859  0.500000  1
