# generated using pymatgen
data_Er8Re9Si16Mo3
_symmetry_space_group_name_H-M   'P 1'
_cell_length_a   6.75614209
_cell_length_b   6.75601275
_cell_length_c   12.83553902
_cell_angle_alpha   90.02868568
_cell_angle_beta   89.96434770
_cell_angle_gamma   90.06303660
_symmetry_Int_Tables_number   1
_chemical_formula_structural   Er8Re9Si16Mo3
_chemical_formula_sum   'Er8 Re9 Si16 Mo3'
_cell_volume   585.87227284
_cell_formula_units_Z   1
loop_
 _symmetry_equiv_pos_site_id
 _symmetry_equiv_pos_as_xyz
  1  'x, y, z'
loop_
 _atom_site_type_symbol
 _atom_site_label
 _atom_site_symmetry_multiplicity
 _atom_site_fract_x
 _atom_site_fract_y
 _atom_site_fract_z
 _atom_site_occupancy
  Er  Er0  1  0.336413  0.992663  0.470069  1
  Er  Er1  1  0.511105  0.834089  0.719217  1
  Er  Er2  1  0.488459  0.165428  0.218407  1
  Er  Er3  1  0.834254  0.511039  0.280837  1
  Er  Er4  1  0.165451  0.488481  0.781619  1
  Er  Er5  1  0.661977  0.009133  0.970239  1
  Er  Er6  1  0.992552  0.336358  0.529962  1
  Er  Er7  1  0.009169  0.661875  0.029708  1
  Re  Re8  1  0.337043  0.337371  0.999947  1
  Re  Re9  1  0.190903  0.980918  0.867097  1
  Re  Re10  1  0.508299  0.690173  0.118474  1
  Re  Re11  1  0.491283  0.313738  0.619660  1
  Re  Re12  1  0.690060  0.508353  0.881366  1
  Re  Re13  1  0.313429  0.491230  0.380497  1
  Re  Re14  1  0.810839  0.014150  0.367592  1
  Re  Re15  1  0.980956  0.190873  0.132798  1
  Re  Re16  1  0.014466  0.811090  0.632461  1
  Si  Si17  1  0.200455  0.114754  0.681762  1
  Si  Si18  1  0.389257  0.694792  0.932078  1
  Si  Si19  1  0.614447  0.302464  0.431990  1
  Si  Si20  1  0.694733  0.389258  0.067911  1
  Si  Si21  1  0.302423  0.614578  0.567957  1
  Si  Si22  1  0.799902  0.885735  0.181143  1
  Si  Si23  1  0.114691  0.200447  0.318208  1
  Si  Si24  1  0.885826  0.799825  0.818856  1
  Si  Si25  1  0.269468  0.984908  0.059209  1
  Si  Si26  1  0.518991  0.780915  0.310651  1
  Si  Si27  1  0.480675  0.220098  0.811458  1
  Si  Si28  1  0.781031  0.519061  0.689356  1
  Si  Si29  1  0.220184  0.480735  0.188515  1
  Si  Si30  1  0.725709  0.019256  0.560568  1
  Si  Si31  1  0.984952  0.269237  0.940743  1
  Si  Si32  1  0.019265  0.725750  0.439542  1
  Mo  Mo33  1  0.160446  0.838564  0.249857  1
  Mo  Mo34  1  0.838511  0.160362  0.750175  1
  Mo  Mo35  1  0.662374  0.662302  0.500071  1
