# generated using pymatgen
data_Y6Tc16O
_symmetry_space_group_name_H-M   'P 1'
_cell_length_a   8.07549855
_cell_length_b   8.07549757
_cell_length_c   8.07549800
_cell_angle_alpha   109.47122421
_cell_angle_beta   109.47122175
_cell_angle_gamma   109.47121843
_symmetry_Int_Tables_number   1
_chemical_formula_structural   Y6Tc16O
_chemical_formula_sum   'Y6 Tc16 O1'
_cell_volume   405.40214708
_cell_formula_units_Z   1
loop_
 _symmetry_equiv_pos_site_id
 _symmetry_equiv_pos_as_xyz
  1  'x, y, z'
loop_
 _atom_site_type_symbol
 _atom_site_label
 _atom_site_symmetry_multiplicity
 _atom_site_fract_x
 _atom_site_fract_y
 _atom_site_fract_z
 _atom_site_occupancy
  Y  Y0  1  0.736180  0.736180  0.000000  1
  Y  Y1  1  0.263819  0.000000  0.263820  1
  Y  Y2  1  0.736180  0.000000  0.736180  1
  Y  Y3  1  0.000000  0.736180  0.736181  1
  Y  Y4  1  0.000000  0.263819  0.263820  1
  Y  Y5  1  0.263819  0.263819  0.000000  1
  Tc  Tc6  1  0.000000  0.500000  0.000000  1
  Tc  Tc7  1  0.500000  0.000000  0.000000  1
  Tc  Tc8  1  0.000000  0.000000  0.500000  1
  Tc  Tc9  1  0.500000  0.500000  0.500000  1
  Tc  Tc10  1  0.339935  0.339935  0.679870  1
  Tc  Tc11  1  0.660065  0.660065  0.320130  1
  Tc  Tc12  1  0.000000  0.339935  0.660065  1
  Tc  Tc13  1  0.320130  0.660065  0.660065  1
  Tc  Tc14  1  0.660065  0.320130  0.660065  1
  Tc  Tc15  1  0.339935  0.000000  0.660065  1
  Tc  Tc16  1  0.660065  0.339935  0.000000  1
  Tc  Tc17  1  0.339935  0.660065  0.000000  1
  Tc  Tc18  1  0.339935  0.679870  0.339935  1
  Tc  Tc19  1  0.000000  0.660065  0.339935  1
  Tc  Tc20  1  0.660065  0.000000  0.339935  1
  Tc  Tc21  1  0.679870  0.339935  0.339935  1
  O  O22  1  0.000000  0.000000  0.000000  1
