# generated using pymatgen
data_Ac2Ir
_symmetry_space_group_name_H-M   'P 1'
_cell_length_a   4.42031305
_cell_length_b   7.63681927
_cell_length_c   7.33678278
_cell_angle_alpha   101.14097090
_cell_angle_beta   107.53229204
_cell_angle_gamma   90.00000176
_symmetry_Int_Tables_number   1
_chemical_formula_structural   Ac2Ir
_chemical_formula_sum   'Ac4 Ir2'
_cell_volume   231.26441108
_cell_formula_units_Z   2
loop_
 _symmetry_equiv_pos_site_id
 _symmetry_equiv_pos_as_xyz
  1  'x, y, z'
loop_
 _atom_site_type_symbol
 _atom_site_label
 _atom_site_symmetry_multiplicity
 _atom_site_fract_x
 _atom_site_fract_y
 _atom_site_fract_z
 _atom_site_occupancy
  Ac  Ac0  1  0.637001  0.872794  0.274004  1
  Ac  Ac1  1  0.136032  0.373592  0.272064  1
  Ac  Ac2  1  0.863967  0.626409  0.727937  1
  Ac  Ac3  1  0.362999  0.127206  0.725997  1
  Ir  Ir4  1  0.250728  0.749649  0.501456  1
  Ir  Ir5  1  0.749271  0.250351  0.498545  1
