# generated using pymatgen
data_Tm3AlGa4Ir
_symmetry_space_group_name_H-M   'P 1'
_cell_length_a   6.86626800
_cell_length_b   6.91979266
_cell_length_c   4.24368700
_cell_angle_alpha   90.00000000
_cell_angle_beta   90.00000000
_cell_angle_gamma   119.74445612
_symmetry_Int_Tables_number   1
_chemical_formula_structural   Tm3AlGa4Ir
_chemical_formula_sum   'Tm3 Al1 Ga4 Ir1'
_cell_volume   175.06542401
_cell_formula_units_Z   1
loop_
 _symmetry_equiv_pos_site_id
 _symmetry_equiv_pos_as_xyz
  1  'x, y, z'
loop_
 _atom_site_type_symbol
 _atom_site_label
 _atom_site_symmetry_multiplicity
 _atom_site_fract_x
 _atom_site_fract_y
 _atom_site_fract_z
 _atom_site_occupancy
  Tm  Tm0  1  0.588452  0.000000  0.000000  1
  Tm  Tm1  1  0.998750  0.584745  0.000000  1
  Tm  Tm2  1  0.414003  0.415255  0.000000  1
  Al  Al3  1  0.228002  0.000000  0.500000  1
  Ga  Ga4  1  0.004144  0.240861  0.500000  1
  Ga  Ga5  1  0.763282  0.759139  0.500000  1
  Ga  Ga6  1  0.333992  0.670740  0.500000  1
  Ga  Ga7  1  0.663252  0.329260  0.500000  1
  Ir  Ir8  1  0.006122  0.000000  0.000000  1
