# generated using pymatgen
data_NaCe7(Si4Mo3)4
_symmetry_space_group_name_H-M   'P 1'
_cell_length_a   6.88604752
_cell_length_b   6.98534291
_cell_length_c   13.00414288
_cell_angle_alpha   90.10269179
_cell_angle_beta   89.85510488
_cell_angle_gamma   89.99581973
_symmetry_Int_Tables_number   1
_chemical_formula_structural   NaCe7(Si4Mo3)4
_chemical_formula_sum   'Na1 Ce7 Si16 Mo12'
_cell_volume   625.51451324
_cell_formula_units_Z   1
loop_
 _symmetry_equiv_pos_site_id
 _symmetry_equiv_pos_as_xyz
  1  'x, y, z'
loop_
 _atom_site_type_symbol
 _atom_site_label
 _atom_site_symmetry_multiplicity
 _atom_site_fract_x
 _atom_site_fract_y
 _atom_site_fract_z
 _atom_site_occupancy
  Na  Na0  1  0.990882  0.837031  0.590515  1
  Ce  Ce1  1  0.496847  0.660827  0.592663  1
  Ce  Ce2  1  0.995792  0.838620  0.907560  1
  Ce  Ce3  1  0.505689  0.339536  0.092538  1
  Ce  Ce4  1  0.003564  0.161181  0.410405  1
  Ce  Ce5  1  0.505414  0.341175  0.410320  1
  Ce  Ce6  1  0.006871  0.160035  0.092532  1
  Ce  Ce7  1  0.494805  0.662387  0.904961  1
  Si  Si8  1  0.653437  0.954391  0.453635  1
  Si  Si9  1  0.156479  0.546911  0.047348  1
  Si  Si10  1  0.346907  0.047032  0.951687  1
  Si  Si11  1  0.849501  0.462576  0.550480  1
  Si  Si12  1  0.339641  0.039241  0.549047  1
  Si  Si13  1  0.843653  0.453241  0.953028  1
  Si  Si14  1  0.655347  0.953082  0.047142  1
  Si  Si15  1  0.152121  0.550207  0.452843  1
  Si  Si16  1  0.462444  0.358675  0.751440  1
  Si  Si17  1  0.964586  0.134052  0.746786  1
  Si  Si18  1  0.537251  0.641111  0.250415  1
  Si  Si19  1  0.036808  0.859160  0.251249  1
  Si  Si20  1  0.697540  0.873154  0.745637  1
  Si  Si21  1  0.186686  0.629863  0.745405  1
  Si  Si22  1  0.309158  0.128967  0.251331  1
  Si  Si23  1  0.809655  0.373032  0.250963  1
  Mo  Mo24  1  0.664124  0.168195  0.624808  1
  Mo  Mo25  1  0.168279  0.336952  0.873740  1
  Mo  Mo26  1  0.330924  0.838841  0.126140  1
  Mo  Mo27  1  0.827707  0.662436  0.373314  1
  Mo  Mo28  1  0.330924  0.837630  0.373412  1
  Mo  Mo29  1  0.829825  0.662237  0.126262  1
  Mo  Mo30  1  0.673283  0.161427  0.872248  1
  Mo  Mo31  1  0.169399  0.331339  0.626995  1
  Mo  Mo32  1  0.831820  0.496836  0.751937  1
  Mo  Mo33  1  0.333370  0.996235  0.750533  1
  Mo  Mo34  1  0.170561  0.498605  0.250086  1
  Mo  Mo35  1  0.668709  0.003780  0.250597  1
