# generated using pymatgen
data_Tb3Yb(ReB2)6
_symmetry_space_group_name_H-M   'P 1'
_cell_length_a   6.22209174
_cell_length_b   6.21062651
_cell_length_c   7.52070854
_cell_angle_alpha   89.30815429
_cell_angle_beta   89.74279373
_cell_angle_gamma   113.62636119
_symmetry_Int_Tables_number   1
_chemical_formula_structural   Tb3Yb(ReB2)6
_chemical_formula_sum   'Tb3 Yb1 Re6 B12'
_cell_volume   266.22967975
_cell_formula_units_Z   1
loop_
 _symmetry_equiv_pos_site_id
 _symmetry_equiv_pos_as_xyz
  1  'x, y, z'
loop_
 _atom_site_type_symbol
 _atom_site_label
 _atom_site_symmetry_multiplicity
 _atom_site_fract_x
 _atom_site_fract_y
 _atom_site_fract_z
 _atom_site_occupancy
  Tb  Tb0  1  0.450179  0.105157  0.177732  1
  Tb  Tb1  1  0.095573  0.443307  0.673468  1
  Tb  Tb2  1  0.553846  0.897695  0.823306  1
  Yb  Yb3  1  0.904086  0.560082  0.322564  1
  Re  Re4  1  0.414029  0.588713  0.248504  1
  Re  Re5  1  0.585752  0.411470  0.750957  1
  Re  Re6  1  0.009373  0.191739  0.091026  1
  Re  Re7  1  0.806414  0.988357  0.412640  1
  Re  Re8  1  0.989650  0.808842  0.910448  1
  Re  Re9  1  0.191550  0.008833  0.589225  1
  B  B10  1  0.748343  0.847390  0.130555  1
  B  B11  1  0.153913  0.245078  0.368252  1
  B  B12  1  0.249983  0.152593  0.869802  1
  B  B13  1  0.846165  0.749942  0.630317  1
  B  B14  1  0.412828  0.841143  0.479609  1
  B  B15  1  0.158188  0.586477  0.020277  1
  B  B16  1  0.588762  0.159118  0.521700  1
  B  B17  1  0.841731  0.415256  0.980428  1
  B  B18  1  0.556824  0.648531  0.534150  1
  B  B19  1  0.349238  0.442465  0.964667  1
  B  B20  1  0.443863  0.349824  0.464812  1
  B  B21  1  0.649713  0.557988  0.035559  1
