# generated using pymatgen
data_NdTh3(CoB10)2
_symmetry_space_group_name_H-M   'P 1'
_cell_length_a   4.18073900
_cell_length_b   5.61709474
_cell_length_c   11.22983544
_cell_angle_alpha   90.11294886
_cell_angle_beta   90.00000000
_cell_angle_gamma   90.00000000
_symmetry_Int_Tables_number   1
_chemical_formula_structural   NdTh3(CoB10)2
_chemical_formula_sum   'Nd1 Th3 Co2 B20'
_cell_volume   263.71653007
_cell_formula_units_Z   1
loop_
 _symmetry_equiv_pos_site_id
 _symmetry_equiv_pos_as_xyz
  1  'x, y, z'
loop_
 _atom_site_type_symbol
 _atom_site_label
 _atom_site_symmetry_multiplicity
 _atom_site_fract_x
 _atom_site_fract_y
 _atom_site_fract_z
 _atom_site_occupancy
  Nd  Nd0  1  0.500000  0.303163  0.865037  1
  Th  Th1  1  0.500000  0.699686  0.133289  1
  Th  Th2  1  0.500000  0.802752  0.634814  1
  Th  Th3  1  0.500000  0.198410  0.365759  1
  Co  Co4  1  0.000000  0.500818  0.500183  1
  Co  Co5  1  0.000000  0.997856  0.000791  1
  B  B6  1  0.000000  0.126473  0.540202  1
  B  B7  1  0.000000  0.872800  0.459878  1
  B  B8  1  0.000000  0.627046  0.959891  1
  B  B9  1  0.000000  0.372510  0.040450  1
  B  B10  1  0.000000  0.152397  0.697021  1
  B  B11  1  0.000000  0.847392  0.302863  1
  B  B12  1  0.299792  0.200158  0.113697  1
  B  B13  1  0.299664  0.797811  0.886867  1
  B  B14  1  0.699529  0.700836  0.386600  1
  B  B15  1  0.700218  0.298720  0.613375  1
  B  B16  1  0.700336  0.797811  0.886867  1
  B  B17  1  0.700208  0.200158  0.113697  1
  B  B18  1  0.299782  0.298720  0.613375  1
  B  B19  1  0.300471  0.700836  0.386600  1
  B  B20  1  0.000000  0.034782  0.187344  1
  B  B21  1  0.000000  0.965209  0.813075  1
  B  B22  1  0.000000  0.535544  0.312483  1
  B  B23  1  0.000000  0.465718  0.686571  1
  B  B24  1  0.000000  0.348000  0.196758  1
  B  B25  1  0.000000  0.654396  0.802511  1
