# generated using pymatgen
data_NdHo3Zr4F28
_symmetry_space_group_name_H-M   'P 1'
_cell_length_a   5.77386849
_cell_length_b   9.14218398
_cell_length_c   12.29120437
_cell_angle_alpha   62.39329628
_cell_angle_beta   89.96001538
_cell_angle_gamma   90.02079673
_symmetry_Int_Tables_number   1
_chemical_formula_structural   NdHo3Zr4F28
_chemical_formula_sum   'Nd1 Ho3 Zr4 F28'
_cell_volume   574.93398305
_cell_formula_units_Z   1
loop_
 _symmetry_equiv_pos_site_id
 _symmetry_equiv_pos_as_xyz
  1  'x, y, z'
loop_
 _atom_site_type_symbol
 _atom_site_label
 _atom_site_symmetry_multiplicity
 _atom_site_fract_x
 _atom_site_fract_y
 _atom_site_fract_z
 _atom_site_occupancy
  Nd  Nd0  1  0.756882  0.817086  0.766578  1
  Ho  Ho1  1  0.743587  0.818063  0.266039  1
  Ho  Ho2  1  0.243485  0.184001  0.233987  1
  Ho  Ho3  1  0.257027  0.188628  0.733332  1
  Zr  Zr4  1  0.743866  0.277804  0.452800  1
  Zr  Zr5  1  0.244988  0.725151  0.049305  1
  Zr  Zr6  1  0.255189  0.725449  0.540806  1
  Zr  Zr7  1  0.755265  0.270466  0.956887  1
  F  F8  1  0.461103  0.708413  0.925018  1
  F  F9  1  0.966353  0.288689  0.577705  1
  F  F10  1  0.531379  0.286664  0.079256  1
  F  F11  1  0.030225  0.711372  0.418637  1
  F  F12  1  0.454741  0.281354  0.549642  1
  F  F13  1  0.956311  0.715111  0.956719  1
  F  F14  1  0.548164  0.719897  0.447660  1
  F  F15  1  0.044937  0.278320  0.051982  1
  F  F16  1  0.768469  0.519629  0.859854  1
  F  F17  1  0.267511  0.474347  0.640286  1
  F  F18  1  0.234371  0.473397  0.143565  1
  F  F19  1  0.732777  0.527993  0.356640  1
  F  F20  1  0.759643  0.020578  0.059855  1
  F  F21  1  0.259326  0.976112  0.439956  1
  F  F22  1  0.239640  0.974761  0.942613  1
  F  F23  1  0.739712  0.027612  0.553337  1
  F  F24  1  0.986651  0.731139  0.645546  1
  F  F25  1  0.485405  0.265628  0.851069  1
  F  F26  1  0.012930  0.265352  0.348847  1
  F  F27  1  0.515592  0.735066  0.152427  1
  F  F28  1  0.031441  0.747086  0.174836  1
  F  F29  1  0.530667  0.253842  0.327167  1
  F  F30  1  0.967633  0.251607  0.828832  1
  F  F31  1  0.459143  0.743339  0.670093  1
  F  F32  1  0.431820  0.975174  0.235632  1
  F  F33  1  0.932818  0.025798  0.264397  1
  F  F34  1  0.567107  0.036466  0.765438  1
  F  F35  1  0.083841  0.978609  0.733260  1
