# generated using pymatgen
data_HgP2PdO7
_symmetry_space_group_name_H-M   'P 1'
_cell_length_a   5.11024700
_cell_length_b   7.72606061
_cell_length_c   8.94505213
_cell_angle_alpha   101.53318288
_cell_angle_beta   90.00000000
_cell_angle_gamma   109.31217775
_symmetry_Int_Tables_number   1
_chemical_formula_structural   HgP2PdO7
_chemical_formula_sum   'Hg2 P4 Pd2 O14'
_cell_volume   325.73108571
_cell_formula_units_Z   2
loop_
 _symmetry_equiv_pos_site_id
 _symmetry_equiv_pos_as_xyz
  1  'x, y, z'
loop_
 _atom_site_type_symbol
 _atom_site_label
 _atom_site_symmetry_multiplicity
 _atom_site_fract_x
 _atom_site_fract_y
 _atom_site_fract_z
 _atom_site_occupancy
  Hg  Hg0  1  0.500000  0.500001  0.000000  1
  Hg  Hg1  1  0.000000  0.500000  0.500000  1
  P  P2  1  0.255630  0.799791  0.222499  1
  P  P3  1  0.455840  0.200210  0.277501  1
  P  P4  1  0.544161  0.799791  0.722500  1
  P  P5  1  0.744369  0.200210  0.777501  1
  Pd  Pd6  1  0.000000  0.000000  0.000000  1
  Pd  Pd7  1  0.000000  0.000000  0.500000  1
  O  O8  1  0.064708  0.788323  0.085688  1
  O  O9  1  0.326084  0.208658  0.124282  1
  O  O10  1  0.388525  0.646237  0.198398  1
  O  O11  1  0.508222  0.000000  0.250000  1
  O  O12  1  0.742288  0.353763  0.301602  1
  O  O13  1  0.117428  0.791343  0.375718  1
  O  O14  1  0.276383  0.211676  0.414312  1
  O  O15  1  0.723615  0.788323  0.585689  1
  O  O16  1  0.882574  0.208658  0.624282  1
  O  O17  1  0.257713  0.646238  0.698398  1
  O  O18  1  0.491778  0.000000  0.750000  1
  O  O19  1  0.611476  0.353762  0.801603  1
  O  O20  1  0.673915  0.791342  0.875718  1
  O  O21  1  0.935293  0.211677  0.914312  1
