# generated using pymatgen
data_Cs2Dy2MnZnTe6
_symmetry_space_group_name_H-M   'P 1'
_cell_length_a   4.47469300
_cell_length_b   8.87824101
_cell_length_c   11.72731100
_cell_angle_alpha   90.00000000
_cell_angle_beta   90.00000000
_cell_angle_gamma   75.40391134
_symmetry_Int_Tables_number   1
_chemical_formula_structural   Cs2Dy2MnZnTe6
_chemical_formula_sum   'Cs2 Dy2 Mn1 Zn1 Te6'
_cell_volume   450.85946943
_cell_formula_units_Z   1
loop_
 _symmetry_equiv_pos_site_id
 _symmetry_equiv_pos_as_xyz
  1  'x, y, z'
loop_
 _atom_site_type_symbol
 _atom_site_label
 _atom_site_symmetry_multiplicity
 _atom_site_fract_x
 _atom_site_fract_y
 _atom_site_fract_z
 _atom_site_occupancy
  Cs  Cs0  1  0.745442  0.509118  0.250000  1
  Cs  Cs1  1  0.254631  0.490739  0.750000  1
  Dy  Dy2  1  0.999913  0.000173  0.999285  1
  Dy  Dy3  1  0.999913  0.000173  0.500715  1
  Mn  Mn4  1  0.462991  0.074016  0.250000  1
  Zn  Zn5  1  0.538162  0.923678  0.750000  1
  Te  Te6  1  0.380058  0.239886  0.055925  1
  Te  Te7  1  0.058661  0.882678  0.250000  1
  Te  Te8  1  0.380058  0.239886  0.444075  1
  Te  Te9  1  0.619233  0.761536  0.557163  1
  Te  Te10  1  0.941710  0.116583  0.750000  1
  Te  Te11  1  0.619233  0.761536  0.942838  1
