# generated using pymatgen
data_KRb5Al8P4(O8F9)2
_symmetry_space_group_name_H-M   'P 1'
_cell_length_a   14.02641100
_cell_length_b   6.82581404
_cell_length_c   7.38640100
_cell_angle_alpha   73.89110812
_cell_angle_beta   90.00000000
_cell_angle_gamma   90.00000000
_symmetry_Int_Tables_number   1
_chemical_formula_structural   KRb5Al8P4(O8F9)2
_chemical_formula_sum   'K1 Rb5 Al8 P4 O16 F18'
_cell_volume   679.41949861
_cell_formula_units_Z   1
loop_
 _symmetry_equiv_pos_site_id
 _symmetry_equiv_pos_as_xyz
  1  'x, y, z'
loop_
 _atom_site_type_symbol
 _atom_site_label
 _atom_site_symmetry_multiplicity
 _atom_site_fract_x
 _atom_site_fract_y
 _atom_site_fract_z
 _atom_site_occupancy
  K  K0  1  0.250000  0.921588  0.539094  1
  Rb  Rb1  1  0.502991  0.810155  0.797200  1
  Rb  Rb2  1  0.495490  0.189630  0.203075  1
  Rb  Rb3  1  0.750000  0.089048  0.451876  1
  Rb  Rb4  1  0.004510  0.189630  0.203075  1
  Rb  Rb5  1  0.997009  0.810155  0.797200  1
  Al  Al6  1  0.377112  0.329344  0.681496  1
  Al  Al7  1  0.250000  0.973756  0.052950  1
  Al  Al8  1  0.250000  0.484618  0.038806  1
  Al  Al9  1  0.877757  0.669099  0.318726  1
  Al  Al10  1  0.622243  0.669099  0.318726  1
  Al  Al11  1  0.122888  0.329344  0.681496  1
  Al  Al12  1  0.750000  0.026355  0.947698  1
  Al  Al13  1  0.750000  0.517039  0.959150  1
  P  P14  1  0.103073  0.652226  0.286052  1
  P  P15  1  0.897610  0.348152  0.714675  1
  P  P16  1  0.396927  0.652226  0.286052  1
  P  P17  1  0.602390  0.348152  0.714675  1
  O  O18  1  0.846611  0.138434  0.780004  1
  O  O19  1  0.106921  0.577736  0.502873  1
  O  O20  1  0.650510  0.501877  0.803553  1
  O  O21  1  0.893820  0.420630  0.497709  1
  O  O22  1  0.001818  0.320030  0.784874  1
  O  O23  1  0.606180  0.420630  0.497709  1
  O  O24  1  0.345805  0.862171  0.223468  1
  O  O25  1  0.151289  0.500186  0.195464  1
  O  O26  1  0.653389  0.138434  0.780004  1
  O  O27  1  0.154195  0.862171  0.223468  1
  O  O28  1  0.348711  0.500186  0.195464  1
  O  O29  1  0.393079  0.577736  0.502873  1
  O  O30  1  0.498182  0.320030  0.784874  1
  O  O31  1  0.849490  0.501877  0.803553  1
  O  O32  1  0.998946  0.679664  0.214775  1
  O  O33  1  0.501054  0.679664  0.214775  1
  F  F34  1  0.250000  0.204813  0.133275  1
  F  F35  1  0.094794  0.156143  0.547044  1
  F  F36  1  0.750000  0.795976  0.867181  1
  F  F37  1  0.155928  0.093318  0.881279  1
  F  F38  1  0.250000  0.323653  0.612557  1
  F  F39  1  0.344072  0.093318  0.881279  1
  F  F40  1  0.250000  0.767305  0.934144  1
  F  F41  1  0.660858  0.525400  0.145863  1
  F  F42  1  0.750000  0.235628  0.060833  1
  F  F43  1  0.750000  0.673355  0.388042  1
  F  F44  1  0.161039  0.473886  0.853917  1
  F  F45  1  0.405206  0.156143  0.547044  1
  F  F46  1  0.908402  0.838959  0.454125  1
  F  F47  1  0.839142  0.525400  0.145863  1
  F  F48  1  0.338961  0.473886  0.853917  1
  F  F49  1  0.591598  0.838959  0.454125  1
  F  F50  1  0.843696  0.906393  0.121024  1
  F  F51  1  0.656304  0.906393  0.121024  1
