# generated using pymatgen
data_TbEr5(AuO7)2
_symmetry_space_group_name_H-M   'P 1'
_cell_length_a   6.45158149
_cell_length_b   6.45158113
_cell_length_c   7.40010813
_cell_angle_alpha   90.03526832
_cell_angle_beta   89.96473083
_cell_angle_gamma   108.73268239
_symmetry_Int_Tables_number   1
_chemical_formula_structural   TbEr5(AuO7)2
_chemical_formula_sum   'Tb1 Er5 Au2 O14'
_cell_volume   291.69753777
_cell_formula_units_Z   1
loop_
 _symmetry_equiv_pos_site_id
 _symmetry_equiv_pos_as_xyz
  1  'x, y, z'
loop_
 _atom_site_type_symbol
 _atom_site_label
 _atom_site_symmetry_multiplicity
 _atom_site_fract_x
 _atom_site_fract_y
 _atom_site_fract_z
 _atom_site_occupancy
  Tb  Tb0  1  0.500000  0.500000  0.000000  1
  Er  Er1  1  0.500000  0.500000  0.500000  1
  Er  Er2  1  0.529034  0.997771  0.748983  1
  Er  Er3  1  0.997771  0.529034  0.251017  1
  Er  Er4  1  0.470966  0.002229  0.251017  1
  Er  Er5  1  0.002229  0.470966  0.748983  1
  Au  Au6  1  0.000000  0.000000  0.500000  1
  Au  Au7  1  0.000000  0.000000  0.000000  1
  O  O8  1  0.669055  0.918680  0.474707  1
  O  O9  1  0.918680  0.669055  0.525293  1
  O  O10  1  0.668793  0.920478  0.025016  1
  O  O11  1  0.920478  0.668793  0.974984  1
  O  O12  1  0.330945  0.081320  0.525293  1
  O  O13  1  0.081320  0.330945  0.474707  1
  O  O14  1  0.331207  0.079522  0.974984  1
  O  O15  1  0.079522  0.331207  0.025016  1
  O  O16  1  0.919643  0.080357  0.749981  1
  O  O17  1  0.080357  0.919643  0.250019  1
  O  O18  1  0.367387  0.632613  0.746848  1
  O  O19  1  0.632613  0.367387  0.253152  1
  O  O20  1  0.640010  0.359990  0.746925  1
  O  O21  1  0.359990  0.640010  0.253075  1
