# generated using pymatgen
data_YEr5Ti2(Co4P3)4
_symmetry_space_group_name_H-M   'P 1'
_cell_length_a   3.68240400
_cell_length_b   10.58734400
_cell_length_c   12.26799900
_cell_angle_alpha   90.00000000
_cell_angle_beta   90.00000000
_cell_angle_gamma   90.00000000
_symmetry_Int_Tables_number   1
_chemical_formula_structural   YEr5Ti2(Co4P3)4
_chemical_formula_sum   'Y1 Er5 Ti2 Co16 P12'
_cell_volume   478.29097903
_cell_formula_units_Z   1
loop_
 _symmetry_equiv_pos_site_id
 _symmetry_equiv_pos_as_xyz
  1  'x, y, z'
loop_
 _atom_site_type_symbol
 _atom_site_label
 _atom_site_symmetry_multiplicity
 _atom_site_fract_x
 _atom_site_fract_y
 _atom_site_fract_z
 _atom_site_occupancy
  Y  Y0  1  0.750000  0.250000  0.474951  1
  Er  Er1  1  0.250000  0.750000  0.525057  1
  Er  Er2  1  0.250000  0.929839  0.795552  1
  Er  Er3  1  0.250000  0.570161  0.795552  1
  Er  Er4  1  0.750000  0.070142  0.204342  1
  Er  Er5  1  0.750000  0.429858  0.204342  1
  Ti  Ti6  1  0.250000  0.250000  0.846595  1
  Ti  Ti7  1  0.750000  0.750000  0.153820  1
  Co  Co8  1  0.250000  0.250000  0.296884  1
  Co  Co9  1  0.750000  0.750000  0.702067  1
  Co  Co10  1  0.750000  0.250000  0.013346  1
  Co  Co11  1  0.250000  0.750000  0.986666  1
  Co  Co12  1  0.250000  0.417836  0.006388  1
  Co  Co13  1  0.250000  0.082164  0.006388  1
  Co  Co14  1  0.750000  0.582211  0.993579  1
  Co  Co15  1  0.750000  0.917789  0.993579  1
  Co  Co16  1  0.250000  0.454796  0.568333  1
  Co  Co17  1  0.250000  0.045204  0.568333  1
  Co  Co18  1  0.750000  0.546280  0.431867  1
  Co  Co19  1  0.750000  0.953720  0.431867  1
  Co  Co20  1  0.250000  0.871795  0.293894  1
  Co  Co21  1  0.250000  0.628205  0.293894  1
  Co  Co22  1  0.750000  0.127882  0.706364  1
  Co  Co23  1  0.750000  0.372118  0.706364  1
  P  P24  1  0.250000  0.250000  0.117481  1
  P  P25  1  0.750000  0.750000  0.882170  1
  P  P26  1  0.250000  0.250000  0.647244  1
  P  P27  1  0.750000  0.750000  0.353730  1
  P  P28  1  0.250000  0.439438  0.383643  1
  P  P29  1  0.250000  0.060562  0.383643  1
  P  P30  1  0.750000  0.561381  0.615986  1
  P  P31  1  0.750000  0.938619  0.615986  1
  P  P32  1  0.250000  0.907530  0.108123  1
  P  P33  1  0.250000  0.592470  0.108123  1
  P  P34  1  0.750000  0.092426  0.891923  1
  P  P35  1  0.750000  0.407574  0.891923  1
