# generated using pymatgen
data_Tb7Er13Pb16
_symmetry_space_group_name_H-M   'P 1'
_cell_length_a   8.18476570
_cell_length_b   8.25945259
_cell_length_c   15.58993318
_cell_angle_alpha   90.01625603
_cell_angle_beta   90.04461987
_cell_angle_gamma   89.97702948
_symmetry_Int_Tables_number   1
_chemical_formula_structural   Tb7Er13Pb16
_chemical_formula_sum   'Tb7 Er13 Pb16'
_cell_volume   1053.90529334
_cell_formula_units_Z   1
loop_
 _symmetry_equiv_pos_site_id
 _symmetry_equiv_pos_as_xyz
  1  'x, y, z'
loop_
 _atom_site_type_symbol
 _atom_site_label
 _atom_site_symmetry_multiplicity
 _atom_site_fract_x
 _atom_site_fract_y
 _atom_site_fract_z
 _atom_site_occupancy
  Tb  Tb0  1  0.036415  0.176827  0.600060  1
  Tb  Tb1  1  0.463582  0.676760  0.399999  1
  Tb  Tb2  1  0.963473  0.823325  0.100022  1
  Tb  Tb3  1  0.463519  0.676707  0.099956  1
  Tb  Tb4  1  0.963579  0.823217  0.399994  1
  Tb  Tb5  1  0.536409  0.323282  0.599932  1
  Tb  Tb6  1  0.036489  0.176817  0.899992  1
  Er  Er7  1  0.376521  0.841373  0.878961  1
  Er  Er8  1  0.876426  0.658658  0.621097  1
  Er  Er9  1  0.623555  0.158697  0.379020  1
  Er  Er10  1  0.123417  0.341199  0.120943  1
  Er  Er11  1  0.623423  0.158829  0.120794  1
  Er  Er12  1  0.123541  0.341261  0.378995  1
  Er  Er13  1  0.376485  0.841350  0.621128  1
  Er  Er14  1  0.876401  0.658559  0.878960  1
  Er  Er15  1  0.536775  0.323545  0.899873  1
  Er  Er16  1  0.208385  0.504532  0.750137  1
  Er  Er17  1  0.708101  0.995391  0.750109  1
  Er  Er18  1  0.791755  0.495306  0.249979  1
  Er  Er19  1  0.291770  0.004691  0.249951  1
  Pb  Pb20  1  0.281726  0.033375  0.042908  1
  Pb  Pb21  1  0.781836  0.466540  0.457123  1
  Pb  Pb22  1  0.718147  0.966511  0.542909  1
  Pb  Pb23  1  0.218911  0.532888  0.956995  1
  Pb  Pb24  1  0.717830  0.966948  0.957044  1
  Pb  Pb25  1  0.218151  0.533510  0.542884  1
  Pb  Pb26  1  0.281858  0.033466  0.457145  1
  Pb  Pb27  1  0.781379  0.466142  0.042520  1
  Pb  Pb28  1  0.571180  0.626901  0.750010  1
  Pb  Pb29  1  0.071245  0.872837  0.750020  1
  Pb  Pb30  1  0.428773  0.372854  0.249978  1
  Pb  Pb31  1  0.928760  0.127210  0.250036  1
  Pb  Pb32  1  0.347787  0.153805  0.750422  1
  Pb  Pb33  1  0.847148  0.346736  0.750119  1
  Pb  Pb34  1  0.652629  0.846720  0.249983  1
  Pb  Pb35  1  0.152618  0.653228  0.250003  1
