# generated using pymatgen
data_Sr3Ca5(SiO4)4
_symmetry_space_group_name_H-M   'P 1'
_cell_length_a   5.14156465
_cell_length_b   6.99610500
_cell_length_c   11.75293320
_cell_angle_alpha   90.00000000
_cell_angle_beta   90.15614581
_cell_angle_gamma   90.00000000
_symmetry_Int_Tables_number   1
_chemical_formula_structural   Sr3Ca5(SiO4)4
_chemical_formula_sum   'Sr3 Ca5 Si4 O16'
_cell_volume   422.76232219
_cell_formula_units_Z   1
loop_
 _symmetry_equiv_pos_site_id
 _symmetry_equiv_pos_as_xyz
  1  'x, y, z'
loop_
 _atom_site_type_symbol
 _atom_site_label
 _atom_site_symmetry_multiplicity
 _atom_site_fract_x
 _atom_site_fract_y
 _atom_site_fract_z
 _atom_site_occupancy
  Sr  Sr0  1  0.484403  0.750000  0.779601  1
  Sr  Sr1  1  0.979907  0.250000  0.717294  1
  Sr  Sr2  1  0.520456  0.250000  0.220043  1
  Ca  Ca3  1  0.009415  0.750000  0.280493  1
  Ca  Ca4  1  0.498413  0.501637  0.495472  1
  Ca  Ca5  1  0.002157  0.500705  0.003803  1
  Ca  Ca6  1  0.498413  0.998363  0.495472  1
  Ca  Ca7  1  0.002157  0.999295  0.003803  1
  Si  Si8  1  0.922346  0.750000  0.584637  1
  Si  Si9  1  0.420104  0.250000  0.911230  1
  Si  Si10  1  0.074866  0.250000  0.407908  1
  Si  Si11  1  0.582967  0.750000  0.095835  1
  O  O12  1  0.193350  0.442737  0.342531  1
  O  O13  1  0.715164  0.562092  0.160409  1
  O  O14  1  0.795705  0.939264  0.649630  1
  O  O15  1  0.294945  0.059524  0.846685  1
  O  O16  1  0.795705  0.560736  0.649630  1
  O  O17  1  0.294945  0.440476  0.846685  1
  O  O18  1  0.193350  0.057263  0.342531  1
  O  O19  1  0.715164  0.937908  0.160409  1
  O  O20  1  0.789432  0.750000  0.454234  1
  O  O21  1  0.282688  0.250000  0.040101  1
  O  O22  1  0.219305  0.250000  0.535717  1
  O  O23  1  0.714422  0.750000  0.965567  1
  O  O24  1  0.262668  0.750000  0.093513  1
  O  O25  1  0.756115  0.250000  0.416900  1
  O  O26  1  0.739698  0.250000  0.918545  1
  O  O27  1  0.241740  0.750000  0.581320  1
