# generated using pymatgen
data_Tb15DyIn3HgRh4
_symmetry_space_group_name_H-M   'P 1'
_cell_length_a   9.70460123
_cell_length_b   9.70177915
_cell_length_c   9.66946806
_cell_angle_alpha   59.88939043
_cell_angle_beta   59.88595028
_cell_angle_gamma   60.00962102
_symmetry_Int_Tables_number   1
_chemical_formula_structural   Tb15DyIn3HgRh4
_chemical_formula_sum   'Tb15 Dy1 In3 Hg1 Rh4'
_cell_volume   642.70053474
_cell_formula_units_Z   1
loop_
 _symmetry_equiv_pos_site_id
 _symmetry_equiv_pos_as_xyz
  1  'x, y, z'
loop_
 _atom_site_type_symbol
 _atom_site_label
 _atom_site_symmetry_multiplicity
 _atom_site_fract_x
 _atom_site_fract_y
 _atom_site_fract_z
 _atom_site_occupancy
  Tb  Tb0  1  0.689397  0.310367  0.311369  1
  Tb  Tb1  1  0.689397  0.688866  0.311369  1
  Tb  Tb2  1  0.312032  0.688925  0.310117  1
  Tb  Tb3  1  0.937296  0.937643  0.559276  1
  Tb  Tb4  1  0.148636  0.150857  0.549650  1
  Tb  Tb5  1  0.563583  0.938892  0.558633  1
  Tb  Tb6  1  0.150514  0.152578  0.149535  1
  Tb  Tb7  1  0.311341  0.309018  0.690028  1
  Tb  Tb8  1  0.937296  0.565784  0.559276  1
  Tb  Tb9  1  0.562998  0.563429  0.935741  1
  Tb  Tb10  1  0.562998  0.937832  0.935741  1
  Tb  Tb11  1  0.936870  0.564396  0.934338  1
  Tb  Tb12  1  0.150514  0.547371  0.149535  1
  Tb  Tb13  1  0.311341  0.689614  0.690028  1
  Tb  Tb14  1  0.690330  0.309752  0.690167  1
  Dy  Dy15  1  0.549918  0.150901  0.148277  1
  In  In16  1  0.245551  0.917254  0.919940  1
  In  In17  1  0.917418  0.245615  0.920488  1
  In  In18  1  0.917418  0.916480  0.920488  1
  Hg  Hg19  1  0.914511  0.913817  0.257856  1
  Rh  Rh20  1  0.357860  0.356945  0.357010  1
  Rh  Rh21  1  0.926352  0.357844  0.357963  1
  Rh  Rh22  1  0.358568  0.357636  0.926162  1
  Rh  Rh23  1  0.357860  0.928186  0.357010  1
