# generated using pymatgen
data_HoLu5(Al3Ru)8
_symmetry_space_group_name_H-M   'P 1'
_cell_length_a   8.74453936
_cell_length_b   8.74453998
_cell_length_c   9.55503000
_cell_angle_alpha   90.00000000
_cell_angle_beta   90.00000000
_cell_angle_gamma   119.96730405
_symmetry_Int_Tables_number   1
_chemical_formula_structural   HoLu5(Al3Ru)8
_chemical_formula_sum   'Ho1 Lu5 Al24 Ru8'
_cell_volume   632.96483333
_cell_formula_units_Z   1
loop_
 _symmetry_equiv_pos_site_id
 _symmetry_equiv_pos_as_xyz
  1  'x, y, z'
loop_
 _atom_site_type_symbol
 _atom_site_label
 _atom_site_symmetry_multiplicity
 _atom_site_fract_x
 _atom_site_fract_y
 _atom_site_fract_z
 _atom_site_occupancy
  Ho  Ho0  1  0.806366  0.193634  0.750000  1
  Lu  Lu1  1  0.194848  0.389766  0.250000  1
  Lu  Lu2  1  0.805168  0.610466  0.750000  1
  Lu  Lu3  1  0.610234  0.805152  0.250000  1
  Lu  Lu4  1  0.389534  0.194832  0.750000  1
  Lu  Lu5  1  0.194792  0.805208  0.250000  1
  Al  Al6  1  0.333253  0.666747  0.019795  1
  Al  Al7  1  0.666377  0.333623  0.981235  1
  Al  Al8  1  0.666377  0.333623  0.518765  1
  Al  Al9  1  0.333253  0.666747  0.480205  1
  Al  Al10  1  0.163552  0.326097  0.577643  1
  Al  Al11  1  0.837204  0.674544  0.421726  1
  Al  Al12  1  0.673903  0.836448  0.577643  1
  Al  Al13  1  0.837204  0.674544  0.078274  1
  Al  Al14  1  0.325456  0.162796  0.421726  1
  Al  Al15  1  0.163552  0.326097  0.922357  1
  Al  Al16  1  0.162773  0.837227  0.577827  1
  Al  Al17  1  0.325456  0.162796  0.078274  1
  Al  Al18  1  0.837138  0.162862  0.421053  1
  Al  Al19  1  0.673903  0.836448  0.922357  1
  Al  Al20  1  0.837138  0.162862  0.078947  1
  Al  Al21  1  0.162773  0.837227  0.922173  1
  Al  Al22  1  0.560624  0.121569  0.250000  1
  Al  Al23  1  0.437858  0.877315  0.750000  1
  Al  Al24  1  0.878431  0.439376  0.250000  1
  Al  Al25  1  0.122685  0.562142  0.750000  1
  Al  Al26  1  0.560682  0.439318  0.250000  1
  Al  Al27  1  0.439308  0.560692  0.750000  1
  Al  Al28  1  0.999906  0.000094  0.250000  1
  Al  Al29  1  0.001041  0.998959  0.750000  1
  Ru  Ru30  1  0.499518  0.999781  0.000296  1
  Ru  Ru31  1  0.000219  0.500482  0.000296  1
  Ru  Ru32  1  0.499518  0.999781  0.499704  1
  Ru  Ru33  1  0.499900  0.500100  0.000096  1
  Ru  Ru34  1  0.000219  0.500482  0.499704  1
  Ru  Ru35  1  0.499900  0.500100  0.499904  1
  Ru  Ru36  1  0.999970  0.000030  0.000020  1
  Ru  Ru37  1  0.999970  0.000030  0.499980  1
