# generated using pymatgen
data_Dy18Zr2(Ir3Pt)3
_symmetry_space_group_name_H-M   'P 1'
_cell_length_a   10.93135298
_cell_length_b   10.93135298
_cell_length_c   6.32110302
_cell_angle_alpha   89.99335658
_cell_angle_beta   89.99335658
_cell_angle_gamma   90.21346188
_symmetry_Int_Tables_number   1
_chemical_formula_structural   Dy18Zr2(Ir3Pt)3
_chemical_formula_sum   'Dy18 Zr2 Ir9 Pt3'
_cell_volume   755.33165408
_cell_formula_units_Z   1
loop_
 _symmetry_equiv_pos_site_id
 _symmetry_equiv_pos_as_xyz
  1  'x, y, z'
loop_
 _atom_site_type_symbol
 _atom_site_label
 _atom_site_symmetry_multiplicity
 _atom_site_fract_x
 _atom_site_fract_y
 _atom_site_fract_z
 _atom_site_occupancy
  Dy  Dy0  1  0.288191  0.083892  0.377284  1
  Dy  Dy1  1  0.288557  0.912336  0.877344  1
  Dy  Dy2  1  0.711711  0.084254  0.877562  1
  Dy  Dy3  1  0.711906  0.915348  0.377030  1
  Dy  Dy4  1  0.587069  0.795582  0.870599  1
  Dy  Dy5  1  0.590288  0.203490  0.372737  1
  Dy  Dy6  1  0.408102  0.794765  0.375880  1
  Dy  Dy7  1  0.409811  0.202349  0.872386  1
  Dy  Dy8  1  0.204418  0.412931  0.629401  1
  Dy  Dy9  1  0.205235  0.591898  0.124120  1
  Dy  Dy10  1  0.796510  0.409712  0.127263  1
  Dy  Dy11  1  0.797651  0.590189  0.627614  1
  Dy  Dy12  1  0.916108  0.711809  0.122716  1
  Dy  Dy13  1  0.915746  0.288289  0.622438  1
  Dy  Dy14  1  0.087664  0.711443  0.622656  1
  Dy  Dy15  1  0.084652  0.288094  0.122970  1
  Dy  Dy16  1  0.498155  0.501234  0.000041  1
  Dy  Dy17  1  0.498766  0.501845  0.499959  1
  Zr  Zr18  1  0.000013  0.999929  0.500620  1
  Zr  Zr19  1  0.000071  0.999987  0.999380  1
  Ir  Ir20  1  0.855603  0.144397  0.250000  1
  Ir  Ir21  1  0.855337  0.855685  0.750296  1
  Ir  Ir22  1  0.144315  0.144663  0.749704  1
  Ir  Ir23  1  0.143724  0.856276  0.250000  1
  Ir  Ir24  1  0.346441  0.653559  0.750000  1
  Ir  Ir25  1  0.500192  0.000190  0.121975  1
  Ir  Ir26  1  0.500021  0.000426  0.620148  1
  Ir  Ir27  1  0.999574  0.499979  0.879852  1
  Ir  Ir28  1  0.999810  0.499808  0.378025  1
  Pt  Pt29  1  0.653915  0.346085  0.750000  1
  Pt  Pt30  1  0.655513  0.655068  0.250092  1
  Pt  Pt31  1  0.344932  0.344487  0.249908  1
