# generated using pymatgen
data_TeMoF34
_symmetry_space_group_name_H-M   'P 1'
_cell_length_a   8.87695053
_cell_length_b   8.53170917
_cell_length_c   10.14379133
_cell_angle_alpha   81.21841315
_cell_angle_beta   87.47757243
_cell_angle_gamma   66.21829067
_symmetry_Int_Tables_number   1
_chemical_formula_structural   TeMoF34
_chemical_formula_sum   'Te1 Mo1 F34'
_cell_volume   694.64082387
_cell_formula_units_Z   1
loop_
 _symmetry_equiv_pos_site_id
 _symmetry_equiv_pos_as_xyz
  1  'x, y, z'
loop_
 _atom_site_type_symbol
 _atom_site_label
 _atom_site_symmetry_multiplicity
 _atom_site_fract_x
 _atom_site_fract_y
 _atom_site_fract_z
 _atom_site_occupancy
  Te  Te0  1  0.867767  0.250237  0.758085  1
  Mo  Mo1  1  0.129051  0.747844  0.246154  1
  F  F2  1  0.615050  0.209828  0.467947  1
  F  F3  1  0.393146  0.781014  0.535759  1
  F  F4  1  0.823484  0.713337  0.722051  1
  F  F5  1  0.177566  0.293180  0.279427  1
  F  F6  1  0.101942  0.737133  0.863972  1
  F  F7  1  0.908277  0.257655  0.139610  1
  F  F8  1  0.566359  0.136602  0.368539  1
  F  F9  1  0.435991  0.865402  0.630198  1
  F  F10  1  0.652290  0.332406  0.691957  1
  F  F11  1  0.345586  0.665387  0.310951  1
  F  F12  1  0.934760  0.073051  0.653653  1
  F  F13  1  0.057081  0.923388  0.352707  1
  F  F14  1  0.915168  0.390770  0.617984  1
  F  F15  1  0.080739  0.608668  0.387049  1
  F  F16  1  0.851917  0.811205  0.604299  1
  F  F17  1  0.163073  0.175841  0.390239  1
  F  F18  1  0.803278  0.428458  0.862005  1
  F  F19  1  0.193435  0.566776  0.144360  1
  F  F20  1  0.219600  0.687136  0.761795  1
  F  F21  1  0.782202  0.315291  0.234505  1
  F  F22  1  0.918115  0.828206  0.171180  1
  F  F23  1  0.081468  0.168801  0.827171  1
  F  F24  1  0.818042  0.108454  0.896444  1
  F  F25  1  0.180251  0.892200  0.110511  1
  F  F26  1  0.488274  0.589495  0.996443  1
  F  F27  1  0.505930  0.414713  0.004203  1
  F  F28  1  0.442421  0.102009  0.864261  1
  F  F29  1  0.549621  0.904699  0.129863  1
  F  F30  1  0.286812  0.278567  0.593874  1
  F  F31  1  0.711883  0.726691  0.398736  1
  F  F32  1  0.260665  0.411971  0.672891  1
  F  F33  1  0.741444  0.593935  0.318321  1
  F  F34  1  0.556192  0.941618  0.828070  1
  F  F35  1  0.441118  0.068031  0.164787  1
