# generated using pymatgen
data_Lu16Cd4Co3Se
_symmetry_space_group_name_H-M   'P 1'
_cell_length_a   9.45407224
_cell_length_b   9.45407223
_cell_length_c   9.45407121
_cell_angle_alpha   58.82651645
_cell_angle_beta   58.82652551
_cell_angle_gamma   58.82652214
_symmetry_Int_Tables_number   1
_chemical_formula_structural   Lu16Cd4Co3Se
_chemical_formula_sum   'Lu16 Cd4 Co3 Se1'
_cell_volume   581.49534313
_cell_formula_units_Z   1
loop_
 _symmetry_equiv_pos_site_id
 _symmetry_equiv_pos_as_xyz
  1  'x, y, z'
loop_
 _atom_site_type_symbol
 _atom_site_label
 _atom_site_symmetry_multiplicity
 _atom_site_fract_x
 _atom_site_fract_y
 _atom_site_fract_z
 _atom_site_occupancy
  Lu  Lu0  1  0.342831  0.342831  0.342831  1
  Lu  Lu1  1  0.358225  0.358225  0.956102  1
  Lu  Lu2  1  0.358225  0.956102  0.358225  1
  Lu  Lu3  1  0.956102  0.358225  0.358225  1
  Lu  Lu4  1  0.794204  0.187068  0.187068  1
  Lu  Lu5  1  0.186684  0.812644  0.812644  1
  Lu  Lu6  1  0.187068  0.794204  0.187068  1
  Lu  Lu7  1  0.812644  0.186684  0.812644  1
  Lu  Lu8  1  0.187068  0.187068  0.794204  1
  Lu  Lu9  1  0.812644  0.812644  0.186684  1
  Lu  Lu10  1  0.935881  0.565457  0.565457  1
  Lu  Lu11  1  0.569009  0.935778  0.935778  1
  Lu  Lu12  1  0.565457  0.935881  0.565457  1
  Lu  Lu13  1  0.935778  0.569009  0.935778  1
  Lu  Lu14  1  0.565457  0.565457  0.935881  1
  Lu  Lu15  1  0.935778  0.935778  0.569009  1
  Cd  Cd16  1  0.582257  0.582257  0.582257  1
  Cd  Cd17  1  0.580257  0.580257  0.255866  1
  Cd  Cd18  1  0.580257  0.255866  0.580257  1
  Cd  Cd19  1  0.255866  0.580257  0.580257  1
  Co  Co20  1  0.141069  0.141069  0.575407  1
  Co  Co21  1  0.141069  0.575407  0.141069  1
  Co  Co22  1  0.575407  0.141069  0.141069  1
  Se  Se23  1  0.140759  0.140759  0.140759  1
