# generated using pymatgen
data_HoTm7(HgPt)2
_symmetry_space_group_name_H-M   'P 1'
_cell_length_a   9.52032434
_cell_length_b   9.52032418
_cell_length_c   9.52094000
_cell_angle_alpha   59.99786021
_cell_angle_beta   59.99786079
_cell_angle_gamma   59.99794054
_symmetry_Int_Tables_number   1
_chemical_formula_structural   HoTm7(HgPt)2
_chemical_formula_sum   'Ho2 Tm14 Hg4 Pt4'
_cell_volume   610.16530150
_cell_formula_units_Z   2
loop_
 _symmetry_equiv_pos_site_id
 _symmetry_equiv_pos_as_xyz
  1  'x, y, z'
loop_
 _atom_site_type_symbol
 _atom_site_label
 _atom_site_symmetry_multiplicity
 _atom_site_fract_x
 _atom_site_fract_y
 _atom_site_fract_z
 _atom_site_occupancy
  Ho  Ho0  1  0.355553  0.355553  0.355510  1
  Ho  Ho1  1  0.355553  0.355553  0.933385  1
  Tm  Tm2  1  0.355386  0.933930  0.355342  1
  Tm  Tm3  1  0.933930  0.355386  0.355342  1
  Tm  Tm4  1  0.811050  0.189105  0.189047  1
  Tm  Tm5  1  0.189105  0.811050  0.810798  1
  Tm  Tm6  1  0.189105  0.811050  0.189047  1
  Tm  Tm7  1  0.811050  0.189105  0.810798  1
  Tm  Tm8  1  0.188883  0.188883  0.811117  1
  Tm  Tm9  1  0.810735  0.810735  0.189265  1
  Tm  Tm10  1  0.935775  0.564166  0.564205  1
  Tm  Tm11  1  0.564166  0.935775  0.935854  1
  Tm  Tm12  1  0.564166  0.935775  0.564205  1
  Tm  Tm13  1  0.935775  0.564166  0.935854  1
  Tm  Tm14  1  0.564341  0.564341  0.935659  1
  Tm  Tm15  1  0.935966  0.935966  0.564034  1
  Hg  Hg16  1  0.587018  0.587018  0.586341  1
  Hg  Hg17  1  0.587018  0.587018  0.239622  1
  Hg  Hg18  1  0.587260  0.239537  0.586601  1
  Hg  Hg19  1  0.239537  0.587260  0.586601  1
  Pt  Pt20  1  0.143620  0.143620  0.145068  1
  Pt  Pt21  1  0.143620  0.143620  0.567693  1
  Pt  Pt22  1  0.142875  0.568514  0.144306  1
  Pt  Pt23  1  0.568514  0.142875  0.144306  1
