# generated using pymatgen
data_Zr10PPb6
_symmetry_space_group_name_H-M   'P 1'
_cell_length_a   5.94118900
_cell_length_b   8.72075287
_cell_length_c   8.72075100
_cell_angle_alpha   120.00002001
_cell_angle_beta   90.00007100
_cell_angle_gamma   89.99986060
_symmetry_Int_Tables_number   1
_chemical_formula_structural   Zr10PPb6
_chemical_formula_sum   'Zr10 P1 Pb6'
_cell_volume   391.30173926
_cell_formula_units_Z   1
loop_
 _symmetry_equiv_pos_site_id
 _symmetry_equiv_pos_as_xyz
  1  'x, y, z'
loop_
 _atom_site_type_symbol
 _atom_site_label
 _atom_site_symmetry_multiplicity
 _atom_site_fract_x
 _atom_site_fract_y
 _atom_site_fract_z
 _atom_site_occupancy
  Zr  Zr0  1  0.500000  0.333332  0.666666  1
  Zr  Zr1  1  0.500000  0.666667  0.333334  1
  Zr  Zr2  1  0.000000  0.666666  0.333332  1
  Zr  Zr3  1  0.000000  0.333335  0.666668  1
  Zr  Zr4  1  0.753948  0.247781  0.000000  1
  Zr  Zr5  1  0.753943  0.752222  0.752220  1
  Zr  Zr6  1  0.753943  0.000001  0.247780  1
  Zr  Zr7  1  0.246052  0.752219  0.000000  1
  Zr  Zr8  1  0.246057  0.247780  0.247780  1
  Zr  Zr9  1  0.246057  0.000000  0.752220  1
  P  P10  1  0.499999  0.000001  0.000000  1
  Pb  Pb11  1  0.750364  0.607404  0.000000  1
  Pb  Pb12  1  0.750367  0.392598  0.392598  1
  Pb  Pb13  1  0.750367  0.000000  0.607402  1
  Pb  Pb14  1  0.249636  0.392596  0.000000  1
  Pb  Pb15  1  0.249633  0.607402  0.607402  1
  Pb  Pb16  1  0.249633  0.000000  0.392598  1
