# generated using pymatgen
data_Sr3NpO6
_symmetry_space_group_name_H-M   'P 1'
_cell_length_a   6.27766200
_cell_length_b   6.03504192
_cell_length_c   10.54117042
_cell_angle_alpha   55.35271164
_cell_angle_beta   90.00000000
_cell_angle_gamma   90.00000000
_symmetry_Int_Tables_number   1
_chemical_formula_structural   Sr3NpO6
_chemical_formula_sum   'Sr6 Np2 O12'
_cell_volume   328.54234760
_cell_formula_units_Z   2
loop_
 _symmetry_equiv_pos_site_id
 _symmetry_equiv_pos_as_xyz
  1  'x, y, z'
loop_
 _atom_site_type_symbol
 _atom_site_label
 _atom_site_symmetry_multiplicity
 _atom_site_fract_x
 _atom_site_fract_y
 _atom_site_fract_z
 _atom_site_occupancy
  Sr  Sr0  1  0.500000  0.500000  0.000000  1
  Sr  Sr1  1  0.000000  0.500000  0.500000  1
  Sr  Sr2  1  0.049531  0.271444  0.243104  1
  Sr  Sr3  1  0.549531  0.728556  0.256896  1
  Sr  Sr4  1  0.450469  0.271444  0.743104  1
  Sr  Sr5  1  0.950469  0.728556  0.756896  1
  Np  Np6  1  0.500000  0.000000  0.500000  1
  Np  Np7  1  0.000000  0.000000  0.000000  1
  O  O8  1  0.228296  0.751196  0.576152  1
  O  O9  1  0.728296  0.248804  0.923848  1
  O  O10  1  0.324124  0.329509  0.450745  1
  O  O11  1  0.824124  0.670491  0.049255  1
  O  O12  1  0.061693  0.106295  0.776617  1
  O  O13  1  0.561693  0.893705  0.723383  1
  O  O14  1  0.271704  0.751196  0.076152  1
  O  O15  1  0.771704  0.248804  0.423848  1
  O  O16  1  0.938307  0.893705  0.223383  1
  O  O17  1  0.438307  0.106295  0.276617  1
  O  O18  1  0.675876  0.670491  0.549255  1
  O  O19  1  0.175876  0.329509  0.950745  1
