# generated using pymatgen
data_Ho2Er10Co5Bi
_symmetry_space_group_name_H-M   'P 1'
_cell_length_a   8.24594222
_cell_length_b   8.24880977
_cell_length_c   8.24775501
_cell_angle_alpha   106.75120344
_cell_angle_beta   110.84519596
_cell_angle_gamma   110.86835019
_symmetry_Int_Tables_number   1
_chemical_formula_structural   Ho2Er10Co5Bi
_chemical_formula_sum   'Ho2 Er10 Co5 Bi1'
_cell_volume   431.04224121
_cell_formula_units_Z   1
loop_
 _symmetry_equiv_pos_site_id
 _symmetry_equiv_pos_as_xyz
  1  'x, y, z'
loop_
 _atom_site_type_symbol
 _atom_site_label
 _atom_site_symmetry_multiplicity
 _atom_site_fract_x
 _atom_site_fract_y
 _atom_site_fract_z
 _atom_site_occupancy
  Ho  Ho0  1  0.527533  0.711140  0.816196  1
  Ho  Ho1  1  0.194340  0.792998  0.987500  1
  Er  Er2  1  0.805600  0.207403  0.012637  1
  Er  Er3  1  0.472653  0.289008  0.183844  1
  Er  Er4  1  0.895085  0.711121  0.184196  1
  Er  Er5  1  0.690980  0.002520  0.311942  1
  Er  Er6  1  0.309279  0.620801  0.311480  1
  Er  Er7  1  0.194467  0.206763  0.401424  1
  Er  Er8  1  0.805431  0.792954  0.597980  1
  Er  Er9  1  0.690375  0.378727  0.688065  1
  Er  Er10  1  0.309213  0.998033  0.688123  1
  Er  Er11  1  0.104888  0.288445  0.816250  1
  Co  Co12  1  0.999805  0.000483  0.999926  1
  Co  Co13  1  0.500172  0.611450  0.112084  1
  Co  Co14  1  0.375550  0.000163  0.375770  1
  Co  Co15  1  0.624831  0.000155  0.624491  1
  Co  Co16  1  0.499925  0.387982  0.888376  1
  Bi  Bi17  1  0.999871  0.499852  0.499714  1
