# generated using pymatgen
data_Lu3InTc4F28
_symmetry_space_group_name_H-M   'P 1'
_cell_length_a   5.47582020
_cell_length_b   8.73071128
_cell_length_c   11.84797222
_cell_angle_alpha   62.91689219
_cell_angle_beta   90.12433748
_cell_angle_gamma   89.95029632
_symmetry_Int_Tables_number   1
_chemical_formula_structural   Lu3InTc4F28
_chemical_formula_sum   'Lu3 In1 Tc4 F28'
_cell_volume   504.31304472
_cell_formula_units_Z   1
loop_
 _symmetry_equiv_pos_site_id
 _symmetry_equiv_pos_as_xyz
  1  'x, y, z'
loop_
 _atom_site_type_symbol
 _atom_site_label
 _atom_site_symmetry_multiplicity
 _atom_site_fract_x
 _atom_site_fract_y
 _atom_site_fract_z
 _atom_site_occupancy
  Lu  Lu0  1  0.740840  0.183800  0.736391  1
  Lu  Lu1  1  0.758015  0.183609  0.236428  1
  Lu  Lu2  1  0.241157  0.816140  0.763528  1
  In  In3  1  0.260439  0.816128  0.263225  1
  Tc  Tc4  1  0.760389  0.726567  0.043837  1
  Tc  Tc5  1  0.241286  0.273670  0.957387  1
  Tc  Tc6  1  0.258285  0.274801  0.456594  1
  Tc  Tc7  1  0.741345  0.726555  0.541997  1
  F  F8  1  0.942073  0.705985  0.414294  1
  F  F9  1  0.056422  0.292328  0.585867  1
  F  F10  1  0.444450  0.291541  0.086587  1
  F  F11  1  0.557060  0.708092  0.915182  1
  F  F12  1  0.466311  0.728024  0.139327  1
  F  F13  1  0.531688  0.271040  0.861215  1
  F  F14  1  0.967702  0.270902  0.360498  1
  F  F15  1  0.031446  0.729311  0.638769  1
  F  F16  1  0.958075  0.744031  0.177805  1
  F  F17  1  0.043502  0.255556  0.824645  1
  F  F18  1  0.456437  0.255699  0.324655  1
  F  F19  1  0.543270  0.744890  0.674931  1
  F  F20  1  0.772523  0.475473  0.142106  1
  F  F21  1  0.227823  0.525231  0.858078  1
  F  F22  1  0.272662  0.526653  0.356922  1
  F  F23  1  0.727674  0.475721  0.641592  1
  F  F24  1  0.940233  0.276753  0.047981  1
  F  F25  1  0.059429  0.722714  0.952864  1
  F  F26  1  0.436879  0.721586  0.453207  1
  F  F27  1  0.560061  0.277616  0.547274  1
  F  F28  1  0.739976  0.977438  0.445041  1
  F  F29  1  0.260083  0.024571  0.553560  1
  F  F30  1  0.239487  0.023549  0.051657  1
  F  F31  1  0.760543  0.977167  0.946117  1
  F  F32  1  0.584398  0.968311  0.231641  1
  F  F33  1  0.416338  0.029909  0.768183  1
  F  F34  1  0.085194  0.028640  0.268835  1
  F  F35  1  0.916506  0.969998  0.731778  1
