# generated using pymatgen
data_LiBe4AlRh4
_symmetry_space_group_name_H-M   'P 1'
_cell_length_a   6.23926300
_cell_length_b   6.23926300
_cell_length_c   2.90321500
_cell_angle_alpha   90.00000000
_cell_angle_beta   90.00000000
_cell_angle_gamma   90.00000000
_symmetry_Int_Tables_number   1
_chemical_formula_structural   LiBe4AlRh4
_chemical_formula_sum   'Li1 Be4 Al1 Rh4'
_cell_volume   113.01752289
_cell_formula_units_Z   1
loop_
 _symmetry_equiv_pos_site_id
 _symmetry_equiv_pos_as_xyz
  1  'x, y, z'
loop_
 _atom_site_type_symbol
 _atom_site_label
 _atom_site_symmetry_multiplicity
 _atom_site_fract_x
 _atom_site_fract_y
 _atom_site_fract_z
 _atom_site_occupancy
  Li  Li0  1  0.500000  0.500000  0.000000  1
  Be  Be1  1  0.136754  0.614341  0.000000  1
  Be  Be2  1  0.385659  0.136754  0.000000  1
  Be  Be3  1  0.614341  0.863246  0.000000  1
  Be  Be4  1  0.863246  0.385659  0.000000  1
  Al  Al5  1  0.000000  0.000000  0.000000  1
  Rh  Rh6  1  0.151579  0.316514  0.500000  1
  Rh  Rh7  1  0.316514  0.848421  0.500000  1
  Rh  Rh8  1  0.683486  0.151579  0.500000  1
  Rh  Rh9  1  0.848421  0.683486  0.500000  1
