# generated using pymatgen
data_LaTh7AlS17
_symmetry_space_group_name_H-M   'P 1'
_cell_length_a   8.09229373
_cell_length_b   8.07404013
_cell_length_c   10.70451200
_cell_angle_alpha   80.78829739
_cell_angle_beta   80.68426999
_cell_angle_gamma   65.08018682
_symmetry_Int_Tables_number   1
_chemical_formula_structural   LaTh7AlS17
_chemical_formula_sum   'La1 Th7 Al1 S17'
_cell_volume   622.61752677
_cell_formula_units_Z   1
loop_
 _symmetry_equiv_pos_site_id
 _symmetry_equiv_pos_as_xyz
  1  'x, y, z'
loop_
 _atom_site_type_symbol
 _atom_site_label
 _atom_site_symmetry_multiplicity
 _atom_site_fract_x
 _atom_site_fract_y
 _atom_site_fract_z
 _atom_site_occupancy
  La  La0  1  0.810514  0.303817  0.296278  1
  Th  Th1  1  0.301813  0.813143  0.294245  1
  Th  Th2  1  0.186822  0.697704  0.703678  1
  Th  Th3  1  0.698245  0.187860  0.703756  1
  Th  Th4  1  0.205245  0.204694  0.544543  1
  Th  Th5  1  0.794114  0.794110  0.453790  1
  Th  Th6  1  0.683011  0.681005  0.977863  1
  Th  Th7  1  0.316048  0.317789  0.024493  1
  Al  Al8  1  0.000162  0.002254  0.001199  1
  S  S9  1  0.826353  0.431031  0.537194  1
  S  S10  1  0.430136  0.821803  0.531727  1
  S  S11  1  0.175934  0.568989  0.468827  1
  S  S12  1  0.569191  0.170570  0.474448  1
  S  S13  1  0.945470  0.319819  0.023406  1
  S  S14  1  0.320078  0.944661  0.026596  1
  S  S15  1  0.055978  0.681409  0.970155  1
  S  S16  1  0.680829  0.057805  0.970707  1
  S  S17  1  0.217459  0.201705  0.279899  1
  S  S18  1  0.792593  0.792141  0.721027  1
  S  S19  1  0.057252  0.055348  0.778106  1
  S  S20  1  0.948127  0.936475  0.222025  1
  S  S21  1  0.304342  0.304521  0.756023  1
  S  S22  1  0.688710  0.706381  0.242168  1
  S  S23  1  0.519409  0.521507  0.831599  1
  S  S24  1  0.470673  0.487563  0.162621  1
  S  S25  1  0.001493  0.995899  0.503629  1
