# generated using pymatgen
data_Tb4Ga18PdPtRh4
_symmetry_space_group_name_H-M   'P 1'
_cell_length_a   7.61819834
_cell_length_b   7.61819750
_cell_length_c   9.51428101
_cell_angle_alpha   90.00234807
_cell_angle_beta   90.00234697
_cell_angle_gamma   119.89260145
_symmetry_Int_Tables_number   1
_chemical_formula_structural   Tb4Ga18PdPtRh4
_chemical_formula_sum   'Tb4 Ga18 Pd1 Pt1 Rh4'
_cell_volume   478.71836931
_cell_formula_units_Z   1
loop_
 _symmetry_equiv_pos_site_id
 _symmetry_equiv_pos_as_xyz
  1  'x, y, z'
loop_
 _atom_site_type_symbol
 _atom_site_label
 _atom_site_symmetry_multiplicity
 _atom_site_fract_x
 _atom_site_fract_y
 _atom_site_fract_z
 _atom_site_occupancy
  Tb  Tb0  1  0.996604  0.669577  0.250124  1
  Tb  Tb1  1  0.003396  0.330423  0.749876  1
  Tb  Tb2  1  0.669577  0.996604  0.250124  1
  Tb  Tb3  1  0.330423  0.003396  0.749876  1
  Ga  Ga4  1  0.130411  0.130411  0.250816  1
  Ga  Ga5  1  0.869589  0.869589  0.749184  1
  Ga  Ga6  1  0.999225  0.337934  0.080085  1
  Ga  Ga7  1  0.000775  0.662066  0.919915  1
  Ga  Ga8  1  0.000626  0.662499  0.579976  1
  Ga  Ga9  1  0.337501  0.999374  0.420024  1
  Ga  Ga10  1  0.999374  0.337501  0.420024  1
  Ga  Ga11  1  0.662499  0.000626  0.579976  1
  Ga  Ga12  1  0.662066  0.000775  0.919915  1
  Ga  Ga13  1  0.337934  0.999225  0.080085  1
  Ga  Ga14  1  0.336607  0.336607  0.566048  1
  Ga  Ga15  1  0.663393  0.663393  0.433952  1
  Ga  Ga16  1  0.663036  0.663036  0.065994  1
  Ga  Ga17  1  0.336964  0.336964  0.934006  1
  Ga  Ga18  1  0.336761  0.546726  0.250035  1
  Ga  Ga19  1  0.663239  0.453274  0.749965  1
  Ga  Ga20  1  0.546726  0.336761  0.250035  1
  Ga  Ga21  1  0.453274  0.663239  0.749965  1
  Pd  Pd22  1  0.000000  0.000000  0.500000  1
  Pt  Pt23  1  0.000000  0.000000  0.000000  1
  Rh  Rh24  1  0.671213  0.328787  0.000000  1
  Rh  Rh25  1  0.328787  0.671213  0.000000  1
  Rh  Rh26  1  0.328777  0.671223  0.500000  1
  Rh  Rh27  1  0.671223  0.328777  0.500000  1
