# generated using pymatgen
data_LaZnGe2Pd
_symmetry_space_group_name_H-M   'P 1'
_cell_length_a   6.18240365
_cell_length_b   6.18240378
_cell_length_c   6.18240314
_cell_angle_alpha   139.47912159
_cell_angle_beta   139.47912088
_cell_angle_gamma   58.64503905
_symmetry_Int_Tables_number   1
_chemical_formula_structural   LaZnGe2Pd
_chemical_formula_sum   'La1 Zn1 Ge2 Pd1'
_cell_volume   98.82391343
_cell_formula_units_Z   1
loop_
 _symmetry_equiv_pos_site_id
 _symmetry_equiv_pos_as_xyz
  1  'x, y, z'
loop_
 _atom_site_type_symbol
 _atom_site_label
 _atom_site_symmetry_multiplicity
 _atom_site_fract_x
 _atom_site_fract_y
 _atom_site_fract_z
 _atom_site_occupancy
  La  La0  1  0.000000  0.000000  0.000000  1
  Zn  Zn1  1  0.250000  0.750000  0.500000  1
  Ge  Ge2  1  0.617924  0.617924  0.000000  1
  Ge  Ge3  1  0.382076  0.382076  0.000000  1
  Pd  Pd4  1  0.750000  0.250000  0.500000  1
