# generated using pymatgen
data_SrPaI6
_symmetry_space_group_name_H-M   'P 1'
_cell_length_a   8.10363499
_cell_length_b   8.10363652
_cell_length_c   15.30427520
_cell_angle_alpha   84.09796741
_cell_angle_beta   84.09796771
_cell_angle_gamma   119.38379012
_symmetry_Int_Tables_number   1
_chemical_formula_structural   SrPaI6
_chemical_formula_sum   'Sr2 Pa2 I12'
_cell_volume   857.35055012
_cell_formula_units_Z   2
loop_
 _symmetry_equiv_pos_site_id
 _symmetry_equiv_pos_as_xyz
  1  'x, y, z'
loop_
 _atom_site_type_symbol
 _atom_site_label
 _atom_site_symmetry_multiplicity
 _atom_site_fract_x
 _atom_site_fract_y
 _atom_site_fract_z
 _atom_site_occupancy
  Sr  Sr0  1  0.084246  0.915754  0.250000  1
  Sr  Sr1  1  0.915754  0.084246  0.750000  1
  Pa  Pa2  1  0.419172  0.580828  0.250000  1
  Pa  Pa3  1  0.580828  0.419172  0.750000  1
  I  I4  1  0.314301  0.457821  0.633224  1
  I  I5  1  0.457821  0.314301  0.133224  1
  I  I6  1  0.228731  0.073368  0.869358  1
  I  I7  1  0.073368  0.228731  0.369358  1
  I  I8  1  0.167916  0.640053  0.129029  1
  I  I9  1  0.640053  0.167916  0.629029  1
  I  I10  1  0.359947  0.832084  0.370971  1
  I  I11  1  0.832084  0.359947  0.870971  1
  I  I12  1  0.771269  0.926632  0.130642  1
  I  I13  1  0.926632  0.771269  0.630642  1
  I  I14  1  0.542179  0.685699  0.866776  1
  I  I15  1  0.685699  0.542179  0.366776  1
