# generated using pymatgen
data_BaZn4Cu9
_symmetry_space_group_name_H-M   'P 1'
_cell_length_a   8.43972433
_cell_length_b   8.43972417
_cell_length_c   8.43972384
_cell_angle_alpha   120.58327507
_cell_angle_beta   120.58327686
_cell_angle_gamma   88.99267347
_symmetry_Int_Tables_number   1
_chemical_formula_structural   BaZn4Cu9
_chemical_formula_sum   'Ba2 Zn8 Cu18'
_cell_volume   421.26089854
_cell_formula_units_Z   2
loop_
 _symmetry_equiv_pos_site_id
 _symmetry_equiv_pos_as_xyz
  1  'x, y, z'
loop_
 _atom_site_type_symbol
 _atom_site_label
 _atom_site_symmetry_multiplicity
 _atom_site_fract_x
 _atom_site_fract_y
 _atom_site_fract_z
 _atom_site_occupancy
  Ba  Ba0  1  0.750000  0.750000  0.000000  1
  Ba  Ba1  1  0.250000  0.250000  0.000000  1
  Zn  Zn2  1  0.062261  0.562261  0.862546  1
  Zn  Zn3  1  0.699715  0.199715  0.137454  1
  Zn  Zn4  1  0.562261  0.699715  0.500000  1
  Zn  Zn5  1  0.199715  0.062261  0.500000  1
  Zn  Zn6  1  0.937739  0.437739  0.137454  1
  Zn  Zn7  1  0.300285  0.800285  0.862546  1
  Zn  Zn8  1  0.437739  0.300285  0.500000  1
  Zn  Zn9  1  0.800285  0.937739  0.500000  1
  Cu  Cu10  1  0.434916  0.934916  0.724123  1
  Cu  Cu11  1  0.210793  0.710793  0.275877  1
  Cu  Cu12  1  0.934916  0.210793  0.500000  1
  Cu  Cu13  1  0.710793  0.434916  0.500000  1
  Cu  Cu14  1  0.565084  0.065084  0.275877  1
  Cu  Cu15  1  0.789207  0.289207  0.724123  1
  Cu  Cu16  1  0.065084  0.789207  0.500000  1
  Cu  Cu17  1  0.289207  0.565084  0.500000  1
  Cu  Cu18  1  0.063110  0.206593  0.269703  1
  Cu  Cu19  1  0.936890  0.793407  0.730297  1
  Cu  Cu20  1  0.563110  0.293407  0.856517  1
  Cu  Cu21  1  0.436890  0.706593  0.143483  1
  Cu  Cu22  1  0.793407  0.063110  0.856517  1
  Cu  Cu23  1  0.206593  0.936890  0.143483  1
  Cu  Cu24  1  0.706593  0.563110  0.269703  1
  Cu  Cu25  1  0.293407  0.436890  0.730297  1
  Cu  Cu26  1  0.000000  0.500000  0.500000  1
  Cu  Cu27  1  0.500000  0.000000  0.500000  1
