# generated using pymatgen
data_DyHoEr2(Ga3Ir)6
_symmetry_space_group_name_H-M   'P 1'
_cell_length_a   7.58702700
_cell_length_b   7.58755405
_cell_length_c   9.47282300
_cell_angle_alpha   90.00000000
_cell_angle_beta   90.00000000
_cell_angle_gamma   120.00479561
_symmetry_Int_Tables_number   1
_chemical_formula_structural   DyHoEr2(Ga3Ir)6
_chemical_formula_sum   'Dy1 Ho1 Er2 Ga18 Ir6'
_cell_volume   472.23969839
_cell_formula_units_Z   1
loop_
 _symmetry_equiv_pos_site_id
 _symmetry_equiv_pos_as_xyz
  1  'x, y, z'
loop_
 _atom_site_type_symbol
 _atom_site_label
 _atom_site_symmetry_multiplicity
 _atom_site_fract_x
 _atom_site_fract_y
 _atom_site_fract_z
 _atom_site_occupancy
  Dy  Dy0  1  0.002894  0.332106  0.250000  1
  Ho  Ho1  1  0.997138  0.667898  0.750000  1
  Er  Er2  1  0.667984  0.997177  0.750000  1
  Er  Er3  1  0.332078  0.002852  0.250000  1
  Ga  Ga4  1  0.126736  0.126886  0.750000  1
  Ga  Ga5  1  0.873249  0.873265  0.250000  1
  Ga  Ga6  1  0.998753  0.333511  0.580865  1
  Ga  Ga7  1  0.001216  0.666153  0.418867  1
  Ga  Ga8  1  0.001216  0.666153  0.081133  1
  Ga  Ga9  1  0.334069  0.999000  0.919142  1
  Ga  Ga10  1  0.998753  0.333511  0.919135  1
  Ga  Ga11  1  0.666152  0.001210  0.080965  1
  Ga  Ga12  1  0.666152  0.001210  0.419035  1
  Ga  Ga13  1  0.334069  0.999000  0.580858  1
  Ga  Ga14  1  0.332337  0.332328  0.065308  1
  Ga  Ga15  1  0.667440  0.667695  0.934986  1
  Ga  Ga16  1  0.667440  0.667695  0.565014  1
  Ga  Ga17  1  0.332337  0.332328  0.434692  1
  Ga  Ga18  1  0.339403  0.546696  0.750000  1
  Ga  Ga19  1  0.660767  0.453387  0.250000  1
  Ga  Ga20  1  0.546524  0.339089  0.750000  1
  Ga  Ga21  1  0.453453  0.660832  0.250000  1
  Ir  Ir22  1  0.671477  0.328250  0.500028  1
  Ir  Ir23  1  0.328375  0.671530  0.500029  1
  Ir  Ir24  1  0.328375  0.671530  0.999971  1
  Ir  Ir25  1  0.671477  0.328250  0.999972  1
  Ir  Ir26  1  0.000070  0.000227  0.500003  1
  Ir  Ir27  1  0.000070  0.000227  0.999997  1
