# generated using pymatgen
data_Ho13Er7(Sn3Pb5)2
_symmetry_space_group_name_H-M   'P 1'
_cell_length_a   8.11521502
_cell_length_b   15.51579600
_cell_length_c   8.18895502
_cell_angle_alpha   90.00132941
_cell_angle_beta   90.00732358
_cell_angle_gamma   89.99906869
_symmetry_Int_Tables_number   1
_chemical_formula_structural   Ho13Er7(Sn3Pb5)2
_chemical_formula_sum   'Ho13 Er7 Sn6 Pb10'
_cell_volume   1031.10424280
_cell_formula_units_Z   1
loop_
 _symmetry_equiv_pos_site_id
 _symmetry_equiv_pos_as_xyz
  1  'x, y, z'
loop_
 _atom_site_type_symbol
 _atom_site_label
 _atom_site_symmetry_multiplicity
 _atom_site_fract_x
 _atom_site_fract_y
 _atom_site_fract_z
 _atom_site_occupancy
  Ho  Ho0  1  0.877581  0.377827  0.661305  1
  Ho  Ho1  1  0.377605  0.377779  0.838646  1
  Ho  Ho2  1  0.877625  0.122188  0.661339  1
  Ho  Ho3  1  0.622166  0.876788  0.159942  1
  Ho  Ho4  1  0.122150  0.623194  0.340082  1
  Ho  Ho5  1  0.465343  0.603314  0.676458  1
  Ho  Ho6  1  0.965322  0.896677  0.823528  1
  Ho  Ho7  1  0.534365  0.100422  0.325141  1
  Ho  Ho8  1  0.034374  0.399561  0.174820  1
  Ho  Ho9  1  0.534369  0.399608  0.325176  1
  Ho  Ho10  1  0.034410  0.100385  0.174793  1
  Ho  Ho11  1  0.465298  0.896710  0.676422  1
  Ho  Ho12  1  0.965322  0.603336  0.823599  1
  Er  Er13  1  0.622148  0.623297  0.159893  1
  Er  Er14  1  0.122156  0.876735  0.340096  1
  Er  Er15  1  0.377631  0.122247  0.838722  1
  Er  Er16  1  0.790564  0.750001  0.496505  1
  Er  Er17  1  0.290554  0.750018  0.003478  1
  Er  Er18  1  0.210061  0.249948  0.507127  1
  Er  Er19  1  0.709944  0.249961  0.992927  1
  Sn  Sn20  1  0.425828  0.749992  0.376050  1
  Sn  Sn21  1  0.925839  0.750012  0.123947  1
  Sn  Sn22  1  0.573417  0.249928  0.625147  1
  Sn  Sn23  1  0.073640  0.249956  0.874944  1
  Sn  Sn24  1  0.657231  0.749953  0.851239  1
  Sn  Sn25  1  0.157213  0.750042  0.648756  1
  Pb  Pb26  1  0.717775  0.458259  0.966834  1
  Pb  Pb27  1  0.217891  0.041759  0.533356  1
  Pb  Pb28  1  0.281896  0.957937  0.033619  1
  Pb  Pb29  1  0.781845  0.542184  0.466278  1
  Pb  Pb30  1  0.282150  0.542186  0.033597  1
  Pb  Pb31  1  0.782135  0.957817  0.466394  1
  Pb  Pb32  1  0.717656  0.041879  0.966678  1
  Pb  Pb33  1  0.217838  0.458143  0.533274  1
  Pb  Pb34  1  0.344323  0.249958  0.151340  1
  Pb  Pb35  1  0.844336  0.249998  0.348547  1
