# generated using pymatgen
data_TbPr4(ThTe4)3
_symmetry_space_group_name_H-M   'P 1'
_cell_length_a   4.48572900
_cell_length_b   11.95361817
_cell_length_c   12.28810800
_cell_angle_alpha   90.37437357
_cell_angle_beta   90.00000000
_cell_angle_gamma   90.00000000
_symmetry_Int_Tables_number   1
_chemical_formula_structural   TbPr4(ThTe4)3
_chemical_formula_sum   'Tb1 Pr4 Th3 Te12'
_cell_volume   658.88278514
_cell_formula_units_Z   1
loop_
 _symmetry_equiv_pos_site_id
 _symmetry_equiv_pos_as_xyz
  1  'x, y, z'
loop_
 _atom_site_type_symbol
 _atom_site_label
 _atom_site_symmetry_multiplicity
 _atom_site_fract_x
 _atom_site_fract_y
 _atom_site_fract_z
 _atom_site_occupancy
  Tb  Tb0  1  0.750000  0.690798  0.016333  1
  Pr  Pr1  1  0.750000  0.503155  0.700716  1
  Pr  Pr2  1  0.750000  0.997302  0.196041  1
  Pr  Pr3  1  0.250000  0.499152  0.303354  1
  Pr  Pr4  1  0.250000  0.997668  0.802320  1
  Th  Th5  1  0.250000  0.189810  0.483482  1
  Th  Th6  1  0.250000  0.310771  0.983217  1
  Th  Th7  1  0.750000  0.809980  0.516978  1
  Te  Te8  1  0.250000  0.624493  0.545733  1
  Te  Te9  1  0.250000  0.870925  0.042104  1
  Te  Te10  1  0.750000  0.375988  0.455393  1
  Te  Te11  1  0.750000  0.124768  0.954526  1
  Te  Te12  1  0.250000  0.297483  0.725086  1
  Te  Te13  1  0.250000  0.203287  0.224799  1
  Te  Te14  1  0.750000  0.703680  0.273426  1
  Te  Te15  1  0.750000  0.795035  0.774468  1
  Te  Te16  1  0.750000  0.056950  0.617035  1
  Te  Te17  1  0.750000  0.447604  0.115534  1
  Te  Te18  1  0.250000  0.943584  0.382397  1
  Te  Te19  1  0.250000  0.557566  0.887060  1
