# generated using pymatgen
data_Hf6Zn16Cu6SiPd
_symmetry_space_group_name_H-M   'P 1'
_cell_length_a   8.63744406
_cell_length_b   8.63744322
_cell_length_c   8.63744300
_cell_angle_alpha   59.99999701
_cell_angle_beta   60.00000024
_cell_angle_gamma   60.00000577
_symmetry_Int_Tables_number   1
_chemical_formula_structural   Hf6Zn16Cu6SiPd
_chemical_formula_sum   'Hf6 Zn16 Cu6 Si1 Pd1'
_cell_volume   455.65974179
_cell_formula_units_Z   1
loop_
 _symmetry_equiv_pos_site_id
 _symmetry_equiv_pos_as_xyz
  1  'x, y, z'
loop_
 _atom_site_type_symbol
 _atom_site_label
 _atom_site_symmetry_multiplicity
 _atom_site_fract_x
 _atom_site_fract_y
 _atom_site_fract_z
 _atom_site_occupancy
  Hf  Hf0  1  0.711872  0.288128  0.288128  1
  Hf  Hf1  1  0.288128  0.711872  0.711872  1
  Hf  Hf2  1  0.288128  0.711872  0.288128  1
  Hf  Hf3  1  0.711872  0.288128  0.711872  1
  Hf  Hf4  1  0.288128  0.288128  0.711872  1
  Hf  Hf5  1  0.711872  0.711872  0.288128  1
  Zn  Zn6  1  0.123742  0.123742  0.123742  1
  Zn  Zn7  1  0.876258  0.876258  0.876258  1
  Zn  Zn8  1  0.123742  0.123742  0.628775  1
  Zn  Zn9  1  0.123742  0.628775  0.123742  1
  Zn  Zn10  1  0.876258  0.876258  0.371225  1
  Zn  Zn11  1  0.876258  0.371225  0.876258  1
  Zn  Zn12  1  0.628775  0.123742  0.123742  1
  Zn  Zn13  1  0.371225  0.876258  0.876258  1
  Zn  Zn14  1  0.337758  0.337758  0.337758  1
  Zn  Zn15  1  0.662242  0.662242  0.662242  1
  Zn  Zn16  1  0.337758  0.337758  0.986728  1
  Zn  Zn17  1  0.337758  0.986728  0.337758  1
  Zn  Zn18  1  0.662242  0.662242  0.013272  1
  Zn  Zn19  1  0.662242  0.013272  0.662242  1
  Zn  Zn20  1  0.986728  0.337758  0.337758  1
  Zn  Zn21  1  0.013272  0.662242  0.662242  1
  Cu  Cu22  1  0.500000  0.000000  0.000000  1
  Cu  Cu23  1  0.000000  0.500000  0.500000  1
  Cu  Cu24  1  0.000000  0.500000  0.000000  1
  Cu  Cu25  1  0.500000  0.000000  0.500000  1
  Cu  Cu26  1  0.000000  0.000000  0.500000  1
  Cu  Cu27  1  0.500000  0.500000  0.000000  1
  Si  Si28  1  0.500000  0.500000  0.500000  1
  Pd  Pd29  1  0.000000  0.000000  0.000000  1
