# generated using pymatgen
data_Dy3Zn3Cu2Rh
_symmetry_space_group_name_H-M   'P 1'
_cell_length_a   7.09550800
_cell_length_b   7.09550871
_cell_length_c   3.89733900
_cell_angle_alpha   90.00000000
_cell_angle_beta   90.00000000
_cell_angle_gamma   119.99999669
_symmetry_Int_Tables_number   1
_chemical_formula_structural   Dy3Zn3Cu2Rh
_chemical_formula_sum   'Dy3 Zn3 Cu2 Rh1'
_cell_volume   169.92835808
_cell_formula_units_Z   1
loop_
 _symmetry_equiv_pos_site_id
 _symmetry_equiv_pos_as_xyz
  1  'x, y, z'
loop_
 _atom_site_type_symbol
 _atom_site_label
 _atom_site_symmetry_multiplicity
 _atom_site_fract_x
 _atom_site_fract_y
 _atom_site_fract_z
 _atom_site_occupancy
  Dy  Dy0  1  0.415855  0.408035  0.500000  1
  Dy  Dy1  1  0.591965  0.007820  0.500000  1
  Dy  Dy2  1  0.992180  0.584145  0.500000  1
  Zn  Zn3  1  0.756949  0.759902  0.000000  1
  Zn  Zn4  1  0.240098  0.997046  0.000000  1
  Zn  Zn5  1  0.002954  0.243051  0.000000  1
  Cu  Cu6  1  0.333333  0.666667  0.000000  1
  Cu  Cu7  1  0.000000  0.000000  0.500000  1
  Rh  Rh8  1  0.666667  0.333333  0.000000  1
