# generated using pymatgen
data_Er2Tm6Tc3B24Ru
_symmetry_space_group_name_H-M   'P 1'
_cell_length_a   3.63871200
_cell_length_b   9.09040256
_cell_length_c   11.46339200
_cell_angle_alpha   89.92092271
_cell_angle_beta   90.00000000
_cell_angle_gamma   90.00000000
_symmetry_Int_Tables_number   1
_chemical_formula_structural   Er2Tm6Tc3B24Ru
_chemical_formula_sum   'Er2 Tm6 Tc3 B24 Ru1'
_cell_volume   379.17834728
_cell_formula_units_Z   1
loop_
 _symmetry_equiv_pos_site_id
 _symmetry_equiv_pos_as_xyz
  1  'x, y, z'
loop_
 _atom_site_type_symbol
 _atom_site_label
 _atom_site_symmetry_multiplicity
 _atom_site_fract_x
 _atom_site_fract_y
 _atom_site_fract_z
 _atom_site_occupancy
  Er  Er0  1  0.000000  0.322984  0.413881  1
  Er  Er1  1  0.000000  0.675676  0.584021  1
  Tm  Tm2  1  0.000000  0.822645  0.087357  1
  Tm  Tm3  1  0.000000  0.178396  0.914604  1
  Tm  Tm4  1  0.000000  0.942648  0.370333  1
  Tm  Tm5  1  0.000000  0.057671  0.630454  1
  Tm  Tm6  1  0.000000  0.443136  0.129716  1
  Tm  Tm7  1  0.000000  0.557703  0.869557  1
  Tc  Tc8  1  0.000000  0.638876  0.320142  1
  Tc  Tc9  1  0.000000  0.361198  0.680376  1
  Tc  Tc10  1  0.000000  0.138242  0.178283  1
  B  B11  1  0.500000  0.552934  0.433053  1
  B  B12  1  0.500000  0.446710  0.566602  1
  B  B13  1  0.500000  0.052884  0.066362  1
  B  B14  1  0.500000  0.946281  0.933242  1
  B  B15  1  0.500000  0.749314  0.418989  1
  B  B16  1  0.500000  0.250052  0.581184  1
  B  B17  1  0.500000  0.249870  0.080671  1
  B  B18  1  0.500000  0.750957  0.918966  1
  B  B19  1  0.500000  0.792379  0.265108  1
  B  B20  1  0.500000  0.207733  0.735695  1
  B  B21  1  0.500000  0.292217  0.234742  1
  B  B22  1  0.500000  0.708765  0.765064  1
  B  B23  1  0.500000  0.630940  0.184795  1
  B  B24  1  0.500000  0.369229  0.815686  1
  B  B25  1  0.500000  0.130148  0.314641  1
  B  B26  1  0.500000  0.869176  0.685240  1
  B  B27  1  0.500000  0.980959  0.211817  1
  B  B28  1  0.500000  0.017600  0.788372  1
  B  B29  1  0.500000  0.481433  0.287670  1
  B  B30  1  0.500000  0.518482  0.711939  1
  B  B31  1  0.500000  0.601875  0.027915  1
  B  B32  1  0.500000  0.399842  0.971773  1
  B  B33  1  0.500000  0.100674  0.472288  1
  B  B34  1  0.500000  0.898878  0.528509  1
  Ru  Ru35  1  0.000000  0.861495  0.820956  1
