# generated using pymatgen
data_NaLa8Y11Sn16
_symmetry_space_group_name_H-M   'P 1'
_cell_length_a   8.07140500
_cell_length_b   8.37845713
_cell_length_c   15.74173600
_cell_angle_alpha   90.00000000
_cell_angle_beta   90.00000000
_cell_angle_gamma   90.26428706
_symmetry_Int_Tables_number   1
_chemical_formula_structural   NaLa8Y11Sn16
_chemical_formula_sum   'Na1 La8 Y11 Sn16'
_cell_volume   1064.53806687
_cell_formula_units_Z   1
loop_
 _symmetry_equiv_pos_site_id
 _symmetry_equiv_pos_as_xyz
  1  'x, y, z'
loop_
 _atom_site_type_symbol
 _atom_site_label
 _atom_site_symmetry_multiplicity
 _atom_site_fract_x
 _atom_site_fract_y
 _atom_site_fract_z
 _atom_site_occupancy
  Na  Na0  1  0.182245  0.495795  0.750000  1
  La  La1  1  0.500800  0.323387  0.904693  1
  La  La2  1  0.007775  0.184144  0.597401  1
  La  La3  1  0.494008  0.677985  0.402488  1
  La  La4  1  0.992536  0.824675  0.096438  1
  La  La5  1  0.494008  0.677985  0.097512  1
  La  La6  1  0.992536  0.824675  0.403562  1
  La  La7  1  0.500800  0.323387  0.595307  1
  La  La8  1  0.007775  0.184144  0.902599  1
  Y  Y9  1  0.347713  0.827896  0.877117  1
  Y  Y10  1  0.854961  0.667051  0.625389  1
  Y  Y11  1  0.653133  0.165510  0.377962  1
  Y  Y12  1  0.151634  0.329846  0.126216  1
  Y  Y13  1  0.653133  0.165510  0.122038  1
  Y  Y14  1  0.151634  0.329846  0.373784  1
  Y  Y15  1  0.347713  0.827896  0.622883  1
  Y  Y16  1  0.854961  0.667051  0.874611  1
  Y  Y17  1  0.682013  0.999146  0.750000  1
  Y  Y18  1  0.817627  0.499110  0.250000  1
  Y  Y19  1  0.316683  0.998869  0.250000  1
  Sn  Sn20  1  0.313482  0.039857  0.040977  1
  Sn  Sn21  1  0.818502  0.460483  0.459984  1
  Sn  Sn22  1  0.687087  0.961074  0.543721  1
  Sn  Sn23  1  0.182394  0.543572  0.965806  1
  Sn  Sn24  1  0.687087  0.961074  0.956279  1
  Sn  Sn25  1  0.182394  0.543572  0.534194  1
  Sn  Sn26  1  0.313482  0.039857  0.459023  1
  Sn  Sn27  1  0.818502  0.460483  0.040016  1
  Sn  Sn28  1  0.548715  0.620898  0.750000  1
  Sn  Sn29  1  0.049619  0.887633  0.750000  1
  Sn  Sn30  1  0.455983  0.374587  0.250000  1
  Sn  Sn31  1  0.951314  0.121100  0.250000  1
  Sn  Sn32  1  0.315210  0.130877  0.750000  1
  Sn  Sn33  1  0.800575  0.360286  0.750000  1
  Sn  Sn34  1  0.685916  0.860177  0.250000  1
  Sn  Sn35  1  0.186051  0.640563  0.250000  1
