# generated using pymatgen
data_SbPSe4
_symmetry_space_group_name_H-M   'P 1'
_cell_length_a   7.30982700
_cell_length_b   9.98853041
_cell_length_c   13.20040392
_cell_angle_alpha   59.47899432
_cell_angle_beta   90.00000000
_cell_angle_gamma   90.00000000
_symmetry_Int_Tables_number   1
_chemical_formula_structural   SbPSe4
_chemical_formula_sum   'Sb4 P4 Se16'
_cell_volume   830.27598477
_cell_formula_units_Z   4
loop_
 _symmetry_equiv_pos_site_id
 _symmetry_equiv_pos_as_xyz
  1  'x, y, z'
loop_
 _atom_site_type_symbol
 _atom_site_label
 _atom_site_symmetry_multiplicity
 _atom_site_fract_x
 _atom_site_fract_y
 _atom_site_fract_z
 _atom_site_occupancy
  Sb  Sb0  1  0.362963  0.580651  0.825911  1
  Sb  Sb1  1  0.862963  0.419349  0.674089  1
  Sb  Sb2  1  0.637037  0.419349  0.174089  1
  Sb  Sb3  1  0.137037  0.580651  0.325910  1
  P  P4  1  0.274102  0.690698  0.045498  1
  P  P5  1  0.774102  0.309302  0.454502  1
  P  P6  1  0.725898  0.309302  0.954502  1
  P  P7  1  0.225898  0.690698  0.545498  1
  Se  Se8  1  0.217350  0.433453  0.596583  1
  Se  Se9  1  0.717350  0.566547  0.903417  1
  Se  Se10  1  0.782650  0.566547  0.403417  1
  Se  Se11  1  0.282650  0.433453  0.096583  1
  Se  Se12  1  0.200168  0.839569  0.352790  1
  Se  Se13  1  0.700168  0.160431  0.147210  1
  Se  Se14  1  0.799832  0.160431  0.647210  1
  Se  Se15  1  0.299832  0.839569  0.852790  1
  Se  Se16  1  0.490487  0.746107  0.600283  1
  Se  Se17  1  0.990487  0.253893  0.899717  1
  Se  Se18  1  0.509513  0.253893  0.399717  1
  Se  Se19  1  0.009513  0.746107  0.100283  1
  Se  Se20  1  0.010445  0.708002  0.656799  1
  Se  Se21  1  0.510445  0.291998  0.843201  1
  Se  Se22  1  0.989555  0.291998  0.343201  1
  Se  Se23  1  0.489555  0.708002  0.156799  1
