# generated using pymatgen
data_Tb2Fe2CuSi2Pd
_symmetry_space_group_name_H-M   'P 1'
_cell_length_a   8.70018308
_cell_length_b   8.70018268
_cell_length_c   4.00776800
_cell_angle_alpha   90.00000000
_cell_angle_beta   90.00000000
_cell_angle_gamma   153.55598770
_symmetry_Int_Tables_number   1
_chemical_formula_structural   Tb2Fe2CuSi2Pd
_chemical_formula_sum   'Tb2 Fe2 Cu1 Si2 Pd1'
_cell_volume   135.09353254
_cell_formula_units_Z   1
loop_
 _symmetry_equiv_pos_site_id
 _symmetry_equiv_pos_as_xyz
  1  'x, y, z'
loop_
 _atom_site_type_symbol
 _atom_site_label
 _atom_site_symmetry_multiplicity
 _atom_site_fract_x
 _atom_site_fract_y
 _atom_site_fract_z
 _atom_site_occupancy
  Tb  Tb0  1  0.612649  0.387351  0.250000  1
  Tb  Tb1  1  0.385963  0.614037  0.750000  1
  Fe  Fe2  1  0.251925  0.748075  0.250000  1
  Fe  Fe3  1  0.750480  0.249520  0.750000  1
  Cu  Cu4  1  0.954316  0.045684  0.250000  1
  Si  Si5  1  0.814679  0.185321  0.250000  1
  Si  Si6  1  0.187044  0.812956  0.750000  1
  Pd  Pd7  1  0.042943  0.957057  0.750000  1
