# generated using pymatgen
data_TiCl12
_symmetry_space_group_name_H-M   'P 1'
_cell_length_a   11.95195609
_cell_length_b   11.01682444
_cell_length_c   7.67341437
_cell_angle_alpha   56.90790903
_cell_angle_beta   39.53914713
_cell_angle_gamma   59.83547321
_symmetry_Int_Tables_number   1
_chemical_formula_structural   TiCl12
_chemical_formula_sum   'Ti1 Cl12'
_cell_volume   532.56225506
_cell_formula_units_Z   1
loop_
 _symmetry_equiv_pos_site_id
 _symmetry_equiv_pos_as_xyz
  1  'x, y, z'
loop_
 _atom_site_type_symbol
 _atom_site_label
 _atom_site_symmetry_multiplicity
 _atom_site_fract_x
 _atom_site_fract_y
 _atom_site_fract_z
 _atom_site_occupancy
  Ti  Ti0  1  0.958138  0.965736  0.110147  1
  Cl  Cl1  1  0.502905  0.630375  0.110314  1
  Cl  Cl2  1  0.730283  0.528141  0.018249  1
  Cl  Cl3  1  0.874947  0.773764  0.234124  1
  Cl  Cl4  1  0.519583  0.857582  0.352235  1
  Cl  Cl5  1  0.749756  0.043436  0.489037  1
  Cl  Cl6  1  0.179412  0.864761  0.091912  1
  Cl  Cl7  1  0.909630  0.137077  0.823152  1
  Cl  Cl8  1  0.281496  0.946968  0.475065  1
  Cl  Cl9  1  0.362938  0.189051  0.682583  1
  Cl  Cl10  1  0.152424  0.227762  0.745241  1
  Cl  Cl11  1  0.273553  0.473780  0.989439  1
  Cl  Cl12  1  0.504933  0.361563  0.878501  1
