# generated using pymatgen
data_Gd3Al3Ga2Co
_symmetry_space_group_name_H-M   'P 1'
_cell_length_a   7.00476400
_cell_length_b   7.00476437
_cell_length_c   4.26082300
_cell_angle_alpha   90.00000000
_cell_angle_beta   90.00000000
_cell_angle_gamma   119.99999825
_symmetry_Int_Tables_number   1
_chemical_formula_structural   Gd3Al3Ga2Co
_chemical_formula_sum   'Gd3 Al3 Ga2 Co1'
_cell_volume   181.05527050
_cell_formula_units_Z   1
loop_
 _symmetry_equiv_pos_site_id
 _symmetry_equiv_pos_as_xyz
  1  'x, y, z'
loop_
 _atom_site_type_symbol
 _atom_site_label
 _atom_site_symmetry_multiplicity
 _atom_site_fract_x
 _atom_site_fract_y
 _atom_site_fract_z
 _atom_site_occupancy
  Gd  Gd0  1  0.402177  0.000000  0.000000  1
  Gd  Gd1  1  0.000000  0.402177  0.000000  1
  Gd  Gd2  1  0.597823  0.597823  0.000000  1
  Al  Al3  1  0.774515  0.000000  0.499999  1
  Al  Al4  1  0.225485  0.225485  0.499999  1
  Al  Al5  1  0.000000  0.774516  0.499999  1
  Ga  Ga6  1  0.666667  0.333333  0.499999  1
  Ga  Ga7  1  0.333333  0.666667  0.499999  1
  Co  Co8  1  0.000000  0.000000  0.000000  1
