# generated using pymatgen
data_Ba14NdSb11
_symmetry_space_group_name_H-M   'P 1'
_cell_length_a   18.37052556
_cell_length_b   18.37052666
_cell_length_c   18.37052600
_cell_angle_alpha   94.37919847
_cell_angle_beta   117.50162905
_cell_angle_gamma   117.50778364
_symmetry_Int_Tables_number   1
_chemical_formula_structural   Ba14NdSb11
_chemical_formula_sum   'Ba56 Nd4 Sb44'
_cell_volume   4534.80070894
_cell_formula_units_Z   4
loop_
 _symmetry_equiv_pos_site_id
 _symmetry_equiv_pos_as_xyz
  1  'x, y, z'
loop_
 _atom_site_type_symbol
 _atom_site_label
 _atom_site_symmetry_multiplicity
 _atom_site_fract_x
 _atom_site_fract_y
 _atom_site_fract_z
 _atom_site_occupancy
  Ba  Ba0  1  0.147217  0.748640  0.894173  1
  Ba  Ba1  1  0.034221  0.748032  0.628676  1
  Ba  Ba2  1  0.026112  0.781661  0.398681  1
  Ba  Ba3  1  0.090625  0.520913  0.753528  1
  Ba  Ba4  1  0.354359  0.966500  0.873330  1
  Ba  Ba5  1  0.119015  0.370662  0.904962  1
  Ba  Ba6  1  0.092940  0.127103  0.980676  1
  Ba  Ba7  1  0.146092  0.896093  0.250000  1
  Ba  Ba8  1  0.146428  0.627103  0.534164  1
  Ba  Ba9  1  0.412226  0.748233  0.977487  1
  Ba  Ba10  1  0.465700  0.870662  0.751647  1
  Ba  Ba11  1  0.356538  0.886836  0.480095  1
  Ba  Ba12  1  0.353533  0.603533  0.750000  1
  Ba  Ba13  1  0.227762  0.977600  0.062549  1
  Ba  Ba14  1  0.267384  0.337096  0.746472  1
  Ba  Ba15  1  0.231302  0.752041  0.164184  1
  Ba  Ba16  1  0.093170  0.466500  0.112141  1
  Ba  Ba17  1  0.270745  0.434739  0.522513  1
  Ba  Ba18  1  0.144341  0.020279  0.613267  1
  Ba  Ba19  1  0.592940  0.612264  0.965836  1
  Ba  Ba20  1  0.087856  0.067116  0.335816  1
  Ba  Ba21  1  0.119356  0.248032  0.213811  1
  Ba  Ba22  1  0.590625  0.837096  0.569712  1
  Ba  Ba23  1  0.619015  0.714053  0.748353  1
  Ba  Ba24  1  0.354467  0.253044  0.605827  1
  Ba  Ba25  1  0.407012  0.520279  0.375938  1
  Ba  Ba26  1  0.534221  0.905545  0.286189  1
  Ba  Ba27  1  0.619356  0.405545  0.871324  1
  Ba  Ba28  1  0.383410  0.601924  0.128242  1
  Ba  Ba29  1  0.473682  0.101924  0.718514  1
  Ba  Ba30  1  0.593170  0.481029  0.626670  1
  Ba  Ba31  1  0.647217  0.753044  0.398577  1
  Ba  Ba32  1  0.382980  0.281661  0.255548  1
  Ba  Ba33  1  0.415051  0.165213  0.437451  1
  Ba  Ba34  1  0.883410  0.755166  0.781486  1
  Ba  Ba35  1  0.912226  0.934739  0.663994  1
  Ba  Ba36  1  0.406741  0.386836  0.030298  1
  Ba  Ba37  1  0.854359  0.981029  0.387859  1
  Ba  Ba38  1  0.731302  0.567116  0.479260  1
  Ba  Ba39  1  0.907012  0.531074  0.886733  1
  Ba  Ba40  1  0.770745  0.248233  0.836006  1
  Ba  Ba41  1  0.727762  0.665213  0.250162  1
  Ba  Ba42  1  0.767384  0.020913  0.930288  1
  Ba  Ba43  1  0.646093  0.396093  0.250000  1
  Ba  Ba44  1  0.646428  0.112264  0.519324  1
  Ba  Ba45  1  0.526112  0.127432  0.244452  1
  Ba  Ba46  1  0.587856  0.252041  0.020740  1
  Ba  Ba47  1  0.856538  0.376443  0.469702  1
  Ba  Ba48  1  0.853533  0.103533  0.750000  1
  Ba  Ba49  1  0.906741  0.876443  0.019905  1
  Ba  Ba50  1  0.882980  0.627432  0.101319  1
  Ba  Ba51  1  0.644341  0.031074  0.124062  1
  Ba  Ba52  1  0.915051  0.477600  0.249838  1
  Ba  Ba53  1  0.965700  0.214053  0.595038  1
  Ba  Ba54  1  0.973682  0.255166  0.371758  1
  Ba  Ba55  1  0.854467  0.248640  0.101423  1
  Nd  Nd56  1  0.250318  0.125495  0.874830  1
  Nd  Nd57  1  0.250665  0.625495  0.375177  1
  Nd  Nd58  1  0.750318  0.875488  0.124823  1
  Nd  Nd59  1  0.750665  0.375488  0.625170  1
  Sb  Sb60  1  0.117501  0.921355  0.814814  1
  Sb  Sb61  1  0.157580  0.585031  0.980672  1
  Sb  Sb62  1  0.250020  0.740030  0.759941  1
  Sb  Sb63  1  0.250035  0.885602  0.614363  1
  Sb  Sb64  1  0.105209  0.427064  0.584863  1
  Sb  Sb65  1  0.105548  0.184907  0.800946  1
  Sb  Sb66  1  0.008137  0.754196  0.004081  1
  Sb  Sb67  1  0.116613  0.695313  0.300907  1
  Sb  Sb68  1  0.342201  0.520345  0.915137  1
  Sb  Sb69  1  0.106542  0.421355  0.303854  1
  Sb  Sb70  1  0.104359  0.176908  0.519328  1
  Sb  Sb71  1  0.394163  0.980376  0.322024  1
  Sb  Sb72  1  0.383961  0.684907  0.579358  1
  Sb  Sb73  1  0.605548  0.804602  0.920642  1
  Sb  Sb74  1  0.384936  0.200899  0.805529  1
  Sb  Sb75  1  0.480089  0.490079  0.740059  1
  Sb  Sb76  1  0.395370  0.700899  0.315963  1
  Sb  Sb77  1  0.393339  0.913984  0.072544  1
  Sb  Sb78  1  0.341439  0.320794  0.427456  1
  Sb  Sb79  1  0.250115  0.004055  0.495919  1
  Sb  Sb80  1  0.271238  0.385602  0.135566  1
  Sb  Sb81  1  0.842201  0.927064  0.821855  1
  Sb  Sb82  1  0.158350  0.072138  0.177976  1
  Sb  Sb83  1  0.750020  0.990079  0.509990  1
  Sb  Sb84  1  0.771238  0.635673  0.885637  1
  Sb  Sb85  1  0.657580  0.676908  0.572550  1
  Sb  Sb86  1  0.604359  0.085031  0.927450  1
  Sb  Sb87  1  0.606542  0.302686  0.685186  1
  Sb  Sb88  1  0.508137  0.504055  0.253940  1
  Sb  Sb89  1  0.617501  0.802686  0.196146  1
  Sb  Sb90  1  0.394406  0.195313  0.078700  1
  Sb  Sb91  1  0.616613  0.315705  0.421300  1
  Sb  Sb92  1  0.605209  0.020345  0.678145  1
  Sb  Sb93  1  0.893339  0.820794  0.479355  1
  Sb  Sb94  1  0.895370  0.579407  0.694471  1
  Sb  Sb95  1  0.658350  0.480376  0.086213  1
  Sb  Sb96  1  0.883961  0.304602  0.699054  1
  Sb  Sb97  1  0.980089  0.240030  0.990010  1
  Sb  Sb98  1  0.894406  0.815705  0.199093  1
  Sb  Sb99  1  0.894163  0.572139  0.413787  1
  Sb  Sb100  1  0.750035  0.135673  0.364434  1
  Sb  Sb101  1  0.750115  0.254196  0.246060  1
  Sb  Sb102  1  0.841439  0.413984  0.020645  1
  Sb  Sb103  1  0.884936  0.079407  0.184037  1
