# generated using pymatgen
data_Tb9Ho(SnBi)3
_symmetry_space_group_name_H-M   'P 1'
_cell_length_a   9.07329005
_cell_length_b   9.09414844
_cell_length_c   6.48494400
_cell_angle_alpha   90.00208540
_cell_angle_beta   89.99421567
_cell_angle_gamma   119.89970573
_symmetry_Int_Tables_number   1
_chemical_formula_structural   Tb9Ho(SnBi)3
_chemical_formula_sum   'Tb9 Ho1 Sn3 Bi3'
_cell_volume   463.87580148
_cell_formula_units_Z   1
loop_
 _symmetry_equiv_pos_site_id
 _symmetry_equiv_pos_as_xyz
  1  'x, y, z'
loop_
 _atom_site_type_symbol
 _atom_site_label
 _atom_site_symmetry_multiplicity
 _atom_site_fract_x
 _atom_site_fract_y
 _atom_site_fract_z
 _atom_site_occupancy
  Tb  Tb0  1  0.759128  0.753484  0.250016  1
  Tb  Tb1  1  0.005464  0.245854  0.250155  1
  Tb  Tb2  1  0.764986  0.005979  0.749833  1
  Tb  Tb3  1  0.236454  0.999821  0.250080  1
  Tb  Tb4  1  0.671659  0.338043  0.498592  1
  Tb  Tb5  1  0.999867  0.755832  0.749961  1
  Tb  Tb6  1  0.325737  0.659007  0.001427  1
  Tb  Tb7  1  0.238255  0.243685  0.749890  1
  Tb  Tb8  1  0.671877  0.338298  0.001438  1
  Ho  Ho9  1  0.325314  0.658586  0.498374  1
  Sn  Sn10  1  0.998072  0.393156  0.749336  1
  Sn  Sn11  1  0.392945  0.390886  0.250652  1
  Sn  Sn12  1  0.002143  0.608584  0.250802  1
  Bi  Bi13  1  0.607897  0.611048  0.749418  1
  Bi  Bi14  1  0.391895  0.999724  0.749478  1
  Bi  Bi15  1  0.608306  0.998012  0.250548  1
