# generated using pymatgen
data_Yb2Sb2O7
_symmetry_space_group_name_H-M   'P 1'
_cell_length_a   7.34356314
_cell_length_b   7.34356248
_cell_length_c   7.34356359
_cell_angle_alpha   119.83424791
_cell_angle_beta   118.68846877
_cell_angle_gamma   91.28699947
_symmetry_Int_Tables_number   1
_chemical_formula_structural   Yb2Sb2O7
_chemical_formula_sum   'Yb4 Sb4 O14'
_cell_volume   283.04530320
_cell_formula_units_Z   2
loop_
 _symmetry_equiv_pos_site_id
 _symmetry_equiv_pos_as_xyz
  1  'x, y, z'
loop_
 _atom_site_type_symbol
 _atom_site_label
 _atom_site_symmetry_multiplicity
 _atom_site_fract_x
 _atom_site_fract_y
 _atom_site_fract_z
 _atom_site_occupancy
  Yb  Yb0  1  0.000000  0.000000  0.500000  1
  Yb  Yb1  1  0.000000  0.500000  0.000000  1
  Yb  Yb2  1  0.000000  0.000000  0.000000  1
  Yb  Yb3  1  0.500000  0.500000  0.000000  1
  Sb  Sb4  1  0.500000  0.000000  0.000000  1
  Sb  Sb5  1  0.500000  0.500000  0.500000  1
  Sb  Sb6  1  0.500000  0.000000  0.500000  1
  Sb  Sb7  1  0.000000  0.500000  0.500000  1
  O  O8  1  0.441441  0.094905  0.772178  1
  O  O9  1  0.558559  0.330737  0.653464  1
  O  O10  1  0.177274  0.405096  0.346536  1
  O  O11  1  0.822726  0.169263  0.227822  1
  O  O12  1  0.558559  0.905096  0.227822  1
  O  O13  1  0.441441  0.669263  0.346536  1
  O  O14  1  0.822726  0.594904  0.653464  1
  O  O15  1  0.177274  0.830737  0.772178  1
  O  O16  1  0.601227  0.750000  0.851227  1
  O  O17  1  0.398773  0.250000  0.148773  1
  O  O18  1  0.173961  0.904269  0.269693  1
  O  O19  1  0.826039  0.095731  0.730307  1
  O  O20  1  0.865424  0.595731  0.269693  1
  O  O21  1  0.134576  0.404269  0.730307  1
