# generated using pymatgen
data_Y5(Hg2Pt)2
_symmetry_space_group_name_H-M   'P 1'
_cell_length_a   3.62967100
_cell_length_b   7.92075800
_cell_length_c   18.20676600
_cell_angle_alpha   90.00000000
_cell_angle_beta   90.00000000
_cell_angle_gamma   90.00000000
_symmetry_Int_Tables_number   1
_chemical_formula_structural   Y5(Hg2Pt)2
_chemical_formula_sum   'Y10 Hg8 Pt4'
_cell_volume   523.43989089
_cell_formula_units_Z   2
loop_
 _symmetry_equiv_pos_site_id
 _symmetry_equiv_pos_as_xyz
  1  'x, y, z'
loop_
 _atom_site_type_symbol
 _atom_site_label
 _atom_site_symmetry_multiplicity
 _atom_site_fract_x
 _atom_site_fract_y
 _atom_site_fract_z
 _atom_site_occupancy
  Y  Y0  1  0.000000  0.114169  0.415024  1
  Y  Y1  1  0.000000  0.885831  0.584976  1
  Y  Y2  1  0.000000  0.385831  0.915024  1
  Y  Y3  1  0.000000  0.614169  0.084976  1
  Y  Y4  1  0.000000  0.238411  0.216779  1
  Y  Y5  1  0.000000  0.761589  0.783221  1
  Y  Y6  1  0.000000  0.261589  0.716779  1
  Y  Y7  1  0.000000  0.738411  0.283221  1
  Y  Y8  1  0.000000  0.000000  0.000000  1
  Y  Y9  1  0.000000  0.500000  0.500000  1
  Hg  Hg10  1  0.500000  0.424698  0.354703  1
  Hg  Hg11  1  0.500000  0.575302  0.645297  1
  Hg  Hg12  1  0.500000  0.075302  0.854703  1
  Hg  Hg13  1  0.500000  0.924698  0.145297  1
  Hg  Hg14  1  0.500000  0.288176  0.063691  1
  Hg  Hg15  1  0.500000  0.711824  0.936309  1
  Hg  Hg16  1  0.500000  0.211824  0.563691  1
  Hg  Hg17  1  0.500000  0.788176  0.436309  1
  Pt  Pt18  1  0.500000  0.025885  0.303600  1
  Pt  Pt19  1  0.500000  0.974115  0.696400  1
  Pt  Pt20  1  0.500000  0.474115  0.803600  1
  Pt  Pt21  1  0.500000  0.525885  0.196400  1
