# generated using pymatgen
data_Rb8Tb4Tm2BBr20
_symmetry_space_group_name_H-M   'P 1'
_cell_length_a   12.32431630
_cell_length_b   12.32431701
_cell_length_c   12.36751900
_cell_angle_alpha   59.88397619
_cell_angle_beta   59.88397429
_cell_angle_gamma   60.23205806
_symmetry_Int_Tables_number   1
_chemical_formula_structural   Rb8Tb4Tm2BBr20
_chemical_formula_sum   'Rb8 Tb4 Tm2 B1 Br20'
_cell_volume   1328.25849432
_cell_formula_units_Z   1
loop_
 _symmetry_equiv_pos_site_id
 _symmetry_equiv_pos_as_xyz
  1  'x, y, z'
loop_
 _atom_site_type_symbol
 _atom_site_label
 _atom_site_symmetry_multiplicity
 _atom_site_fract_x
 _atom_site_fract_y
 _atom_site_fract_z
 _atom_site_occupancy
  Rb  Rb0  1  0.360081  0.360081  0.358653  1
  Rb  Rb1  1  0.639919  0.639919  0.641347  1
  Rb  Rb2  1  0.360081  0.360081  0.921186  1
  Rb  Rb3  1  0.358653  0.921186  0.360081  1
  Rb  Rb4  1  0.639919  0.639919  0.078814  1
  Rb  Rb5  1  0.641347  0.078814  0.639919  1
  Rb  Rb6  1  0.921186  0.358653  0.360081  1
  Rb  Rb7  1  0.078814  0.641347  0.639919  1
  Tb  Tb8  1  0.849454  0.150546  0.150546  1
  Tb  Tb9  1  0.150546  0.849454  0.849454  1
  Tb  Tb10  1  0.150546  0.849454  0.150546  1
  Tb  Tb11  1  0.849454  0.150546  0.849454  1
  Tm  Tm12  1  0.149350  0.149350  0.850650  1
  Tm  Tm13  1  0.850650  0.850650  0.149350  1
  B  B14  1  0.000000  0.000000  0.000000  1
  Br  Br15  1  0.326175  0.004360  0.995640  1
  Br  Br16  1  0.673825  0.995640  0.004360  1
  Br  Br17  1  0.004360  0.326175  0.673825  1
  Br  Br18  1  0.995640  0.673825  0.326175  1
  Br  Br19  1  0.004360  0.326175  0.995640  1
  Br  Br20  1  0.673825  0.995640  0.326175  1
  Br  Br21  1  0.995640  0.673825  0.004360  1
  Br  Br22  1  0.326175  0.004360  0.673825  1
  Br  Br23  1  0.000000  0.000000  0.329745  1
  Br  Br24  1  0.000000  0.000000  0.670255  1
  Br  Br25  1  0.670255  0.329745  0.000000  1
  Br  Br26  1  0.329745  0.670255  0.000000  1
  Br  Br27  1  0.681278  0.318722  0.318722  1
  Br  Br28  1  0.318722  0.681278  0.681278  1
  Br  Br29  1  0.318722  0.681278  0.318722  1
  Br  Br30  1  0.681278  0.318722  0.681278  1
  Br  Br31  1  0.313994  0.313994  0.686006  1
  Br  Br32  1  0.686006  0.686006  0.313994  1
  Br  Br33  1  0.250000  0.250000  0.250000  1
  Br  Br34  1  0.750000  0.750000  0.750000  1
