# generated using pymatgen
data_YMn2(FeP)3
_symmetry_space_group_name_H-M   'P 1'
_cell_length_a   3.64369000
_cell_length_b   10.26498300
_cell_length_c   12.12371900
_cell_angle_alpha   90.00000000
_cell_angle_beta   90.00000000
_cell_angle_gamma   90.00000000
_symmetry_Int_Tables_number   1
_chemical_formula_structural   YMn2(FeP)3
_chemical_formula_sum   'Y4 Mn8 Fe12 P12'
_cell_volume   453.45638038
_cell_formula_units_Z   4
loop_
 _symmetry_equiv_pos_site_id
 _symmetry_equiv_pos_as_xyz
  1  'x, y, z'
loop_
 _atom_site_type_symbol
 _atom_site_label
 _atom_site_symmetry_multiplicity
 _atom_site_fract_x
 _atom_site_fract_y
 _atom_site_fract_z
 _atom_site_occupancy
  Y  Y0  1  0.250000  0.580607  0.710516  1
  Y  Y1  1  0.250000  0.919393  0.210516  1
  Y  Y2  1  0.750000  0.419393  0.289484  1
  Y  Y3  1  0.750000  0.080607  0.789484  1
  Mn  Mn4  1  0.250000  0.705735  0.992247  1
  Mn  Mn5  1  0.250000  0.794265  0.492247  1
  Mn  Mn6  1  0.750000  0.294265  0.007753  1
  Mn  Mn7  1  0.750000  0.205735  0.507753  1
  Mn  Mn8  1  0.250000  0.408268  0.490437  1
  Mn  Mn9  1  0.250000  0.091732  0.990437  1
  Mn  Mn10  1  0.750000  0.591732  0.509563  1
  Mn  Mn11  1  0.750000  0.908268  0.009563  1
  Fe  Fe12  1  0.250000  0.220269  0.171366  1
  Fe  Fe13  1  0.250000  0.279731  0.671366  1
  Fe  Fe14  1  0.750000  0.779731  0.828634  1
  Fe  Fe15  1  0.750000  0.720269  0.328634  1
  Fe  Fe16  1  0.250000  0.876923  0.695632  1
  Fe  Fe17  1  0.250000  0.623077  0.195632  1
  Fe  Fe18  1  0.750000  0.123077  0.304368  1
  Fe  Fe19  1  0.750000  0.376923  0.804368  1
  Fe  Fe20  1  0.250000  0.462602  0.936019  1
  Fe  Fe21  1  0.250000  0.037398  0.436019  1
  Fe  Fe22  1  0.750000  0.537398  0.063981  1
  Fe  Fe23  1  0.750000  0.962602  0.563981  1
  P  P24  1  0.250000  0.423446  0.112715  1
  P  P25  1  0.250000  0.076554  0.612715  1
  P  P26  1  0.750000  0.576554  0.887285  1
  P  P27  1  0.750000  0.923446  0.387285  1
  P  P28  1  0.250000  0.269496  0.860775  1
  P  P29  1  0.250000  0.230504  0.360775  1
  P  P30  1  0.750000  0.730504  0.139225  1
  P  P31  1  0.750000  0.769496  0.639225  1
  P  P32  1  0.250000  0.603407  0.381302  1
  P  P33  1  0.250000  0.896593  0.881302  1
  P  P34  1  0.750000  0.396593  0.618698  1
  P  P35  1  0.750000  0.103407  0.118698  1
