# generated using pymatgen
data_Ca6Si5Rh12Pb
_symmetry_space_group_name_H-M   'P 1'
_cell_length_a   5.70632800
_cell_length_b   5.70632936
_cell_length_c   15.20943100
_cell_angle_alpha   90.00000000
_cell_angle_beta   90.00000000
_cell_angle_gamma   120.00000373
_symmetry_Int_Tables_number   1
_chemical_formula_structural   Ca6Si5Rh12Pb
_chemical_formula_sum   'Ca6 Si5 Rh12 Pb1'
_cell_volume   428.90108832
_cell_formula_units_Z   1
loop_
 _symmetry_equiv_pos_site_id
 _symmetry_equiv_pos_as_xyz
  1  'x, y, z'
loop_
 _atom_site_type_symbol
 _atom_site_label
 _atom_site_symmetry_multiplicity
 _atom_site_fract_x
 _atom_site_fract_y
 _atom_site_fract_z
 _atom_site_occupancy
  Ca  Ca0  1  0.333333  0.666667  0.042487  1
  Ca  Ca1  1  0.333333  0.666667  0.253374  1
  Ca  Ca2  1  0.333333  0.666667  0.460272  1
  Ca  Ca3  1  0.666667  0.333334  0.539728  1
  Ca  Ca4  1  0.666667  0.333334  0.746626  1
  Ca  Ca5  1  0.666667  0.333334  0.957513  1
  Si  Si6  1  0.000000  0.000000  0.257121  1
  Si  Si7  1  0.666667  0.333334  0.259731  1
  Si  Si8  1  0.000000  0.000000  0.500000  1
  Si  Si9  1  0.000000  0.000000  0.742879  1
  Si  Si10  1  0.333333  0.666667  0.740269  1
  Rh  Rh11  1  0.337086  0.168543  0.146992  1
  Rh  Rh12  1  0.831457  0.168543  0.146992  1
  Rh  Rh13  1  0.831457  0.662914  0.146992  1
  Rh  Rh14  1  0.328487  0.164244  0.371553  1
  Rh  Rh15  1  0.835756  0.164244  0.371553  1
  Rh  Rh16  1  0.835756  0.671513  0.371553  1
  Rh  Rh17  1  0.164244  0.328488  0.628448  1
  Rh  Rh18  1  0.164244  0.835756  0.628448  1
  Rh  Rh19  1  0.671513  0.835756  0.628448  1
  Rh  Rh20  1  0.168543  0.337087  0.853008  1
  Rh  Rh21  1  0.168543  0.831457  0.853008  1
  Rh  Rh22  1  0.662914  0.831457  0.853008  1
  Pb  Pb23  1  0.000000  0.000000  0.000000  1
