# generated using pymatgen
data_Zr8Al6Tc2BC
_symmetry_space_group_name_H-M   'P 1'
_cell_length_a   8.13380000
_cell_length_b   8.13380013
_cell_length_c   5.50267400
_cell_angle_alpha   90.00000000
_cell_angle_beta   90.00000000
_cell_angle_gamma   120.00000761
_symmetry_Int_Tables_number   1
_chemical_formula_structural   Zr8Al6Tc2BC
_chemical_formula_sum   'Zr8 Al6 Tc2 B1 C1'
_cell_volume   315.27633140
_cell_formula_units_Z   1
loop_
 _symmetry_equiv_pos_site_id
 _symmetry_equiv_pos_as_xyz
  1  'x, y, z'
loop_
 _atom_site_type_symbol
 _atom_site_label
 _atom_site_symmetry_multiplicity
 _atom_site_fract_x
 _atom_site_fract_y
 _atom_site_fract_z
 _atom_site_occupancy
  Zr  Zr0  1  0.235290  0.000000  0.261909  1
  Zr  Zr1  1  0.000000  0.235290  0.261909  1
  Zr  Zr2  1  0.764710  0.764710  0.261909  1
  Zr  Zr3  1  0.666667  0.333333  0.500000  1
  Zr  Zr4  1  0.333333  0.666667  0.500000  1
  Zr  Zr5  1  0.764710  0.000000  0.738091  1
  Zr  Zr6  1  0.000000  0.764710  0.738091  1
  Zr  Zr7  1  0.235290  0.235290  0.738091  1
  Al  Al8  1  0.593018  0.000000  0.210141  1
  Al  Al9  1  0.000000  0.593018  0.210141  1
  Al  Al10  1  0.406982  0.406982  0.210141  1
  Al  Al11  1  0.406982  0.000000  0.789859  1
  Al  Al12  1  0.000000  0.406982  0.789859  1
  Al  Al13  1  0.593018  0.593018  0.789859  1
  Tc  Tc14  1  0.666667  0.333333  0.000000  1
  Tc  Tc15  1  0.333333  0.666667  0.000000  1
  B  B16  1  0.000000  0.000000  0.000000  1
  C  C17  1  0.000000  0.000000  0.500000  1
