# generated using pymatgen
data_Tm2Th3Ge3C
_symmetry_space_group_name_H-M   'P 1'
_cell_length_a   8.77944200
_cell_length_b   8.77944217
_cell_length_c   6.38610500
_cell_angle_alpha   90.00000000
_cell_angle_beta   90.00000000
_cell_angle_gamma   119.99999936
_symmetry_Int_Tables_number   1
_chemical_formula_structural   Tm2Th3Ge3C
_chemical_formula_sum   'Tm4 Th6 Ge6 C2'
_cell_volume   426.28546618
_cell_formula_units_Z   2
loop_
 _symmetry_equiv_pos_site_id
 _symmetry_equiv_pos_as_xyz
  1  'x, y, z'
loop_
 _atom_site_type_symbol
 _atom_site_label
 _atom_site_symmetry_multiplicity
 _atom_site_fract_x
 _atom_site_fract_y
 _atom_site_fract_z
 _atom_site_occupancy
  Tm  Tm0  1  0.666667  0.333333  0.000000  1
  Tm  Tm1  1  0.333333  0.666667  0.000000  1
  Tm  Tm2  1  0.333333  0.666667  0.500000  1
  Tm  Tm3  1  0.666667  0.333333  0.500000  1
  Th  Th4  1  0.767878  0.767878  0.750000  1
  Th  Th5  1  0.232122  0.000000  0.750000  1
  Th  Th6  1  0.000000  0.232122  0.750000  1
  Th  Th7  1  0.232122  0.232122  0.250000  1
  Th  Th8  1  0.767878  0.000000  0.250000  1
  Th  Th9  1  0.000000  0.767878  0.250000  1
  Ge  Ge10  1  0.404525  0.404525  0.750000  1
  Ge  Ge11  1  0.595475  0.000000  0.750000  1
  Ge  Ge12  1  0.000000  0.595475  0.750000  1
  Ge  Ge13  1  0.595475  0.595475  0.250000  1
  Ge  Ge14  1  0.404525  0.000000  0.250000  1
  Ge  Ge15  1  0.000000  0.404525  0.250000  1
  C  C16  1  0.000000  0.000000  0.000000  1
  C  C17  1  0.000000  0.000000  0.500000  1
