# generated using pymatgen
data_YbErZr2(Al3Ir)6
_symmetry_space_group_name_H-M   'P 1'
_cell_length_a   7.51667445
_cell_length_b   7.50809209
_cell_length_c   9.37285100
_cell_angle_alpha   90.00000000
_cell_angle_beta   90.00000000
_cell_angle_gamma   119.64070806
_symmetry_Int_Tables_number   1
_chemical_formula_structural   YbErZr2(Al3Ir)6
_chemical_formula_sum   'Yb1 Er1 Zr2 Al18 Ir6'
_cell_volume   459.74674817
_cell_formula_units_Z   1
loop_
 _symmetry_equiv_pos_site_id
 _symmetry_equiv_pos_as_xyz
  1  'x, y, z'
loop_
 _atom_site_type_symbol
 _atom_site_label
 _atom_site_symmetry_multiplicity
 _atom_site_fract_x
 _atom_site_fract_y
 _atom_site_fract_z
 _atom_site_occupancy
  Yb  Yb0  1  0.328881  0.006448  0.750000  1
  Er  Er1  1  0.670056  0.993410  0.250000  1
  Zr  Zr2  1  0.995751  0.673765  0.250000  1
  Zr  Zr3  1  0.005767  0.327547  0.750000  1
  Al  Al4  1  0.127661  0.125240  0.250000  1
  Al  Al5  1  0.872045  0.875524  0.750000  1
  Al  Al6  1  0.999762  0.336536  0.074775  1
  Al  Al7  1  0.000761  0.663560  0.924905  1
  Al  Al8  1  0.000761  0.663560  0.575095  1
  Al  Al9  1  0.333532  0.999497  0.423663  1
  Al  Al10  1  0.999762  0.336536  0.425225  1
  Al  Al11  1  0.666172  0.001395  0.577750  1
  Al  Al12  1  0.666172  0.001395  0.922250  1
  Al  Al13  1  0.333532  0.999497  0.076337  1
  Al  Al14  1  0.331284  0.332561  0.555512  1
  Al  Al15  1  0.668587  0.666564  0.444732  1
  Al  Al16  1  0.668587  0.666564  0.055268  1
  Al  Al17  1  0.331284  0.332561  0.944488  1
  Al  Al18  1  0.334506  0.548177  0.250000  1
  Al  Al19  1  0.666672  0.451597  0.750000  1
  Al  Al20  1  0.554971  0.344440  0.250000  1
  Al  Al21  1  0.443549  0.653390  0.750000  1
  Ir  Ir22  1  0.673481  0.328950  0.000357  1
  Ir  Ir23  1  0.327723  0.671735  0.001958  1
  Ir  Ir24  1  0.327723  0.671735  0.498042  1
  Ir  Ir25  1  0.673481  0.328950  0.499643  1
  Ir  Ir26  1  0.998771  0.999432  0.000956  1
  Ir  Ir27  1  0.998771  0.999432  0.499044  1
