# generated using pymatgen
data_La12Th4MgCd3Os4
_symmetry_space_group_name_H-M   'P 1'
_cell_length_a   10.10651366
_cell_length_b   10.10648729
_cell_length_c   10.10640488
_cell_angle_alpha   60.04090047
_cell_angle_beta   60.04098672
_cell_angle_gamma   60.04133092
_symmetry_Int_Tables_number   1
_chemical_formula_structural   La12Th4MgCd3Os4
_chemical_formula_sum   'La12 Th4 Mg1 Cd3 Os4'
_cell_volume   730.61305361
_cell_formula_units_Z   1
loop_
 _symmetry_equiv_pos_site_id
 _symmetry_equiv_pos_as_xyz
  1  'x, y, z'
loop_
 _atom_site_type_symbol
 _atom_site_label
 _atom_site_symmetry_multiplicity
 _atom_site_fract_x
 _atom_site_fract_y
 _atom_site_fract_z
 _atom_site_occupancy
  La  La0  1  0.058216  0.441912  0.441911  1
  La  La1  1  0.439819  0.059025  0.059022  1
  La  La2  1  0.441906  0.058224  0.441902  1
  La  La3  1  0.059020  0.439815  0.059021  1
  La  La4  1  0.441905  0.441911  0.058228  1
  La  La5  1  0.059021  0.059021  0.439809  1
  La  La6  1  0.194337  0.807607  0.807604  1
  La  La7  1  0.805455  0.193497  0.193500  1
  La  La8  1  0.807605  0.194326  0.807610  1
  La  La9  1  0.193491  0.805461  0.193497  1
  La  La10  1  0.807610  0.807606  0.194324  1
  La  La11  1  0.193495  0.193495  0.805456  1
  Th  Th12  1  0.593985  0.593982  0.593985  1
  Th  Th13  1  0.593980  0.593982  0.218283  1
  Th  Th14  1  0.593985  0.218278  0.593985  1
  Th  Th15  1  0.218284  0.593981  0.593985  1
  Mg  Mg16  1  0.823895  0.823906  0.823892  1
  Cd  Cd17  1  0.829884  0.829883  0.511183  1
  Cd  Cd18  1  0.829882  0.511184  0.829883  1
  Cd  Cd19  1  0.511185  0.829882  0.829883  1
  Os  Os20  1  0.394508  0.394496  0.394507  1
  Os  Os21  1  0.395283  0.395278  0.817966  1
  Os  Os22  1  0.395282  0.817961  0.395283  1
  Os  Os23  1  0.817964  0.395284  0.395280  1
