# generated using pymatgen
data_Cs2Pd2PtSe4
_symmetry_space_group_name_H-M   'P 1'
_cell_length_a   9.31402678
_cell_length_b   8.12012192
_cell_length_c   6.53753119
_cell_angle_alpha   78.08253429
_cell_angle_beta   58.54226776
_cell_angle_gamma   44.12069529
_symmetry_Int_Tables_number   1
_chemical_formula_structural   Cs2Pd2PtSe4
_chemical_formula_sum   'Cs2 Pd2 Pt1 Se4'
_cell_volume   281.61034273
_cell_formula_units_Z   1
loop_
 _symmetry_equiv_pos_site_id
 _symmetry_equiv_pos_as_xyz
  1  'x, y, z'
loop_
 _atom_site_type_symbol
 _atom_site_label
 _atom_site_symmetry_multiplicity
 _atom_site_fract_x
 _atom_site_fract_y
 _atom_site_fract_z
 _atom_site_occupancy
  Cs  Cs0  1  0.647128  0.647128  0.352872  1
  Cs  Cs1  1  0.352872  0.352872  0.647128  1
  Pd  Pd2  1  0.000000  0.000000  0.000000  1
  Pd  Pd3  1  0.000000  0.000000  0.500000  1
  Pt  Pt4  1  0.500000  0.500000  0.000000  1
  Se  Se5  1  0.063715  0.719621  0.273864  1
  Se  Se6  1  0.719621  0.063715  0.942800  1
  Se  Se7  1  0.936285  0.280379  0.726136  1
  Se  Se8  1  0.280379  0.936285  0.057200  1
