# generated using pymatgen
data_Li4Ca2YbYSi8
_symmetry_space_group_name_H-M   'P 1'
_cell_length_a   3.79366300
_cell_length_b   7.85254104
_cell_length_c   10.48403709
_cell_angle_alpha   89.73288493
_cell_angle_beta   90.00000000
_cell_angle_gamma   90.00000000
_symmetry_Int_Tables_number   1
_chemical_formula_structural   Li4Ca2YbYSi8
_chemical_formula_sum   'Li4 Ca2 Yb1 Y1 Si8'
_cell_volume   312.31496360
_cell_formula_units_Z   1
loop_
 _symmetry_equiv_pos_site_id
 _symmetry_equiv_pos_as_xyz
  1  'x, y, z'
loop_
 _atom_site_type_symbol
 _atom_site_label
 _atom_site_symmetry_multiplicity
 _atom_site_fract_x
 _atom_site_fract_y
 _atom_site_fract_z
 _atom_site_occupancy
  Li  Li0  1  0.250000  0.997571  0.388184  1
  Li  Li1  1  0.750000  0.000674  0.610651  1
  Li  Li2  1  0.250000  0.497078  0.109591  1
  Li  Li3  1  0.750000  0.508249  0.888666  1
  Ca  Ca4  1  0.250000  0.635992  0.637098  1
  Ca  Ca5  1  0.750000  0.364145  0.364556  1
  Yb  Yb6  1  0.750000  0.866433  0.134593  1
  Y  Y7  1  0.250000  0.128152  0.866175  1
  Si  Si8  1  0.750000  0.266676  0.061266  1
  Si  Si9  1  0.250000  0.739943  0.934389  1
  Si  Si10  1  0.750000  0.767795  0.431534  1
  Si  Si11  1  0.250000  0.226386  0.573516  1
  Si  Si12  1  0.750000  0.843191  0.824687  1
  Si  Si13  1  0.250000  0.160937  0.169548  1
  Si  Si14  1  0.750000  0.331007  0.682274  1
  Si  Si15  1  0.250000  0.665772  0.323270  1
