# generated using pymatgen
data_Nd20Si11Au
_symmetry_space_group_name_H-M   'P 1'
_cell_length_a   7.75186700
_cell_length_b   7.75186700
_cell_length_c   14.31160400
_cell_angle_alpha   90.00000000
_cell_angle_beta   90.00000000
_cell_angle_gamma   90.00000000
_symmetry_Int_Tables_number   1
_chemical_formula_structural   Nd20Si11Au
_chemical_formula_sum   'Nd20 Si11 Au1'
_cell_volume   860.00492149
_cell_formula_units_Z   1
loop_
 _symmetry_equiv_pos_site_id
 _symmetry_equiv_pos_as_xyz
  1  'x, y, z'
loop_
 _atom_site_type_symbol
 _atom_site_label
 _atom_site_symmetry_multiplicity
 _atom_site_fract_x
 _atom_site_fract_y
 _atom_site_fract_z
 _atom_site_occupancy
  Nd  Nd0  1  0.318729  0.671659  0.107005  1
  Nd  Nd1  1  0.171659  0.181271  0.107005  1
  Nd  Nd2  1  0.500000  0.000000  0.728835  1
  Nd  Nd3  1  0.329169  0.685062  0.394976  1
  Nd  Nd4  1  0.659714  0.688303  0.891163  1
  Nd  Nd5  1  0.185062  0.170831  0.394976  1
  Nd  Nd6  1  0.670831  0.314938  0.394976  1
  Nd  Nd7  1  0.170354  0.816205  0.605137  1
  Nd  Nd8  1  0.340286  0.311697  0.891163  1
  Nd  Nd9  1  0.188303  0.840286  0.891163  1
  Nd  Nd10  1  0.500000  0.000000  0.231885  1
  Nd  Nd11  1  0.829646  0.183795  0.605137  1
  Nd  Nd12  1  0.316205  0.329646  0.605137  1
  Nd  Nd13  1  0.814938  0.829169  0.394976  1
  Nd  Nd14  1  0.811697  0.159714  0.891163  1
  Nd  Nd15  1  0.828341  0.818729  0.107005  1
  Nd  Nd16  1  0.000000  0.500000  0.269655  1
  Nd  Nd17  1  0.000000  0.500000  0.778470  1
  Nd  Nd18  1  0.681271  0.328341  0.107005  1
  Nd  Nd19  1  0.683795  0.670354  0.605137  1
  Si  Si20  1  0.114309  0.116709  0.746679  1
  Si  Si21  1  0.383291  0.614309  0.746679  1
  Si  Si22  1  0.615572  0.614101  0.251916  1
  Si  Si23  1  0.500000  0.000000  0.007130  1
  Si  Si24  1  0.114101  0.884428  0.251916  1
  Si  Si25  1  0.616709  0.385691  0.746679  1
  Si  Si26  1  0.885691  0.883291  0.746679  1
  Si  Si27  1  0.384428  0.385899  0.251916  1
  Si  Si28  1  0.885899  0.115572  0.251916  1
  Si  Si29  1  0.500000  0.000000  0.506205  1
  Si  Si30  1  0.000000  0.500000  0.492289  1
  Au  Au31  1  0.000000  0.500000  0.998028  1
