# generated using pymatgen
data_Dy8Lu4InGaCo4
_symmetry_space_group_name_H-M   'P 1'
_cell_length_a   8.27370335
_cell_length_b   8.27384300
_cell_length_c   8.27370453
_cell_angle_alpha   111.56335865
_cell_angle_beta   109.96750398
_cell_angle_gamma   106.91614899
_symmetry_Int_Tables_number   1
_chemical_formula_structural   Dy8Lu4InGaCo4
_chemical_formula_sum   'Dy8 Lu4 In1 Ga1 Co4'
_cell_volume   435.26736191
_cell_formula_units_Z   1
loop_
 _symmetry_equiv_pos_site_id
 _symmetry_equiv_pos_as_xyz
  1  'x, y, z'
loop_
 _atom_site_type_symbol
 _atom_site_label
 _atom_site_symmetry_multiplicity
 _atom_site_fract_x
 _atom_site_fract_y
 _atom_site_fract_z
 _atom_site_occupancy
  Dy  Dy0  1  0.434100  0.228466  0.205640  1
  Dy  Dy1  1  0.565900  0.771534  0.794360  1
  Dy  Dy2  1  0.022826  0.228466  0.794366  1
  Dy  Dy3  1  0.977174  0.771534  0.205634  1
  Dy  Dy4  1  0.185120  0.283703  0.468816  1
  Dy  Dy5  1  0.814880  0.716297  0.531184  1
  Dy  Dy6  1  0.185113  0.716297  0.901419  1
  Dy  Dy7  1  0.814887  0.283703  0.098581  1
  Lu  Lu8  1  0.317675  0.624007  0.306331  1
  Lu  Lu9  1  0.682325  0.375993  0.693669  1
  Lu  Lu10  1  0.317671  0.011363  0.693692  1
  Lu  Lu11  1  0.682329  0.988637  0.306308  1
  In  In12  1  0.500000  0.500000  0.000000  1
  Ga  Ga13  1  0.000000  0.000000  0.000000  1
  Co  Co14  1  0.375713  0.000000  0.375713  1
  Co  Co15  1  0.624287  0.000000  0.624287  1
  Co  Co16  1  0.113323  0.613325  0.500002  1
  Co  Co17  1  0.886677  0.386675  0.499998  1
