# generated using pymatgen
data_Li5BrO6
_symmetry_space_group_name_H-M   'P 1'
_cell_length_a   5.08937200
_cell_length_b   5.08937162
_cell_length_c   14.18843900
_cell_angle_alpha   90.00000000
_cell_angle_beta   90.00000000
_cell_angle_gamma   120.00000248
_symmetry_Int_Tables_number   1
_chemical_formula_structural   Li5BrO6
_chemical_formula_sum   'Li15 Br3 O18'
_cell_volume   318.26845644
_cell_formula_units_Z   3
loop_
 _symmetry_equiv_pos_site_id
 _symmetry_equiv_pos_as_xyz
  1  'x, y, z'
loop_
 _atom_site_type_symbol
 _atom_site_label
 _atom_site_symmetry_multiplicity
 _atom_site_fract_x
 _atom_site_fract_y
 _atom_site_fract_z
 _atom_site_occupancy
  Li  Li0  1  0.556589  0.778294  0.000000  1
  Li  Li1  1  0.221706  0.778294  0.333333  1
  Li  Li2  1  0.221706  0.443411  0.666667  1
  Li  Li3  1  0.887706  0.443853  0.500000  1
  Li  Li4  1  0.556147  0.443853  0.833333  1
  Li  Li5  1  0.556147  0.112294  0.166667  1
  Li  Li6  1  0.576172  0.788086  0.500000  1
  Li  Li7  1  0.211914  0.788086  0.833333  1
  Li  Li8  1  0.211914  0.423828  0.166667  1
  Li  Li9  1  0.890935  0.445468  0.000000  1
  Li  Li10  1  0.554532  0.445468  0.333333  1
  Li  Li11  1  0.554532  0.109065  0.666667  1
  Li  Li12  1  0.196870  0.098435  0.500000  1
  Li  Li13  1  0.901565  0.098435  0.833333  1
  Li  Li14  1  0.901565  0.803130  0.166667  1
  Br  Br15  1  0.224228  0.112114  0.000000  1
  Br  Br16  1  0.887886  0.112114  0.333333  1
  Br  Br17  1  0.887886  0.775772  0.666667  1
  O  O18  1  0.225203  0.402962  0.923247  1
  O  O19  1  0.597038  0.822241  0.256580  1
  O  O20  1  0.225203  0.822241  0.076753  1
  O  O21  1  0.177759  0.774797  0.589913  1
  O  O22  1  0.597038  0.774797  0.743420  1
  O  O23  1  0.177759  0.402962  0.410087  1
  O  O24  1  0.932614  0.115009  0.072531  1
  O  O25  1  0.884991  0.817605  0.405864  1
  O  O26  1  0.932614  0.817605  0.927469  1
  O  O27  1  0.182395  0.067386  0.739197  1
  O  O28  1  0.884991  0.067386  0.594136  1
  O  O29  1  0.182395  0.115009  0.260803  1
  O  O30  1  0.515301  0.110514  0.924350  1
  O  O31  1  0.889486  0.404787  0.257684  1
  O  O32  1  0.515301  0.404787  0.075650  1
  O  O33  1  0.595213  0.484699  0.591017  1
  O  O34  1  0.889486  0.484699  0.742316  1
  O  O35  1  0.595213  0.110514  0.408983  1
