# generated using pymatgen
data_Tb4RuPt3F28
_symmetry_space_group_name_H-M   'P 1'
_cell_length_a   5.56481355
_cell_length_b   8.96657978
_cell_length_c   12.03265620
_cell_angle_alpha   62.18783934
_cell_angle_beta   90.05135401
_cell_angle_gamma   90.02934107
_symmetry_Int_Tables_number   1
_chemical_formula_structural   Tb4RuPt3F28
_chemical_formula_sum   'Tb4 Ru1 Pt3 F28'
_cell_volume   531.04062880
_cell_formula_units_Z   1
loop_
 _symmetry_equiv_pos_site_id
 _symmetry_equiv_pos_as_xyz
  1  'x, y, z'
loop_
 _atom_site_type_symbol
 _atom_site_label
 _atom_site_symmetry_multiplicity
 _atom_site_fract_x
 _atom_site_fract_y
 _atom_site_fract_z
 _atom_site_occupancy
  Tb  Tb0  1  0.259603  0.811940  0.264035  1
  Tb  Tb1  1  0.739405  0.187314  0.734533  1
  Tb  Tb2  1  0.761124  0.182658  0.237186  1
  Tb  Tb3  1  0.240105  0.812983  0.765953  1
  Ru  Ru4  1  0.757265  0.725885  0.043420  1
  Pt  Pt5  1  0.241533  0.272454  0.957893  1
  Pt  Pt6  1  0.258572  0.272751  0.456878  1
  Pt  Pt7  1  0.741466  0.726696  0.543154  1
  F  F8  1  0.936320  0.705117  0.414991  1
  F  F9  1  0.063270  0.295035  0.584530  1
  F  F10  1  0.438471  0.294926  0.085173  1
  F  F11  1  0.558756  0.710330  0.914324  1
  F  F12  1  0.469041  0.729935  0.136458  1
  F  F13  1  0.533319  0.269624  0.866650  1
  F  F14  1  0.966904  0.273328  0.364069  1
  F  F15  1  0.033184  0.727561  0.635160  1
  F  F16  1  0.951642  0.744600  0.173403  1
  F  F17  1  0.048963  0.254903  0.827009  1
  F  F18  1  0.450684  0.257846  0.324695  1
  F  F19  1  0.551008  0.742740  0.675050  1
  F  F20  1  0.767655  0.484992  0.137953  1
  F  F21  1  0.231167  0.519610  0.859159  1
  F  F22  1  0.268947  0.520019  0.358803  1
  F  F23  1  0.730685  0.479113  0.641316  1
  F  F24  1  0.943550  0.282005  0.043525  1
  F  F25  1  0.053500  0.721069  0.954616  1
  F  F26  1  0.443090  0.718676  0.457543  1
  F  F27  1  0.557326  0.281007  0.541967  1
  F  F28  1  0.741482  0.974561  0.449518  1
  F  F29  1  0.258984  0.025218  0.550626  1
  F  F30  1  0.240664  0.024807  0.050900  1
  F  F31  1  0.759113  0.966511  0.950472  1
  F  F32  1  0.587402  0.969155  0.231562  1
  F  F33  1  0.413724  0.032241  0.768070  1
  F  F34  1  0.087882  0.030602  0.268084  1
  F  F35  1  0.914196  0.971787  0.731324  1
