# generated using pymatgen
data_SmSc4CdPd14
_symmetry_space_group_name_H-M   'P 1'
_cell_length_a   4.08206200
_cell_length_b   4.02120400
_cell_length_c   20.50070400
_cell_angle_alpha   90.00000000
_cell_angle_beta   90.00000000
_cell_angle_gamma   90.00000000
_symmetry_Int_Tables_number   1
_chemical_formula_structural   SmSc4CdPd14
_chemical_formula_sum   'Sm1 Sc4 Cd1 Pd14'
_cell_volume   336.51503890
_cell_formula_units_Z   1
loop_
 _symmetry_equiv_pos_site_id
 _symmetry_equiv_pos_as_xyz
  1  'x, y, z'
loop_
 _atom_site_type_symbol
 _atom_site_label
 _atom_site_symmetry_multiplicity
 _atom_site_fract_x
 _atom_site_fract_y
 _atom_site_fract_z
 _atom_site_occupancy
  Sm  Sm0  1  0.000000  0.000000  0.000000  1
  Sc  Sc1  1  0.000000  0.000000  0.199269  1
  Sc  Sc2  1  0.000000  0.000000  0.387077  1
  Sc  Sc3  1  0.000000  0.000000  0.612923  1
  Sc  Sc4  1  0.000000  0.000000  0.800731  1
  Cd  Cd5  1  0.500000  0.000000  0.500000  1
  Pd  Pd6  1  0.500000  0.500000  0.000000  1
  Pd  Pd7  1  0.500000  0.500000  0.201019  1
  Pd  Pd8  1  0.500000  0.500000  0.397478  1
  Pd  Pd9  1  0.500000  0.500000  0.602522  1
  Pd  Pd10  1  0.500000  0.500000  0.798981  1
  Pd  Pd11  1  0.500000  0.000000  0.104734  1
  Pd  Pd12  1  0.500000  0.000000  0.298104  1
  Pd  Pd13  1  0.500000  0.000000  0.701896  1
  Pd  Pd14  1  0.500000  0.000000  0.895266  1
  Pd  Pd15  1  0.000000  0.500000  0.105056  1
  Pd  Pd16  1  0.000000  0.500000  0.297777  1
  Pd  Pd17  1  0.000000  0.500000  0.500000  1
  Pd  Pd18  1  0.000000  0.500000  0.702223  1
  Pd  Pd19  1  0.000000  0.500000  0.894944  1
