# generated using pymatgen
data_Li2Y3ErSb4
_symmetry_space_group_name_H-M   'P 1'
_cell_length_a   4.38193200
_cell_length_b   4.38193199
_cell_length_c   14.83029000
_cell_angle_alpha   90.00000000
_cell_angle_beta   90.00000000
_cell_angle_gamma   119.99998495
_symmetry_Int_Tables_number   1
_chemical_formula_structural   Li2Y3ErSb4
_chemical_formula_sum   'Li2 Y3 Er1 Sb4'
_cell_volume   246.61052519
_cell_formula_units_Z   1
loop_
 _symmetry_equiv_pos_site_id
 _symmetry_equiv_pos_as_xyz
  1  'x, y, z'
loop_
 _atom_site_type_symbol
 _atom_site_label
 _atom_site_symmetry_multiplicity
 _atom_site_fract_x
 _atom_site_fract_y
 _atom_site_fract_z
 _atom_site_occupancy
  Li  Li0  1  0.000000  0.000000  0.248901  1
  Li  Li1  1  0.000000  0.000000  0.749855  1
  Y  Y2  1  0.333333  0.666667  0.386161  1
  Y  Y3  1  0.666667  0.333333  0.613019  1
  Y  Y4  1  0.666667  0.333333  0.887896  1
  Er  Er5  1  0.333333  0.666667  0.113437  1
  Sb  Sb6  1  0.000000  0.000000  0.499570  1
  Sb  Sb7  1  0.000000  0.000000  0.002499  1
  Sb  Sb8  1  0.333333  0.666667  0.750664  1
  Sb  Sb9  1  0.666667  0.333333  0.247998  1
