# generated using pymatgen
data_Er4C2Br3
_symmetry_space_group_name_H-M   'P 1'
_cell_length_a   3.66122900
_cell_length_b   10.62936600
_cell_length_c   20.29782400
_cell_angle_alpha   90.00000000
_cell_angle_beta   90.00000000
_cell_angle_gamma   90.00000000
_symmetry_Int_Tables_number   1
_chemical_formula_structural   Er4C2Br3
_chemical_formula_sum   'Er16 C8 Br12'
_cell_volume   789.92114153
_cell_formula_units_Z   4
loop_
 _symmetry_equiv_pos_site_id
 _symmetry_equiv_pos_as_xyz
  1  'x, y, z'
loop_
 _atom_site_type_symbol
 _atom_site_label
 _atom_site_symmetry_multiplicity
 _atom_site_fract_x
 _atom_site_fract_y
 _atom_site_fract_z
 _atom_site_occupancy
  Er  Er0  1  0.250000  0.865166  0.580964  1
  Er  Er1  1  0.750000  0.134834  0.419036  1
  Er  Er2  1  0.750000  0.634834  0.080964  1
  Er  Er3  1  0.250000  0.365166  0.919036  1
  Er  Er4  1  0.250000  0.864597  0.743894  1
  Er  Er5  1  0.750000  0.135403  0.256106  1
  Er  Er6  1  0.750000  0.635403  0.243894  1
  Er  Er7  1  0.250000  0.364597  0.756106  1
  Er  Er8  1  0.250000  0.868629  0.169141  1
  Er  Er9  1  0.750000  0.131371  0.830859  1
  Er  Er10  1  0.750000  0.631371  0.669141  1
  Er  Er11  1  0.250000  0.368629  0.330859  1
  Er  Er12  1  0.250000  0.901780  0.327743  1
  Er  Er13  1  0.750000  0.098220  0.672257  1
  Er  Er14  1  0.750000  0.598220  0.827743  1
  Er  Er15  1  0.250000  0.401780  0.172257  1
  C  C16  1  0.250000  0.613628  0.750087  1
  C  C17  1  0.750000  0.386372  0.249913  1
  C  C18  1  0.750000  0.886372  0.250087  1
  C  C19  1  0.250000  0.113628  0.749913  1
  C  C20  1  0.250000  0.633881  0.156270  1
  C  C21  1  0.750000  0.366119  0.843730  1
  C  C22  1  0.750000  0.866119  0.656270  1
  C  C23  1  0.250000  0.133881  0.343730  1
  Br  Br24  1  0.250000  0.611699  0.554961  1
  Br  Br25  1  0.750000  0.388301  0.445039  1
  Br  Br26  1  0.750000  0.888301  0.054961  1
  Br  Br27  1  0.250000  0.111699  0.945039  1
  Br  Br28  1  0.250000  0.626793  0.952821  1
  Br  Br29  1  0.750000  0.373207  0.047179  1
  Br  Br30  1  0.750000  0.873207  0.452821  1
  Br  Br31  1  0.250000  0.126793  0.547179  1
  Br  Br32  1  0.250000  0.637249  0.356579  1
  Br  Br33  1  0.750000  0.362751  0.643421  1
  Br  Br34  1  0.750000  0.862751  0.856579  1
  Br  Br35  1  0.250000  0.137249  0.143421  1
