# generated using pymatgen
data_VSi2P3O13
_symmetry_space_group_name_H-M   'P 1'
_cell_length_a   8.28613700
_cell_length_b   8.28613713
_cell_length_c   9.04554300
_cell_angle_alpha   90.00000000
_cell_angle_beta   90.00000000
_cell_angle_gamma   120.00000348
_symmetry_Int_Tables_number   1
_chemical_formula_structural   VSi2P3O13
_chemical_formula_sum   'V2 Si4 P6 O26'
_cell_volume   537.86029363
_cell_formula_units_Z   2
loop_
 _symmetry_equiv_pos_site_id
 _symmetry_equiv_pos_as_xyz
  1  'x, y, z'
loop_
 _atom_site_type_symbol
 _atom_site_label
 _atom_site_symmetry_multiplicity
 _atom_site_fract_x
 _atom_site_fract_y
 _atom_site_fract_z
 _atom_site_occupancy
  V  V0  1  0.000000  0.000000  0.756923  1
  V  V1  1  0.000000  0.000000  0.243077  1
  Si  Si2  1  0.333333  0.666667  0.513775  1
  Si  Si3  1  0.666667  0.333333  0.486225  1
  Si  Si4  1  0.333333  0.666667  0.871497  1
  Si  Si5  1  0.666667  0.333333  0.128503  1
  P  P6  1  0.282257  0.000000  0.500000  1
  P  P7  1  0.717743  0.717743  0.500000  1
  P  P8  1  0.000000  0.282257  0.500000  1
  P  P9  1  0.291326  0.291326  0.000000  1
  P  P10  1  0.000000  0.708674  0.000000  1
  P  P11  1  0.708674  0.000000  0.000000  1
  O  O12  1  0.323660  0.843161  0.442614  1
  O  O13  1  0.519500  0.676340  0.442614  1
  O  O14  1  0.156839  0.480500  0.442614  1
  O  O15  1  0.339388  0.486285  0.933268  1
  O  O16  1  0.146896  0.660612  0.933268  1
  O  O17  1  0.513715  0.853104  0.933268  1
  O  O18  1  0.660612  0.146896  0.066732  1
  O  O19  1  0.486285  0.339388  0.066732  1
  O  O20  1  0.853104  0.513715  0.066732  1
  O  O21  1  0.676340  0.519500  0.557386  1
  O  O22  1  0.843161  0.323660  0.557386  1
  O  O23  1  0.480500  0.156839  0.557386  1
  O  O24  1  0.149633  0.920365  0.628586  1
  O  O25  1  0.770732  0.850367  0.628586  1
  O  O26  1  0.079635  0.229268  0.628586  1
  O  O27  1  0.150166  0.238789  0.122877  1
  O  O28  1  0.088623  0.849834  0.122877  1
  O  O29  1  0.761211  0.911377  0.122877  1
  O  O30  1  0.849834  0.088623  0.877123  1
  O  O31  1  0.238789  0.150166  0.877123  1
  O  O32  1  0.911377  0.761211  0.877123  1
  O  O33  1  0.850367  0.770732  0.371414  1
  O  O34  1  0.920365  0.149633  0.371414  1
  O  O35  1  0.229268  0.079635  0.371414  1
  O  O36  1  0.333333  0.666667  0.692287  1
  O  O37  1  0.666667  0.333333  0.307713  1
