# generated using pymatgen
data_Ac4Er(InSb)2
_symmetry_space_group_name_H-M   'P 1'
_cell_length_a   9.47300100
_cell_length_b   9.47300223
_cell_length_c   8.70793300
_cell_angle_alpha   90.00000000
_cell_angle_beta   90.00000000
_cell_angle_gamma   125.19653146
_symmetry_Int_Tables_number   1
_chemical_formula_structural   Ac4Er(InSb)2
_chemical_formula_sum   'Ac8 Er2 In4 Sb4'
_cell_volume   638.56913089
_cell_formula_units_Z   2
loop_
 _symmetry_equiv_pos_site_id
 _symmetry_equiv_pos_as_xyz
  1  'x, y, z'
loop_
 _atom_site_type_symbol
 _atom_site_label
 _atom_site_symmetry_multiplicity
 _atom_site_fract_x
 _atom_site_fract_y
 _atom_site_fract_z
 _atom_site_occupancy
  Ac  Ac0  1  0.033134  0.309079  0.332569  1
  Ac  Ac1  1  0.966866  0.690921  0.667431  1
  Ac  Ac2  1  0.466866  0.190921  0.832569  1
  Ac  Ac3  1  0.809079  0.533134  0.167431  1
  Ac  Ac4  1  0.533134  0.809079  0.167431  1
  Ac  Ac5  1  0.190921  0.466866  0.832569  1
  Ac  Ac6  1  0.690921  0.966866  0.667431  1
  Ac  Ac7  1  0.309079  0.033134  0.332569  1
  Er  Er8  1  0.000000  0.000000  0.000000  1
  Er  Er9  1  0.500000  0.500000  0.500000  1
  In  In10  1  0.372245  0.372245  0.128142  1
  In  In11  1  0.627755  0.627755  0.871858  1
  In  In12  1  0.127755  0.127755  0.628142  1
  In  In13  1  0.872245  0.872245  0.371858  1
  Sb  Sb14  1  0.803335  0.196665  0.000000  1
  Sb  Sb15  1  0.196665  0.803335  0.000000  1
  Sb  Sb16  1  0.696665  0.303335  0.500000  1
  Sb  Sb17  1  0.303335  0.696665  0.500000  1
