# generated using pymatgen
data_AcEu(GePt)2
_symmetry_space_group_name_H-M   'P 1'
_cell_length_a   6.64221400
_cell_length_b   6.66279588
_cell_length_c   6.63762947
_cell_angle_alpha   91.15648966
_cell_angle_beta   90.00000000
_cell_angle_gamma   90.00000000
_symmetry_Int_Tables_number   1
_chemical_formula_structural   AcEu(GePt)2
_chemical_formula_sum   'Ac2 Eu2 Ge4 Pt4'
_cell_volume   293.69320737
_cell_formula_units_Z   2
loop_
 _symmetry_equiv_pos_site_id
 _symmetry_equiv_pos_as_xyz
  1  'x, y, z'
loop_
 _atom_site_type_symbol
 _atom_site_label
 _atom_site_symmetry_multiplicity
 _atom_site_fract_x
 _atom_site_fract_y
 _atom_site_fract_z
 _atom_site_occupancy
  Ac  Ac0  1  0.121649  0.117092  0.121142  1
  Ac  Ac1  1  0.621649  0.382908  0.878858  1
  Eu  Eu2  1  0.387089  0.882072  0.613343  1
  Eu  Eu3  1  0.887089  0.617928  0.386657  1
  Ge  Ge4  1  0.324007  0.672199  0.177964  1
  Ge  Ge5  1  0.171314  0.325403  0.668893  1
  Ge  Ge6  1  0.671314  0.174597  0.331107  1
  Ge  Ge7  1  0.824007  0.827801  0.822036  1
  Pt  Pt8  1  0.423594  0.427328  0.425533  1
  Pt  Pt9  1  0.072347  0.577284  0.924424  1
  Pt  Pt10  1  0.923594  0.072672  0.574467  1
  Pt  Pt11  1  0.572347  0.922716  0.075576  1
