# generated using pymatgen
data_Ho2UCo2Si7
_symmetry_space_group_name_H-M   'P 1'
_cell_length_a   12.33082701
_cell_length_b   12.33082630
_cell_length_c   3.99188800
_cell_angle_alpha   90.00000000
_cell_angle_beta   90.00000000
_cell_angle_gamma   161.23889697
_symmetry_Int_Tables_number   1
_chemical_formula_structural   Ho2UCo2Si7
_chemical_formula_sum   'Ho2 U1 Co2 Si7'
_cell_volume   195.21346809
_cell_formula_units_Z   1
loop_
 _symmetry_equiv_pos_site_id
 _symmetry_equiv_pos_as_xyz
  1  'x, y, z'
loop_
 _atom_site_type_symbol
 _atom_site_label
 _atom_site_symmetry_multiplicity
 _atom_site_fract_x
 _atom_site_fract_y
 _atom_site_fract_z
 _atom_site_occupancy
  Ho  Ho0  1  0.901066  0.098934  0.500000  1
  Ho  Ho1  1  0.532427  0.467573  0.500000  1
  U  U2  1  0.216893  0.783107  0.000000  1
  Co  Co3  1  0.345668  0.654332  0.000000  1
  Co  Co4  1  0.087889  0.912111  0.000000  1
  Si  Si5  1  0.630339  0.369661  0.000000  1
  Si  Si6  1  0.439443  0.560557  0.000000  1
  Si  Si7  1  0.130527  0.869473  0.500000  1
  Si  Si8  1  0.994024  0.005976  0.000000  1
  Si  Si9  1  0.803518  0.196482  0.000000  1
  Si  Si10  1  0.718163  0.281837  0.500000  1
  Si  Si11  1  0.303341  0.696659  0.500000  1
