# generated using pymatgen
data_Sr4ZnSi6Pd
_symmetry_space_group_name_H-M   'P 1'
_cell_length_a   8.60727187
_cell_length_b   8.35275233
_cell_length_c   6.26692948
_cell_angle_alpha   70.49375026
_cell_angle_beta   66.16768614
_cell_angle_gamma   43.33856694
_symmetry_Int_Tables_number   1
_chemical_formula_structural   Sr4ZnSi6Pd
_chemical_formula_sum   'Sr4 Zn1 Si6 Pd1'
_cell_volume   282.27871976
_cell_formula_units_Z   1
loop_
 _symmetry_equiv_pos_site_id
 _symmetry_equiv_pos_as_xyz
  1  'x, y, z'
loop_
 _atom_site_type_symbol
 _atom_site_label
 _atom_site_symmetry_multiplicity
 _atom_site_fract_x
 _atom_site_fract_y
 _atom_site_fract_z
 _atom_site_occupancy
  Sr  Sr0  1  0.251711  0.251710  0.248290  1
  Sr  Sr1  1  0.246360  0.749945  0.250055  1
  Sr  Sr2  1  0.749945  0.246360  0.753640  1
  Sr  Sr3  1  0.751712  0.751710  0.748289  1
  Zn  Zn4  1  0.666485  0.666485  0.333515  1
  Si  Si5  1  0.839170  0.839170  0.160829  1
  Si  Si6  1  0.838487  0.322483  0.161513  1
  Si  Si7  1  0.662942  0.169008  0.337058  1
  Si  Si8  1  0.322483  0.838487  0.677517  1
  Si  Si9  1  0.169008  0.662942  0.830992  1
  Si  Si10  1  0.168122  0.168122  0.831878  1
  Pd  Pd11  1  0.333577  0.333577  0.666422  1
