# generated using pymatgen
data_Er8Si16Tc11Ir
_symmetry_space_group_name_H-M   'P 1'
_cell_length_a   6.78037120
_cell_length_b   6.77328186
_cell_length_c   12.66957785
_cell_angle_alpha   89.85684843
_cell_angle_beta   89.60496865
_cell_angle_gamma   90.26301366
_symmetry_Int_Tables_number   1
_chemical_formula_structural   Er8Si16Tc11Ir
_chemical_formula_sum   'Er8 Si16 Tc11 Ir1'
_cell_volume   581.83316795
_cell_formula_units_Z   1
loop_
 _symmetry_equiv_pos_site_id
 _symmetry_equiv_pos_as_xyz
  1  'x, y, z'
loop_
 _atom_site_type_symbol
 _atom_site_label
 _atom_site_symmetry_multiplicity
 _atom_site_fract_x
 _atom_site_fract_y
 _atom_site_fract_z
 _atom_site_occupancy
  Er  Er0  1  0.340363  0.996235  0.468241  1
  Er  Er1  1  0.503914  0.837258  0.720211  1
  Er  Er2  1  0.492428  0.164909  0.218126  1
  Er  Er3  1  0.838734  0.509006  0.281565  1
  Er  Er4  1  0.158300  0.489605  0.781769  1
  Er  Er5  1  0.658843  0.005333  0.968484  1
  Er  Er6  1  0.995292  0.341836  0.529756  1
  Er  Er7  1  0.004969  0.663048  0.030423  1
  Si  Si8  1  0.190090  0.109692  0.685682  1
  Si  Si9  1  0.386675  0.690714  0.936157  1
  Si  Si10  1  0.614898  0.308379  0.435874  1
  Si  Si11  1  0.693682  0.384558  0.064401  1
  Si  Si12  1  0.314676  0.610456  0.562267  1
  Si  Si13  1  0.804620  0.885209  0.184495  1
  Si  Si14  1  0.116792  0.198296  0.315695  1
  Si  Si15  1  0.887506  0.806415  0.814458  1
  Si  Si16  1  0.269064  0.981871  0.062822  1
  Si  Si17  1  0.523271  0.781883  0.311428  1
  Si  Si18  1  0.480668  0.230453  0.810906  1
  Si  Si19  1  0.759042  0.508494  0.688549  1
  Si  Si20  1  0.220796  0.479924  0.186996  1
  Si  Si21  1  0.733134  0.018613  0.561758  1
  Si  Si22  1  0.980746  0.270013  0.941082  1
  Si  Si23  1  0.017524  0.738316  0.437863  1
  Tc  Tc24  1  0.333059  0.334787  0.999779  1
  Tc  Tc25  1  0.164797  0.838642  0.249383  1
  Tc  Tc26  1  0.834159  0.161564  0.745584  1
  Tc  Tc27  1  0.668967  0.666029  0.504178  1
  Tc  Tc28  1  0.187056  0.977462  0.870714  1
  Tc  Tc29  1  0.517827  0.678887  0.122716  1
  Tc  Tc30  1  0.468707  0.305822  0.617971  1
  Tc  Tc31  1  0.689299  0.520349  0.880819  1
  Tc  Tc32  1  0.322654  0.487933  0.377305  1
  Tc  Tc33  1  0.814326  0.027857  0.368380  1
  Tc  Tc34  1  0.974012  0.188259  0.133478  1
  Ir  Ir35  1  0.039113  0.801894  0.630683  1
