# generated using pymatgen
data_Sm2Si3P3Pd20Au
_symmetry_space_group_name_H-M   'P 1'
_cell_length_a   8.69181171
_cell_length_b   8.68514769
_cell_length_c   8.68716256
_cell_angle_alpha   60.04309558
_cell_angle_beta   59.96694637
_cell_angle_gamma   59.98994390
_symmetry_Int_Tables_number   1
_chemical_formula_structural   Sm2Si3P3Pd20Au
_chemical_formula_sum   'Sm2 Si3 P3 Pd20 Au1'
_cell_volume   463.71379687
_cell_formula_units_Z   1
loop_
 _symmetry_equiv_pos_site_id
 _symmetry_equiv_pos_as_xyz
  1  'x, y, z'
loop_
 _atom_site_type_symbol
 _atom_site_label
 _atom_site_symmetry_multiplicity
 _atom_site_fract_x
 _atom_site_fract_y
 _atom_site_fract_z
 _atom_site_occupancy
  Sm  Sm0  1  0.249463  0.250537  0.249463  1
  Sm  Sm1  1  0.749463  0.750537  0.749463  1
  Si  Si2  1  0.736077  0.263923  0.262224  1
  Si  Si3  1  0.262224  0.737776  0.736077  1
  Si  Si4  1  0.263860  0.736140  0.263860  1
  P  P5  1  0.735283  0.264717  0.735283  1
  P  P6  1  0.264019  0.266147  0.733853  1
  P  P7  1  0.733853  0.735981  0.264019  1
  Pd  Pd8  1  0.384889  0.384535  0.386012  1
  Pd  Pd9  1  0.614913  0.614012  0.614171  1
  Pd  Pd10  1  0.385988  0.385087  0.843096  1
  Pd  Pd11  1  0.386012  0.844564  0.384889  1
  Pd  Pd12  1  0.615465  0.615111  0.155436  1
  Pd  Pd13  1  0.614171  0.156904  0.614913  1
  Pd  Pd14  1  0.843096  0.385829  0.385988  1
  Pd  Pd15  1  0.155436  0.613988  0.615465  1
  Pd  Pd16  1  0.344668  0.002300  0.997700  1
  Pd  Pd17  1  0.657462  0.000117  0.999883  1
  Pd  Pd18  1  0.999883  0.342538  0.657462  1
  Pd  Pd19  1  0.997700  0.655332  0.344668  1
  Pd  Pd20  1  0.003227  0.343467  0.998688  1
  Pd  Pd21  1  0.656533  0.996773  0.345382  1
  Pd  Pd22  1  0.998688  0.654618  0.003227  1
  Pd  Pd23  1  0.345382  0.001312  0.656533  1
  Pd  Pd24  1  0.999953  0.000047  0.346324  1
  Pd  Pd25  1  0.997667  0.002333  0.655554  1
  Pd  Pd26  1  0.655554  0.344446  0.997667  1
  Pd  Pd27  1  0.346324  0.653676  0.999953  1
  Au  Au28  1  0.002746  0.997254  0.002746  1
