# generated using pymatgen
data_Tb3In4CoCu
_symmetry_space_group_name_H-M   'P 1'
_cell_length_a   7.94619400
_cell_length_b   7.94619375
_cell_length_c   3.69770200
_cell_angle_alpha   90.00000000
_cell_angle_beta   90.00000000
_cell_angle_gamma   120.00000937
_symmetry_Int_Tables_number   1
_chemical_formula_structural   Tb3In4CoCu
_chemical_formula_sum   'Tb3 In4 Co1 Cu1'
_cell_volume   202.19984239
_cell_formula_units_Z   1
loop_
 _symmetry_equiv_pos_site_id
 _symmetry_equiv_pos_as_xyz
  1  'x, y, z'
loop_
 _atom_site_type_symbol
 _atom_site_label
 _atom_site_symmetry_multiplicity
 _atom_site_fract_x
 _atom_site_fract_y
 _atom_site_fract_z
 _atom_site_occupancy
  Tb  Tb0  1  0.047843  0.291179  0.500000  1
  Tb  Tb1  1  0.708821  0.756664  0.500000  1
  Tb  Tb2  1  0.243336  0.952157  0.500000  1
  In  In3  1  0.666291  0.075416  0.000000  1
  In  In4  1  0.924584  0.590877  0.000000  1
  In  In5  1  0.409123  0.333709  0.000000  1
  In  In6  1  0.333333  0.666667  0.000000  1
  Co  Co7  1  0.000000  0.000000  0.000000  1
  Cu  Cu8  1  0.666667  0.333333  0.500000  1
