# generated using pymatgen
data_Al4(V3Ru)3
_symmetry_space_group_name_H-M   'P 1'
_cell_length_a   4.73732800
_cell_length_b   4.79533180
_cell_length_c   9.65298503
_cell_angle_alpha   89.65916549
_cell_angle_beta   90.00000000
_cell_angle_gamma   90.00000000
_symmetry_Int_Tables_number   1
_chemical_formula_structural   Al4(V3Ru)3
_chemical_formula_sum   'Al4 V9 Ru3'
_cell_volume   219.28355631
_cell_formula_units_Z   1
loop_
 _symmetry_equiv_pos_site_id
 _symmetry_equiv_pos_as_xyz
  1  'x, y, z'
loop_
 _atom_site_type_symbol
 _atom_site_label
 _atom_site_symmetry_multiplicity
 _atom_site_fract_x
 _atom_site_fract_y
 _atom_site_fract_z
 _atom_site_occupancy
  Al  Al0  1  0.500000  0.502784  0.250813  1
  Al  Al1  1  0.500000  0.498920  0.751376  1
  Al  Al2  1  0.000000  0.996689  0.999750  1
  Al  Al3  1  0.000000  0.998595  0.499678  1
  V  V4  1  0.500000  0.752680  0.501923  1
  V  V5  1  0.749926  0.005029  0.249214  1
  V  V6  1  0.747898  0.999267  0.746782  1
  V  V7  1  0.000000  0.494655  0.123094  1
  V  V8  1  0.000000  0.495584  0.624940  1
  V  V9  1  0.500000  0.254309  0.003877  1
  V  V10  1  0.500000  0.245308  0.502452  1
  V  V11  1  0.250074  0.005029  0.249214  1
  V  V12  1  0.252102  0.999267  0.746782  1
  Ru  Ru13  1  0.000000  0.499429  0.373690  1
  Ru  Ru14  1  0.000000  0.496072  0.873699  1
  Ru  Ru15  1  0.500000  0.756382  0.002717  1
