# generated using pymatgen
data_K2Sb2PdO8
_symmetry_space_group_name_H-M   'P 1'
_cell_length_a   5.35325153
_cell_length_b   7.66697191
_cell_length_c   7.75145615
_cell_angle_alpha   48.62038100
_cell_angle_beta   64.92852497
_cell_angle_gamma   64.48688189
_symmetry_Int_Tables_number   1
_chemical_formula_structural   K2Sb2PdO8
_chemical_formula_sum   'K2 Sb2 Pd1 O8'
_cell_volume   210.85140879
_cell_formula_units_Z   1
loop_
 _symmetry_equiv_pos_site_id
 _symmetry_equiv_pos_as_xyz
  1  'x, y, z'
loop_
 _atom_site_type_symbol
 _atom_site_label
 _atom_site_symmetry_multiplicity
 _atom_site_fract_x
 _atom_site_fract_y
 _atom_site_fract_z
 _atom_site_occupancy
  K  K0  1  0.217399  0.727787  0.217892  1
  K  K1  1  0.782599  0.272214  0.782107  1
  Sb  Sb2  1  0.998259  0.260328  0.241164  1
  Sb  Sb3  1  0.001741  0.739672  0.758836  1
  Pd  Pd4  1  0.500000  0.000000  0.500000  1
  O  O5  1  0.775900  0.602728  0.092038  1
  O  O6  1  0.794228  0.134200  0.197788  1
  O  O7  1  0.201051  0.307084  0.364443  1
  O  O8  1  0.721185  0.088780  0.582695  1
  O  O9  1  0.278815  0.911220  0.417305  1
  O  O10  1  0.798949  0.692916  0.635557  1
  O  O11  1  0.205772  0.865800  0.802212  1
  O  O12  1  0.224100  0.397272  0.907961  1
