# generated using pymatgen
data_La5Dy(GePd)6
_symmetry_space_group_name_H-M   'P 1'
_cell_length_a   4.56385000
_cell_length_b   7.75379542
_cell_length_c   22.34956700
_cell_angle_alpha   90.01893160
_cell_angle_beta   90.00000000
_cell_angle_gamma   90.00000000
_symmetry_Int_Tables_number   1
_chemical_formula_structural   La5Dy(GePd)6
_chemical_formula_sum   'La10 Dy2 Ge12 Pd12'
_cell_volume   790.88764326
_cell_formula_units_Z   2
loop_
 _symmetry_equiv_pos_site_id
 _symmetry_equiv_pos_as_xyz
  1  'x, y, z'
loop_
 _atom_site_type_symbol
 _atom_site_label
 _atom_site_symmetry_multiplicity
 _atom_site_fract_x
 _atom_site_fract_y
 _atom_site_fract_z
 _atom_site_occupancy
  La  La0  1  0.250000  0.714223  0.335267  1
  La  La1  1  0.750000  0.285777  0.664733  1
  La  La2  1  0.750000  0.210662  0.167892  1
  La  La3  1  0.250000  0.789338  0.832108  1
  La  La4  1  0.250000  0.791506  0.167306  1
  La  La5  1  0.750000  0.208494  0.832694  1
  La  La6  1  0.750000  0.289373  0.336795  1
  La  La7  1  0.250000  0.710627  0.663205  1
  La  La8  1  0.250000  0.717134  0.002414  1
  La  La9  1  0.750000  0.282866  0.997586  1
  Dy  Dy10  1  0.750000  0.218342  0.498669  1
  Dy  Dy11  1  0.250000  0.781658  0.501331  1
  Ge  Ge12  1  0.250000  0.088821  0.071262  1
  Ge  Ge13  1  0.750000  0.911179  0.928738  1
  Ge  Ge14  1  0.750000  0.589139  0.431909  1
  Ge  Ge15  1  0.250000  0.410861  0.568091  1
  Ge  Ge16  1  0.250000  0.084468  0.272532  1
  Ge  Ge17  1  0.750000  0.915532  0.727468  1
  Ge  Ge18  1  0.750000  0.583024  0.230944  1
  Ge  Ge19  1  0.250000  0.416976  0.769056  1
  Ge  Ge20  1  0.250000  0.086079  0.403427  1
  Ge  Ge21  1  0.750000  0.913921  0.596573  1
  Ge  Ge22  1  0.750000  0.583833  0.104670  1
  Ge  Ge23  1  0.250000  0.416167  0.895330  1
  Pd  Pd24  1  0.250000  0.417544  0.240295  1
  Pd  Pd25  1  0.750000  0.582456  0.759705  1
  Pd  Pd26  1  0.750000  0.917810  0.263073  1
  Pd  Pd27  1  0.250000  0.082190  0.736927  1
  Pd  Pd28  1  0.250000  0.415246  0.440764  1
  Pd  Pd29  1  0.750000  0.584754  0.559236  1
  Pd  Pd30  1  0.750000  0.915916  0.066595  1
  Pd  Pd31  1  0.250000  0.084084  0.933405  1
  Pd  Pd32  1  0.250000  0.420098  0.093420  1
  Pd  Pd33  1  0.750000  0.579902  0.906580  1
  Pd  Pd34  1  0.750000  0.922591  0.414657  1
  Pd  Pd35  1  0.250000  0.077409  0.585343  1
