# generated using pymatgen
data_Ho5Zn3P9Ir19
_symmetry_space_group_name_H-M   'P 1'
_cell_length_a   12.85486000
_cell_length_b   12.85486059
_cell_length_c   3.94415400
_cell_angle_alpha   90.00000000
_cell_angle_beta   90.00000000
_cell_angle_gamma   119.99999849
_symmetry_Int_Tables_number   1
_chemical_formula_structural   Ho5Zn3P9Ir19
_chemical_formula_sum   'Ho5 Zn3 P9 Ir19'
_cell_volume   564.44187283
_cell_formula_units_Z   1
loop_
 _symmetry_equiv_pos_site_id
 _symmetry_equiv_pos_as_xyz
  1  'x, y, z'
loop_
 _atom_site_type_symbol
 _atom_site_label
 _atom_site_symmetry_multiplicity
 _atom_site_fract_x
 _atom_site_fract_y
 _atom_site_fract_z
 _atom_site_occupancy
  Ho  Ho0  1  0.333333  0.666667  0.500000  1
  Ho  Ho1  1  0.666667  0.333333  0.500000  1
  Ho  Ho2  1  0.000000  0.815468  0.000000  1
  Ho  Ho3  1  0.184532  0.184532  0.000000  1
  Ho  Ho4  1  0.815468  0.000000  0.000000  1
  Zn  Zn5  1  0.000000  0.645318  0.500000  1
  Zn  Zn6  1  0.354682  0.354682  0.500000  1
  Zn  Zn7  1  0.645318  0.000000  0.500000  1
  P  P8  1  0.516525  0.692135  0.000000  1
  P  P9  1  0.307865  0.824391  0.000000  1
  P  P10  1  0.175609  0.483475  0.000000  1
  P  P11  1  0.483475  0.175609  0.000000  1
  P  P12  1  0.692135  0.516525  0.000000  1
  P  P13  1  0.824391  0.307865  0.000000  1
  P  P14  1  0.000000  0.179840  0.500000  1
  P  P15  1  0.820160  0.820160  0.500000  1
  P  P16  1  0.179840  0.000000  0.500000  1
  Ir  Ir17  1  0.502495  0.867947  0.000000  1
  Ir  Ir18  1  0.132053  0.634550  0.000000  1
  Ir  Ir19  1  0.365450  0.497505  0.000000  1
  Ir  Ir20  1  0.497505  0.365450  0.000000  1
  Ir  Ir21  1  0.867947  0.502495  0.000000  1
  Ir  Ir22  1  0.634550  0.132053  0.000000  1
  Ir  Ir23  1  0.000000  0.449741  0.500000  1
  Ir  Ir24  1  0.550259  0.550259  0.500000  1
  Ir  Ir25  1  0.449741  0.000000  0.500000  1
  Ir  Ir26  1  0.000000  0.281963  0.000000  1
  Ir  Ir27  1  0.718037  0.718037  0.000000  1
  Ir  Ir28  1  0.281963  0.000000  0.000000  1
  Ir  Ir29  1  0.616793  0.790401  0.500000  1
  Ir  Ir30  1  0.209599  0.826391  0.500000  1
  Ir  Ir31  1  0.173609  0.383207  0.500000  1
  Ir  Ir32  1  0.383207  0.173609  0.500000  1
  Ir  Ir33  1  0.790401  0.616793  0.500000  1
  Ir  Ir34  1  0.826391  0.209599  0.500000  1
  Ir  Ir35  1  0.000000  0.000000  0.500000  1
