# generated using pymatgen
data_P4S3Br2
_symmetry_space_group_name_H-M   'P 1'
_cell_length_a   7.57106305
_cell_length_b   7.62087009
_cell_length_c   21.44680473
_cell_angle_alpha   85.43353416
_cell_angle_beta   87.38756725
_cell_angle_gamma   89.27169738
_symmetry_Int_Tables_number   1
_chemical_formula_structural   P4S3Br2
_chemical_formula_sum   'P16 S12 Br8'
_cell_volume   1232.17831835
_cell_formula_units_Z   4
loop_
 _symmetry_equiv_pos_site_id
 _symmetry_equiv_pos_as_xyz
  1  'x, y, z'
loop_
 _atom_site_type_symbol
 _atom_site_label
 _atom_site_symmetry_multiplicity
 _atom_site_fract_x
 _atom_site_fract_y
 _atom_site_fract_z
 _atom_site_occupancy
  P  P0  1  0.605195  0.726147  0.450040  1
  P  P1  1  0.394805  0.273853  0.549960  1
  P  P2  1  0.023249  0.454327  0.390859  1
  P  P3  1  0.976751  0.545673  0.609141  1
  P  P4  1  0.574803  0.523473  0.381605  1
  P  P5  1  0.425197  0.476527  0.618395  1
  P  P6  1  0.948266  0.709560  0.339789  1
  P  P7  1  0.051734  0.290440  0.660211  1
  P  P8  1  0.280102  0.622685  0.949625  1
  P  P9  1  0.719898  0.377315  0.050375  1
  P  P10  1  0.557815  0.049687  0.894777  1
  P  P11  1  0.442185  0.950313  0.105223  1
  P  P12  1  0.505428  0.607796  0.879286  1
  P  P13  1  0.494572  0.392204  0.120714  1
  P  P14  1  0.319636  0.984690  0.843581  1
  P  P15  1  0.680364  0.015310  0.156419  1
  S  S16  1  0.862048  0.822885  0.424697  1
  S  S17  1  0.137952  0.177115  0.575303  1
  S  S18  1  0.771716  0.351917  0.422076  1
  S  S19  1  0.228284  0.648083  0.577924  1
  S  S20  1  0.708975  0.644303  0.301627  1
  S  S21  1  0.291025  0.355697  0.698373  1
  S  S22  1  0.180520  0.880738  0.927623  1
  S  S23  1  0.819480  0.119262  0.072377  1
  S  S24  1  0.657864  0.795316  0.922546  1
  S  S25  1  0.342136  0.204684  0.077454  1
  S  S26  1  0.405809  0.756333  0.801561  1
  S  S27  1  0.594191  0.243667  0.198439  1
  Br  Br28  1  0.420513  0.932258  0.404547  1
  Br  Br29  1  0.579487  0.067742  0.595453  1
  Br  Br30  1  0.096232  0.301672  0.306068  1
  Br  Br31  1  0.903768  0.698328  0.693932  1
  Br  Br32  1  0.091555  0.446373  0.903590  1
  Br  Br33  1  0.908445  0.553627  0.096410  1
  Br  Br34  1  0.736630  0.137282  0.809676  1
  Br  Br35  1  0.263370  0.862718  0.190324  1
