# generated using pymatgen
data_Er15TmIn6FeCo
_symmetry_space_group_name_H-M   'P 1'
_cell_length_a   10.27613900
_cell_length_b   10.28617057
_cell_length_c   6.94508523
_cell_angle_alpha   90.02560349
_cell_angle_beta   90.00000000
_cell_angle_gamma   119.96774106
_symmetry_Int_Tables_number   1
_chemical_formula_structural   Er15TmIn6FeCo
_chemical_formula_sum   'Er15 Tm1 In6 Fe1 Co1'
_cell_volume   635.96457776
_cell_formula_units_Z   1
loop_
 _symmetry_equiv_pos_site_id
 _symmetry_equiv_pos_as_xyz
  1  'x, y, z'
loop_
 _atom_site_type_symbol
 _atom_site_label
 _atom_site_symmetry_multiplicity
 _atom_site_fract_x
 _atom_site_fract_y
 _atom_site_fract_z
 _atom_site_occupancy
  Er  Er0  1  0.929717  0.464860  0.791659  1
  Er  Er1  1  0.535143  0.464860  0.791659  1
  Er  Er2  1  0.465957  0.931916  0.292346  1
  Er  Er3  1  0.068302  0.534117  0.292210  1
  Er  Er4  1  0.465815  0.534117  0.292210  1
  Er  Er5  1  0.821401  0.642801  0.499033  1
  Er  Er6  1  0.357589  0.178709  0.499177  1
  Er  Er7  1  0.821120  0.178709  0.499177  1
  Er  Er8  1  0.178585  0.357172  0.998150  1
  Er  Er9  1  0.642654  0.821438  0.997966  1
  Er  Er10  1  0.178783  0.821438  0.997966  1
  Er  Er11  1  0.666540  0.333080  0.179009  1
  Er  Er12  1  0.333429  0.666859  0.680492  1
  Er  Er13  1  0.000045  0.000090  0.779382  1
  Er  Er14  1  0.999938  0.999876  0.278936  1
  Tm  Tm15  1  0.535075  0.070149  0.792276  1
  In  In16  1  0.837531  0.675064  0.039132  1
  In  In17  1  0.325184  0.162485  0.039193  1
  In  In18  1  0.837300  0.162485  0.039193  1
  In  In19  1  0.163082  0.326163  0.539375  1
  In  In20  1  0.673830  0.836920  0.539480  1
  In  In21  1  0.163091  0.836920  0.539480  1
  Fe  Fe22  1  0.666556  0.333111  0.569516  1
  Co  Co23  1  0.333331  0.666663  0.068889  1
