# generated using pymatgen
data_Nd5Pt2Rh
_symmetry_space_group_name_H-M   'P 1'
_cell_length_a   11.40665000
_cell_length_b   11.40665000
_cell_length_c   6.59063900
_cell_angle_alpha   90.00000000
_cell_angle_beta   90.00000000
_cell_angle_gamma   90.00000000
_symmetry_Int_Tables_number   1
_chemical_formula_structural   Nd5Pt2Rh
_chemical_formula_sum   'Nd20 Pt8 Rh4'
_cell_volume   857.51900858
_cell_formula_units_Z   4
loop_
 _symmetry_equiv_pos_site_id
 _symmetry_equiv_pos_as_xyz
  1  'x, y, z'
loop_
 _atom_site_type_symbol
 _atom_site_label
 _atom_site_symmetry_multiplicity
 _atom_site_fract_x
 _atom_site_fract_y
 _atom_site_fract_z
 _atom_site_occupancy
  Nd  Nd0  1  0.089860  0.294692  0.120183  1
  Nd  Nd1  1  0.794692  0.410140  0.120183  1
  Nd  Nd2  1  0.205308  0.589860  0.120183  1
  Nd  Nd3  1  0.910140  0.705308  0.120183  1
  Nd  Nd4  1  0.410140  0.794692  0.379817  1
  Nd  Nd5  1  0.589860  0.205308  0.379817  1
  Nd  Nd6  1  0.294692  0.089860  0.379817  1
  Nd  Nd7  1  0.705308  0.910140  0.379817  1
  Nd  Nd8  1  0.410140  0.205308  0.879817  1
  Nd  Nd9  1  0.705308  0.089860  0.879817  1
  Nd  Nd10  1  0.294692  0.910140  0.879817  1
  Nd  Nd11  1  0.589860  0.794692  0.879817  1
  Nd  Nd12  1  0.089860  0.705308  0.620183  1
  Nd  Nd13  1  0.910140  0.294692  0.620183  1
  Nd  Nd14  1  0.205308  0.410140  0.620183  1
  Nd  Nd15  1  0.794692  0.589860  0.620183  1
  Nd  Nd16  1  0.000000  0.000000  0.000000  1
  Nd  Nd17  1  0.500000  0.500000  0.000000  1
  Nd  Nd18  1  0.500000  0.500000  0.500000  1
  Nd  Nd19  1  0.000000  0.000000  0.500000  1
  Pt  Pt20  1  0.153905  0.846095  0.250000  1
  Pt  Pt21  1  0.346095  0.346095  0.250000  1
  Pt  Pt22  1  0.653905  0.653905  0.250000  1
  Pt  Pt23  1  0.846095  0.153905  0.250000  1
  Pt  Pt24  1  0.346095  0.653905  0.750000  1
  Pt  Pt25  1  0.153905  0.153905  0.750000  1
  Pt  Pt26  1  0.846095  0.846095  0.750000  1
  Pt  Pt27  1  0.653905  0.346095  0.750000  1
  Rh  Rh28  1  0.000000  0.500000  0.380843  1
  Rh  Rh29  1  0.500000  0.000000  0.119157  1
  Rh  Rh30  1  0.500000  0.000000  0.619157  1
  Rh  Rh31  1  0.000000  0.500000  0.880843  1
