# generated using pymatgen
data_Ba18V10Si8(CN14)3
_symmetry_space_group_name_H-M   'P 1'
_cell_length_a   16.75246655
_cell_length_b   16.68999006
_cell_length_c   5.67528200
_cell_angle_alpha   90.00000000
_cell_angle_beta   90.00000000
_cell_angle_gamma   120.15316534
_symmetry_Int_Tables_number   1
_chemical_formula_structural   Ba18V10Si8(CN14)3
_chemical_formula_sum   'Ba18 V10 Si8 C3 N42'
_cell_volume   1372.08354424
_cell_formula_units_Z   1
loop_
 _symmetry_equiv_pos_site_id
 _symmetry_equiv_pos_as_xyz
  1  'x, y, z'
loop_
 _atom_site_type_symbol
 _atom_site_label
 _atom_site_symmetry_multiplicity
 _atom_site_fract_x
 _atom_site_fract_y
 _atom_site_fract_z
 _atom_site_occupancy
  Ba  Ba0  1  0.500871  0.677347  0.500000  1
  Ba  Ba1  1  0.316289  0.827066  0.500000  1
  Ba  Ba2  1  0.175409  0.496781  0.500000  1
  Ba  Ba3  1  0.486472  0.137917  0.500000  1
  Ba  Ba4  1  0.865500  0.353934  0.500000  1
  Ba  Ba5  1  0.645791  0.510016  0.500000  1
  Ba  Ba6  1  0.521586  0.843302  0.000000  1
  Ba  Ba7  1  0.154561  0.685522  0.000000  1
  Ba  Ba8  1  0.317058  0.472332  0.000000  1
  Ba  Ba9  1  0.654689  0.164670  0.000000  1
  Ba  Ba10  1  0.832186  0.488917  0.000000  1
  Ba  Ba11  1  0.507806  0.337718  0.000000  1
  Ba  Ba12  1  0.843981  0.830008  0.500000  1
  Ba  Ba13  1  0.172433  0.012317  0.500000  1
  Ba  Ba14  1  0.992063  0.157835  0.500000  1
  Ba  Ba15  1  0.824877  0.018391  0.000000  1
  Ba  Ba16  1  0.985461  0.808426  0.000000  1
  Ba  Ba17  1  0.195769  0.176572  0.000000  1
  V  V18  1  0.551994  0.977248  0.500000  1
  V  V19  1  0.352982  0.112787  0.000000  1
  V  V20  1  0.885247  0.240456  0.000000  1
  V  V21  1  0.760980  0.642960  0.000000  1
  V  V22  1  0.417440  0.975587  0.000000  1
  V  V23  1  0.026026  0.452128  0.000000  1
  V  V24  1  0.548626  0.574036  0.000000  1
  V  V25  1  0.692898  0.785458  0.000000  1
  V  V26  1  0.215837  0.909264  0.000000  1
  V  V27  1  0.094472  0.309204  0.000000  1
  Si  Si28  1  0.022802  0.575654  0.500000  1
  Si  Si29  1  0.424706  0.446973  0.500000  1
  Si  Si30  1  0.357227  0.241401  0.500000  1
  Si  Si31  1  0.762042  0.117789  0.500000  1
  Si  Si32  1  0.884080  0.640347  0.500000  1
  Si  Si33  1  0.694902  0.909762  0.500000  1
  Si  Si34  1  0.090307  0.781813  0.500000  1
  Si  Si35  1  0.219826  0.310471  0.500000  1
  C  C36  1  0.998006  0.999647  0.000000  1
  C  C37  1  0.332875  0.665168  0.000000  1
  C  C38  1  0.667616  0.333547  0.500000  1
  N  N39  1  0.460189  0.102611  0.000000  1
  N  N40  1  0.903354  0.359673  0.000000  1
  N  N41  1  0.640581  0.543776  0.000000  1
  N  N42  1  0.667402  0.333478  0.280420  1
  N  N43  1  0.667402  0.333478  0.719580  1
  N  N44  1  0.648047  0.095123  0.500000  1
  N  N45  1  0.909742  0.551997  0.500000  1
  N  N46  1  0.446439  0.356043  0.500000  1
  N  N47  1  0.580289  0.884917  0.500000  1
  N  N48  1  0.110582  0.689759  0.500000  1
  N  N49  1  0.311615  0.422929  0.500000  1
  N  N50  1  0.711021  0.856652  0.254788  1
  N  N51  1  0.145312  0.852490  0.256438  1
  N  N52  1  0.711021  0.856652  0.745212  1
  N  N53  1  0.149282  0.294700  0.255938  1
  N  N54  1  0.145312  0.852490  0.743562  1
  N  N55  1  0.149282  0.294700  0.744062  1
  N  N56  1  0.370389  0.184157  0.257073  1
  N  N57  1  0.815747  0.187258  0.255529  1
  N  N58  1  0.370389  0.184157  0.742927  1
  N  N59  1  0.812842  0.625254  0.256706  1
  N  N60  1  0.815747  0.187258  0.744471  1
  N  N61  1  0.812842  0.625254  0.743294  1
  N  N62  1  0.333522  0.665447  0.219618  1
  N  N63  1  0.333522  0.665447  0.780382  1
  N  N64  1  0.997665  0.999406  0.219564  1
  N  N65  1  0.997665  0.999406  0.780436  1
  N  N66  1  0.780199  0.024961  0.500000  1
  N  N67  1  0.975405  0.753436  0.500000  1
  N  N68  1  0.245656  0.222463  0.500000  1
  N  N69  1  0.569112  0.694566  0.000000  1
  N  N70  1  0.302946  0.868576  0.000000  1
  N  N71  1  0.126012  0.432850  0.000000  1
  N  N72  1  0.476660  0.959205  0.252204  1
  N  N73  1  0.039659  0.519247  0.259463  1
  N  N74  1  0.476660  0.959205  0.747796  1
  N  N75  1  0.480975  0.520540  0.258952  1
  N  N76  1  0.039659  0.519247  0.740537  1
  N  N77  1  0.480975  0.520540  0.741048  1
  N  N78  1  0.792798  0.766025  0.000000  1
  N  N79  1  0.226336  0.026021  0.000000  1
  N  N80  1  0.976053  0.207834  0.000000  1
