# generated using pymatgen
data_Dy7Ho13Pb16
_symmetry_space_group_name_H-M   'P 1'
_cell_length_a   8.19103606
_cell_length_b   8.26662101
_cell_length_c   15.61952612
_cell_angle_alpha   90.00583476
_cell_angle_beta   90.01313145
_cell_angle_gamma   89.99679677
_symmetry_Int_Tables_number   1
_chemical_formula_structural   Dy7Ho13Pb16
_chemical_formula_sum   'Dy7 Ho13 Pb16'
_cell_volume   1057.63229804
_cell_formula_units_Z   1
loop_
 _symmetry_equiv_pos_site_id
 _symmetry_equiv_pos_as_xyz
  1  'x, y, z'
loop_
 _atom_site_type_symbol
 _atom_site_label
 _atom_site_symmetry_multiplicity
 _atom_site_fract_x
 _atom_site_fract_y
 _atom_site_fract_z
 _atom_site_occupancy
  Dy  Dy0  1  0.036286  0.176824  0.600124  1
  Dy  Dy1  1  0.463706  0.676814  0.399885  1
  Dy  Dy2  1  0.963691  0.823206  0.100125  1
  Dy  Dy3  1  0.463689  0.676805  0.100110  1
  Dy  Dy4  1  0.963704  0.823181  0.399883  1
  Dy  Dy5  1  0.536293  0.323201  0.600097  1
  Dy  Dy6  1  0.036303  0.176831  0.899880  1
  Ho  Ho7  1  0.376476  0.841152  0.879260  1
  Ho  Ho8  1  0.876451  0.658862  0.620784  1
  Ho  Ho9  1  0.623549  0.158865  0.379213  1
  Ho  Ho10  1  0.123520  0.341097  0.120751  1
  Ho  Ho11  1  0.623515  0.158899  0.120707  1
  Ho  Ho12  1  0.123544  0.341126  0.379215  1
  Ho  Ho13  1  0.376461  0.841132  0.620788  1
  Ho  Ho14  1  0.876432  0.658822  0.879255  1
  Ho  Ho15  1  0.536359  0.323224  0.899862  1
  Ho  Ho16  1  0.208367  0.504254  0.750084  1
  Ho  Ho17  1  0.708284  0.995733  0.750074  1
  Ho  Ho18  1  0.791691  0.495686  0.249955  1
  Ho  Ho19  1  0.291697  0.004310  0.249945  1
  Pb  Pb20  1  0.281348  0.032724  0.042652  1
  Pb  Pb21  1  0.781362  0.467267  0.457350  1
  Pb  Pb22  1  0.718620  0.967270  0.542698  1
  Pb  Pb23  1  0.218772  0.532614  0.957282  1
  Pb  Pb24  1  0.718561  0.967366  0.957298  1
  Pb  Pb25  1  0.218621  0.532738  0.542694  1
  Pb  Pb26  1  0.281371  0.032733  0.457352  1
  Pb  Pb27  1  0.781267  0.467186  0.042574  1
  Pb  Pb28  1  0.571266  0.626391  0.750008  1
  Pb  Pb29  1  0.071272  0.873556  0.750010  1
  Pb  Pb30  1  0.428722  0.373579  0.249988  1
  Pb  Pb31  1  0.928723  0.126432  0.249997  1
  Pb  Pb32  1  0.346882  0.153311  0.750085  1
  Pb  Pb33  1  0.846737  0.346810  0.750023  1
  Pb  Pb34  1  0.653228  0.846815  0.249994  1
  Pb  Pb35  1  0.153227  0.653184  0.249996  1
