# generated using pymatgen
data_Dy3Ho13In4OsRh3
_symmetry_space_group_name_H-M   'P 1'
_cell_length_a   9.62140788
_cell_length_b   9.66077554
_cell_length_c   9.61152915
_cell_angle_alpha   59.97215326
_cell_angle_beta   59.82948888
_cell_angle_gamma   60.02653723
_symmetry_Int_Tables_number   1
_chemical_formula_structural   Dy3Ho13In4OsRh3
_chemical_formula_sum   'Dy3 Ho13 In4 Os1 Rh3'
_cell_volume   630.90046724
_cell_formula_units_Z   1
loop_
 _symmetry_equiv_pos_site_id
 _symmetry_equiv_pos_as_xyz
  1  'x, y, z'
loop_
 _atom_site_type_symbol
 _atom_site_label
 _atom_site_symmetry_multiplicity
 _atom_site_fract_x
 _atom_site_fract_y
 _atom_site_fract_z
 _atom_site_occupancy
  Dy  Dy0  1  0.188161  0.189666  0.811343  1
  Dy  Dy1  1  0.600353  0.600352  0.201827  1
  Dy  Dy2  1  0.441290  0.056517  0.440488  1
  Ho  Ho3  1  0.439786  0.441304  0.057904  1
  Ho  Ho4  1  0.811507  0.189062  0.812547  1
  Ho  Ho5  1  0.191878  0.812314  0.192269  1
  Ho  Ho6  1  0.440055  0.057051  0.060398  1
  Ho  Ho7  1  0.190552  0.812893  0.806209  1
  Ho  Ho8  1  0.058829  0.440613  0.058813  1
  Ho  Ho9  1  0.805767  0.813533  0.190436  1
  Ho  Ho10  1  0.201958  0.600936  0.600352  1
  Ho  Ho11  1  0.057654  0.442252  0.439838  1
  Ho  Ho12  1  0.060689  0.057236  0.439705  1
  Ho  Ho13  1  0.811619  0.189429  0.188228  1
  Ho  Ho14  1  0.601241  0.200362  0.600709  1
  Ho  Ho15  1  0.598102  0.598804  0.598690  1
  In  In16  1  0.833519  0.833721  0.832003  1
  In  In17  1  0.833030  0.833150  0.500628  1
  In  In18  1  0.500554  0.833076  0.833008  1
  In  In19  1  0.832043  0.502121  0.832126  1
  Os  Os20  1  0.391723  0.825082  0.392154  1
  Rh  Rh21  1  0.391097  0.389781  0.392230  1
  Rh  Rh22  1  0.826378  0.390138  0.392295  1
  Rh  Rh23  1  0.392217  0.390609  0.825800  1
