# generated using pymatgen
data_La5Pr3(AgOs)2
_symmetry_space_group_name_H-M   'P 1'
_cell_length_a   9.88943840
_cell_length_b   9.88943942
_cell_length_c   9.88943900
_cell_angle_alpha   60.00000475
_cell_angle_beta   60.00000134
_cell_angle_gamma   60.00000431
_symmetry_Int_Tables_number   1
_chemical_formula_structural   La5Pr3(AgOs)2
_chemical_formula_sum   'La10 Pr6 Ag4 Os4'
_cell_volume   683.91164170
_cell_formula_units_Z   2
loop_
 _symmetry_equiv_pos_site_id
 _symmetry_equiv_pos_as_xyz
  1  'x, y, z'
loop_
 _atom_site_type_symbol
 _atom_site_label
 _atom_site_symmetry_multiplicity
 _atom_site_fract_x
 _atom_site_fract_y
 _atom_site_fract_z
 _atom_site_occupancy
  La  La0  1  0.348738  0.348738  0.348738  1
  La  La1  1  0.348738  0.348738  0.953789  1
  La  La2  1  0.348738  0.953789  0.348738  1
  La  La3  1  0.953789  0.348738  0.348738  1
  La  La4  1  0.809139  0.190861  0.190861  1
  La  La5  1  0.190861  0.809139  0.809139  1
  La  La6  1  0.190861  0.809139  0.190861  1
  La  La7  1  0.809139  0.190861  0.809139  1
  La  La8  1  0.190861  0.190861  0.809139  1
  La  La9  1  0.809139  0.809139  0.190861  1
  Pr  Pr10  1  0.938982  0.561018  0.561018  1
  Pr  Pr11  1  0.561018  0.938982  0.938982  1
  Pr  Pr12  1  0.561018  0.938982  0.561018  1
  Pr  Pr13  1  0.938982  0.561018  0.938982  1
  Pr  Pr14  1  0.561018  0.561018  0.938982  1
  Pr  Pr15  1  0.938982  0.938982  0.561018  1
  Ag  Ag16  1  0.579543  0.579543  0.579543  1
  Ag  Ag17  1  0.579543  0.579543  0.261369  1
  Ag  Ag18  1  0.579543  0.261369  0.579543  1
  Ag  Ag19  1  0.261369  0.579543  0.579543  1
  Os  Os20  1  0.138143  0.138143  0.138143  1
  Os  Os21  1  0.138143  0.138143  0.585568  1
  Os  Os22  1  0.138143  0.585568  0.138143  1
  Os  Os23  1  0.585568  0.138143  0.138143  1
