# generated using pymatgen
data_Ho4Er8ZnCo4Bi
_symmetry_space_group_name_H-M   'P 1'
_cell_length_a   8.30457890
_cell_length_b   8.30488874
_cell_length_c   8.30458008
_cell_angle_alpha   111.56286616
_cell_angle_beta   109.57323488
_cell_angle_gamma   107.30402227
_symmetry_Int_Tables_number   1
_chemical_formula_structural   Ho4Er8ZnCo4Bi
_chemical_formula_sum   'Ho4 Er8 Zn1 Co4 Bi1'
_cell_volume   440.30646821
_cell_formula_units_Z   1
loop_
 _symmetry_equiv_pos_site_id
 _symmetry_equiv_pos_as_xyz
  1  'x, y, z'
loop_
 _atom_site_type_symbol
 _atom_site_label
 _atom_site_symmetry_multiplicity
 _atom_site_fract_x
 _atom_site_fract_y
 _atom_site_fract_z
 _atom_site_occupancy
  Ho  Ho0  1  0.574778  0.781266  0.793530  1
  Ho  Ho1  1  0.425222  0.218734  0.206470  1
  Ho  Ho2  1  0.987736  0.781266  0.206488  1
  Ho  Ho3  1  0.012264  0.218734  0.793512  1
  Er  Er4  1  0.817946  0.713724  0.531712  1
  Er  Er5  1  0.182054  0.286276  0.468288  1
  Er  Er6  1  0.182012  0.713724  0.895778  1
  Er  Er7  1  0.817988  0.286276  0.104222  1
  Er  Er8  1  0.685815  0.378126  0.692312  1
  Er  Er9  1  0.314185  0.621874  0.307688  1
  Er  Er10  1  0.685827  0.993528  0.307701  1
  Er  Er11  1  0.314173  0.006472  0.692299  1
  Zn  Zn12  1  0.000000  0.000000  0.000000  1
  Co  Co13  1  0.623930  0.000000  0.623930  1
  Co  Co14  1  0.376070  0.000000  0.376070  1
  Co  Co15  1  0.112609  0.612609  0.500000  1
  Co  Co16  1  0.887391  0.387391  0.500000  1
  Bi  Bi17  1  0.500000  0.500000  0.000000  1
