# generated using pymatgen
data_TbYb7Si12Pd3Rh
_symmetry_space_group_name_H-M   'P 1'
_cell_length_a   8.26159000
_cell_length_b   8.26158979
_cell_length_c   8.14329000
_cell_angle_alpha   90.00000000
_cell_angle_beta   90.00000000
_cell_angle_gamma   120.00000883
_symmetry_Int_Tables_number   1
_chemical_formula_structural   TbYb7Si12Pd3Rh
_chemical_formula_sum   'Tb1 Yb7 Si12 Pd3 Rh1'
_cell_volume   481.34643548
_cell_formula_units_Z   1
loop_
 _symmetry_equiv_pos_site_id
 _symmetry_equiv_pos_as_xyz
  1  'x, y, z'
loop_
 _atom_site_type_symbol
 _atom_site_label
 _atom_site_symmetry_multiplicity
 _atom_site_fract_x
 _atom_site_fract_y
 _atom_site_fract_z
 _atom_site_occupancy
  Tb  Tb0  1  0.000000  0.000000  0.750786  1
  Yb  Yb1  1  0.498602  0.997202  0.247140  1
  Yb  Yb2  1  0.498388  0.996777  0.752753  1
  Yb  Yb3  1  0.002798  0.501398  0.247140  1
  Yb  Yb4  1  0.003223  0.501612  0.752753  1
  Yb  Yb5  1  0.498602  0.501398  0.247140  1
  Yb  Yb6  1  0.498388  0.501612  0.752753  1
  Yb  Yb7  1  0.000000  0.000000  0.249317  1
  Si  Si8  1  0.167047  0.334097  0.997463  1
  Si  Si9  1  0.836872  0.673744  0.997538  1
  Si  Si10  1  0.665903  0.832953  0.997463  1
  Si  Si11  1  0.835924  0.671848  0.502448  1
  Si  Si12  1  0.326256  0.163128  0.997538  1
  Si  Si13  1  0.163724  0.327447  0.502340  1
  Si  Si14  1  0.167047  0.832953  0.997463  1
  Si  Si15  1  0.328152  0.164076  0.502448  1
  Si  Si16  1  0.836872  0.163128  0.997538  1
  Si  Si17  1  0.672553  0.836276  0.502340  1
  Si  Si18  1  0.835924  0.164076  0.502448  1
  Si  Si19  1  0.163724  0.836276  0.502340  1
  Pd  Pd20  1  0.666667  0.333333  0.999819  1
  Pd  Pd21  1  0.666667  0.333333  0.500614  1
  Pd  Pd22  1  0.333333  0.666667  0.499707  1
  Rh  Rh23  1  0.333333  0.666667  0.000706  1
