# generated using pymatgen
data_Pr7Nd(TmSn3)2
_symmetry_space_group_name_H-M   'P 1'
_cell_length_a   6.81271200
_cell_length_b   9.26150091
_cell_length_c   9.26189500
_cell_angle_alpha   119.99829930
_cell_angle_beta   90.00182993
_cell_angle_gamma   89.99768496
_symmetry_Int_Tables_number   1
_chemical_formula_structural   Pr7Nd(TmSn3)2
_chemical_formula_sum   'Pr7 Nd1 Tm2 Sn6'
_cell_volume   506.10348836
_cell_formula_units_Z   1
loop_
 _symmetry_equiv_pos_site_id
 _symmetry_equiv_pos_as_xyz
  1  'x, y, z'
loop_
 _atom_site_type_symbol
 _atom_site_label
 _atom_site_symmetry_multiplicity
 _atom_site_fract_x
 _atom_site_fract_y
 _atom_site_fract_z
 _atom_site_occupancy
  Pr  Pr0  1  0.499998  0.666679  0.333371  1
  Pr  Pr1  1  0.752805  0.242557  0.999965  1
  Pr  Pr2  1  0.752817  0.757412  0.757454  1
  Pr  Pr3  1  0.752814  0.000027  0.242584  1
  Pr  Pr4  1  0.247189  0.757413  0.999964  1
  Pr  Pr5  1  0.247187  0.242552  0.242578  1
  Pr  Pr6  1  0.247190  0.000045  0.757455  1
  Nd  Nd7  1  0.500001  0.333307  0.666628  1
  Tm  Tm8  1  0.999996  0.666666  0.333325  1
  Tm  Tm9  1  0.000001  0.333339  0.666676  1
  Sn  Sn10  1  0.762297  0.602367  0.999878  1
  Sn  Sn11  1  0.762348  0.397499  0.397619  1
  Sn  Sn12  1  0.762358  0.000124  0.602506  1
  Sn  Sn13  1  0.237704  0.397513  0.999879  1
  Sn  Sn14  1  0.237650  0.602383  0.602507  1
  Sn  Sn15  1  0.237644  0.000117  0.397614  1
