# generated using pymatgen
data_LiAgBi2Pt2(RhO7)2
_symmetry_space_group_name_H-M   'P 1'
_cell_length_a   7.22426018
_cell_length_b   7.06599961
_cell_length_c   7.22426000
_cell_angle_alpha   59.31064676
_cell_angle_beta   60.03841102
_cell_angle_gamma   59.31063919
_symmetry_Int_Tables_number   1
_chemical_formula_structural   LiAgBi2Pt2(RhO7)2
_chemical_formula_sum   'Li1 Ag1 Bi2 Pt2 Rh2 O14'
_cell_volume   258.08567875
_cell_formula_units_Z   1
loop_
 _symmetry_equiv_pos_site_id
 _symmetry_equiv_pos_as_xyz
  1  'x, y, z'
loop_
 _atom_site_type_symbol
 _atom_site_label
 _atom_site_symmetry_multiplicity
 _atom_site_fract_x
 _atom_site_fract_y
 _atom_site_fract_z
 _atom_site_occupancy
  Li  Li0  1  0.125000  0.125000  0.125000  1
  Ag  Ag1  1  0.125000  0.625000  0.125000  1
  Bi  Bi2  1  0.625000  0.125000  0.125000  1
  Bi  Bi3  1  0.125000  0.125000  0.625000  1
  Pt  Pt4  1  0.625000  0.625000  0.125000  1
  Pt  Pt5  1  0.125000  0.625000  0.625000  1
  Rh  Rh6  1  0.625000  0.625000  0.625000  1
  Rh  Rh7  1  0.625000  0.125000  0.625000  1
  O  O8  1  0.242736  0.262559  0.242736  1
  O  O9  1  0.290121  0.713549  0.290121  1
  O  O10  1  0.962449  0.969058  0.536874  1
  O  O11  1  0.538684  0.963082  0.538684  1
  O  O12  1  0.700546  0.712805  0.294128  1
  O  O13  1  0.955872  0.537195  0.549454  1
  O  O14  1  0.711316  0.286918  0.711316  1
  O  O15  1  0.287551  0.280942  0.713126  1
  O  O16  1  0.713126  0.280942  0.287551  1
  O  O17  1  0.294128  0.712805  0.700546  1
  O  O18  1  0.959879  0.536451  0.959879  1
  O  O19  1  0.549454  0.537195  0.955872  1
  O  O20  1  0.007264  0.987441  0.007264  1
  O  O21  1  0.536874  0.969058  0.962449  1
