# generated using pymatgen
data_Tm4Th(Cd2Ni)2
_symmetry_space_group_name_H-M   'P 1'
_cell_length_a   3.58514400
_cell_length_b   7.84540519
_cell_length_c   18.06134790
_cell_angle_alpha   90.63517998
_cell_angle_beta   90.00000000
_cell_angle_gamma   90.00000000
_symmetry_Int_Tables_number   1
_chemical_formula_structural   Tm4Th(Cd2Ni)2
_chemical_formula_sum   'Tm8 Th2 Cd8 Ni4'
_cell_volume   507.97864198
_cell_formula_units_Z   2
loop_
 _symmetry_equiv_pos_site_id
 _symmetry_equiv_pos_as_xyz
  1  'x, y, z'
loop_
 _atom_site_type_symbol
 _atom_site_label
 _atom_site_symmetry_multiplicity
 _atom_site_fract_x
 _atom_site_fract_y
 _atom_site_fract_z
 _atom_site_occupancy
  Tm  Tm0  1  0.000000  0.500000  0.500000  1
  Tm  Tm1  1  0.000000  0.000000  0.000000  1
  Tm  Tm2  1  0.000000  0.751369  0.779738  1
  Tm  Tm3  1  0.000000  0.248631  0.220262  1
  Tm  Tm4  1  0.000000  0.614217  0.086505  1
  Tm  Tm5  1  0.000000  0.385783  0.913495  1
  Tm  Tm6  1  0.000000  0.887041  0.588308  1
  Tm  Tm7  1  0.000000  0.112959  0.411692  1
  Th  Th8  1  0.000000  0.750932  0.277323  1
  Th  Th9  1  0.000000  0.249068  0.722677  1
  Cd  Cd10  1  0.500000  0.709042  0.932041  1
  Cd  Cd11  1  0.500000  0.290958  0.067959  1
  Cd  Cd12  1  0.500000  0.791090  0.436370  1
  Cd  Cd13  1  0.500000  0.208910  0.563630  1
  Cd  Cd14  1  0.500000  0.577463  0.649008  1
  Cd  Cd15  1  0.500000  0.422537  0.350992  1
  Cd  Cd16  1  0.500000  0.939136  0.145460  1
  Cd  Cd17  1  0.500000  0.060864  0.854540  1
  Ni  Ni18  1  0.500000  0.535739  0.198325  1
  Ni  Ni19  1  0.500000  0.464261  0.801675  1
  Ni  Ni20  1  0.500000  0.975564  0.696831  1
  Ni  Ni21  1  0.500000  0.024436  0.303169  1
