# generated using pymatgen
data_Gd10Os3Rh
_symmetry_space_group_name_H-M   'P 1'
_cell_length_a   8.67327567
_cell_length_b   8.68390337
_cell_length_c   7.28215644
_cell_angle_alpha   83.50980395
_cell_angle_beta   83.44120871
_cell_angle_gamma   43.86013124
_symmetry_Int_Tables_number   1
_chemical_formula_structural   Gd10Os3Rh
_chemical_formula_sum   'Gd10 Os3 Rh1'
_cell_volume   377.17727079
_cell_formula_units_Z   1
loop_
 _symmetry_equiv_pos_site_id
 _symmetry_equiv_pos_as_xyz
  1  'x, y, z'
loop_
 _atom_site_type_symbol
 _atom_site_label
 _atom_site_symmetry_multiplicity
 _atom_site_fract_x
 _atom_site_fract_y
 _atom_site_fract_z
 _atom_site_occupancy
  Gd  Gd0  1  0.018247  0.799551  0.916434  1
  Gd  Gd1  1  0.202930  0.983899  0.584019  1
  Gd  Gd2  1  0.981205  0.202227  0.084998  1
  Gd  Gd3  1  0.795842  0.022179  0.413424  1
  Gd  Gd4  1  0.360382  0.202689  0.817827  1
  Gd  Gd5  1  0.787436  0.643486  0.685579  1
  Gd  Gd6  1  0.644548  0.790904  0.185684  1
  Gd  Gd7  1  0.207223  0.356116  0.314015  1
  Gd  Gd8  1  0.573979  0.426793  0.750813  1
  Gd  Gd9  1  0.428247  0.574057  0.246406  1
  Os  Os10  1  0.398520  0.822694  0.924904  1
  Os  Os11  1  0.822648  0.398076  0.426828  1
  Os  Os12  1  0.601198  0.177249  0.074651  1
  Rh  Rh13  1  0.177597  0.600080  0.574420  1
