# generated using pymatgen
data_Pr16Hg4Pd3Ru
_symmetry_space_group_name_H-M   'P 1'
_cell_length_a   10.09837217
_cell_length_b   10.09837329
_cell_length_c   10.09837181
_cell_angle_alpha   59.55067792
_cell_angle_beta   59.55067416
_cell_angle_gamma   59.55067790
_symmetry_Int_Tables_number   1
_chemical_formula_structural   Pr16Hg4Pd3Ru
_chemical_formula_sum   'Pr16 Hg4 Pd3 Ru1'
_cell_volume   720.74182466
_cell_formula_units_Z   1
loop_
 _symmetry_equiv_pos_site_id
 _symmetry_equiv_pos_as_xyz
  1  'x, y, z'
loop_
 _atom_site_type_symbol
 _atom_site_label
 _atom_site_symmetry_multiplicity
 _atom_site_fract_x
 _atom_site_fract_y
 _atom_site_fract_z
 _atom_site_occupancy
  Pr  Pr0  1  0.354025  0.354025  0.354025  1
  Pr  Pr1  1  0.349140  0.349140  0.946100  1
  Pr  Pr2  1  0.349140  0.946100  0.349140  1
  Pr  Pr3  1  0.946100  0.349140  0.349140  1
  Pr  Pr4  1  0.817655  0.188884  0.188884  1
  Pr  Pr5  1  0.188939  0.807596  0.807596  1
  Pr  Pr6  1  0.188884  0.817655  0.188884  1
  Pr  Pr7  1  0.807596  0.188939  0.807596  1
  Pr  Pr8  1  0.188884  0.188884  0.817655  1
  Pr  Pr9  1  0.807596  0.807596  0.188939  1
  Pr  Pr10  1  0.936726  0.564203  0.564203  1
  Pr  Pr11  1  0.558573  0.937033  0.937033  1
  Pr  Pr12  1  0.564203  0.936726  0.564203  1
  Pr  Pr13  1  0.937033  0.558573  0.937033  1
  Pr  Pr14  1  0.564203  0.564203  0.936726  1
  Pr  Pr15  1  0.937033  0.937033  0.558573  1
  Hg  Hg16  1  0.583452  0.583452  0.583452  1
  Hg  Hg17  1  0.584717  0.584717  0.246518  1
  Hg  Hg18  1  0.584717  0.246518  0.584717  1
  Hg  Hg19  1  0.246518  0.584717  0.584717  1
  Pd  Pd20  1  0.145936  0.145936  0.569689  1
  Pd  Pd21  1  0.145936  0.569689  0.145936  1
  Pd  Pd22  1  0.569689  0.145936  0.145936  1
  Ru  Ru23  1  0.143303  0.143303  0.143303  1
