# generated using pymatgen
data_Ca2B4Ru3C
_symmetry_space_group_name_H-M   'P 1'
_cell_length_a   5.59323679
_cell_length_b   5.59323558
_cell_length_c   7.93134140
_cell_angle_alpha   58.82039922
_cell_angle_beta   58.82040614
_cell_angle_gamma   42.30518586
_symmetry_Int_Tables_number   1
_chemical_formula_structural   Ca2B4Ru3C
_chemical_formula_sum   'Ca2 B4 Ru3 C1'
_cell_volume   138.91235294
_cell_formula_units_Z   1
loop_
 _symmetry_equiv_pos_site_id
 _symmetry_equiv_pos_as_xyz
  1  'x, y, z'
loop_
 _atom_site_type_symbol
 _atom_site_label
 _atom_site_symmetry_multiplicity
 _atom_site_fract_x
 _atom_site_fract_y
 _atom_site_fract_z
 _atom_site_occupancy
  Ca  Ca0  1  0.393967  0.916059  0.746343  1
  Ca  Ca1  1  0.083941  0.606033  0.253657  1
  B  B2  1  0.542908  0.534598  0.376583  1
  B  B3  1  0.465402  0.457092  0.623417  1
  B  B4  1  0.073815  0.629280  0.810134  1
  B  B5  1  0.370720  0.926185  0.189866  1
  Ru  Ru6  1  0.006959  0.993041  0.500000  1
  Ru  Ru7  1  0.610826  0.127421  0.908621  1
  Ru  Ru8  1  0.872579  0.389174  0.091379  1
  C  C9  1  0.745155  0.254845  0.000000  1
