# generated using pymatgen
data_YbTc3As4Rh3
_symmetry_space_group_name_H-M   'P 1'
_cell_length_a   7.23766601
_cell_length_b   7.23814746
_cell_length_c   3.86196500
_cell_angle_alpha   90.00000000
_cell_angle_beta   90.00000000
_cell_angle_gamma   120.00219406
_symmetry_Int_Tables_number   1
_chemical_formula_structural   YbTc3As4Rh3
_chemical_formula_sum   'Yb1 Tc3 As4 Rh3'
_cell_volume   175.20856301
_cell_formula_units_Z   1
loop_
 _symmetry_equiv_pos_site_id
 _symmetry_equiv_pos_as_xyz
  1  'x, y, z'
loop_
 _atom_site_type_symbol
 _atom_site_label
 _atom_site_symmetry_multiplicity
 _atom_site_fract_x
 _atom_site_fract_y
 _atom_site_fract_z
 _atom_site_occupancy
  Yb  Yb0  1  0.000004  0.000002  0.000000  1
  Tc  Tc1  1  0.537109  0.074213  0.000000  1
  Tc  Tc2  1  0.537109  0.462896  0.000000  1
  Tc  Tc3  1  0.925794  0.462897  0.000000  1
  As  As4  1  0.809889  0.619707  0.500000  1
  As  As5  1  0.333303  0.666652  0.000000  1
  As  As6  1  0.380245  0.190122  0.500000  1
  As  As7  1  0.809889  0.190182  0.500000  1
  Rh  Rh8  1  0.603969  0.801985  0.500000  1
  Rh  Rh9  1  0.198010  0.396050  0.500000  1
  Rh  Rh10  1  0.198010  0.801960  0.500000  1
