# generated using pymatgen
data_K3CaTe2O9
_symmetry_space_group_name_H-M   'P 1'
_cell_length_a   6.06981675
_cell_length_b   6.06981679
_cell_length_c   14.68646200
_cell_angle_alpha   89.12194502
_cell_angle_beta   89.12194502
_cell_angle_gamma   120.00556506
_symmetry_Int_Tables_number   1
_chemical_formula_structural   K3CaTe2O9
_chemical_formula_sum   'K6 Ca2 Te4 O18'
_cell_volume   468.34999188
_cell_formula_units_Z   2
loop_
 _symmetry_equiv_pos_site_id
 _symmetry_equiv_pos_as_xyz
  1  'x, y, z'
loop_
 _atom_site_type_symbol
 _atom_site_label
 _atom_site_symmetry_multiplicity
 _atom_site_fract_x
 _atom_site_fract_y
 _atom_site_fract_z
 _atom_site_occupancy
  K  K0  1  0.325161  0.658589  0.597473  1
  K  K1  1  0.996510  0.003490  0.750000  1
  K  K2  1  0.341411  0.674839  0.902527  1
  K  K3  1  0.674839  0.341411  0.402527  1
  K  K4  1  0.003490  0.996510  0.250000  1
  K  K5  1  0.658589  0.325161  0.097473  1
  Ca  Ca6  1  0.000000  0.000000  0.000000  1
  Ca  Ca7  1  0.000000  0.000000  0.500000  1
  Te  Te8  1  0.679582  0.346972  0.848453  1
  Te  Te9  1  0.346972  0.679582  0.348453  1
  Te  Te10  1  0.320418  0.653028  0.151547  1
  Te  Te11  1  0.653028  0.320418  0.651547  1
  O  O12  1  0.154353  0.331664  0.099298  1
  O  O13  1  0.668336  0.845647  0.400702  1
  O  O14  1  0.845647  0.668336  0.900702  1
  O  O15  1  0.331664  0.154353  0.599298  1
  O  O16  1  0.800002  0.153970  0.591014  1
  O  O17  1  0.846030  0.199998  0.908986  1
  O  O18  1  0.199998  0.846030  0.408986  1
  O  O19  1  0.153970  0.800002  0.091014  1
  O  O20  1  0.799448  0.621657  0.580730  1
  O  O21  1  0.378343  0.200552  0.919270  1
  O  O22  1  0.200552  0.378343  0.419270  1
  O  O23  1  0.621657  0.799448  0.080730  1
  O  O24  1  0.056768  0.527588  0.257672  1
  O  O25  1  0.472412  0.943232  0.242328  1
  O  O26  1  0.943232  0.472412  0.742328  1
  O  O27  1  0.527588  0.056768  0.757672  1
  O  O28  1  0.472585  0.527415  0.250000  1
  O  O29  1  0.527415  0.472585  0.750000  1
