# generated using pymatgen
data_Tb2Y14AlCd3Pd4
_symmetry_space_group_name_H-M   'P 1'
_cell_length_a   9.70692130
_cell_length_b   9.70692084
_cell_length_c   9.70880921
_cell_angle_alpha   60.12679169
_cell_angle_beta   60.12679121
_cell_angle_gamma   60.11300610
_symmetry_Int_Tables_number   1
_chemical_formula_structural   Tb2Y14AlCd3Pd4
_chemical_formula_sum   'Tb2 Y14 Al1 Cd3 Pd4'
_cell_volume   648.65619236
_cell_formula_units_Z   1
loop_
 _symmetry_equiv_pos_site_id
 _symmetry_equiv_pos_as_xyz
  1  'x, y, z'
loop_
 _atom_site_type_symbol
 _atom_site_label
 _atom_site_symmetry_multiplicity
 _atom_site_fract_x
 _atom_site_fract_y
 _atom_site_fract_z
 _atom_site_occupancy
  Tb  Tb0  1  0.351158  0.351158  0.351225  1
  Tb  Tb1  1  0.357592  0.357592  0.933749  1
  Y  Y2  1  0.358402  0.931757  0.358438  1
  Y  Y3  1  0.931757  0.358402  0.358438  1
  Y  Y4  1  0.810829  0.189709  0.189751  1
  Y  Y5  1  0.192553  0.808699  0.808650  1
  Y  Y6  1  0.189709  0.810829  0.189751  1
  Y  Y7  1  0.808699  0.192553  0.808650  1
  Y  Y8  1  0.189636  0.189636  0.810956  1
  Y  Y9  1  0.808887  0.808887  0.192155  1
  Y  Y10  1  0.932823  0.566655  0.567132  1
  Y  Y11  1  0.563990  0.936065  0.935660  1
  Y  Y12  1  0.566655  0.932823  0.567132  1
  Y  Y13  1  0.936065  0.563990  0.935660  1
  Y  Y14  1  0.566713  0.566713  0.932767  1
  Y  Y15  1  0.935639  0.935639  0.564335  1
  Al  Al16  1  0.582330  0.582330  0.581791  1
  Cd  Cd17  1  0.580817  0.580817  0.255150  1
  Cd  Cd18  1  0.580782  0.255262  0.580545  1
  Cd  Cd19  1  0.255262  0.580782  0.580545  1
  Pd  Pd20  1  0.146773  0.146773  0.145997  1
  Pd  Pd21  1  0.142906  0.142906  0.566861  1
  Pd  Pd22  1  0.143384  0.566636  0.142329  1
  Pd  Pd23  1  0.566636  0.143384  0.142329  1
