# generated using pymatgen
data_Dy5TmNi20P13
_symmetry_space_group_name_H-M   'P 1'
_cell_length_a   12.64095241
_cell_length_b   12.62787890
_cell_length_c   3.74685600
_cell_angle_alpha   90.00000000
_cell_angle_beta   90.00000000
_cell_angle_gamma   120.00505855
_symmetry_Int_Tables_number   1
_chemical_formula_structural   Dy5TmNi20P13
_chemical_formula_sum   'Dy5 Tm1 Ni20 P13'
_cell_volume   517.94745010
_cell_formula_units_Z   1
loop_
 _symmetry_equiv_pos_site_id
 _symmetry_equiv_pos_as_xyz
  1  'x, y, z'
loop_
 _atom_site_type_symbol
 _atom_site_label
 _atom_site_symmetry_multiplicity
 _atom_site_fract_x
 _atom_site_fract_y
 _atom_site_fract_z
 _atom_site_occupancy
  Dy  Dy0  1  0.188480  0.470209  0.000000  1
  Dy  Dy1  1  0.529975  0.718239  0.000000  1
  Dy  Dy2  1  0.282143  0.811929  0.000000  1
  Dy  Dy3  1  0.811752  0.529906  0.500000  1
  Dy  Dy4  1  0.469666  0.281418  0.500000  1
  Tm  Tm5  1  0.718027  0.188027  0.500000  1
  Ni  Ni6  1  0.091185  0.195687  0.000000  1
  Ni  Ni7  1  0.803938  0.896370  0.000000  1
  Ni  Ni8  1  0.104095  0.908505  0.000000  1
  Ni  Ni9  1  0.333245  0.666508  0.500000  1
  Ni  Ni10  1  0.922145  0.073082  0.500000  1
  Ni  Ni11  1  0.926795  0.849090  0.500000  1
  Ni  Ni12  1  0.151282  0.078108  0.500000  1
  Ni  Ni13  1  0.667028  0.332667  0.000000  1
  Ni  Ni14  1  0.416891  0.438098  0.000000  1
  Ni  Ni15  1  0.562531  0.979383  0.000000  1
  Ni  Ni16  1  0.021274  0.582959  0.000000  1
  Ni  Ni17  1  0.246522  0.316678  0.500000  1
  Ni  Ni18  1  0.682859  0.930638  0.500000  1
  Ni  Ni19  1  0.070338  0.753083  0.500000  1
  Ni  Ni20  1  0.435033  0.022144  0.500000  1
  Ni  Ni21  1  0.977868  0.412210  0.500000  1
  Ni  Ni22  1  0.587370  0.565458  0.500000  1
  Ni  Ni23  1  0.920749  0.241463  0.000000  1
  Ni  Ni24  1  0.758581  0.680247  0.000000  1
  Ni  Ni25  1  0.320368  0.078174  0.000000  1
  P  P26  1  0.386807  0.523703  0.500000  1
  P  P27  1  0.475992  0.862806  0.500000  1
  P  P28  1  0.137214  0.613146  0.500000  1
  P  P29  1  0.047147  0.279212  0.500000  1
  P  P30  1  0.720801  0.768232  0.500000  1
  P  P31  1  0.232336  0.953076  0.500000  1
  P  P32  1  0.524035  0.137819  0.000000  1
  P  P33  1  0.861754  0.384498  0.000000  1
  P  P34  1  0.614557  0.476765  0.000000  1
  P  P35  1  0.764985  0.049479  0.000000  1
  P  P36  1  0.951648  0.716798  0.000000  1
  P  P37  1  0.282883  0.234382  0.000000  1
  P  P38  1  0.999702  0.999805  0.000000  1
