# generated using pymatgen
data_Er5Tm7Co4
_symmetry_space_group_name_H-M   'P 1'
_cell_length_a   6.15798723
_cell_length_b   6.87617000
_cell_length_c   9.24399236
_cell_angle_alpha   89.99798963
_cell_angle_beta   89.96845805
_cell_angle_gamma   89.99882195
_symmetry_Int_Tables_number   1
_chemical_formula_structural   Er5Tm7Co4
_chemical_formula_sum   'Er5 Tm7 Co4'
_cell_volume   391.42170184
_cell_formula_units_Z   1
loop_
 _symmetry_equiv_pos_site_id
 _symmetry_equiv_pos_as_xyz
  1  'x, y, z'
loop_
 _atom_site_type_symbol
 _atom_site_label
 _atom_site_symmetry_multiplicity
 _atom_site_fract_x
 _atom_site_fract_y
 _atom_site_fract_z
 _atom_site_occupancy
  Er  Er0  1  0.176472  0.175227  0.066168  1
  Er  Er1  1  0.863965  0.541894  0.250069  1
  Er  Er2  1  0.635770  0.041744  0.250236  1
  Er  Er3  1  0.135598  0.458160  0.749841  1
  Er  Er4  1  0.364331  0.958190  0.749864  1
  Tm  Tm5  1  0.323988  0.674983  0.066601  1
  Tm  Tm6  1  0.176174  0.175064  0.433775  1
  Tm  Tm7  1  0.676138  0.324921  0.566519  1
  Tm  Tm8  1  0.823685  0.824754  0.933288  1
  Tm  Tm9  1  0.676168  0.324983  0.933253  1
  Tm  Tm10  1  0.823731  0.824876  0.566549  1
  Tm  Tm11  1  0.323743  0.675071  0.433450  1
  Co  Co12  1  0.048503  0.887792  0.250346  1
  Co  Co13  1  0.451983  0.388093  0.250356  1
  Co  Co14  1  0.951489  0.112077  0.749572  1
  Co  Co15  1  0.548262  0.612172  0.750114  1
