# generated using pymatgen
data_Sr3CdTcO6
_symmetry_space_group_name_H-M   'P 1'
_cell_length_a   6.88679927
_cell_length_b   6.88679973
_cell_length_c   6.88679987
_cell_angle_alpha   90.97135422
_cell_angle_beta   90.97135504
_cell_angle_gamma   90.97133944
_symmetry_Int_Tables_number   1
_chemical_formula_structural   Sr3CdTcO6
_chemical_formula_sum   'Sr6 Cd2 Tc2 O12'
_cell_volume   326.48477120
_cell_formula_units_Z   2
loop_
 _symmetry_equiv_pos_site_id
 _symmetry_equiv_pos_as_xyz
  1  'x, y, z'
loop_
 _atom_site_type_symbol
 _atom_site_label
 _atom_site_symmetry_multiplicity
 _atom_site_fract_x
 _atom_site_fract_y
 _atom_site_fract_z
 _atom_site_occupancy
  Sr  Sr0  1  0.750000  0.389128  0.110872  1
  Sr  Sr1  1  0.110872  0.750000  0.389128  1
  Sr  Sr2  1  0.250000  0.610872  0.889128  1
  Sr  Sr3  1  0.389128  0.110872  0.750000  1
  Sr  Sr4  1  0.610872  0.889128  0.250000  1
  Sr  Sr5  1  0.889128  0.250000  0.610872  1
  Cd  Cd6  1  0.250000  0.250000  0.250000  1
  Cd  Cd7  1  0.750000  0.750000  0.750000  1
  Tc  Tc8  1  0.500000  0.500000  0.500000  1
  Tc  Tc9  1  0.000000  0.000000  0.000000  1
  O  O10  1  0.082704  0.282971  0.947382  1
  O  O11  1  0.947382  0.082704  0.282971  1
  O  O12  1  0.282971  0.947382  0.082704  1
  O  O13  1  0.417296  0.552618  0.217029  1
  O  O14  1  0.217029  0.417296  0.552618  1
  O  O15  1  0.552618  0.217029  0.417296  1
  O  O16  1  0.917296  0.717029  0.052618  1
  O  O17  1  0.052618  0.917296  0.717029  1
  O  O18  1  0.717029  0.052618  0.917296  1
  O  O19  1  0.582704  0.447382  0.782971  1
  O  O20  1  0.447382  0.782971  0.582704  1
  O  O21  1  0.782971  0.582704  0.447382  1
