# generated using pymatgen
data_MgTa6Zn5Ir12
_symmetry_space_group_name_H-M   'P 1'
_cell_length_a   4.13892700
_cell_length_b   7.14971800
_cell_length_c   12.40781000
_cell_angle_alpha   89.99998275
_cell_angle_beta   89.99997693
_cell_angle_gamma   90.00000000
_symmetry_Int_Tables_number   1
_chemical_formula_structural   MgTa6Zn5Ir12
_chemical_formula_sum   'Mg1 Ta6 Zn5 Ir12'
_cell_volume   367.17390960
_cell_formula_units_Z   1
loop_
 _symmetry_equiv_pos_site_id
 _symmetry_equiv_pos_as_xyz
  1  'x, y, z'
loop_
 _atom_site_type_symbol
 _atom_site_label
 _atom_site_symmetry_multiplicity
 _atom_site_fract_x
 _atom_site_fract_y
 _atom_site_fract_z
 _atom_site_occupancy
  Mg  Mg0  1  0.500008  0.000012  0.833350  1
  Ta  Ta1  1  0.000001  0.999992  0.004723  1
  Ta  Ta2  1  0.499991  0.500008  0.167747  1
  Ta  Ta3  1  0.999989  0.999991  0.333364  1
  Ta  Ta4  1  0.500000  0.500008  0.498927  1
  Ta  Ta5  1  0.000007  0.999989  0.661911  1
  Ta  Ta6  1  0.500014  0.500006  0.833326  1
  Zn  Zn7  1  0.000000  0.499990  0.000338  1
  Zn  Zn8  1  0.499989  0.000016  0.167393  1
  Zn  Zn9  1  0.999992  0.499982  0.333303  1
  Zn  Zn10  1  0.500000  0.000021  0.499275  1
  Zn  Zn11  1  0.000008  0.499983  0.666355  1
  Ir  Ir12  1  0.500000  0.251236  0.000645  1
  Ir  Ir13  1  0.500000  0.748769  0.000644  1
  Ir  Ir14  1  0.999992  0.251807  0.167351  1
  Ir  Ir15  1  0.999993  0.748192  0.167352  1
  Ir  Ir16  1  0.499994  0.250199  0.333348  1
  Ir  Ir17  1  0.499993  0.749801  0.333349  1
  Ir  Ir18  1  0.000000  0.251881  0.499328  1
  Ir  Ir19  1  0.999999  0.748117  0.499328  1
  Ir  Ir20  1  0.500006  0.251210  0.666002  1
  Ir  Ir21  1  0.500006  0.748791  0.666002  1
  Ir  Ir22  1  0.000008  0.250536  0.833318  1
  Ir  Ir23  1  0.000007  0.749466  0.833317  1
