# generated using pymatgen
data_Ag5Sn5Au
_symmetry_space_group_name_H-M   'P 1'
_cell_length_a   16.91198641
_cell_length_b   16.91198565
_cell_length_c   4.35090500
_cell_angle_alpha   90.00000000
_cell_angle_beta   90.00000000
_cell_angle_gamma   168.34538187
_symmetry_Int_Tables_number   1
_chemical_formula_structural   Ag5Sn5Au
_chemical_formula_sum   'Ag5 Sn5 Au1'
_cell_volume   251.38837257
_cell_formula_units_Z   1
loop_
 _symmetry_equiv_pos_site_id
 _symmetry_equiv_pos_as_xyz
  1  'x, y, z'
loop_
 _atom_site_type_symbol
 _atom_site_label
 _atom_site_symmetry_multiplicity
 _atom_site_fract_x
 _atom_site_fract_y
 _atom_site_fract_z
 _atom_site_occupancy
  Ag  Ag0  1  0.281870  0.718128  0.000000  1
  Ag  Ag1  1  0.893694  0.106305  0.500001  1
  Ag  Ag2  1  0.541356  0.458642  0.500001  1
  Ag  Ag3  1  0.459035  0.540963  0.500001  1
  Ag  Ag4  1  0.107215  0.892785  0.500001  1
  Sn  Sn5  1  0.000603  0.999397  0.000000  1
  Sn  Sn6  1  0.624937  0.375061  0.000000  1
  Sn  Sn7  1  0.375723  0.624275  0.000000  1
  Sn  Sn8  1  0.805035  0.194963  0.500001  1
  Sn  Sn9  1  0.196065  0.803933  0.500001  1
  Au  Au10  1  0.714459  0.285539  0.000000  1
