# generated using pymatgen
data_Ac2Lu(SnRh)3
_symmetry_space_group_name_H-M   'P 1'
_cell_length_a   7.64685265
_cell_length_b   7.57947534
_cell_length_c   4.24015600
_cell_angle_alpha   90.00000000
_cell_angle_beta   90.00000000
_cell_angle_gamma   119.70896164
_symmetry_Int_Tables_number   1
_chemical_formula_structural   Ac2Lu(SnRh)3
_chemical_formula_sum   'Ac2 Lu1 Sn3 Rh3'
_cell_volume   213.45214847
_cell_formula_units_Z   1
loop_
 _symmetry_equiv_pos_site_id
 _symmetry_equiv_pos_as_xyz
  1  'x, y, z'
loop_
 _atom_site_type_symbol
 _atom_site_label
 _atom_site_symmetry_multiplicity
 _atom_site_fract_x
 _atom_site_fract_y
 _atom_site_fract_z
 _atom_site_occupancy
  Ac  Ac0  1  0.415046  0.417084  0.500000  1
  Ac  Ac1  1  0.584954  0.002038  0.500000  1
  Lu  Lu2  1  0.000000  0.594263  0.500000  1
  Sn  Sn3  1  0.763248  0.750735  0.000000  1
  Sn  Sn4  1  0.236752  0.987486  0.000000  1
  Sn  Sn5  1  0.000000  0.256419  0.000000  1
  Rh  Rh6  1  0.688518  0.347907  0.000000  1
  Rh  Rh7  1  0.311482  0.659390  0.000000  1
  Rh  Rh8  1  0.000000  0.984677  0.500000  1
