# generated using pymatgen
data_AcPr3F12
_symmetry_space_group_name_H-M   'P 1'
_cell_length_a   4.56635446
_cell_length_b   6.98590296
_cell_length_c   7.35723000
_cell_angle_alpha   90.00000000
_cell_angle_beta   90.00000000
_cell_angle_gamma   91.05171804
_symmetry_Int_Tables_number   1
_chemical_formula_structural   AcPr3F12
_chemical_formula_sum   'Ac1 Pr3 F12'
_cell_volume   234.65690152
_cell_formula_units_Z   1
loop_
 _symmetry_equiv_pos_site_id
 _symmetry_equiv_pos_as_xyz
  1  'x, y, z'
loop_
 _atom_site_type_symbol
 _atom_site_label
 _atom_site_symmetry_multiplicity
 _atom_site_fract_x
 _atom_site_fract_y
 _atom_site_fract_z
 _atom_site_occupancy
  Ac  Ac0  1  0.053477  0.363564  0.250000  1
  Pr  Pr1  1  0.930361  0.635063  0.750000  1
  Pr  Pr2  1  0.434097  0.866278  0.250000  1
  Pr  Pr3  1  0.566300  0.129120  0.750000  1
  F  F4  1  0.402912  0.157302  0.435033  1
  F  F5  1  0.886206  0.337974  0.572161  1
  F  F6  1  0.108988  0.669712  0.059623  1
  F  F7  1  0.611745  0.838138  0.933160  1
  F  F8  1  0.567730  0.530927  0.250000  1
  F  F9  1  0.076625  0.984498  0.750000  1
  F  F10  1  0.929611  0.004281  0.250000  1
  F  F11  1  0.422099  0.480020  0.750000  1
  F  F12  1  0.402912  0.157302  0.064967  1
  F  F13  1  0.886206  0.337974  0.927839  1
  F  F14  1  0.108988  0.669712  0.440377  1
  F  F15  1  0.611745  0.838138  0.566840  1
