# generated using pymatgen
data_Ca2Ni2Cl
_symmetry_space_group_name_H-M   'P 1'
_cell_length_a   3.95377000
_cell_length_b   3.95376891
_cell_length_c   7.94009200
_cell_angle_alpha   90.00000000
_cell_angle_beta   90.00000000
_cell_angle_gamma   120.00000913
_symmetry_Int_Tables_number   1
_chemical_formula_structural   Ca2Ni2Cl
_chemical_formula_sum   'Ca2 Ni2 Cl1'
_cell_volume   107.49265997
_cell_formula_units_Z   1
loop_
 _symmetry_equiv_pos_site_id
 _symmetry_equiv_pos_as_xyz
  1  'x, y, z'
loop_
 _atom_site_type_symbol
 _atom_site_label
 _atom_site_symmetry_multiplicity
 _atom_site_fract_x
 _atom_site_fract_y
 _atom_site_fract_z
 _atom_site_occupancy
  Ca  Ca0  1  0.000000  0.000000  0.235166  1
  Ca  Ca1  1  0.000000  0.000000  0.764834  1
  Ni  Ni2  1  0.333333  0.666667  0.000000  1
  Ni  Ni3  1  0.666667  0.333333  0.000000  1
  Cl  Cl4  1  0.666667  0.333333  0.500000  1
