# generated using pymatgen
data_Sc2TaNbRu4
_symmetry_space_group_name_H-M   'P 1'
_cell_length_a   4.49950000
_cell_length_b   6.35145000
_cell_length_c   13.61700500
_cell_angle_alpha   90.00000000
_cell_angle_beta   90.00005492
_cell_angle_gamma   90.00000000
_symmetry_Int_Tables_number   1
_chemical_formula_structural   Sc2TaNbRu4
_chemical_formula_sum   'Sc6 Ta3 Nb3 Ru12'
_cell_volume   389.15152497
_cell_formula_units_Z   3
loop_
 _symmetry_equiv_pos_site_id
 _symmetry_equiv_pos_as_xyz
  1  'x, y, z'
loop_
 _atom_site_type_symbol
 _atom_site_label
 _atom_site_symmetry_multiplicity
 _atom_site_fract_x
 _atom_site_fract_y
 _atom_site_fract_z
 _atom_site_occupancy
  Sc  Sc0  1  0.000004  0.000000  0.999871  1
  Sc  Sc1  1  0.499913  0.500000  0.166686  1
  Sc  Sc2  1  0.999879  0.000000  0.333468  1
  Sc  Sc3  1  0.500012  0.500000  0.500130  1
  Sc  Sc4  1  0.000104  0.000000  0.666665  1
  Sc  Sc5  1  0.500118  0.500000  0.833205  1
  Ta  Ta6  1  0.500027  0.000000  0.499962  1
  Ta  Ta7  1  0.000115  0.500000  0.666672  1
  Ta  Ta8  1  0.500131  0.000000  0.833368  1
  Nb  Nb9  1  0.999986  0.500000  0.000071  1
  Nb  Nb10  1  0.499892  0.000000  0.166672  1
  Nb  Nb11  1  0.999887  0.500000  0.333261  1
  Ru  Ru12  1  0.499999  0.249768  0.999439  1
  Ru  Ru13  1  0.499999  0.750233  0.999439  1
  Ru  Ru14  1  0.999842  0.249570  0.166666  1
  Ru  Ru15  1  0.999842  0.750430  0.166666  1
  Ru  Ru16  1  0.499868  0.249775  0.333887  1
  Ru  Ru17  1  0.499868  0.750224  0.333887  1
  Ru  Ru18  1  0.000012  0.248882  0.500529  1
  Ru  Ru19  1  0.000012  0.751118  0.500529  1
  Ru  Ru20  1  0.500139  0.250554  0.666666  1
  Ru  Ru21  1  0.500139  0.749445  0.666666  1
  Ru  Ru22  1  0.000104  0.248876  0.832796  1
  Ru  Ru23  1  0.000104  0.751124  0.832796  1
