# generated using pymatgen
data_Nd4Hf3RuF28
_symmetry_space_group_name_H-M   'P 1'
_cell_length_a   5.77830371
_cell_length_b   9.26844077
_cell_length_c   12.44814000
_cell_angle_alpha   62.06473855
_cell_angle_beta   89.95586533
_cell_angle_gamma   89.92482519
_symmetry_Int_Tables_number   1
_chemical_formula_structural   Nd4Hf3RuF28
_chemical_formula_sum   'Nd4 Hf3 Ru1 F28'
_cell_volume   588.98822699
_cell_formula_units_Z   1
loop_
 _symmetry_equiv_pos_site_id
 _symmetry_equiv_pos_as_xyz
  1  'x, y, z'
loop_
 _atom_site_type_symbol
 _atom_site_label
 _atom_site_symmetry_multiplicity
 _atom_site_fract_x
 _atom_site_fract_y
 _atom_site_fract_z
 _atom_site_occupancy
  Nd  Nd0  1  0.758183  0.812032  0.766102  1
  Nd  Nd1  1  0.256808  0.188536  0.730533  1
  Nd  Nd2  1  0.241614  0.189216  0.238815  1
  Nd  Nd3  1  0.742807  0.813570  0.265637  1
  Hf  Hf4  1  0.754573  0.273731  0.957033  1
  Hf  Hf5  1  0.255122  0.725362  0.543192  1
  Hf  Hf6  1  0.245622  0.726430  0.043500  1
  Ru  Ru7  1  0.743130  0.274126  0.456101  1
  F  F8  1  0.454241  0.710374  0.920851  1
  F  F9  1  0.935483  0.289227  0.581444  1
  F  F10  1  0.542523  0.288029  0.079260  1
  F  F11  1  0.047163  0.711383  0.419756  1
  F  F12  1  0.457517  0.280877  0.542004  1
  F  F13  1  0.958042  0.718644  0.954075  1
  F  F14  1  0.543164  0.715727  0.454765  1
  F  F15  1  0.038754  0.280521  0.048914  1
  F  F16  1  0.769559  0.518132  0.861770  1
  F  F17  1  0.266729  0.481467  0.637982  1
  F  F18  1  0.228824  0.482659  0.139371  1
  F  F19  1  0.735402  0.507475  0.363457  1
  F  F20  1  0.760597  0.029584  0.056255  1
  F  F21  1  0.262787  0.968934  0.446324  1
  F  F22  1  0.239008  0.969398  0.942319  1
  F  F23  1  0.740780  0.041091  0.547040  1
  F  F24  1  0.979612  0.733108  0.638753  1
  F  F25  1  0.483902  0.267655  0.858218  1
  F  F26  1  0.022275  0.269939  0.366600  1
  F  F27  1  0.519558  0.730543  0.141111  1
  F  F28  1  0.044786  0.745051  0.168979  1
  F  F29  1  0.553764  0.258379  0.329463  1
  F  F30  1  0.959863  0.255167  0.832825  1
  F  F31  1  0.457248  0.744914  0.668071  1
  F  F32  1  0.413276  0.968799  0.233624  1
  F  F33  1  0.914099  0.031067  0.270197  1
  F  F34  1  0.586160  0.031590  0.767039  1
  F  F35  1  0.087029  0.967261  0.728621  1
