# generated using pymatgen
data_Sr2CaNd(Re2Si)8
_symmetry_space_group_name_H-M   'P 1'
_cell_length_a   4.18216400
_cell_length_b   7.40687600
_cell_length_c   15.52571026
_cell_angle_alpha   89.82846857
_cell_angle_beta   90.00000000
_cell_angle_gamma   90.00000000
_symmetry_Int_Tables_number   1
_chemical_formula_structural   Sr2CaNd(Re2Si)8
_chemical_formula_sum   'Sr2 Ca1 Nd1 Re16 Si8'
_cell_volume   480.93420296
_cell_formula_units_Z   1
loop_
 _symmetry_equiv_pos_site_id
 _symmetry_equiv_pos_as_xyz
  1  'x, y, z'
loop_
 _atom_site_type_symbol
 _atom_site_label
 _atom_site_symmetry_multiplicity
 _atom_site_fract_x
 _atom_site_fract_y
 _atom_site_fract_z
 _atom_site_occupancy
  Sr  Sr0  1  0.000000  0.573416  0.119149  1
  Sr  Sr1  1  0.000000  0.425257  0.881875  1
  Ca  Ca2  1  0.500000  0.075196  0.381405  1
  Nd  Nd3  1  0.500000  0.923990  0.615783  1
  Re  Re4  1  0.000000  0.128425  0.054788  1
  Re  Re5  1  0.000000  0.871243  0.945634  1
  Re  Re6  1  0.500000  0.638870  0.448700  1
  Re  Re7  1  0.500000  0.363715  0.550984  1
  Re  Re8  1  0.000000  0.730279  0.322426  1
  Re  Re9  1  0.000000  0.271449  0.676926  1
  Re  Re10  1  0.500000  0.226859  0.182668  1
  Re  Re11  1  0.500000  0.773250  0.818004  1
  Re  Re12  1  0.000000  0.434086  0.417997  1
  Re  Re13  1  0.000000  0.569919  0.581385  1
  Re  Re14  1  0.500000  0.934692  0.083700  1
  Re  Re15  1  0.500000  0.065292  0.917139  1
  Re  Re16  1  0.000000  0.986591  0.209650  1
  Re  Re17  1  0.000000  0.011868  0.790500  1
  Re  Re18  1  0.500000  0.484096  0.295473  1
  Re  Re19  1  0.500000  0.514262  0.704359  1
  Si  Si20  1  0.000000  0.829666  0.475135  1
  Si  Si21  1  0.000000  0.173583  0.522600  1
  Si  Si22  1  0.500000  0.319351  0.026462  1
  Si  Si23  1  0.500000  0.680685  0.974397  1
  Si  Si24  1  0.000000  0.282886  0.277333  1
  Si  Si25  1  0.000000  0.712061  0.724776  1
  Si  Si26  1  0.500000  0.787401  0.228794  1
  Si  Si27  1  0.500000  0.211611  0.771959  1
