# generated using pymatgen
data_Hf3Zr(Al3Ir)6
_symmetry_space_group_name_H-M   'P 1'
_cell_length_a   7.47472043
_cell_length_b   7.47358587
_cell_length_c   9.22167700
_cell_angle_alpha   90.00000000
_cell_angle_beta   90.00000000
_cell_angle_gamma   119.83777826
_symmetry_Int_Tables_number   1
_chemical_formula_structural   Hf3Zr(Al3Ir)6
_chemical_formula_sum   'Hf3 Zr1 Al18 Ir6'
_cell_volume   446.86066095
_cell_formula_units_Z   1
loop_
 _symmetry_equiv_pos_site_id
 _symmetry_equiv_pos_as_xyz
  1  'x, y, z'
loop_
 _atom_site_type_symbol
 _atom_site_label
 _atom_site_symmetry_multiplicity
 _atom_site_fract_x
 _atom_site_fract_y
 _atom_site_fract_z
 _atom_site_occupancy
  Hf  Hf0  1  0.994043  0.671089  0.250000  1
  Hf  Hf1  1  0.005673  0.328804  0.750000  1
  Hf  Hf2  1  0.671317  0.994151  0.250000  1
  Zr  Zr3  1  0.329214  0.005799  0.750000  1
  Al  Al4  1  0.123512  0.124010  0.250000  1
  Al  Al5  1  0.875620  0.876112  0.750000  1
  Al  Al6  1  0.997952  0.334629  0.077317  1
  Al  Al7  1  0.001849  0.665468  0.924269  1
  Al  Al8  1  0.001849  0.665468  0.575731  1
  Al  Al9  1  0.334677  0.998121  0.422115  1
  Al  Al10  1  0.997952  0.334629  0.422683  1
  Al  Al11  1  0.665494  0.001686  0.575853  1
  Al  Al12  1  0.665494  0.001686  0.924147  1
  Al  Al13  1  0.334677  0.998121  0.077885  1
  Al  Al14  1  0.331701  0.331859  0.557895  1
  Al  Al15  1  0.668136  0.668139  0.440017  1
  Al  Al16  1  0.668136  0.668139  0.059983  1
  Al  Al17  1  0.331701  0.331859  0.942105  1
  Al  Al18  1  0.338460  0.552983  0.250000  1
  Al  Al19  1  0.662469  0.448109  0.750000  1
  Al  Al20  1  0.553275  0.339006  0.250000  1
  Al  Al21  1  0.447104  0.660409  0.750000  1
  Ir  Ir22  1  0.673527  0.327213  0.000194  1
  Ir  Ir23  1  0.326912  0.672860  0.000230  1
  Ir  Ir24  1  0.326912  0.672860  0.499770  1
  Ir  Ir25  1  0.673527  0.327213  0.499806  1
  Ir  Ir26  1  0.999409  0.999788  0.000476  1
  Ir  Ir27  1  0.999409  0.999788  0.499524  1
