# generated using pymatgen
data_La4Nd12AlCd3Ir4
_symmetry_space_group_name_H-M   'P 1'
_cell_length_a   9.98332301
_cell_length_b   9.98332249
_cell_length_c   9.98332323
_cell_angle_alpha   60.04040058
_cell_angle_beta   60.04039672
_cell_angle_gamma   60.04040336
_symmetry_Int_Tables_number   1
_chemical_formula_structural   La4Nd12AlCd3Ir4
_chemical_formula_sum   'La4 Nd12 Al1 Cd3 Ir4'
_cell_volume   704.21922476
_cell_formula_units_Z   1
loop_
 _symmetry_equiv_pos_site_id
 _symmetry_equiv_pos_as_xyz
  1  'x, y, z'
loop_
 _atom_site_type_symbol
 _atom_site_label
 _atom_site_symmetry_multiplicity
 _atom_site_fract_x
 _atom_site_fract_y
 _atom_site_fract_z
 _atom_site_occupancy
  La  La0  1  0.347783  0.347783  0.347783  1
  La  La1  1  0.349656  0.349656  0.953348  1
  La  La2  1  0.349656  0.953348  0.349656  1
  La  La3  1  0.953348  0.349656  0.349656  1
  Nd  Nd4  1  0.811001  0.189002  0.189002  1
  Nd  Nd5  1  0.190975  0.807925  0.807925  1
  Nd  Nd6  1  0.189002  0.811001  0.189002  1
  Nd  Nd7  1  0.807925  0.190975  0.807925  1
  Nd  Nd8  1  0.189002  0.189002  0.811001  1
  Nd  Nd9  1  0.807925  0.807925  0.190975  1
  Nd  Nd10  1  0.936884  0.562723  0.562723  1
  Nd  Nd11  1  0.561254  0.938266  0.938266  1
  Nd  Nd12  1  0.562723  0.936884  0.562723  1
  Nd  Nd13  1  0.938266  0.561254  0.938266  1
  Nd  Nd14  1  0.562723  0.562723  0.936884  1
  Nd  Nd15  1  0.938266  0.938266  0.561254  1
  Al  Al16  1  0.580329  0.580329  0.580329  1
  Cd  Cd17  1  0.580209  0.580209  0.261934  1
  Cd  Cd18  1  0.580209  0.261934  0.580209  1
  Cd  Cd19  1  0.261934  0.580209  0.580209  1
  Ir  Ir20  1  0.141752  0.141752  0.141752  1
  Ir  Ir21  1  0.142248  0.142248  0.574682  1
  Ir  Ir22  1  0.142248  0.574682  0.142248  1
  Ir  Ir23  1  0.574682  0.142248  0.142248  1
