# generated using pymatgen
data_Hf15ZrNi4MoIr3
_symmetry_space_group_name_H-M   'P 1'
_cell_length_a   8.62616876
_cell_length_b   8.64815889
_cell_length_c   8.67096359
_cell_angle_alpha   60.08560769
_cell_angle_beta   60.11399003
_cell_angle_gamma   59.91426586
_symmetry_Int_Tables_number   1
_chemical_formula_structural   Hf15ZrNi4MoIr3
_chemical_formula_sum   'Hf15 Zr1 Ni4 Mo1 Ir3'
_cell_volume   457.78795761
_cell_formula_units_Z   1
loop_
 _symmetry_equiv_pos_site_id
 _symmetry_equiv_pos_as_xyz
  1  'x, y, z'
loop_
 _atom_site_type_symbol
 _atom_site_label
 _atom_site_symmetry_multiplicity
 _atom_site_fract_x
 _atom_site_fract_y
 _atom_site_fract_z
 _atom_site_occupancy
  Hf  Hf0  1  0.188776  0.603783  0.603637  1
  Hf  Hf1  1  0.603661  0.188297  0.603763  1
  Hf  Hf2  1  0.603674  0.604277  0.603762  1
  Hf  Hf3  1  0.606950  0.607303  0.178440  1
  Hf  Hf4  1  0.450354  0.452089  0.049079  1
  Hf  Hf5  1  0.050679  0.049839  0.446806  1
  Hf  Hf6  1  0.450351  0.048481  0.049081  1
  Hf  Hf7  1  0.050689  0.452678  0.446805  1
  Hf  Hf8  1  0.048702  0.451461  0.048372  1
  Hf  Hf9  1  0.451219  0.051097  0.446602  1
  Hf  Hf10  1  0.814268  0.813929  0.192089  1
  Hf  Hf11  1  0.185284  0.184433  0.815751  1
  Hf  Hf12  1  0.814258  0.179719  0.192096  1
  Hf  Hf13  1  0.185290  0.814523  0.815744  1
  Hf  Hf14  1  0.178524  0.815156  0.191164  1
  Zr  Zr15  1  0.815795  0.183818  0.816561  1
  Ni  Ni16  1  0.823210  0.394064  0.388662  1
  Ni  Ni17  1  0.394251  0.823008  0.388756  1
  Ni  Ni18  1  0.394266  0.393992  0.388741  1
  Ni  Ni19  1  0.391214  0.391166  0.826461  1
  Mo  Mo20  1  0.831624  0.831838  0.504701  1
  Ir  Ir21  1  0.494168  0.835939  0.833957  1
  Ir  Ir22  1  0.836397  0.495459  0.834483  1
  Ir  Ir23  1  0.836397  0.833653  0.834489  1
