# generated using pymatgen
data_Ca5TmU2O12
_symmetry_space_group_name_H-M   'P 1'
_cell_length_a   6.76240569
_cell_length_b   6.79713778
_cell_length_c   6.76414667
_cell_angle_alpha   90.75052865
_cell_angle_beta   90.67509694
_cell_angle_gamma   90.54359517
_symmetry_Int_Tables_number   1
_chemical_formula_structural   Ca5TmU2O12
_chemical_formula_sum   'Ca5 Tm1 U2 O12'
_cell_volume   310.85131445
_cell_formula_units_Z   1
loop_
 _symmetry_equiv_pos_site_id
 _symmetry_equiv_pos_as_xyz
  1  'x, y, z'
loop_
 _atom_site_type_symbol
 _atom_site_label
 _atom_site_symmetry_multiplicity
 _atom_site_fract_x
 _atom_site_fract_y
 _atom_site_fract_z
 _atom_site_occupancy
  Ca  Ca0  1  0.554420  0.247457  0.058247  1
  Ca  Ca1  1  0.057757  0.553044  0.249248  1
  Ca  Ca2  1  0.750671  0.939566  0.443791  1
  Ca  Ca3  1  0.447665  0.751630  0.943192  1
  Ca  Ca4  1  0.939821  0.449816  0.752424  1
  Tm  Tm5  1  0.249443  0.061832  0.557985  1
  U  U6  1  0.003743  0.002552  0.000891  1
  U  U7  1  0.497702  0.499909  0.500533  1
  O  O8  1  0.079453  0.935691  0.305913  1
  O  O9  1  0.299099  0.066979  0.903094  1
  O  O10  1  0.925438  0.294813  0.061919  1
  O  O11  1  0.944727  0.072235  0.697519  1
  O  O12  1  0.709509  0.936107  0.078301  1
  O  O13  1  0.076862  0.709243  0.939813  1
  O  O14  1  0.411288  0.538478  0.205654  1
  O  O15  1  0.200619  0.395426  0.542804  1
  O  O16  1  0.526410  0.192642  0.417617  1
  O  O17  1  0.586060  0.460983  0.795592  1
  O  O18  1  0.794646  0.589305  0.458614  1
  O  O19  1  0.444669  0.802292  0.586845  1
