# generated using pymatgen
data_Rb2Ga2Te3
_symmetry_space_group_name_H-M   'P 1'
_cell_length_a   7.93264369
_cell_length_b   7.93264363
_cell_length_c   10.20333608
_cell_angle_alpha   82.48590384
_cell_angle_beta   82.48590811
_cell_angle_gamma   120.05196602
_symmetry_Int_Tables_number   1
_chemical_formula_structural   Rb2Ga2Te3
_chemical_formula_sum   'Rb4 Ga4 Te6'
_cell_volume   536.37677329
_cell_formula_units_Z   2
loop_
 _symmetry_equiv_pos_site_id
 _symmetry_equiv_pos_as_xyz
  1  'x, y, z'
loop_
 _atom_site_type_symbol
 _atom_site_label
 _atom_site_symmetry_multiplicity
 _atom_site_fract_x
 _atom_site_fract_y
 _atom_site_fract_z
 _atom_site_occupancy
  Rb  Rb0  1  0.655530  0.344470  0.000000  1
  Rb  Rb1  1  0.344470  0.655530  0.000000  1
  Rb  Rb2  1  0.000000  0.000000  0.000000  1
  Rb  Rb3  1  0.500000  0.500000  0.500000  1
  Ga  Ga4  1  0.873925  0.209230  0.373548  1
  Ga  Ga5  1  0.790770  0.126075  0.626452  1
  Ga  Ga6  1  0.209230  0.873925  0.373548  1
  Ga  Ga7  1  0.126075  0.790770  0.626452  1
  Te  Te8  1  0.420649  0.052944  0.735757  1
  Te  Te9  1  0.052944  0.420649  0.735757  1
  Te  Te10  1  0.947056  0.579351  0.264243  1
  Te  Te11  1  0.789565  0.789565  0.729997  1
  Te  Te12  1  0.579351  0.947056  0.264243  1
  Te  Te13  1  0.210435  0.210435  0.270003  1
