# generated using pymatgen
data_Ho3Cr(Co4As3)2
_symmetry_space_group_name_H-M   'P 1'
_cell_length_a   3.79272100
_cell_length_b   10.92200600
_cell_length_c   12.68745400
_cell_angle_alpha   90.00000000
_cell_angle_beta   90.00000000
_cell_angle_gamma   90.00000000
_symmetry_Int_Tables_number   1
_chemical_formula_structural   Ho3Cr(Co4As3)2
_chemical_formula_sum   'Ho6 Cr2 Co16 As12'
_cell_volume   525.56663625
_cell_formula_units_Z   2
loop_
 _symmetry_equiv_pos_site_id
 _symmetry_equiv_pos_as_xyz
  1  'x, y, z'
loop_
 _atom_site_type_symbol
 _atom_site_label
 _atom_site_symmetry_multiplicity
 _atom_site_fract_x
 _atom_site_fract_y
 _atom_site_fract_z
 _atom_site_occupancy
  Ho  Ho0  1  0.000000  0.500000  0.525996  1
  Ho  Ho1  1  0.500000  0.000000  0.474004  1
  Ho  Ho2  1  0.500000  0.819744  0.205658  1
  Ho  Ho3  1  0.500000  0.180256  0.205658  1
  Ho  Ho4  1  0.000000  0.680256  0.794342  1
  Ho  Ho5  1  0.000000  0.319744  0.794342  1
  Cr  Cr6  1  0.500000  0.500000  0.155244  1
  Cr  Cr7  1  0.000000  0.000000  0.844756  1
  Co  Co8  1  0.500000  0.500000  0.702329  1
  Co  Co9  1  0.000000  0.000000  0.297671  1
  Co  Co10  1  0.000000  0.500000  0.987312  1
  Co  Co11  1  0.500000  0.000000  0.012688  1
  Co  Co12  1  0.500000  0.332856  0.995104  1
  Co  Co13  1  0.500000  0.667144  0.995104  1
  Co  Co14  1  0.000000  0.167144  0.004896  1
  Co  Co15  1  0.000000  0.832856  0.004896  1
  Co  Co16  1  0.500000  0.297963  0.431071  1
  Co  Co17  1  0.500000  0.702037  0.431071  1
  Co  Co18  1  0.000000  0.202037  0.568929  1
  Co  Co19  1  0.000000  0.797963  0.568929  1
  Co  Co20  1  0.500000  0.880320  0.707140  1
  Co  Co21  1  0.500000  0.119680  0.707140  1
  Co  Co22  1  0.000000  0.619680  0.292860  1
  Co  Co23  1  0.000000  0.380320  0.292860  1
  As  As24  1  0.500000  0.500000  0.881096  1
  As  As25  1  0.000000  0.000000  0.118904  1
  As  As26  1  0.500000  0.500000  0.352331  1
  As  As27  1  0.000000  0.000000  0.647669  1
  As  As28  1  0.500000  0.313132  0.616483  1
  As  As29  1  0.500000  0.686868  0.616483  1
  As  As30  1  0.000000  0.186868  0.383517  1
  As  As31  1  0.000000  0.813132  0.383517  1
  As  As32  1  0.500000  0.844502  0.890283  1
  As  As33  1  0.500000  0.155498  0.890283  1
  As  As34  1  0.000000  0.655498  0.109717  1
  As  As35  1  0.000000  0.344502  0.109717  1
