# generated using pymatgen
data_Ca4Y4Hg7Pb
_symmetry_space_group_name_H-M   'P 1'
_cell_length_a   7.58124108
_cell_length_b   7.54221111
_cell_length_c   7.52470700
_cell_angle_alpha   89.99995438
_cell_angle_beta   90.00019712
_cell_angle_gamma   89.98178189
_symmetry_Int_Tables_number   1
_chemical_formula_structural   Ca4Y4Hg7Pb
_chemical_formula_sum   'Ca4 Y4 Hg7 Pb1'
_cell_volume   430.25761308
_cell_formula_units_Z   1
loop_
 _symmetry_equiv_pos_site_id
 _symmetry_equiv_pos_as_xyz
  1  'x, y, z'
loop_
 _atom_site_type_symbol
 _atom_site_label
 _atom_site_symmetry_multiplicity
 _atom_site_fract_x
 _atom_site_fract_y
 _atom_site_fract_z
 _atom_site_occupancy
  Ca  Ca0  1  0.744956  0.245367  0.996132  1
  Ca  Ca1  1  0.253963  0.754679  0.503828  1
  Ca  Ca2  1  0.746059  0.245349  0.504021  1
  Ca  Ca3  1  0.255048  0.754642  0.995939  1
  Y  Y4  1  0.254630  0.245563  0.994361  1
  Y  Y5  1  0.745397  0.754443  0.994364  1
  Y  Y6  1  0.746919  0.754223  0.505577  1
  Y  Y7  1  0.253109  0.245784  0.505596  1
  Hg  Hg8  1  0.000206  0.999919  0.248530  1
  Hg  Hg9  1  0.500184  0.000112  0.251180  1
  Hg  Hg10  1  0.500180  0.499892  0.251460  1
  Hg  Hg11  1  0.499837  0.500111  0.748618  1
  Hg  Hg12  1  0.499830  0.999900  0.748762  1
  Hg  Hg13  1  0.999818  0.000105  0.751399  1
  Hg  Hg14  1  0.999798  0.499897  0.751067  1
  Pb  Pb15  1  0.000066  0.500020  0.249166  1
