# generated using pymatgen
data_Ho2ErMg3Ag2Ir
_symmetry_space_group_name_H-M   'P 1'
_cell_length_a   7.79556362
_cell_length_b   7.79892636
_cell_length_c   3.87487900
_cell_angle_alpha   90.00000000
_cell_angle_beta   90.00000000
_cell_angle_gamma   120.03128106
_symmetry_Int_Tables_number   1
_chemical_formula_structural   Ho2ErMg3Ag2Ir
_chemical_formula_sum   'Ho2 Er1 Mg3 Ag2 Ir1'
_cell_volume   203.95489678
_cell_formula_units_Z   1
loop_
 _symmetry_equiv_pos_site_id
 _symmetry_equiv_pos_as_xyz
  1  'x, y, z'
loop_
 _atom_site_type_symbol
 _atom_site_label
 _atom_site_symmetry_multiplicity
 _atom_site_fract_x
 _atom_site_fract_y
 _atom_site_fract_z
 _atom_site_occupancy
  Ho  Ho0  1  0.429900  0.395614  0.500000  1
  Ho  Ho1  1  0.604062  0.033521  0.500000  1
  Er  Er2  1  0.965582  0.570267  0.500000  1
  Mg  Mg3  1  0.742145  0.744482  0.000000  1
  Mg  Mg4  1  0.255640  0.997613  0.000000  1
  Mg  Mg5  1  0.001988  0.258224  0.000000  1
  Ag  Ag6  1  0.332366  0.666617  0.000000  1
  Ag  Ag7  1  0.000253  0.999563  0.500000  1
  Ir  Ir8  1  0.668064  0.334099  0.000000  1
