# generated using pymatgen
data_Dy11Ho(BBr3)4
_symmetry_space_group_name_H-M   'P 1'
_cell_length_a   9.74080125
_cell_length_b   9.74080058
_cell_length_c   9.74007801
_cell_angle_alpha   109.47043781
_cell_angle_beta   109.47043523
_cell_angle_gamma   109.47510475
_symmetry_Int_Tables_number   1
_chemical_formula_structural   Dy11Ho(BBr3)4
_chemical_formula_sum   'Dy11 Ho1 B4 Br12'
_cell_volume   711.40590404
_cell_formula_units_Z   1
loop_
 _symmetry_equiv_pos_site_id
 _symmetry_equiv_pos_as_xyz
  1  'x, y, z'
loop_
 _atom_site_type_symbol
 _atom_site_label
 _atom_site_symmetry_multiplicity
 _atom_site_fract_x
 _atom_site_fract_y
 _atom_site_fract_z
 _atom_site_occupancy
  Dy  Dy0  1  0.460381  0.480090  0.230137  1
  Dy  Dy1  1  0.750055  0.230187  0.269952  1
  Dy  Dy2  1  0.750074  0.019833  0.480235  1
  Dy  Dy3  1  0.230217  0.460370  0.480295  1
  Dy  Dy4  1  0.269813  0.749945  0.230048  1
  Dy  Dy5  1  0.039630  0.269783  0.019705  1
  Dy  Dy6  1  0.019910  0.039619  0.269863  1
  Dy  Dy7  1  0.480167  0.749926  0.019765  1
  Dy  Dy8  1  0.480216  0.230218  0.460441  1
  Dy  Dy9  1  0.019894  0.480106  0.750000  1
  Dy  Dy10  1  0.269782  0.019784  0.039559  1
  Ho  Ho11  1  0.229705  0.270295  0.750000  1
  B  B12  1  0.249985  0.250015  0.250000  1
  B  B13  1  0.500019  0.999981  0.250000  1
  B  B14  1  0.000383  0.249987  0.500383  1
  B  B15  1  0.250013  0.499617  0.999617  1
  Br  Br16  1  0.249949  0.758105  0.741861  1
  Br  Br17  1  0.515924  0.507710  0.758164  1
  Br  Br18  1  0.983688  0.741846  0.991815  1
  Br  Br19  1  0.741895  0.250051  0.758139  1
  Br  Br20  1  0.992290  0.984076  0.741836  1
  Br  Br21  1  0.250049  0.992194  0.508545  1
  Br  Br22  1  0.758154  0.516312  0.508185  1
  Br  Br23  1  0.507806  0.249951  0.991455  1
  Br  Br24  1  0.758125  0.741875  0.250000  1
  Br  Br25  1  0.741895  0.991889  0.983748  1
  Br  Br26  1  0.991874  0.508126  0.250000  1
  Br  Br27  1  0.508111  0.758105  0.516252  1
