# generated using pymatgen
data_SrNdZn2(SiIr2)2
_symmetry_space_group_name_H-M   'P 1'
_cell_length_a   4.16810600
_cell_length_b   4.16810600
_cell_length_c   10.44903800
_cell_angle_alpha   90.00000000
_cell_angle_beta   90.00000000
_cell_angle_gamma   90.00000000
_symmetry_Int_Tables_number   1
_chemical_formula_structural   SrNdZn2(SiIr2)2
_chemical_formula_sum   'Sr1 Nd1 Zn2 Si2 Ir4'
_cell_volume   181.53226178
_cell_formula_units_Z   1
loop_
 _symmetry_equiv_pos_site_id
 _symmetry_equiv_pos_as_xyz
  1  'x, y, z'
loop_
 _atom_site_type_symbol
 _atom_site_label
 _atom_site_symmetry_multiplicity
 _atom_site_fract_x
 _atom_site_fract_y
 _atom_site_fract_z
 _atom_site_occupancy
  Sr  Sr0  1  0.000000  0.500000  0.252580  1
  Nd  Nd1  1  0.500000  0.000000  0.748963  1
  Zn  Zn2  1  0.000000  0.000000  0.499734  1
  Zn  Zn3  1  0.500000  0.500000  0.499734  1
  Si  Si4  1  0.000000  0.500000  0.879847  1
  Si  Si5  1  0.500000  0.000000  0.120188  1
  Ir  Ir6  1  0.000000  0.000000  0.997835  1
  Ir  Ir7  1  0.500000  0.500000  0.997835  1
  Ir  Ir8  1  0.000000  0.500000  0.653591  1
  Ir  Ir9  1  0.500000  0.000000  0.349692  1
