# generated using pymatgen
data_Ho7Mg(Sn11Ru3)2
_symmetry_space_group_name_H-M   'P 1'
_cell_length_a   9.82162600
_cell_length_b   9.82162496
_cell_length_c   10.07994700
_cell_angle_alpha   90.00000000
_cell_angle_beta   90.00000000
_cell_angle_gamma   119.99999676
_symmetry_Int_Tables_number   1
_chemical_formula_structural   Ho7Mg(Sn11Ru3)2
_chemical_formula_sum   'Ho7 Mg1 Sn22 Ru6'
_cell_volume   842.08442253
_cell_formula_units_Z   1
loop_
 _symmetry_equiv_pos_site_id
 _symmetry_equiv_pos_as_xyz
  1  'x, y, z'
loop_
 _atom_site_type_symbol
 _atom_site_label
 _atom_site_symmetry_multiplicity
 _atom_site_fract_x
 _atom_site_fract_y
 _atom_site_fract_z
 _atom_site_occupancy
  Ho  Ho0  1  0.000000  0.000000  0.000000  1
  Ho  Ho1  1  0.515937  0.484063  0.694563  1
  Ho  Ho2  1  0.515937  0.031873  0.694563  1
  Ho  Ho3  1  0.968127  0.484063  0.694563  1
  Ho  Ho4  1  0.031873  0.515937  0.305437  1
  Ho  Ho5  1  0.484063  0.968127  0.305437  1
  Ho  Ho6  1  0.484063  0.515937  0.305437  1
  Mg  Mg7  1  0.000000  0.000000  0.500000  1
  Sn  Sn8  1  0.666667  0.333333  0.177803  1
  Sn  Sn9  1  0.666667  0.333333  0.871729  1
  Sn  Sn10  1  0.333333  0.666667  0.128271  1
  Sn  Sn11  1  0.348662  0.348662  0.000000  1
  Sn  Sn12  1  0.000000  0.651338  0.000000  1
  Sn  Sn13  1  0.651338  0.000000  0.000000  1
  Sn  Sn14  1  0.651338  0.651338  0.000000  1
  Sn  Sn15  1  0.333333  0.666667  0.822197  1
  Sn  Sn16  1  0.439584  0.219793  0.462778  1
  Sn  Sn17  1  0.219793  0.780207  0.537222  1
  Sn  Sn18  1  0.219793  0.439584  0.537222  1
  Sn  Sn19  1  0.560416  0.780207  0.537222  1
  Sn  Sn20  1  0.120780  0.879220  0.270718  1
  Sn  Sn21  1  0.780207  0.560416  0.462778  1
  Sn  Sn22  1  0.780207  0.219793  0.462778  1
  Sn  Sn23  1  0.348662  0.000000  0.000000  1
  Sn  Sn24  1  0.120780  0.241560  0.270718  1
  Sn  Sn25  1  0.758440  0.879220  0.270718  1
  Sn  Sn26  1  0.241560  0.120780  0.729282  1
  Sn  Sn27  1  0.879220  0.758440  0.729282  1
  Sn  Sn28  1  0.879220  0.120780  0.729282  1
  Sn  Sn29  1  0.000000  0.348662  0.000000  1
  Ru  Ru30  1  0.169268  0.830732  0.796131  1
  Ru  Ru31  1  0.169268  0.338535  0.796131  1
  Ru  Ru32  1  0.661465  0.830732  0.796131  1
  Ru  Ru33  1  0.338535  0.169268  0.203869  1
  Ru  Ru34  1  0.830732  0.661465  0.203869  1
  Ru  Ru35  1  0.830732  0.169268  0.203869  1
