# generated using pymatgen
data_Hf5Ni2P12Ru17
_symmetry_space_group_name_H-M   'P 1'
_cell_length_a   12.29450425
_cell_length_b   12.27707747
_cell_length_c   3.87468300
_cell_angle_alpha   90.00000000
_cell_angle_beta   90.00000000
_cell_angle_gamma   119.33492564
_symmetry_Int_Tables_number   1
_chemical_formula_structural   Hf5Ni2P12Ru17
_chemical_formula_sum   'Hf5 Ni2 P12 Ru17'
_cell_volume   509.85245262
_cell_formula_units_Z   1
loop_
 _symmetry_equiv_pos_site_id
 _symmetry_equiv_pos_as_xyz
  1  'x, y, z'
loop_
 _atom_site_type_symbol
 _atom_site_label
 _atom_site_symmetry_multiplicity
 _atom_site_fract_x
 _atom_site_fract_y
 _atom_site_fract_z
 _atom_site_occupancy
  Hf  Hf0  1  0.002337  0.814273  0.500000  1
  Hf  Hf1  1  0.187803  0.186927  0.500000  1
  Hf  Hf2  1  0.817527  0.003095  0.500000  1
  Hf  Hf3  1  0.667503  0.334821  0.000000  1
  Hf  Hf4  1  0.330538  0.663508  0.000000  1
  Ni  Ni5  1  0.001529  0.000458  0.000000  1
  Ni  Ni6  1  0.631451  0.814279  0.000000  1
  P  P7  1  0.690752  0.524388  0.500000  1
  P  P8  1  0.480884  0.171639  0.500000  1
  P  P9  1  0.826946  0.308652  0.500000  1
  P  P10  1  0.311678  0.827759  0.500000  1
  P  P11  1  0.168159  0.477887  0.500000  1
  P  P12  1  0.829429  0.832171  0.000000  1
  P  P13  1  0.174454  0.001071  0.000000  1
  P  P14  1  0.998280  0.633642  0.000000  1
  P  P15  1  0.367687  0.366804  0.000000  1
  P  P16  1  0.633570  0.997862  0.000000  1
  P  P17  1  0.515573  0.683660  0.500000  1
  P  P18  1  0.001601  0.172404  0.000000  1
  Ru  Ru19  1  0.998592  0.278356  0.500000  1
  Ru  Ru20  1  0.372914  0.182243  0.000000  1
  Ru  Ru21  1  0.809523  0.634390  0.000000  1
  Ru  Ru22  1  0.817485  0.183697  0.000000  1
  Ru  Ru23  1  0.180712  0.367454  0.000000  1
  Ru  Ru24  1  0.186922  0.817042  0.000000  1
  Ru  Ru25  1  0.868877  0.508745  0.500000  1
  Ru  Ru26  1  0.636637  0.127078  0.500000  1
  Ru  Ru27  1  0.494581  0.365465  0.500000  1
  Ru  Ru28  1  0.359175  0.489179  0.500000  1
  Ru  Ru29  1  0.129947  0.637064  0.500000  1
  Ru  Ru30  1  0.513949  0.867141  0.500000  1
  Ru  Ru31  1  0.280038  0.999436  0.500000  1
  Ru  Ru32  1  0.997502  0.444539  0.000000  1
  Ru  Ru33  1  0.552032  0.559324  0.000000  1
  Ru  Ru34  1  0.444538  0.993323  0.000000  1
  Ru  Ru35  1  0.718874  0.730225  0.500000  1
