# generated using pymatgen
data_Rb8Pa2VCrTe12
_symmetry_space_group_name_H-M   'P 1'
_cell_length_a   14.63786587
_cell_length_b   7.04014602
_cell_length_c   9.81800911
_cell_angle_alpha   71.77062381
_cell_angle_beta   90.16269475
_cell_angle_gamma   90.31288274
_symmetry_Int_Tables_number   1
_chemical_formula_structural   Rb8Pa2VCrTe12
_chemical_formula_sum   'Rb8 Pa2 V1 Cr1 Te12'
_cell_volume   960.97841483
_cell_formula_units_Z   1
loop_
 _symmetry_equiv_pos_site_id
 _symmetry_equiv_pos_as_xyz
  1  'x, y, z'
loop_
 _atom_site_type_symbol
 _atom_site_label
 _atom_site_symmetry_multiplicity
 _atom_site_fract_x
 _atom_site_fract_y
 _atom_site_fract_z
 _atom_site_occupancy
  Rb  Rb0  1  0.956775  0.671794  0.657461  1
  Rb  Rb1  1  0.455203  0.830057  0.343278  1
  Rb  Rb2  1  0.044543  0.328789  0.343241  1
  Rb  Rb3  1  0.544327  0.170450  0.657063  1
  Rb  Rb4  1  0.868837  0.083674  0.902858  1
  Rb  Rb5  1  0.367154  0.416745  0.097970  1
  Rb  Rb6  1  0.132632  0.923082  0.100820  1
  Rb  Rb7  1  0.630814  0.574915  0.900141  1
  Pa  Pa8  1  0.749441  0.654610  0.295424  1
  Pa  Pa9  1  0.250307  0.844999  0.705123  1
  V  V10  1  0.249525  0.344472  0.703318  1
  Cr  Cr11  1  0.750458  0.156999  0.292469  1
  Te  Te12  1  0.907898  0.931785  0.283411  1
  Te  Te13  1  0.408822  0.568885  0.720298  1
  Te  Te14  1  0.091400  0.110516  0.722034  1
  Te  Te15  1  0.591631  0.386465  0.280871  1
  Te  Te16  1  0.815875  0.285629  0.518381  1
  Te  Te17  1  0.316061  0.211772  0.478667  1
  Te  Te18  1  0.184618  0.672573  0.479234  1
  Te  Te19  1  0.683489  0.829693  0.517507  1
  Te  Te20  1  0.842808  0.480138  0.087296  1
  Te  Te21  1  0.344791  0.019212  0.912572  1
  Te  Te22  1  0.155645  0.488316  0.911812  1
  Te  Te23  1  0.656944  0.014430  0.088750  1
