# generated using pymatgen
data_Dy7Zr3(Si5Ir2)4
_symmetry_space_group_name_H-M   'P 1'
_cell_length_a   12.58162872
_cell_length_b   12.58162817
_cell_length_c   4.21336100
_cell_angle_alpha   90.00000000
_cell_angle_beta   90.00000000
_cell_angle_gamma   90.07138732
_symmetry_Int_Tables_number   1
_chemical_formula_structural   Dy7Zr3(Si5Ir2)4
_chemical_formula_sum   'Dy7 Zr3 Si20 Ir8'
_cell_volume   666.96346608
_cell_formula_units_Z   1
loop_
 _symmetry_equiv_pos_site_id
 _symmetry_equiv_pos_as_xyz
  1  'x, y, z'
loop_
 _atom_site_type_symbol
 _atom_site_label
 _atom_site_symmetry_multiplicity
 _atom_site_fract_x
 _atom_site_fract_y
 _atom_site_fract_z
 _atom_site_occupancy
  Dy  Dy0  1  0.499765  0.501334  0.000000  1
  Dy  Dy1  1  0.998666  0.000235  0.000000  1
  Dy  Dy2  1  0.824537  0.675463  0.500000  1
  Dy  Dy3  1  0.884349  0.381862  0.500000  1
  Dy  Dy4  1  0.118138  0.615651  0.500000  1
  Dy  Dy5  1  0.384072  0.115928  0.500000  1
  Dy  Dy6  1  0.611621  0.888379  0.500000  1
  Zr  Zr7  1  0.674472  0.175196  0.500000  1
  Zr  Zr8  1  0.324804  0.825528  0.500000  1
  Zr  Zr9  1  0.175228  0.324772  0.500000  1
  Si  Si10  1  0.566026  0.067732  0.000000  1
  Si  Si11  1  0.432268  0.933974  0.000000  1
  Si  Si12  1  0.067567  0.432433  0.000000  1
  Si  Si13  1  0.934655  0.565345  0.000000  1
  Si  Si14  1  0.661919  0.701819  0.000000  1
  Si  Si15  1  0.335018  0.300043  0.000000  1
  Si  Si16  1  0.166009  0.800606  0.000000  1
  Si  Si17  1  0.835221  0.200067  0.000000  1
  Si  Si18  1  0.299933  0.664779  0.000000  1
  Si  Si19  1  0.699394  0.333991  0.000000  1
  Si  Si20  1  0.199957  0.164982  0.000000  1
  Si  Si21  1  0.798181  0.838081  0.000000  1
  Si  Si22  1  0.657183  0.497949  0.500000  1
  Si  Si23  1  0.342911  0.490446  0.500000  1
  Si  Si24  1  0.156731  0.991776  0.500000  1
  Si  Si25  1  0.840268  0.004696  0.500000  1
  Si  Si26  1  0.495304  0.659732  0.500000  1
  Si  Si27  1  0.508224  0.343269  0.500000  1
  Si  Si28  1  0.009554  0.157089  0.500000  1
  Si  Si29  1  0.002051  0.842817  0.500000  1
  Ir  Ir30  1  0.744159  0.519123  0.000000  1
  Ir  Ir31  1  0.254502  0.478916  0.000000  1
  Ir  Ir32  1  0.245257  0.980203  0.000000  1
  Ir  Ir33  1  0.753341  0.023044  0.000000  1
  Ir  Ir34  1  0.476956  0.746659  0.000000  1
  Ir  Ir35  1  0.519797  0.254743  0.000000  1
  Ir  Ir36  1  0.021084  0.245498  0.000000  1
  Ir  Ir37  1  0.980877  0.755841  0.000000  1
