# generated using pymatgen
data_Ba2LaSc3O8
_symmetry_space_group_name_H-M   'P 1'
_cell_length_a   4.13021700
_cell_length_b   24.91729000
_cell_length_c   4.13022700
_cell_angle_alpha   89.99989890
_cell_angle_beta   89.99980579
_cell_angle_gamma   90.00022380
_symmetry_Int_Tables_number   1
_chemical_formula_structural   Ba2LaSc3O8
_chemical_formula_sum   'Ba4 La2 Sc6 O16'
_cell_volume   425.05741636
_cell_formula_units_Z   2
loop_
 _symmetry_equiv_pos_site_id
 _symmetry_equiv_pos_as_xyz
  1  'x, y, z'
loop_
 _atom_site_type_symbol
 _atom_site_label
 _atom_site_symmetry_multiplicity
 _atom_site_fract_x
 _atom_site_fract_y
 _atom_site_fract_z
 _atom_site_occupancy
  Ba  Ba0  1  0.500005  0.077182  0.499999  1
  Ba  Ba1  1  0.500003  0.577187  0.499997  1
  Ba  Ba2  1  0.500006  0.422821  0.499997  1
  Ba  Ba3  1  0.500002  0.922818  0.500007  1
  La  La4  1  0.499996  0.249999  0.499996  1
  La  La5  1  0.500001  0.749999  0.500000  1
  Sc  Sc6  1  0.999995  0.500002  0.999994  1
  Sc  Sc7  1  0.999999  0.667553  0.000003  1
  Sc  Sc8  1  0.000003  0.332449  0.000001  1
  Sc  Sc9  1  0.000002  0.000000  0.999994  1
  Sc  Sc10  1  0.999999  0.167551  0.000003  1
  Sc  Sc11  1  0.999993  0.832447  0.000008  1
  O  O12  1  0.000001  0.999999  0.499997  1
  O  O13  1  0.000004  0.500003  0.499995  1
  O  O14  1  0.500001  0.999999  0.000001  1
  O  O15  1  0.500000  0.500003  0.999998  1
  O  O16  1  0.000000  0.089820  0.999998  1
  O  O17  1  0.000001  0.589822  0.999999  1
  O  O18  1  0.000004  0.410179  0.999996  1
  O  O19  1  0.999995  0.910177  0.000003  1
  O  O20  1  0.500000  0.190041  0.999997  1
  O  O21  1  0.499995  0.690042  0.000007  1
  O  O22  1  0.000001  0.190042  0.499996  1
  O  O23  1  0.999993  0.690043  0.500006  1
  O  O24  1  0.500004  0.309955  0.000001  1
  O  O25  1  0.499995  0.809955  0.000003  1
  O  O26  1  0.000005  0.309955  0.500000  1
  O  O27  1  0.999993  0.809954  0.500004  1
