# generated using pymatgen
data_Dy18Tm2(Bi3Sb)3
_symmetry_space_group_name_H-M   'P 1'
_cell_length_a   8.19747958
_cell_length_b   9.47740204
_cell_length_c   12.02127677
_cell_angle_alpha   90.00971163
_cell_angle_beta   90.05531858
_cell_angle_gamma   90.00548851
_symmetry_Int_Tables_number   1
_chemical_formula_structural   Dy18Tm2(Bi3Sb)3
_chemical_formula_sum   'Dy18 Tm2 Bi9 Sb3'
_cell_volume   933.94227271
_cell_formula_units_Z   1
loop_
 _symmetry_equiv_pos_site_id
 _symmetry_equiv_pos_as_xyz
  1  'x, y, z'
loop_
 _atom_site_type_symbol
 _atom_site_label
 _atom_site_symmetry_multiplicity
 _atom_site_fract_x
 _atom_site_fract_y
 _atom_site_fract_z
 _atom_site_occupancy
  Dy  Dy0  1  0.352450  0.750076  0.213054  1
  Dy  Dy1  1  0.852903  0.749930  0.286439  1
  Dy  Dy2  1  0.647185  0.249986  0.786685  1
  Dy  Dy3  1  0.148022  0.250016  0.716403  1
  Dy  Dy4  1  0.311296  0.062295  0.942813  1
  Dy  Dy5  1  0.808572  0.439978  0.558928  1
  Dy  Dy6  1  0.311215  0.437842  0.942736  1
  Dy  Dy7  1  0.808512  0.059921  0.559014  1
  Dy  Dy8  1  0.689198  0.936872  0.057436  1
  Dy  Dy9  1  0.190555  0.566380  0.442506  1
  Dy  Dy10  1  0.475165  0.249801  0.487833  1
  Dy  Dy11  1  0.972519  0.250207  0.011960  1
  Dy  Dy12  1  0.528105  0.750291  0.512571  1
  Dy  Dy13  1  0.027286  0.749730  0.988079  1
  Dy  Dy14  1  0.318044  0.249987  0.216390  1
  Dy  Dy15  1  0.811453  0.250027  0.278881  1
  Dy  Dy16  1  0.683196  0.749779  0.782219  1
  Dy  Dy17  1  0.183720  0.750196  0.717855  1
  Tm  Tm18  1  0.688929  0.563415  0.057359  1
  Tm  Tm19  1  0.190237  0.933210  0.442561  1
  Bi  Bi20  1  0.092538  0.248567  0.456397  1
  Bi  Bi21  1  0.565385  0.995086  0.325601  1
  Bi  Bi22  1  0.065717  0.504101  0.174373  1
  Bi  Bi23  1  0.433900  0.495572  0.674715  1
  Bi  Bi24  1  0.934019  0.003954  0.825736  1
  Bi  Bi25  1  0.433901  0.004483  0.674507  1
  Bi  Bi26  1  0.933997  0.495994  0.825942  1
  Bi  Bi27  1  0.565716  0.504872  0.325377  1
  Bi  Bi28  1  0.066033  0.995932  0.174585  1
  Sb  Sb29  1  0.407824  0.749435  0.958275  1
  Sb  Sb30  1  0.908626  0.750588  0.541340  1
  Sb  Sb31  1  0.593783  0.251478  0.041427  1
