# generated using pymatgen
data_Li3Co5(P3Ir2)2
_symmetry_space_group_name_H-M   'P 1'
_cell_length_a   3.65786400
_cell_length_b   10.82883600
_cell_length_c   11.95972100
_cell_angle_alpha   90.00000000
_cell_angle_beta   90.00000000
_cell_angle_gamma   90.00000000
_symmetry_Int_Tables_number   1
_chemical_formula_structural   Li3Co5(P3Ir2)2
_chemical_formula_sum   'Li6 Co10 P12 Ir8'
_cell_volume   473.72944472
_cell_formula_units_Z   2
loop_
 _symmetry_equiv_pos_site_id
 _symmetry_equiv_pos_as_xyz
  1  'x, y, z'
loop_
 _atom_site_type_symbol
 _atom_site_label
 _atom_site_symmetry_multiplicity
 _atom_site_fract_x
 _atom_site_fract_y
 _atom_site_fract_z
 _atom_site_occupancy
  Li  Li0  1  0.000000  0.500000  0.520848  1
  Li  Li1  1  0.500000  0.000000  0.479152  1
  Li  Li2  1  0.500000  0.828629  0.198960  1
  Li  Li3  1  0.500000  0.171371  0.198960  1
  Li  Li4  1  0.000000  0.671371  0.801040  1
  Li  Li5  1  0.000000  0.328629  0.801040  1
  Co  Co6  1  0.000000  0.500000  0.983741  1
  Co  Co7  1  0.500000  0.000000  0.016259  1
  Co  Co8  1  0.500000  0.882842  0.716767  1
  Co  Co9  1  0.500000  0.117158  0.716767  1
  Co  Co10  1  0.000000  0.617158  0.283233  1
  Co  Co11  1  0.000000  0.382842  0.283233  1
  Co  Co12  1  0.500000  0.332164  0.988453  1
  Co  Co13  1  0.500000  0.667836  0.988453  1
  Co  Co14  1  0.000000  0.167836  0.011547  1
  Co  Co15  1  0.000000  0.832164  0.011547  1
  P  P16  1  0.500000  0.298849  0.634121  1
  P  P17  1  0.500000  0.701151  0.634121  1
  P  P18  1  0.000000  0.201151  0.365879  1
  P  P19  1  0.000000  0.798849  0.365879  1
  P  P20  1  0.500000  0.500000  0.878976  1
  P  P21  1  0.000000  0.000000  0.121024  1
  P  P22  1  0.500000  0.841291  0.896491  1
  P  P23  1  0.500000  0.158709  0.896491  1
  P  P24  1  0.000000  0.658709  0.103509  1
  P  P25  1  0.000000  0.341291  0.103509  1
  P  P26  1  0.500000  0.500000  0.342968  1
  P  P27  1  0.000000  0.000000  0.657032  1
  Ir  Ir28  1  0.500000  0.312705  0.434492  1
  Ir  Ir29  1  0.500000  0.687295  0.434492  1
  Ir  Ir30  1  0.000000  0.187295  0.565508  1
  Ir  Ir31  1  0.000000  0.812705  0.565508  1
  Ir  Ir32  1  0.500000  0.500000  0.151738  1
  Ir  Ir33  1  0.000000  0.000000  0.848262  1
  Ir  Ir34  1  0.500000  0.500000  0.690499  1
  Ir  Ir35  1  0.000000  0.000000  0.309501  1
