# generated using pymatgen
data_Ce2Ru3W
_symmetry_space_group_name_H-M   'P 1'
_cell_length_a   5.14928062
_cell_length_b   5.14927998
_cell_length_c   5.14927980
_cell_angle_alpha   68.00627687
_cell_angle_beta   68.00628574
_cell_angle_gamma   68.00627968
_symmetry_Int_Tables_number   1
_chemical_formula_structural   Ce2Ru3W
_chemical_formula_sum   'Ce2 Ru3 W1'
_cell_volume   112.94306414
_cell_formula_units_Z   1
loop_
 _symmetry_equiv_pos_site_id
 _symmetry_equiv_pos_as_xyz
  1  'x, y, z'
loop_
 _atom_site_type_symbol
 _atom_site_label
 _atom_site_symmetry_multiplicity
 _atom_site_fract_x
 _atom_site_fract_y
 _atom_site_fract_z
 _atom_site_occupancy
  Ce  Ce0  1  0.626643  0.626643  0.626643  1
  Ce  Ce1  1  0.373357  0.373357  0.373357  1
  Ru  Ru2  1  0.000000  0.500000  0.000000  1
  Ru  Ru3  1  0.500000  0.000000  0.000000  1
  Ru  Ru4  1  0.000000  0.000000  0.500000  1
  W  W5  1  0.000000  0.000000  0.000000  1
