# generated using pymatgen
data_TaNb5SnCl18
_symmetry_space_group_name_H-M   'P 1'
_cell_length_a   10.35599579
_cell_length_b   10.35128571
_cell_length_c   10.35256804
_cell_angle_alpha   55.78103290
_cell_angle_beta   55.79994533
_cell_angle_gamma   55.76629948
_symmetry_Int_Tables_number   1
_chemical_formula_structural   TaNb5SnCl18
_chemical_formula_sum   'Ta1 Nb5 Sn1 Cl18'
_cell_volume   707.97858774
_cell_formula_units_Z   1
loop_
 _symmetry_equiv_pos_site_id
 _symmetry_equiv_pos_as_xyz
  1  'x, y, z'
loop_
 _atom_site_type_symbol
 _atom_site_label
 _atom_site_symmetry_multiplicity
 _atom_site_fract_x
 _atom_site_fract_y
 _atom_site_fract_z
 _atom_site_occupancy
  Ta  Ta0  1  0.411802  0.296840  0.649616  1
  Nb  Nb1  1  0.350296  0.589259  0.702870  1
  Nb  Nb2  1  0.703659  0.350585  0.588239  1
  Nb  Nb3  1  0.296974  0.650501  0.410922  1
  Nb  Nb4  1  0.650132  0.411909  0.296354  1
  Nb  Nb5  1  0.589166  0.704135  0.349398  1
  Sn  Sn6  1  0.997435  0.999281  0.001505  1
  Cl  Cl7  1  0.568435  0.168561  0.441624  1
  Cl  Cl8  1  0.229368  0.368814  0.899305  1
  Cl  Cl9  1  0.900554  0.227781  0.370754  1
  Cl  Cl10  1  0.370378  0.901320  0.228082  1
  Cl  Cl11  1  0.771817  0.629990  0.098857  1
  Cl  Cl12  1  0.099033  0.771171  0.629947  1
  Cl  Cl13  1  0.687855  0.955134  0.168644  1
  Cl  Cl14  1  0.952897  0.168560  0.688006  1
  Cl  Cl15  1  0.169556  0.685758  0.954019  1
  Cl  Cl16  1  0.315460  0.050914  0.826806  1
  Cl  Cl17  1  0.046123  0.828984  0.313884  1
  Cl  Cl18  1  0.829692  0.311806  0.047330  1
  Cl  Cl19  1  0.560235  0.429576  0.831788  1
  Cl  Cl20  1  0.170210  0.437180  0.571439  1
  Cl  Cl21  1  0.439224  0.569478  0.168932  1
  Cl  Cl22  1  0.430105  0.831970  0.560249  1
  Cl  Cl23  1  0.831699  0.560744  0.429955  1
  Cl  Cl24  1  0.627896  0.099751  0.771475  1
