# generated using pymatgen
data_Hf2Zr(Cu2Si3)2
_symmetry_space_group_name_H-M   'P 1'
_cell_length_a   3.71495657
_cell_length_b   3.71495685
_cell_length_c   14.29851601
_cell_angle_alpha   97.46423085
_cell_angle_beta   97.46422883
_cell_angle_gamma   90.00000068
_symmetry_Int_Tables_number   1
_chemical_formula_structural   Hf2Zr(Cu2Si3)2
_chemical_formula_sum   'Hf2 Zr1 Cu4 Si6'
_cell_volume   193.97369472
_cell_formula_units_Z   1
loop_
 _symmetry_equiv_pos_site_id
 _symmetry_equiv_pos_as_xyz
  1  'x, y, z'
loop_
 _atom_site_type_symbol
 _atom_site_label
 _atom_site_symmetry_multiplicity
 _atom_site_fract_x
 _atom_site_fract_y
 _atom_site_fract_z
 _atom_site_occupancy
  Hf  Hf0  1  0.676132  0.676132  0.352265  1
  Hf  Hf1  1  0.323868  0.323868  0.647735  1
  Zr  Zr2  1  0.000000  0.000000  0.000000  1
  Cu  Cu3  1  0.591213  0.091214  0.182427  1
  Cu  Cu4  1  0.091214  0.591213  0.182427  1
  Cu  Cu5  1  0.908786  0.408786  0.817573  1
  Cu  Cu6  1  0.408786  0.908786  0.817573  1
  Si  Si7  1  0.540937  0.540937  0.081876  1
  Si  Si8  1  0.148627  0.148627  0.297254  1
  Si  Si9  1  0.750000  0.250000  0.500000  1
  Si  Si10  1  0.250000  0.750000  0.500000  1
  Si  Si11  1  0.851373  0.851373  0.702746  1
  Si  Si12  1  0.459063  0.459063  0.918124  1
