# generated using pymatgen
data_PrTh(CoC2)2
_symmetry_space_group_name_H-M   'P 1'
_cell_length_a   3.80007781
_cell_length_b   3.80495682
_cell_length_c   7.45204166
_cell_angle_alpha   81.66323333
_cell_angle_beta   81.86098011
_cell_angle_gamma   90.08658940
_symmetry_Int_Tables_number   1
_chemical_formula_structural   PrTh(CoC2)2
_chemical_formula_sum   'Pr1 Th1 Co2 C4'
_cell_volume   105.51088823
_cell_formula_units_Z   1
loop_
 _symmetry_equiv_pos_site_id
 _symmetry_equiv_pos_as_xyz
  1  'x, y, z'
loop_
 _atom_site_type_symbol
 _atom_site_label
 _atom_site_symmetry_multiplicity
 _atom_site_fract_x
 _atom_site_fract_y
 _atom_site_fract_z
 _atom_site_occupancy
  Pr  Pr0  1  0.484524  0.632823  0.806220  1
  Th  Th1  1  0.628678  0.487252  0.304851  1
  Co  Co2  1  0.071963  0.927688  0.499990  1
  Co  Co3  1  0.930612  0.073115  0.003438  1
  C  C4  1  0.413729  0.049604  0.079761  1
  C  C5  1  0.047582  0.407000  0.580153  1
  C  C6  1  0.151334  0.998349  0.233832  1
  C  C7  1  0.999578  0.152168  0.733756  1
