# generated using pymatgen
data_Tb6Er4Sn5Sb
_symmetry_space_group_name_H-M   'P 1'
_cell_length_a   8.97754100
_cell_length_b   8.97167061
_cell_length_c   6.47752800
_cell_angle_alpha   90.00000000
_cell_angle_beta   90.00000000
_cell_angle_gamma   120.02165095
_symmetry_Int_Tables_number   1
_chemical_formula_structural   Tb6Er4Sn5Sb
_chemical_formula_sum   'Tb6 Er4 Sn5 Sb1'
_cell_volume   451.72680005
_cell_formula_units_Z   1
loop_
 _symmetry_equiv_pos_site_id
 _symmetry_equiv_pos_as_xyz
  1  'x, y, z'
loop_
 _atom_site_type_symbol
 _atom_site_label
 _atom_site_symmetry_multiplicity
 _atom_site_fract_x
 _atom_site_fract_y
 _atom_site_fract_z
 _atom_site_occupancy
  Tb  Tb0  1  0.997972  0.759394  0.750000  1
  Tb  Tb1  1  0.000829  0.239876  0.250000  1
  Tb  Tb2  1  0.760954  0.760124  0.250000  1
  Tb  Tb3  1  0.760911  0.000000  0.750000  1
  Tb  Tb4  1  0.238578  0.240606  0.750000  1
  Tb  Tb5  1  0.239975  0.000000  0.250000  1
  Er  Er6  1  0.333170  0.665784  0.499966  1
  Er  Er7  1  0.667387  0.334216  0.000034  1
  Er  Er8  1  0.667387  0.334216  0.499966  1
  Er  Er9  1  0.333170  0.665784  0.000034  1
  Sn  Sn10  1  0.397143  0.396320  0.250000  1
  Sn  Sn11  1  0.000824  0.603680  0.250000  1
  Sn  Sn12  1  0.999718  0.396973  0.750000  1
  Sn  Sn13  1  0.602745  0.603027  0.750000  1
  Sn  Sn14  1  0.604227  0.000000  0.250000  1
  Sb  Sb15  1  0.395010  0.000000  0.750000  1
