# generated using pymatgen
data_Dy3ThNi4
_symmetry_space_group_name_H-M   'P 1'
_cell_length_a   4.33739100
_cell_length_b   5.38683218
_cell_length_c   6.93066704
_cell_angle_alpha   90.96625783
_cell_angle_beta   90.00000000
_cell_angle_gamma   90.00000000
_symmetry_Int_Tables_number   1
_chemical_formula_structural   Dy3ThNi4
_chemical_formula_sum   'Dy3 Th1 Ni4'
_cell_volume   161.91060441
_cell_formula_units_Z   1
loop_
 _symmetry_equiv_pos_site_id
 _symmetry_equiv_pos_as_xyz
  1  'x, y, z'
loop_
 _atom_site_type_symbol
 _atom_site_label
 _atom_site_symmetry_multiplicity
 _atom_site_fract_x
 _atom_site_fract_y
 _atom_site_fract_z
 _atom_site_occupancy
  Dy  Dy0  1  0.000000  0.864364  0.816868  1
  Dy  Dy1  1  0.500000  0.363319  0.684867  1
  Dy  Dy2  1  0.500000  0.135319  0.178937  1
  Th  Th3  1  0.000000  0.633104  0.319339  1
  Ni  Ni4  1  0.000000  0.133311  0.460061  1
  Ni  Ni5  1  0.000000  0.370931  0.964634  1
  Ni  Ni6  1  0.500000  0.865948  0.534379  1
  Ni  Ni7  1  0.500000  0.633703  0.040915  1
