# generated using pymatgen
data_K2Pr3Nd(CuSe4)2
_symmetry_space_group_name_H-M   'P 1'
_cell_length_a   7.55231324
_cell_length_b   7.55231401
_cell_length_c   14.72037807
_cell_angle_alpha   90.01072715
_cell_angle_beta   89.98927366
_cell_angle_gamma   147.36156744
_symmetry_Int_Tables_number   1
_chemical_formula_structural   K2Pr3Nd(CuSe4)2
_chemical_formula_sum   'K2 Pr3 Nd1 Cu2 Se8'
_cell_volume   452.83314272
_cell_formula_units_Z   1
loop_
 _symmetry_equiv_pos_site_id
 _symmetry_equiv_pos_as_xyz
  1  'x, y, z'
loop_
 _atom_site_type_symbol
 _atom_site_label
 _atom_site_symmetry_multiplicity
 _atom_site_fract_x
 _atom_site_fract_y
 _atom_site_fract_z
 _atom_site_occupancy
  K  K0  1  0.109288  0.890712  0.249971  1
  K  K1  1  0.890712  0.109288  0.750027  1
  Pr  Pr2  1  0.634876  0.365124  0.936000  1
  Pr  Pr3  1  0.365079  0.634921  0.435820  1
  Pr  Pr4  1  0.634933  0.365067  0.564088  1
  Nd  Nd5  1  0.364914  0.635086  0.064318  1
  Cu  Cu6  1  0.161033  0.838967  0.749991  1
  Cu  Cu7  1  0.838991  0.161009  0.249960  1
  Se  Se8  1  0.999998  0.000002  0.499994  1
  Se  Se9  1  0.999366  0.000634  0.000302  1
  Se  Se10  1  0.734650  0.265350  0.116140  1
  Se  Se11  1  0.266293  0.733707  0.883950  1
  Se  Se12  1  0.565512  0.434488  0.750025  1
  Se  Se13  1  0.733918  0.266082  0.383568  1
  Se  Se14  1  0.434346  0.565654  0.249407  1
  Se  Se15  1  0.266091  0.733909  0.616437  1
