# generated using pymatgen
data_Hf16Co5RePt2
_symmetry_space_group_name_H-M   'P 1'
_cell_length_a   8.60133469
_cell_length_b   8.55977016
_cell_length_c   8.56173588
_cell_angle_alpha   60.23103283
_cell_angle_beta   60.30823888
_cell_angle_gamma   60.30924665
_symmetry_Int_Tables_number   1
_chemical_formula_structural   Hf16Co5RePt2
_chemical_formula_sum   'Hf16 Co5 Re1 Pt2'
_cell_volume   448.58564567
_cell_formula_units_Z   1
loop_
 _symmetry_equiv_pos_site_id
 _symmetry_equiv_pos_as_xyz
  1  'x, y, z'
loop_
 _atom_site_type_symbol
 _atom_site_label
 _atom_site_symmetry_multiplicity
 _atom_site_fract_x
 _atom_site_fract_y
 _atom_site_fract_z
 _atom_site_occupancy
  Hf  Hf0  1  0.076902  0.640041  0.640029  1
  Hf  Hf1  1  0.645520  0.063157  0.644585  1
  Hf  Hf2  1  0.645522  0.644593  0.063147  1
  Hf  Hf3  1  0.645776  0.645876  0.645869  1
  Hf  Hf4  1  0.807571  0.802653  0.194920  1
  Hf  Hf5  1  0.193804  0.194591  0.804902  1
  Hf  Hf6  1  0.807572  0.194906  0.802666  1
  Hf  Hf7  1  0.193797  0.804898  0.194596  1
  Hf  Hf8  1  0.193839  0.805663  0.805673  1
  Hf  Hf9  1  0.803566  0.197807  0.197820  1
  Hf  Hf10  1  0.435191  0.436955  0.072267  1
  Hf  Hf11  1  0.054177  0.071447  0.437418  1
  Hf  Hf12  1  0.435192  0.072267  0.436950  1
  Hf  Hf13  1  0.054180  0.437425  0.071441  1
  Hf  Hf14  1  0.057482  0.437755  0.437746  1
  Hf  Hf15  1  0.436003  0.063839  0.063838  1
  Co  Co16  1  0.420598  0.409973  0.409975  1
  Co  Co17  1  0.425612  0.858224  0.858221  1
  Co  Co18  1  0.861670  0.430474  0.853659  1
  Co  Co19  1  0.861665  0.853663  0.430476  1
  Co  Co20  1  0.861413  0.853627  0.853628  1
  Re  Re21  1  0.746920  0.416129  0.416121  1
  Pt  Pt22  1  0.418016  0.752018  0.412025  1
  Pt  Pt23  1  0.418011  0.412021  0.752025  1
