# generated using pymatgen
data_Li4Ac3NdSi8
_symmetry_space_group_name_H-M   'P 1'
_cell_length_a   3.97070600
_cell_length_b   7.93695928
_cell_length_c   10.97269486
_cell_angle_alpha   90.14313357
_cell_angle_beta   90.00000000
_cell_angle_gamma   90.00000000
_symmetry_Int_Tables_number   1
_chemical_formula_structural   Li4Ac3NdSi8
_chemical_formula_sum   'Li4 Ac3 Nd1 Si8'
_cell_volume   345.80704047
_cell_formula_units_Z   1
loop_
 _symmetry_equiv_pos_site_id
 _symmetry_equiv_pos_as_xyz
  1  'x, y, z'
loop_
 _atom_site_type_symbol
 _atom_site_label
 _atom_site_symmetry_multiplicity
 _atom_site_fract_x
 _atom_site_fract_y
 _atom_site_fract_z
 _atom_site_occupancy
  Li  Li0  1  0.250000  0.993681  0.389220  1
  Li  Li1  1  0.250000  0.501093  0.113219  1
  Li  Li2  1  0.750000  0.000730  0.606695  1
  Li  Li3  1  0.750000  0.503644  0.888470  1
  Ac  Ac4  1  0.250000  0.142812  0.868245  1
  Ac  Ac5  1  0.250000  0.637088  0.632073  1
  Ac  Ac6  1  0.750000  0.863631  0.134663  1
  Nd  Nd7  1  0.750000  0.364563  0.367415  1
  Si  Si8  1  0.250000  0.219663  0.567926  1
  Si  Si9  1  0.250000  0.718979  0.923817  1
  Si  Si10  1  0.750000  0.769163  0.423585  1
  Si  Si11  1  0.750000  0.288147  0.083303  1
  Si  Si12  1  0.250000  0.660771  0.322948  1
  Si  Si13  1  0.250000  0.177135  0.184410  1
  Si  Si14  1  0.750000  0.327197  0.669616  1
  Si  Si15  1  0.750000  0.831702  0.824395  1
