# generated using pymatgen
data_LaNd2Bi(Mo2O7)2
_symmetry_space_group_name_H-M   'P 1'
_cell_length_a   7.57755675
_cell_length_b   7.50697579
_cell_length_c   7.51669230
_cell_angle_alpha   119.34329600
_cell_angle_beta   120.33467604
_cell_angle_gamma   90.10423228
_symmetry_Int_Tables_number   1
_chemical_formula_structural   LaNd2Bi(Mo2O7)2
_chemical_formula_sum   'La1 Nd2 Bi1 Mo4 O14'
_cell_volume   303.51811396
_cell_formula_units_Z   1
loop_
 _symmetry_equiv_pos_site_id
 _symmetry_equiv_pos_as_xyz
  1  'x, y, z'
loop_
 _atom_site_type_symbol
 _atom_site_label
 _atom_site_symmetry_multiplicity
 _atom_site_fract_x
 _atom_site_fract_y
 _atom_site_fract_z
 _atom_site_occupancy
  La  La0  1  0.375000  0.625000  0.250000  1
  Nd  Nd1  1  0.875000  0.625000  0.250000  1
  Nd  Nd2  1  0.375000  0.125000  0.750000  1
  Bi  Bi3  1  0.375000  0.625000  0.750000  1
  Mo  Mo4  1  0.875000  0.625000  0.750000  1
  Mo  Mo5  1  0.375000  0.125000  0.250000  1
  Mo  Mo6  1  0.875000  0.125000  0.250000  1
  Mo  Mo7  1  0.875000  0.125000  0.750000  1
  O  O8  1  0.782813  0.200994  0.995778  1
  O  O9  1  0.549591  0.460549  0.500375  1
  O  O10  1  0.207033  0.204792  0.997960  1
  O  O11  1  0.955805  0.455929  0.497700  1
  O  O12  1  0.800962  0.797224  0.583744  1
  O  O13  1  0.537398  0.033799  0.084323  1
  O  O14  1  0.248862  0.751444  0.499660  1
  O  O15  1  0.949038  0.452776  0.916256  1
  O  O16  1  0.967187  0.049006  0.504222  1
  O  O17  1  0.542967  0.045208  0.502040  1
  O  O18  1  0.212602  0.216201  0.415677  1
  O  O19  1  0.501138  0.498556  0.000340  1
  O  O20  1  0.794195  0.794071  0.002300  1
  O  O21  1  0.200409  0.789451  0.999625  1
