# generated using pymatgen
data_CaEr3B16
_symmetry_space_group_name_H-M   'P 1'
_cell_length_a   7.09317860
_cell_length_b   7.09317860
_cell_length_c   4.01377700
_cell_angle_alpha   90.00000000
_cell_angle_beta   90.00000000
_cell_angle_gamma   90.14397498
_symmetry_Int_Tables_number   1
_chemical_formula_structural   CaEr3B16
_chemical_formula_sum   'Ca1 Er3 B16'
_cell_volume   201.94525767
_cell_formula_units_Z   1
loop_
 _symmetry_equiv_pos_site_id
 _symmetry_equiv_pos_as_xyz
  1  'x, y, z'
loop_
 _atom_site_type_symbol
 _atom_site_label
 _atom_site_symmetry_multiplicity
 _atom_site_fract_x
 _atom_site_fract_y
 _atom_site_fract_z
 _atom_site_occupancy
  Ca  Ca0  1  0.181107  0.681107  0.000000  1
  Er  Er1  1  0.681710  0.818341  0.000000  1
  Er  Er2  1  0.318341  0.181710  0.000000  1
  Er  Er3  1  0.818868  0.318868  0.000000  1
  B  B4  1  0.324100  0.460792  0.500000  1
  B  B5  1  0.676945  0.537913  0.500000  1
  B  B6  1  0.538784  0.324111  0.500000  1
  B  B7  1  0.462864  0.675869  0.500000  1
  B  B8  1  0.999940  0.999598  0.202706  1
  B  B9  1  0.499598  0.499940  0.797294  1
  B  B10  1  0.999940  0.999598  0.797294  1
  B  B11  1  0.499598  0.499940  0.202706  1
  B  B12  1  0.586998  0.086998  0.500000  1
  B  B13  1  0.086057  0.412749  0.500000  1
  B  B14  1  0.912749  0.586057  0.500000  1
  B  B15  1  0.413714  0.913714  0.500000  1
  B  B16  1  0.037913  0.176945  0.500000  1
  B  B17  1  0.175869  0.962864  0.500000  1
  B  B18  1  0.824111  0.038784  0.500000  1
  B  B19  1  0.960792  0.824100  0.500000  1
