# generated using pymatgen
data_Dy2Ho6Cd2OsPt
_symmetry_space_group_name_H-M   'P 1'
_cell_length_a   9.62980573
_cell_length_b   9.62812025
_cell_length_c   9.68340215
_cell_angle_alpha   59.82140784
_cell_angle_beta   59.80418387
_cell_angle_gamma   59.68379740
_symmetry_Int_Tables_number   1
_chemical_formula_structural   Dy2Ho6Cd2OsPt
_chemical_formula_sum   'Dy4 Ho12 Cd4 Os2 Pt2'
_cell_volume   631.53086820
_cell_formula_units_Z   2
loop_
 _symmetry_equiv_pos_site_id
 _symmetry_equiv_pos_as_xyz
  1  'x, y, z'
loop_
 _atom_site_type_symbol
 _atom_site_label
 _atom_site_symmetry_multiplicity
 _atom_site_fract_x
 _atom_site_fract_y
 _atom_site_fract_z
 _atom_site_occupancy
  Dy  Dy0  1  0.556663  0.938243  0.566792  1
  Dy  Dy1  1  0.938243  0.556662  0.938302  1
  Dy  Dy2  1  0.564109  0.564109  0.935891  1
  Dy  Dy3  1  0.939985  0.939985  0.560014  1
  Ho  Ho4  1  0.349763  0.349740  0.351683  1
  Ho  Ho5  1  0.349740  0.349763  0.948814  1
  Ho  Ho6  1  0.346522  0.954249  0.349634  1
  Ho  Ho7  1  0.954249  0.346522  0.349596  1
  Ho  Ho8  1  0.814619  0.187693  0.190442  1
  Ho  Ho9  1  0.187693  0.814619  0.807246  1
  Ho  Ho10  1  0.187757  0.814582  0.190605  1
  Ho  Ho11  1  0.814582  0.187757  0.807056  1
  Ho  Ho12  1  0.188132  0.188132  0.811868  1
  Ho  Ho13  1  0.808598  0.808598  0.191402  1
  Ho  Ho14  1  0.938584  0.556263  0.566500  1
  Ho  Ho15  1  0.556263  0.938584  0.938654  1
  Cd  Cd16  1  0.580215  0.579944  0.581304  1
  Cd  Cd17  1  0.579944  0.580215  0.258538  1
  Cd  Cd18  1  0.581104  0.255256  0.581920  1
  Cd  Cd19  1  0.255256  0.581104  0.581720  1
  Os  Os20  1  0.144738  0.144385  0.137157  1
  Os  Os21  1  0.144385  0.144738  0.573721  1
  Pt  Pt22  1  0.144350  0.574508  0.140678  1
  Pt  Pt23  1  0.574508  0.144350  0.140466  1
