# generated using pymatgen
data_TbErAl4(PdPt2)2
_symmetry_space_group_name_H-M   'P 1'
_cell_length_a   4.34591900
_cell_length_b   6.50839918
_cell_length_c   7.48795878
_cell_angle_alpha   89.76276624
_cell_angle_beta   90.00000000
_cell_angle_gamma   90.00000000
_symmetry_Int_Tables_number   1
_chemical_formula_structural   TbErAl4(PdPt2)2
_chemical_formula_sum   'Tb1 Er1 Al4 Pd2 Pt4'
_cell_volume   211.79491636
_cell_formula_units_Z   1
loop_
 _symmetry_equiv_pos_site_id
 _symmetry_equiv_pos_as_xyz
  1  'x, y, z'
loop_
 _atom_site_type_symbol
 _atom_site_label
 _atom_site_symmetry_multiplicity
 _atom_site_fract_x
 _atom_site_fract_y
 _atom_site_fract_z
 _atom_site_occupancy
  Tb  Tb0  1  0.750000  0.999345  0.750045  1
  Er  Er1  1  0.250000  0.000679  0.250044  1
  Al  Al2  1  0.250000  0.666001  0.918488  1
  Al  Al3  1  0.750000  0.332822  0.082490  1
  Al  Al4  1  0.750000  0.668392  0.417319  1
  Al  Al5  1  0.250000  0.332820  0.581605  1
  Pd  Pd6  1  0.250000  0.501204  0.250215  1
  Pd  Pd7  1  0.750000  0.498855  0.749753  1
  Pt  Pt8  1  0.250000  0.731393  0.583733  1
  Pt  Pt9  1  0.750000  0.267468  0.414590  1
  Pt  Pt10  1  0.750000  0.733277  0.085215  1
  Pt  Pt11  1  0.250000  0.267745  0.916503  1
