# generated using pymatgen
data_Pr5Zr3(P3Pd4)4
_symmetry_space_group_name_H-M   'P 1'
_cell_length_a   13.23426300
_cell_length_b   13.23426105
_cell_length_c   4.08801100
_cell_angle_alpha   90.00000000
_cell_angle_beta   90.00000000
_cell_angle_gamma   120.00000236
_symmetry_Int_Tables_number   1
_chemical_formula_structural   Pr5Zr3(P3Pd4)4
_chemical_formula_sum   'Pr5 Zr3 P12 Pd16'
_cell_volume   620.07202057
_cell_formula_units_Z   1
loop_
 _symmetry_equiv_pos_site_id
 _symmetry_equiv_pos_as_xyz
  1  'x, y, z'
loop_
 _atom_site_type_symbol
 _atom_site_label
 _atom_site_symmetry_multiplicity
 _atom_site_fract_x
 _atom_site_fract_y
 _atom_site_fract_z
 _atom_site_occupancy
  Pr  Pr0  1  0.189487  0.189487  0.500000  1
  Pr  Pr1  1  0.810513  0.000000  0.500000  1
  Pr  Pr2  1  0.000000  0.810513  0.500000  1
  Pr  Pr3  1  0.333333  0.666667  0.000000  1
  Pr  Pr4  1  0.666667  0.333333  0.000000  1
  Zr  Zr5  1  0.556242  0.556242  0.000000  1
  Zr  Zr6  1  0.443758  0.000000  0.000000  1
  Zr  Zr7  1  0.000000  0.443758  0.000000  1
  P  P8  1  0.824135  0.824135  0.000000  1
  P  P9  1  0.175865  0.000000  0.000000  1
  P  P10  1  0.000000  0.175865  0.000000  1
  P  P11  1  0.163605  0.478965  0.500000  1
  P  P12  1  0.521035  0.684640  0.500000  1
  P  P13  1  0.315360  0.836395  0.500000  1
  P  P14  1  0.684640  0.521035  0.500000  1
  P  P15  1  0.836395  0.315360  0.500000  1
  P  P16  1  0.478965  0.163605  0.500000  1
  P  P17  1  0.361916  0.361916  0.000000  1
  P  P18  1  0.638084  0.000000  0.000000  1
  P  P19  1  0.000000  0.638084  0.000000  1
  Pd  Pd20  1  0.724191  0.724191  0.500000  1
  Pd  Pd21  1  0.275809  0.000000  0.500000  1
  Pd  Pd22  1  0.000000  0.275809  0.500000  1
  Pd  Pd23  1  0.184283  0.375914  0.000000  1
  Pd  Pd24  1  0.624086  0.808369  0.000000  1
  Pd  Pd25  1  0.191631  0.815717  0.000000  1
  Pd  Pd26  1  0.808369  0.624086  0.000000  1
  Pd  Pd27  1  0.815717  0.191631  0.000000  1
  Pd  Pd28  1  0.375914  0.184283  0.000000  1
  Pd  Pd29  1  0.358247  0.488166  0.500000  1
  Pd  Pd30  1  0.511834  0.870080  0.500000  1
  Pd  Pd31  1  0.129920  0.641753  0.500000  1
  Pd  Pd32  1  0.870080  0.511834  0.500000  1
  Pd  Pd33  1  0.641753  0.129920  0.500000  1
  Pd  Pd34  1  0.488166  0.358247  0.500000  1
  Pd  Pd35  1  0.000000  0.000000  0.000000  1
