# generated using pymatgen
data_DyCu3HgRh
_symmetry_space_group_name_H-M   'P 1'
_cell_length_a   5.08112931
_cell_length_b   5.08112872
_cell_length_c   5.22452890
_cell_angle_alpha   60.90387575
_cell_angle_beta   60.90387601
_cell_angle_gamma   60.00000166
_symmetry_Int_Tables_number   1
_chemical_formula_structural   DyCu3HgRh
_chemical_formula_sum   'Dy1 Cu3 Hg1 Rh1'
_cell_volume   96.66133167
_cell_formula_units_Z   1
loop_
 _symmetry_equiv_pos_site_id
 _symmetry_equiv_pos_as_xyz
  1  'x, y, z'
loop_
 _atom_site_type_symbol
 _atom_site_label
 _atom_site_symmetry_multiplicity
 _atom_site_fract_x
 _atom_site_fract_y
 _atom_site_fract_z
 _atom_site_occupancy
  Dy  Dy0  1  0.997441  0.997441  0.007676  1
  Cu  Cu1  1  0.626487  0.127160  0.619868  1
  Cu  Cu2  1  0.127160  0.626487  0.619868  1
  Cu  Cu3  1  0.626487  0.626487  0.619868  1
  Hg  Hg4  1  0.245600  0.245600  0.263199  1
  Rh  Rh5  1  0.626826  0.626826  0.119523  1
