# generated using pymatgen
data_Ta12Al5Pd3N4
_symmetry_space_group_name_H-M   'P 1'
_cell_length_a   7.04162664
_cell_length_b   7.04162676
_cell_length_c   7.04162702
_cell_angle_alpha   90.24281193
_cell_angle_beta   90.24280854
_cell_angle_gamma   90.24281266
_symmetry_Int_Tables_number   1
_chemical_formula_structural   Ta12Al5Pd3N4
_chemical_formula_sum   'Ta12 Al5 Pd3 N4'
_cell_volume   349.14616881
_cell_formula_units_Z   1
loop_
 _symmetry_equiv_pos_site_id
 _symmetry_equiv_pos_as_xyz
  1  'x, y, z'
loop_
 _atom_site_type_symbol
 _atom_site_label
 _atom_site_symmetry_multiplicity
 _atom_site_fract_x
 _atom_site_fract_y
 _atom_site_fract_z
 _atom_site_occupancy
  Ta  Ta0  1  0.787617  0.955803  0.380707  1
  Ta  Ta1  1  0.709227  0.041585  0.871095  1
  Ta  Ta2  1  0.210263  0.455908  0.125183  1
  Ta  Ta3  1  0.292013  0.544178  0.624200  1
  Ta  Ta4  1  0.955803  0.380707  0.787617  1
  Ta  Ta5  1  0.041585  0.871095  0.709227  1
  Ta  Ta6  1  0.455908  0.125183  0.210263  1
  Ta  Ta7  1  0.544178  0.624200  0.292013  1
  Ta  Ta8  1  0.380707  0.787617  0.955803  1
  Ta  Ta9  1  0.871095  0.709227  0.041585  1
  Ta  Ta10  1  0.125183  0.210263  0.455908  1
  Ta  Ta11  1  0.624200  0.292013  0.544178  1
  Al  Al12  1  0.676850  0.676850  0.676850  1
  Al  Al13  1  0.571261  0.420489  0.933428  1
  Al  Al14  1  0.420489  0.933428  0.571261  1
  Al  Al15  1  0.933428  0.571261  0.420489  1
  Al  Al16  1  0.072969  0.072969  0.072969  1
  Pd  Pd17  1  0.177710  0.822893  0.318087  1
  Pd  Pd18  1  0.318087  0.177710  0.822893  1
  Pd  Pd19  1  0.822893  0.318087  0.177710  1
  N  N20  1  0.880455  0.126792  0.625210  1
  N  N21  1  0.625210  0.880455  0.126792  1
  N  N22  1  0.126792  0.625210  0.880455  1
  N  N23  1  0.376079  0.376079  0.376079  1
