# generated using pymatgen
data_YHo9In8(PtRh)2
_symmetry_space_group_name_H-M   'P 1'
_cell_length_a   3.60736500
_cell_length_b   8.11128827
_cell_length_c   18.22775021
_cell_angle_alpha   90.12245826
_cell_angle_beta   90.00000000
_cell_angle_gamma   90.00000000
_symmetry_Int_Tables_number   1
_chemical_formula_structural   YHo9In8(PtRh)2
_chemical_formula_sum   'Y1 Ho9 In8 Pt2 Rh2'
_cell_volume   533.34963244
_cell_formula_units_Z   1
loop_
 _symmetry_equiv_pos_site_id
 _symmetry_equiv_pos_as_xyz
  1  'x, y, z'
loop_
 _atom_site_type_symbol
 _atom_site_label
 _atom_site_symmetry_multiplicity
 _atom_site_fract_x
 _atom_site_fract_y
 _atom_site_fract_z
 _atom_site_occupancy
  Y  Y0  1  0.000000  0.500000  0.500000  1
  Ho  Ho1  1  0.000000  0.115426  0.412071  1
  Ho  Ho2  1  0.000000  0.884574  0.587929  1
  Ho  Ho3  1  0.000000  0.383004  0.914232  1
  Ho  Ho4  1  0.000000  0.616996  0.085768  1
  Ho  Ho5  1  0.000000  0.239046  0.221216  1
  Ho  Ho6  1  0.000000  0.760954  0.778784  1
  Ho  Ho7  1  0.000000  0.250958  0.720138  1
  Ho  Ho8  1  0.000000  0.749042  0.279862  1
  Ho  Ho9  1  0.000000  0.000000  0.000000  1
  In  In10  1  0.500000  0.423194  0.350891  1
  In  In11  1  0.500000  0.576806  0.649109  1
  In  In12  1  0.500000  0.074018  0.850106  1
  In  In13  1  0.500000  0.925982  0.149894  1
  In  In14  1  0.500000  0.292049  0.066494  1
  In  In15  1  0.500000  0.707951  0.933506  1
  In  In16  1  0.500000  0.205969  0.567658  1
  In  In17  1  0.500000  0.794031  0.432342  1
  Pt  Pt18  1  0.500000  0.476561  0.803373  1
  Pt  Pt19  1  0.500000  0.523439  0.196627  1
  Rh  Rh20  1  0.500000  0.022851  0.304356  1
  Rh  Rh21  1  0.500000  0.977149  0.695644  1
