# generated using pymatgen
data_Tb7Lu(Sc3Ga4)4
_symmetry_space_group_name_H-M   'P 1'
_cell_length_a   7.28546912
_cell_length_b   7.56215927
_cell_length_c   14.48061662
_cell_angle_alpha   89.93388376
_cell_angle_beta   89.98171085
_cell_angle_gamma   89.99048740
_symmetry_Int_Tables_number   1
_chemical_formula_structural   Tb7Lu(Sc3Ga4)4
_chemical_formula_sum   'Tb7 Lu1 Sc12 Ga16'
_cell_volume   797.79274031
_cell_formula_units_Z   1
loop_
 _symmetry_equiv_pos_site_id
 _symmetry_equiv_pos_as_xyz
  1  'x, y, z'
loop_
 _atom_site_type_symbol
 _atom_site_label
 _atom_site_symmetry_multiplicity
 _atom_site_fract_x
 _atom_site_fract_y
 _atom_site_fract_z
 _atom_site_occupancy
  Tb  Tb0  1  0.988303  0.821462  0.906110  1
  Tb  Tb1  1  0.488252  0.678496  0.905246  1
  Tb  Tb2  1  0.988828  0.821179  0.595041  1
  Tb  Tb3  1  0.511197  0.320423  0.095034  1
  Tb  Tb4  1  0.011612  0.178701  0.405291  1
  Tb  Tb5  1  0.511426  0.321268  0.404465  1
  Tb  Tb6  1  0.488672  0.678804  0.595065  1
  Lu  Lu7  1  0.011058  0.180739  0.095758  1
  Sc  Sc8  1  0.161815  0.501697  0.750130  1
  Sc  Sc9  1  0.838125  0.496904  0.249368  1
  Sc  Sc10  1  0.337409  0.002849  0.249406  1
  Sc  Sc11  1  0.662409  0.997746  0.750053  1
  Sc  Sc12  1  0.330337  0.173324  0.624380  1
  Sc  Sc13  1  0.670007  0.827042  0.375071  1
  Sc  Sc14  1  0.169784  0.672995  0.374817  1
  Sc  Sc15  1  0.671407  0.827354  0.124100  1
  Sc  Sc16  1  0.829858  0.327216  0.624463  1
  Sc  Sc17  1  0.329860  0.173338  0.875651  1
  Sc  Sc18  1  0.830628  0.326536  0.876112  1
  Sc  Sc19  1  0.169525  0.673326  0.124477  1
  Ga  Ga20  1  0.030783  0.118065  0.750092  1
  Ga  Ga21  1  0.969463  0.883114  0.249558  1
  Ga  Ga22  1  0.469140  0.618071  0.249597  1
  Ga  Ga23  1  0.530976  0.381856  0.749996  1
  Ga  Ga24  1  0.283854  0.872678  0.750309  1
  Ga  Ga25  1  0.717749  0.127898  0.249014  1
  Ga  Ga26  1  0.215096  0.371763  0.249224  1
  Ga  Ga27  1  0.783870  0.627264  0.750116  1
  Ga  Ga28  1  0.160938  0.464671  0.540224  1
  Ga  Ga29  1  0.839090  0.535790  0.459271  1
  Ga  Ga30  1  0.339070  0.964565  0.459600  1
  Ga  Ga31  1  0.839557  0.532761  0.041282  1
  Ga  Ga32  1  0.661405  0.035505  0.540155  1
  Ga  Ga33  1  0.160890  0.462914  0.960607  1
  Ga  Ga34  1  0.661228  0.035316  0.959789  1
  Ga  Ga35  1  0.336380  0.966369  0.041128  1
