# generated using pymatgen
data_GaSn4B2IrRh5
_symmetry_space_group_name_H-M   'P 1'
_cell_length_a   6.62207331
_cell_length_b   6.53465476
_cell_length_c   5.62323342
_cell_angle_alpha   89.98789566
_cell_angle_beta   90.11565093
_cell_angle_gamma   119.44021804
_symmetry_Int_Tables_number   1
_chemical_formula_structural   GaSn4B2IrRh5
_chemical_formula_sum   'Ga1 Sn4 B2 Ir1 Rh5'
_cell_volume   211.91149842
_cell_formula_units_Z   1
loop_
 _symmetry_equiv_pos_site_id
 _symmetry_equiv_pos_as_xyz
  1  'x, y, z'
loop_
 _atom_site_type_symbol
 _atom_site_label
 _atom_site_symmetry_multiplicity
 _atom_site_fract_x
 _atom_site_fract_y
 _atom_site_fract_z
 _atom_site_occupancy
  Ga  Ga0  1  0.999895  0.597852  0.998521  1
  Sn  Sn1  1  0.669114  0.333213  0.501711  1
  Sn  Sn2  1  0.401261  0.404416  0.999979  1
  Sn  Sn3  1  0.597863  0.004749  0.000004  1
  Sn  Sn4  1  0.330583  0.664949  0.501569  1
  B  B5  1  0.998227  0.000853  0.500652  1
  B  B6  1  0.999311  0.994053  0.999141  1
  Ir  Ir7  1  0.751152  0.745978  0.746398  1
  Rh  Rh8  1  0.001310  0.259909  0.747765  1
  Rh  Rh9  1  0.000177  0.258141  0.251685  1
  Rh  Rh10  1  0.748845  0.744276  0.253391  1
  Rh  Rh11  1  0.252443  0.996389  0.746404  1
  Rh  Rh12  1  0.249819  0.995225  0.252780  1
