# generated using pymatgen
data_La3Dy2Bi3O14
_symmetry_space_group_name_H-M   'P 1'
_cell_length_a   6.72798230
_cell_length_b   6.81704158
_cell_length_c   7.90663823
_cell_angle_alpha   106.60522198
_cell_angle_beta   89.71451844
_cell_angle_gamma   98.61775532
_symmetry_Int_Tables_number   1
_chemical_formula_structural   La3Dy2Bi3O14
_chemical_formula_sum   'La3 Dy2 Bi3 O14'
_cell_volume   343.31666831
_cell_formula_units_Z   1
loop_
 _symmetry_equiv_pos_site_id
 _symmetry_equiv_pos_as_xyz
  1  'x, y, z'
loop_
 _atom_site_type_symbol
 _atom_site_label
 _atom_site_symmetry_multiplicity
 _atom_site_fract_x
 _atom_site_fract_y
 _atom_site_fract_z
 _atom_site_occupancy
  La  La0  1  0.268741  0.532982  0.882519  1
  La  La1  1  0.742047  0.460235  0.115999  1
  La  La2  1  0.752990  0.484266  0.618428  1
  Dy  Dy3  1  0.457965  0.009697  0.256440  1
  Dy  Dy4  1  0.537043  0.999935  0.748207  1
  Bi  Bi5  1  0.993964  0.998772  0.499513  1
  Bi  Bi6  1  0.998757  0.995896  0.997814  1
  Bi  Bi7  1  0.288105  0.542073  0.390216  1
  O  O8  1  0.446347  0.662181  0.178937  1
  O  O9  1  0.557744  0.345512  0.832457  1
  O  O10  1  0.302215  0.935919  0.952725  1
  O  O11  1  0.696581  0.058100  0.049371  1
  O  O12  1  0.296170  0.936221  0.518050  1
  O  O13  1  0.697327  0.071858  0.486468  1
  O  O14  1  0.536304  0.354572  0.342033  1
  O  O15  1  0.462186  0.650902  0.652242  1
  O  O16  1  0.926810  0.665993  0.941952  1
  O  O17  1  0.069380  0.318148  0.033152  1
  O  O18  1  0.070572  0.328105  0.620707  1
  O  O19  1  0.910730  0.670413  0.388254  1
  O  O20  1  0.872700  0.919574  0.730127  1
  O  O21  1  0.115322  0.058645  0.264390  1
