# generated using pymatgen
data_Hf6Zn17AsAu6
_symmetry_space_group_name_H-M   'P 1'
_cell_length_a   8.84342230
_cell_length_b   8.85203316
_cell_length_c   8.85211800
_cell_angle_alpha   59.99987729
_cell_angle_beta   59.96756477
_cell_angle_gamma   59.96700316
_symmetry_Int_Tables_number   1
_chemical_formula_structural   Hf6Zn17AsAu6
_chemical_formula_sum   'Hf6 Zn17 As1 Au6'
_cell_volume   489.75655107
_cell_formula_units_Z   1
loop_
 _symmetry_equiv_pos_site_id
 _symmetry_equiv_pos_as_xyz
  1  'x, y, z'
loop_
 _atom_site_type_symbol
 _atom_site_label
 _atom_site_symmetry_multiplicity
 _atom_site_fract_x
 _atom_site_fract_y
 _atom_site_fract_z
 _atom_site_occupancy
  Hf  Hf0  1  0.712913  0.290103  0.290086  1
  Hf  Hf1  1  0.287122  0.709884  0.709885  1
  Hf  Hf2  1  0.287107  0.709900  0.293113  1
  Hf  Hf3  1  0.712893  0.290114  0.706899  1
  Hf  Hf4  1  0.287091  0.293114  0.709906  1
  Hf  Hf5  1  0.712881  0.706898  0.290113  1
  Zn  Zn6  1  0.631832  0.122709  0.122721  1
  Zn  Zn7  1  0.368170  0.877263  0.877275  1
  Zn  Zn8  1  0.500003  0.999996  0.000006  1
  Zn  Zn9  1  0.999996  0.500004  0.499997  1
  Zn  Zn10  1  0.000004  0.500008  0.999995  1
  Zn  Zn11  1  0.499998  0.999987  0.500002  1
  Zn  Zn12  1  0.000010  0.999991  0.500004  1
  Zn  Zn13  1  0.499994  0.500007  0.999992  1
  Zn  Zn14  1  0.339433  0.336198  0.336193  1
  Zn  Zn15  1  0.660548  0.663805  0.663800  1
  Zn  Zn16  1  0.339440  0.336203  0.988163  1
  Zn  Zn17  1  0.339447  0.988153  0.336203  1
  Zn  Zn18  1  0.660557  0.663812  0.011830  1
  Zn  Zn19  1  0.660561  0.011821  0.663813  1
  Zn  Zn20  1  0.990274  0.336582  0.336575  1
  Zn  Zn21  1  0.009736  0.663427  0.663422  1
  Zn  Zn22  1  0.000000  0.999999  0.000000  1
  As  As23  1  0.499974  0.500056  0.500012  1
  Au  Au24  1  0.125663  0.118555  0.118562  1
  Au  Au25  1  0.874347  0.881431  0.881437  1
  Au  Au26  1  0.125661  0.118554  0.637216  1
  Au  Au27  1  0.125663  0.637210  0.118559  1
  Au  Au28  1  0.874344  0.881429  0.362783  1
  Au  Au29  1  0.874339  0.362785  0.881434  1
