# generated using pymatgen
data_YAs4(Ru2Rh)2
_symmetry_space_group_name_H-M   'P 1'
_cell_length_a   7.16820930
_cell_length_b   7.19381987
_cell_length_c   3.87590000
_cell_angle_alpha   90.00000000
_cell_angle_beta   90.00000000
_cell_angle_gamma   120.11825382
_symmetry_Int_Tables_number   1
_chemical_formula_structural   YAs4(Ru2Rh)2
_chemical_formula_sum   'Y1 As4 Ru4 Rh2'
_cell_volume   172.88395551
_cell_formula_units_Z   1
loop_
 _symmetry_equiv_pos_site_id
 _symmetry_equiv_pos_as_xyz
  1  'x, y, z'
loop_
 _atom_site_type_symbol
 _atom_site_label
 _atom_site_symmetry_multiplicity
 _atom_site_fract_x
 _atom_site_fract_y
 _atom_site_fract_z
 _atom_site_occupancy
  Y  Y0  1  0.331174  0.665587  0.000000  1
  As  As1  1  0.671610  0.335805  0.000000  1
  As  As2  1  0.721023  0.860512  0.500000  1
  As  As3  1  0.138578  0.281672  0.500000  1
  As  As4  1  0.138578  0.856908  0.500000  1
  Ru  Ru5  1  0.266939  0.133469  0.000000  1
  Ru  Ru6  1  0.867591  0.735827  0.000000  1
  Ru  Ru7  1  0.867591  0.131763  0.000000  1
  Ru  Ru8  1  0.933568  0.466784  0.500000  1
  Rh  Rh9  1  0.531674  0.061561  0.500000  1
  Rh  Rh10  1  0.531674  0.470113  0.500000  1
