# generated using pymatgen
data_Tb2Ce2As3O4
_symmetry_space_group_name_H-M   'P 1'
_cell_length_a   6.75176102
_cell_length_b   6.75175996
_cell_length_c   7.94320700
_cell_angle_alpha   90.00079104
_cell_angle_beta   89.99920852
_cell_angle_gamma   145.74520368
_symmetry_Int_Tables_number   1
_chemical_formula_structural   Tb2Ce2As3O4
_chemical_formula_sum   'Tb2 Ce2 As3 O4'
_cell_volume   203.81738131
_cell_formula_units_Z   1
loop_
 _symmetry_equiv_pos_site_id
 _symmetry_equiv_pos_as_xyz
  1  'x, y, z'
loop_
 _atom_site_type_symbol
 _atom_site_label
 _atom_site_symmetry_multiplicity
 _atom_site_fract_x
 _atom_site_fract_y
 _atom_site_fract_z
 _atom_site_occupancy
  Tb  Tb0  1  0.315519  0.684481  0.239272  1
  Tb  Tb1  1  0.315502  0.684498  0.760734  1
  Ce  Ce2  1  0.988396  0.011604  0.500007  1
  Ce  Ce3  1  0.003170  0.996830  0.999981  1
  As  As4  1  0.636977  0.363023  0.678245  1
  As  As5  1  0.636992  0.363008  0.321758  1
  As  As6  1  0.684792  0.315208  0.000003  1
  O  O7  1  0.414635  0.585365  0.999994  1
  O  O8  1  0.907298  0.092702  0.753934  1
  O  O9  1  0.907319  0.092681  0.246067  1
  O  O10  1  0.387293  0.612707  0.500005  1
