# generated using pymatgen
data_Ce2Sn5Hg
_symmetry_space_group_name_H-M   'P 1'
_cell_length_a   4.72945500
_cell_length_b   4.67700400
_cell_length_c   9.47137500
_cell_angle_alpha   90.00000000
_cell_angle_beta   90.00000000
_cell_angle_gamma   90.00000000
_symmetry_Int_Tables_number   1
_chemical_formula_structural   Ce2Sn5Hg
_chemical_formula_sum   'Ce2 Sn5 Hg1'
_cell_volume   209.50378371
_cell_formula_units_Z   1
loop_
 _symmetry_equiv_pos_site_id
 _symmetry_equiv_pos_as_xyz
  1  'x, y, z'
loop_
 _atom_site_type_symbol
 _atom_site_label
 _atom_site_symmetry_multiplicity
 _atom_site_fract_x
 _atom_site_fract_y
 _atom_site_fract_z
 _atom_site_occupancy
  Ce  Ce0  1  0.000000  0.000000  0.255169  1
  Ce  Ce1  1  0.000000  0.000000  0.744831  1
  Sn  Sn2  1  0.500000  0.500000  0.247144  1
  Sn  Sn3  1  0.500000  0.500000  0.752856  1
  Sn  Sn4  1  0.000000  0.500000  0.500000  1
  Sn  Sn5  1  0.000000  0.500000  0.000000  1
  Sn  Sn6  1  0.500000  0.000000  0.500000  1
  Hg  Hg7  1  0.500000  0.000000  0.000000  1
