# generated using pymatgen
data_KCe(NdB12)2
_symmetry_space_group_name_H-M   'P 1'
_cell_length_a   7.16774885
_cell_length_b   7.16774964
_cell_length_c   5.88924700
_cell_angle_alpha   90.00000000
_cell_angle_beta   90.00000000
_cell_angle_gamma   109.25195666
_symmetry_Int_Tables_number   1
_chemical_formula_structural   KCe(NdB12)2
_chemical_formula_sum   'K1 Ce1 Nd2 B24'
_cell_volume   285.64928708
_cell_formula_units_Z   1
loop_
 _symmetry_equiv_pos_site_id
 _symmetry_equiv_pos_as_xyz
  1  'x, y, z'
loop_
 _atom_site_type_symbol
 _atom_site_label
 _atom_site_symmetry_multiplicity
 _atom_site_fract_x
 _atom_site_fract_y
 _atom_site_fract_z
 _atom_site_occupancy
  K  K0  1  0.000000  0.000000  0.000000  1
  Ce  Ce1  1  0.500000  0.500000  0.000000  1
  Nd  Nd2  1  0.752000  0.248000  0.500000  1
  Nd  Nd3  1  0.248000  0.752000  0.500000  1
  B  B4  1  0.176412  0.325946  0.649975  1
  B  B5  1  0.923572  0.574368  0.148552  1
  B  B6  1  0.674054  0.823588  0.649975  1
  B  B7  1  0.425632  0.076428  0.148552  1
  B  B8  1  0.176412  0.325946  0.350025  1
  B  B9  1  0.923572  0.574368  0.851448  1
  B  B10  1  0.674054  0.823588  0.350025  1
  B  B11  1  0.425632  0.076428  0.851448  1
  B  B12  1  0.400408  0.400408  0.500000  1
  B  B13  1  0.148595  0.650946  0.000000  1
  B  B14  1  0.898905  0.898905  0.500000  1
  B  B15  1  0.650946  0.148595  0.000000  1
  B  B16  1  0.325946  0.176412  0.649975  1
  B  B17  1  0.076428  0.425632  0.148552  1
  B  B18  1  0.823588  0.674054  0.649975  1
  B  B19  1  0.574368  0.923572  0.148552  1
  B  B20  1  0.101095  0.101095  0.500000  1
  B  B21  1  0.851405  0.349054  0.000000  1
  B  B22  1  0.599592  0.599592  0.500000  1
  B  B23  1  0.349054  0.851405  0.000000  1
  B  B24  1  0.325946  0.176412  0.350025  1
  B  B25  1  0.076428  0.425632  0.851448  1
  B  B26  1  0.823588  0.674054  0.350025  1
  B  B27  1  0.574368  0.923572  0.851448  1
