# generated using pymatgen
data_Dy5Tm11MgIn3Rh4
_symmetry_space_group_name_H-M   'P 1'
_cell_length_a   9.57481534
_cell_length_b   9.56608075
_cell_length_c   9.56607918
_cell_angle_alpha   60.09460964
_cell_angle_beta   59.98818042
_cell_angle_gamma   59.98818086
_symmetry_Int_Tables_number   1
_chemical_formula_structural   Dy5Tm11MgIn3Rh4
_chemical_formula_sum   'Dy5 Tm11 Mg1 In3 Rh4'
_cell_volume   619.89090748
_cell_formula_units_Z   1
loop_
 _symmetry_equiv_pos_site_id
 _symmetry_equiv_pos_as_xyz
  1  'x, y, z'
loop_
 _atom_site_type_symbol
 _atom_site_label
 _atom_site_symmetry_multiplicity
 _atom_site_fract_x
 _atom_site_fract_y
 _atom_site_fract_z
 _atom_site_occupancy
  Dy  Dy0  1  0.061238  0.061323  0.438084  1
  Dy  Dy1  1  0.435544  0.064508  0.435118  1
  Dy  Dy2  1  0.061238  0.438084  0.061323  1
  Dy  Dy3  1  0.049017  0.649624  0.649624  1
  Dy  Dy4  1  0.435544  0.435118  0.064508  1
  Tm  Tm5  1  0.649777  0.047024  0.650143  1
  Tm  Tm6  1  0.186832  0.813890  0.186507  1
  Tm  Tm7  1  0.186832  0.186507  0.813890  1
  Tm  Tm8  1  0.809989  0.810164  0.190466  1
  Tm  Tm9  1  0.439665  0.059677  0.059677  1
  Tm  Tm10  1  0.813865  0.186751  0.186751  1
  Tm  Tm11  1  0.062445  0.436908  0.436908  1
  Tm  Tm12  1  0.809989  0.190466  0.810164  1
  Tm  Tm13  1  0.190265  0.810723  0.810723  1
  Tm  Tm14  1  0.649777  0.650143  0.047024  1
  Tm  Tm15  1  0.651426  0.652349  0.652349  1
  Mg  Mg16  1  0.423532  0.422735  0.422735  1
  In  In17  1  0.747825  0.418079  0.418079  1
  In  In18  1  0.418775  0.747820  0.417104  1
  In  In19  1  0.418775  0.417104  0.747820  1
  Rh  Rh20  1  0.858022  0.858560  0.425488  1
  Rh  Rh21  1  0.855556  0.858005  0.858005  1
  Rh  Rh22  1  0.426054  0.858951  0.858951  1
  Rh  Rh23  1  0.858022  0.425488  0.858560  1
