# generated using pymatgen
data_TbDy2(TmSb4)5
_symmetry_space_group_name_H-M   'P 1'
_cell_length_a   4.21176500
_cell_length_b   13.18037320
_cell_length_c   14.58328449
_cell_angle_alpha   78.39112306
_cell_angle_beta   90.00000000
_cell_angle_gamma   90.00000000
_symmetry_Int_Tables_number   1
_chemical_formula_structural   TbDy2(TmSb4)5
_chemical_formula_sum   'Tb1 Dy2 Tm5 Sb20'
_cell_volume   792.99632219
_cell_formula_units_Z   1
loop_
 _symmetry_equiv_pos_site_id
 _symmetry_equiv_pos_as_xyz
  1  'x, y, z'
loop_
 _atom_site_type_symbol
 _atom_site_label
 _atom_site_symmetry_multiplicity
 _atom_site_fract_x
 _atom_site_fract_y
 _atom_site_fract_z
 _atom_site_occupancy
  Tb  Tb0  1  0.250000  0.953263  0.358399  1
  Dy  Dy1  1  0.750000  0.331639  0.423979  1
  Dy  Dy2  1  0.750000  0.046193  0.641402  1
  Tm  Tm3  1  0.250000  0.395694  0.771117  1
  Tm  Tm4  1  0.750000  0.604694  0.229191  1
  Tm  Tm5  1  0.250000  0.661466  0.856094  1
  Tm  Tm6  1  0.750000  0.338583  0.143374  1
  Tm  Tm7  1  0.250000  0.668719  0.576474  1
  Sb  Sb8  1  0.250000  0.144809  0.778968  1
  Sb  Sb9  1  0.750000  0.854804  0.220655  1
  Sb  Sb10  1  0.250000  0.143694  0.482579  1
  Sb  Sb11  1  0.750000  0.854357  0.518050  1
  Sb  Sb12  1  0.250000  0.154001  0.169886  1
  Sb  Sb13  1  0.750000  0.846159  0.829896  1
  Sb  Sb14  1  0.250000  0.420811  0.975485  1
  Sb  Sb15  1  0.750000  0.579359  0.024478  1
  Sb  Sb16  1  0.750000  0.028622  0.910153  1
  Sb  Sb17  1  0.250000  0.971292  0.089951  1
  Sb  Sb18  1  0.750000  0.140645  0.321331  1
  Sb  Sb19  1  0.250000  0.859155  0.678230  1
  Sb  Sb20  1  0.750000  0.279599  0.936729  1
  Sb  Sb21  1  0.250000  0.720400  0.063317  1
  Sb  Sb22  1  0.750000  0.286084  0.653745  1
  Sb  Sb23  1  0.250000  0.713905  0.346876  1
  Sb  Sb24  1  0.750000  0.576662  0.734586  1
  Sb  Sb25  1  0.250000  0.424334  0.263977  1
  Sb  Sb26  1  0.750000  0.572208  0.447319  1
  Sb  Sb27  1  0.250000  0.428846  0.553758  1
