# generated using pymatgen
data_BaSrCd(IO)2
_symmetry_space_group_name_H-M   'P 1'
_cell_length_a   6.70072728
_cell_length_b   6.70072692
_cell_length_c   8.63707635
_cell_angle_alpha   120.16166364
_cell_angle_beta   120.16165940
_cell_angle_gamma   37.72939918
_symmetry_Int_Tables_number   1
_chemical_formula_structural   BaSrCd(IO)2
_chemical_formula_sum   'Ba1 Sr1 Cd1 I2 O2'
_cell_volume   201.09468083
_cell_formula_units_Z   1
loop_
 _symmetry_equiv_pos_site_id
 _symmetry_equiv_pos_as_xyz
  1  'x, y, z'
loop_
 _atom_site_type_symbol
 _atom_site_label
 _atom_site_symmetry_multiplicity
 _atom_site_fract_x
 _atom_site_fract_y
 _atom_site_fract_z
 _atom_site_occupancy
  Ba  Ba0  1  0.200574  0.200574  0.778209  1
  Sr  Sr1  1  0.791813  0.791813  0.202164  1
  Cd  Cd2  1  0.002991  0.002991  0.006771  1
  I  I3  1  0.568200  0.568200  0.341504  1
  I  I4  1  0.429338  0.429338  0.652728  1
  O  O5  1  0.187032  0.187032  0.074493  1
  O  O6  1  0.820049  0.820049  0.944131  1
