# generated using pymatgen
data_Ho3ScHg5
_symmetry_space_group_name_H-M   'P 1'
_cell_length_a   8.17927906
_cell_length_b   8.17927947
_cell_length_c   8.17927698
_cell_angle_alpha   66.57777674
_cell_angle_beta   66.57778541
_cell_angle_gamma   66.57776821
_symmetry_Int_Tables_number   1
_chemical_formula_structural   Ho3ScHg5
_chemical_formula_sum   'Ho6 Sc2 Hg10'
_cell_volume   441.70511902
_cell_formula_units_Z   2
loop_
 _symmetry_equiv_pos_site_id
 _symmetry_equiv_pos_as_xyz
  1  'x, y, z'
loop_
 _atom_site_type_symbol
 _atom_site_label
 _atom_site_symmetry_multiplicity
 _atom_site_fract_x
 _atom_site_fract_y
 _atom_site_fract_z
 _atom_site_occupancy
  Ho  Ho0  1  0.890593  0.187211  0.619702  1
  Ho  Ho1  1  0.619702  0.890593  0.187211  1
  Ho  Ho2  1  0.187211  0.619702  0.890593  1
  Ho  Ho3  1  0.109407  0.812789  0.380298  1
  Ho  Ho4  1  0.380298  0.109407  0.812789  1
  Ho  Ho5  1  0.812789  0.380298  0.109407  1
  Sc  Sc6  1  0.658649  0.658649  0.658649  1
  Sc  Sc7  1  0.341351  0.341351  0.341351  1
  Hg  Hg8  1  0.000000  0.000000  0.000000  1
  Hg  Hg9  1  0.500000  0.500000  0.500000  1
  Hg  Hg10  1  0.809641  0.809641  0.809641  1
  Hg  Hg11  1  0.190359  0.190359  0.190359  1
  Hg  Hg12  1  0.939784  0.555903  0.314098  1
  Hg  Hg13  1  0.314098  0.939784  0.555903  1
  Hg  Hg14  1  0.555903  0.314098  0.939784  1
  Hg  Hg15  1  0.060216  0.444097  0.685902  1
  Hg  Hg16  1  0.685902  0.060216  0.444097  1
  Hg  Hg17  1  0.444097  0.685902  0.060216  1
