# generated using pymatgen
data_LiMg3(Nb2N3)4
_symmetry_space_group_name_H-M   'P 1'
_cell_length_a   5.27786700
_cell_length_b   5.27786684
_cell_length_c   10.46217100
_cell_angle_alpha   90.00000000
_cell_angle_beta   90.00000000
_cell_angle_gamma   119.99999476
_symmetry_Int_Tables_number   1
_chemical_formula_structural   LiMg3(Nb2N3)4
_chemical_formula_sum   'Li1 Mg3 Nb8 N12'
_cell_volume   252.38837027
_cell_formula_units_Z   1
loop_
 _symmetry_equiv_pos_site_id
 _symmetry_equiv_pos_as_xyz
  1  'x, y, z'
loop_
 _atom_site_type_symbol
 _atom_site_label
 _atom_site_symmetry_multiplicity
 _atom_site_fract_x
 _atom_site_fract_y
 _atom_site_fract_z
 _atom_site_occupancy
  Li  Li0  1  0.333333  0.666667  0.000000  1
  Mg  Mg1  1  0.333333  0.666667  0.500000  1
  Mg  Mg2  1  0.666667  0.333333  0.500000  1
  Mg  Mg3  1  0.666667  0.333333  0.000000  1
  Nb  Nb4  1  0.001978  0.340039  0.248846  1
  Nb  Nb5  1  0.659961  0.998022  0.751154  1
  Nb  Nb6  1  0.338061  0.340039  0.751154  1
  Nb  Nb7  1  0.000000  0.000000  0.500000  1
  Nb  Nb8  1  0.000000  0.000000  0.000000  1
  Nb  Nb9  1  0.659961  0.661939  0.248846  1
  Nb  Nb10  1  0.338061  0.998022  0.248846  1
  Nb  Nb11  1  0.001978  0.661939  0.751154  1
  N  N12  1  0.669698  0.669082  0.621127  1
  N  N13  1  0.673136  0.670855  0.877946  1
  N  N14  1  0.329145  0.326864  0.122054  1
  N  N15  1  0.330918  0.330302  0.378873  1
  N  N16  1  0.329145  0.002282  0.877946  1
  N  N17  1  0.330918  0.000616  0.621127  1
  N  N18  1  0.999384  0.669082  0.378873  1
  N  N19  1  0.997718  0.670855  0.122054  1
  N  N20  1  0.673136  0.002282  0.122054  1
  N  N21  1  0.669698  0.000616  0.378873  1
  N  N22  1  0.997718  0.326864  0.877946  1
  N  N23  1  0.999384  0.330302  0.621127  1
