# generated using pymatgen
data_Tm7Lu(TcB6)4
_symmetry_space_group_name_H-M   'P 1'
_cell_length_a   3.63947600
_cell_length_b   9.08813604
_cell_length_c   11.44909022
_cell_angle_alpha   90.00574967
_cell_angle_beta   90.00000000
_cell_angle_gamma   90.00000000
_symmetry_Int_Tables_number   1
_chemical_formula_structural   Tm7Lu(TcB6)4
_chemical_formula_sum   'Tm7 Lu1 Tc4 B24'
_cell_volume   378.69071288
_cell_formula_units_Z   1
loop_
 _symmetry_equiv_pos_site_id
 _symmetry_equiv_pos_as_xyz
  1  'x, y, z'
loop_
 _atom_site_type_symbol
 _atom_site_label
 _atom_site_symmetry_multiplicity
 _atom_site_fract_x
 _atom_site_fract_y
 _atom_site_fract_z
 _atom_site_occupancy
  Tm  Tm0  1  0.500000  0.323744  0.414142  1
  Tm  Tm1  1  0.500000  0.676364  0.585693  1
  Tm  Tm2  1  0.500000  0.176169  0.914298  1
  Tm  Tm3  1  0.500000  0.823764  0.085962  1
  Tm  Tm4  1  0.500000  0.442981  0.130602  1
  Tm  Tm5  1  0.500000  0.556892  0.869643  1
  Tm  Tm6  1  0.500000  0.056885  0.630078  1
  Lu  Lu7  1  0.500000  0.943142  0.369299  1
  Tc  Tc8  1  0.500000  0.138775  0.180059  1
  Tc  Tc9  1  0.500000  0.860915  0.820186  1
  Tc  Tc10  1  0.500000  0.360801  0.679462  1
  Tc  Tc11  1  0.500000  0.639747  0.320437  1
  B  B12  1  0.000000  0.099030  0.471869  1
  B  B13  1  0.000000  0.900480  0.527077  1
  B  B14  1  0.000000  0.399884  0.972312  1
  B  B15  1  0.000000  0.599984  0.027894  1
  B  B16  1  0.000000  0.130293  0.315593  1
  B  B17  1  0.000000  0.869186  0.684481  1
  B  B18  1  0.000000  0.369037  0.815274  1
  B  B19  1  0.000000  0.631057  0.184838  1
  B  B20  1  0.000000  0.053157  0.066857  1
  B  B21  1  0.000000  0.946691  0.933404  1
  B  B22  1  0.000000  0.446730  0.566511  1
  B  B23  1  0.000000  0.553733  0.433396  1
  B  B24  1  0.000000  0.481723  0.288415  1
  B  B25  1  0.000000  0.518382  0.711709  1
  B  B26  1  0.000000  0.018495  0.788175  1
  B  B27  1  0.000000  0.981238  0.212127  1
  B  B28  1  0.000000  0.249691  0.081005  1
  B  B29  1  0.000000  0.750127  0.919194  1
  B  B30  1  0.000000  0.249958  0.580574  1
  B  B31  1  0.000000  0.750745  0.419213  1
  B  B32  1  0.000000  0.292600  0.235519  1
  B  B33  1  0.000000  0.707143  0.764621  1
  B  B34  1  0.000000  0.207073  0.735158  1
  B  B35  1  0.000000  0.793386  0.264928  1
