# generated using pymatgen
data_Ba3Ru2O9
_symmetry_space_group_name_H-M   'P 1'
_cell_length_a   7.53408445
_cell_length_b   7.53408517
_cell_length_c   7.53408413
_cell_angle_alpha   84.63411412
_cell_angle_beta   84.63411564
_cell_angle_gamma   84.63412204
_symmetry_Int_Tables_number   1
_chemical_formula_structural   Ba3Ru2O9
_chemical_formula_sum   'Ba6 Ru4 O18'
_cell_volume   422.36010537
_cell_formula_units_Z   2
loop_
 _symmetry_equiv_pos_site_id
 _symmetry_equiv_pos_as_xyz
  1  'x, y, z'
loop_
 _atom_site_type_symbol
 _atom_site_label
 _atom_site_symmetry_multiplicity
 _atom_site_fract_x
 _atom_site_fract_y
 _atom_site_fract_z
 _atom_site_occupancy
  Ba  Ba0  1  0.581369  0.918631  0.250000  1
  Ba  Ba1  1  0.918631  0.250000  0.581369  1
  Ba  Ba2  1  0.250000  0.581369  0.918631  1
  Ba  Ba3  1  0.418631  0.081369  0.750000  1
  Ba  Ba4  1  0.750000  0.418631  0.081369  1
  Ba  Ba5  1  0.081369  0.750000  0.418631  1
  Ru  Ru6  1  0.148340  0.148340  0.148340  1
  Ru  Ru7  1  0.351660  0.351660  0.351660  1
  Ru  Ru8  1  0.851660  0.851660  0.851660  1
  Ru  Ru9  1  0.648340  0.648340  0.648340  1
  O  O10  1  0.251236  0.927315  0.087067  1
  O  O11  1  0.087067  0.251236  0.927315  1
  O  O12  1  0.927315  0.087067  0.251236  1
  O  O13  1  0.248764  0.412933  0.572685  1
  O  O14  1  0.572685  0.248764  0.412933  1
  O  O15  1  0.412933  0.572685  0.248764  1
  O  O16  1  0.748764  0.072685  0.912933  1
  O  O17  1  0.912933  0.748764  0.072685  1
  O  O18  1  0.072685  0.912933  0.748764  1
  O  O19  1  0.751236  0.587067  0.427315  1
  O  O20  1  0.102939  0.397061  0.250000  1
  O  O21  1  0.397061  0.250000  0.102939  1
  O  O22  1  0.250000  0.102939  0.397061  1
  O  O23  1  0.897061  0.602939  0.750000  1
  O  O24  1  0.602939  0.750000  0.897061  1
  O  O25  1  0.750000  0.897061  0.602939  1
  O  O26  1  0.587067  0.427315  0.751236  1
  O  O27  1  0.427315  0.751236  0.587067  1
