# generated using pymatgen
data_ErLu3Ga17SiIr6
_symmetry_space_group_name_H-M   'P 1'
_cell_length_a   7.55470002
_cell_length_b   7.53297673
_cell_length_c   9.42443101
_cell_angle_alpha   90.06517947
_cell_angle_beta   89.79239160
_cell_angle_gamma   119.94075371
_symmetry_Int_Tables_number   1
_chemical_formula_structural   ErLu3Ga17SiIr6
_chemical_formula_sum   'Er1 Lu3 Ga17 Si1 Ir6'
_cell_volume   464.75664389
_cell_formula_units_Z   1
loop_
 _symmetry_equiv_pos_site_id
 _symmetry_equiv_pos_as_xyz
  1  'x, y, z'
loop_
 _atom_site_type_symbol
 _atom_site_label
 _atom_site_symmetry_multiplicity
 _atom_site_fract_x
 _atom_site_fract_y
 _atom_site_fract_z
 _atom_site_occupancy
  Er  Er0  1  0.330308  0.002345  0.749486  1
  Lu  Lu1  1  0.997315  0.664276  0.248064  1
  Lu  Lu2  1  0.002385  0.330825  0.751764  1
  Lu  Lu3  1  0.675179  0.003547  0.248130  1
  Ga  Ga4  1  0.129324  0.128478  0.250747  1
  Ga  Ga5  1  0.872621  0.874571  0.750656  1
  Ga  Ga6  1  0.999100  0.670259  0.916885  1
  Ga  Ga7  1  0.000603  0.665011  0.581038  1
  Ga  Ga8  1  0.333891  0.996824  0.416884  1
  Ga  Ga9  1  0.998804  0.334708  0.418760  1
  Ga  Ga10  1  0.666021  0.001151  0.581122  1
  Ga  Ga11  1  0.658923  0.995470  0.916969  1
  Ga  Ga12  1  0.333436  0.996595  0.083740  1
  Ga  Ga13  1  0.331409  0.331386  0.566047  1
  Ga  Ga14  1  0.669667  0.670161  0.432234  1
  Ga  Ga15  1  0.669035  0.670539  0.070210  1
  Ga  Ga16  1  0.337330  0.332223  0.932565  1
  Ga  Ga17  1  0.341653  0.547665  0.251451  1
  Ga  Ga18  1  0.661752  0.452101  0.751116  1
  Ga  Ga19  1  0.548352  0.339865  0.250632  1
  Ga  Ga20  1  0.450756  0.658294  0.750433  1
  Si  Si21  1  0.998895  0.334406  0.074275  1
  Ir  Ir22  1  0.684053  0.328949  0.003833  1
  Ir  Ir23  1  0.312671  0.657134  0.001752  1
  Ir  Ir24  1  0.327602  0.671438  0.500325  1
  Ir  Ir25  1  0.671747  0.327926  0.499814  1
  Ir  Ir26  1  0.997779  0.013875  0.001621  1
  Ir  Ir27  1  0.999388  0.999980  0.499442  1
