# generated using pymatgen
data_TiBe8NbTc2
_symmetry_space_group_name_H-M   'P 1'
_cell_length_a   4.46267400
_cell_length_b   4.46267445
_cell_length_c   7.32019100
_cell_angle_alpha   90.00000000
_cell_angle_beta   90.00000000
_cell_angle_gamma   120.00001146
_symmetry_Int_Tables_number   1
_chemical_formula_structural   TiBe8NbTc2
_chemical_formula_sum   'Ti1 Be8 Nb1 Tc2'
_cell_volume   126.25348182
_cell_formula_units_Z   1
loop_
 _symmetry_equiv_pos_site_id
 _symmetry_equiv_pos_as_xyz
  1  'x, y, z'
loop_
 _atom_site_type_symbol
 _atom_site_label
 _atom_site_symmetry_multiplicity
 _atom_site_fract_x
 _atom_site_fract_y
 _atom_site_fract_z
 _atom_site_occupancy
  Ti  Ti0  1  0.333333  0.666667  0.065404  1
  Be  Be1  1  0.169203  0.338404  0.754023  1
  Be  Be2  1  0.169203  0.830797  0.754023  1
  Be  Be3  1  0.339220  0.169610  0.247287  1
  Be  Be4  1  0.830390  0.660780  0.247287  1
  Be  Be5  1  0.000000  0.000000  0.999502  1
  Be  Be6  1  0.661596  0.830797  0.754023  1
  Be  Be7  1  0.830390  0.169610  0.247287  1
  Be  Be8  1  0.000000  0.000000  0.494841  1
  Nb  Nb9  1  0.666667  0.333333  0.563711  1
  Tc  Tc10  1  0.333333  0.666667  0.436429  1
  Tc  Tc11  1  0.666667  0.333333  0.936185  1
