# generated using pymatgen
data_DyYP2(Ru2C)2
_symmetry_space_group_name_H-M   'P 1'
_cell_length_a   5.84187679
_cell_length_b   5.84187752
_cell_length_c   7.07260900
_cell_angle_alpha   90.00000000
_cell_angle_beta   90.00000000
_cell_angle_gamma   142.12473152
_symmetry_Int_Tables_number   1
_chemical_formula_structural   DyYP2(Ru2C)2
_chemical_formula_sum   'Dy1 Y1 P2 Ru4 C2'
_cell_volume   148.18820210
_cell_formula_units_Z   1
loop_
 _symmetry_equiv_pos_site_id
 _symmetry_equiv_pos_as_xyz
  1  'x, y, z'
loop_
 _atom_site_type_symbol
 _atom_site_label
 _atom_site_symmetry_multiplicity
 _atom_site_fract_x
 _atom_site_fract_y
 _atom_site_fract_z
 _atom_site_occupancy
  Dy  Dy0  1  0.455781  0.544219  0.750000  1
  Y  Y1  1  0.544169  0.455831  0.250000  1
  P  P2  1  0.268521  0.731479  0.250000  1
  P  P3  1  0.731487  0.268513  0.750000  1
  Ru  Ru4  1  0.834543  0.165457  0.053322  1
  Ru  Ru5  1  0.165500  0.834500  0.946532  1
  Ru  Ru6  1  0.165500  0.834500  0.553468  1
  Ru  Ru7  1  0.834543  0.165457  0.446678  1
  C  C8  1  0.999978  0.000022  0.999749  1
  C  C9  1  0.999978  0.000022  0.500251  1
