# generated using pymatgen
data_Dy2Mg2TlInPb2
_symmetry_space_group_name_H-M   'P 1'
_cell_length_a   4.76932700
_cell_length_b   4.84160300
_cell_length_c   9.02435300
_cell_angle_alpha   90.00000000
_cell_angle_beta   90.00000000
_cell_angle_gamma   90.00000000
_symmetry_Int_Tables_number   1
_chemical_formula_structural   Dy2Mg2TlInPb2
_chemical_formula_sum   'Dy2 Mg2 Tl1 In1 Pb2'
_cell_volume   208.38303090
_cell_formula_units_Z   1
loop_
 _symmetry_equiv_pos_site_id
 _symmetry_equiv_pos_as_xyz
  1  'x, y, z'
loop_
 _atom_site_type_symbol
 _atom_site_label
 _atom_site_symmetry_multiplicity
 _atom_site_fract_x
 _atom_site_fract_y
 _atom_site_fract_z
 _atom_site_occupancy
  Dy  Dy0  1  0.000000  0.000000  0.250880  1
  Dy  Dy1  1  0.000000  0.000000  0.749120  1
  Mg  Mg2  1  0.500000  0.500000  0.253088  1
  Mg  Mg3  1  0.500000  0.500000  0.746912  1
  Tl  Tl4  1  0.000000  0.500000  0.000000  1
  In  In5  1  0.000000  0.500000  0.500000  1
  Pb  Pb6  1  0.500000  0.000000  0.500000  1
  Pb  Pb7  1  0.500000  0.000000  0.000000  1
