# generated using pymatgen
data_V3Sn(SeO3)8
_symmetry_space_group_name_H-M   'P 1'
_cell_length_a   8.17732523
_cell_length_b   8.17732520
_cell_length_c   8.17732563
_cell_angle_alpha   89.39869544
_cell_angle_beta   90.60130944
_cell_angle_gamma   90.60130162
_symmetry_Int_Tables_number   1
_chemical_formula_structural   V3Sn(SeO3)8
_chemical_formula_sum   'V3 Sn1 Se8 O24'
_cell_volume   546.71699637
_cell_formula_units_Z   1
loop_
 _symmetry_equiv_pos_site_id
 _symmetry_equiv_pos_as_xyz
  1  'x, y, z'
loop_
 _atom_site_type_symbol
 _atom_site_label
 _atom_site_symmetry_multiplicity
 _atom_site_fract_x
 _atom_site_fract_y
 _atom_site_fract_z
 _atom_site_occupancy
  V  V0  1  0.500000  0.500000  0.500000  1
  V  V1  1  0.500000  0.000000  0.000000  1
  V  V2  1  0.000000  0.500000  0.000000  1
  Sn  Sn3  1  0.000000  0.000000  0.500000  1
  Se  Se4  1  0.833132  0.667601  0.316610  1
  Se  Se5  1  0.183390  0.166868  0.167601  1
  Se  Se6  1  0.677401  0.322599  0.822599  1
  Se  Se7  1  0.332399  0.816610  0.666868  1
  Se  Se8  1  0.166868  0.332399  0.683390  1
  Se  Se9  1  0.816610  0.833132  0.832399  1
  Se  Se10  1  0.322599  0.677401  0.177401  1
  Se  Se11  1  0.667601  0.183390  0.333132  1
  O  O12  1  0.729920  0.526858  0.437882  1
  O  O13  1  0.265332  0.025861  0.032866  1
  O  O14  1  0.769996  0.428081  0.983429  1
  O  O15  1  0.249535  0.965070  0.537707  1
  O  O16  1  0.467134  0.734668  0.525861  1
  O  O17  1  0.062118  0.270080  0.026858  1
  O  O18  1  0.962293  0.750465  0.465070  1
  O  O19  1  0.516571  0.230004  0.928081  1
  O  O20  1  0.571919  0.483429  0.730004  1
  O  O21  1  0.034930  0.037707  0.250465  1
  O  O22  1  0.473142  0.937882  0.770080  1
  O  O23  1  0.974139  0.532866  0.234668  1
  O  O24  1  0.270080  0.473142  0.562118  1
  O  O25  1  0.734668  0.974139  0.967134  1
  O  O26  1  0.230004  0.571919  0.016571  1
  O  O27  1  0.750465  0.034930  0.462293  1
  O  O28  1  0.532866  0.265332  0.474139  1
  O  O29  1  0.937882  0.729920  0.973142  1
  O  O30  1  0.037707  0.249535  0.534930  1
  O  O31  1  0.483429  0.769996  0.071919  1
  O  O32  1  0.428081  0.516571  0.269996  1
  O  O33  1  0.965070  0.962293  0.749535  1
  O  O34  1  0.526858  0.062118  0.229920  1
  O  O35  1  0.025861  0.467134  0.765332  1
