# generated using pymatgen
data_Ba8La3Pr(FeO5)4
_symmetry_space_group_name_H-M   'P 1'
_cell_length_a   6.30564644
_cell_length_b   8.05126255
_cell_length_c   13.09670141
_cell_angle_alpha   91.37421283
_cell_angle_beta   90.04101080
_cell_angle_gamma   90.01177931
_symmetry_Int_Tables_number   1
_chemical_formula_structural   Ba8La3Pr(FeO5)4
_chemical_formula_sum   'Ba8 La3 Pr1 Fe4 O20'
_cell_volume   664.70735138
_cell_formula_units_Z   1
loop_
 _symmetry_equiv_pos_site_id
 _symmetry_equiv_pos_as_xyz
  1  'x, y, z'
loop_
 _atom_site_type_symbol
 _atom_site_label
 _atom_site_symmetry_multiplicity
 _atom_site_fract_x
 _atom_site_fract_y
 _atom_site_fract_z
 _atom_site_occupancy
  Ba  Ba0  1  0.770985  0.476056  0.336179  1
  Ba  Ba1  1  0.728208  0.976659  0.835671  1
  Ba  Ba2  1  0.229514  0.522881  0.663857  1
  Ba  Ba3  1  0.271807  0.024574  0.164658  1
  Ba  Ba4  1  0.766486  0.991161  0.377634  1
  Ba  Ba5  1  0.733185  0.489728  0.876353  1
  Ba  Ba6  1  0.233409  0.010058  0.622781  1
  Ba  Ba7  1  0.266934  0.509849  0.122869  1
  La  La8  1  0.751463  0.775887  0.122120  1
  La  La9  1  0.251454  0.724832  0.377883  1
  La  La10  1  0.248630  0.223983  0.877587  1
  Pr  Pr11  1  0.748774  0.274722  0.622427  1
  Fe  Fe12  1  0.728505  0.743769  0.583275  1
  Fe  Fe13  1  0.771468  0.243848  0.083741  1
  Fe  Fe14  1  0.271119  0.256703  0.417180  1
  Fe  Fe15  1  0.228969  0.756296  0.916387  1
  O  O16  1  0.779867  0.970476  0.626953  1
  O  O17  1  0.719653  0.470196  0.127188  1
  O  O18  1  0.220623  0.030486  0.373432  1
  O  O19  1  0.280921  0.529937  0.872935  1
  O  O20  1  0.719949  0.077930  0.182050  1
  O  O21  1  0.778199  0.572458  0.679003  1
  O  O22  1  0.280670  0.922138  0.818035  1
  O  O23  1  0.221057  0.422732  0.318727  1
  O  O24  1  0.555240  0.745203  0.278316  1
  O  O25  1  0.945503  0.244342  0.777852  1
  O  O26  1  0.444503  0.254865  0.721879  1
  O  O27  1  0.055151  0.755542  0.221807  1
  O  O28  1  0.582901  0.211847  0.970317  1
  O  O29  1  0.917454  0.712740  0.470159  1
  O  O30  1  0.417347  0.788772  0.029763  1
  O  O31  1  0.080368  0.288251  0.529558  1
  O  O32  1  0.062488  0.235332  0.041011  1
  O  O33  1  0.437769  0.735911  0.540719  1
  O  O34  1  0.937445  0.764318  0.958618  1
  O  O35  1  0.561982  0.265517  0.461077  1
