# generated using pymatgen
data_Pr8Nd4Si3AsBr12
_symmetry_space_group_name_H-M   'P 1'
_cell_length_a   10.47000970
_cell_length_b   10.50793712
_cell_length_c   10.50897056
_cell_angle_alpha   109.52561711
_cell_angle_beta   109.41556562
_cell_angle_gamma   109.41803208
_symmetry_Int_Tables_number   1
_chemical_formula_structural   Pr8Nd4Si3AsBr12
_chemical_formula_sum   'Pr8 Nd4 Si3 As1 Br12'
_cell_volume   890.62303437
_cell_formula_units_Z   1
loop_
 _symmetry_equiv_pos_site_id
 _symmetry_equiv_pos_as_xyz
  1  'x, y, z'
loop_
 _atom_site_type_symbol
 _atom_site_label
 _atom_site_symmetry_multiplicity
 _atom_site_fract_x
 _atom_site_fract_y
 _atom_site_fract_z
 _atom_site_occupancy
  Pr  Pr0  1  0.263995  0.754469  0.240223  1
  Pr  Pr1  1  0.023609  0.260010  0.014198  1
  Pr  Pr2  1  0.011957  0.023854  0.261829  1
  Pr  Pr3  1  0.490702  0.754344  0.014236  1
  Pr  Pr4  1  0.488429  0.238363  0.476495  1
  Pr  Pr5  1  0.009590  0.485855  0.745855  1
  Pr  Pr6  1  0.262338  0.012326  0.024366  1
  Pr  Pr7  1  0.236105  0.259919  0.745545  1
  Nd  Nd8  1  0.475434  0.485332  0.239717  1
  Nd  Nd9  1  0.750018  0.237649  0.262470  1
  Nd  Nd10  1  0.750197  0.012805  0.487391  1
  Nd  Nd11  1  0.237158  0.474604  0.487343  1
  Si  Si12  1  0.250721  0.251236  0.250843  1
  Si  Si13  1  0.501378  0.000906  0.250761  1
  Si  Si14  1  0.999292  0.249947  0.499144  1
  As  As15  1  0.250766  0.500002  0.000694  1
  Br  Br16  1  0.250085  0.753064  0.745655  1
  Br  Br17  1  0.507286  0.504224  0.753895  1
  Br  Br18  1  0.991949  0.745285  0.995869  1
  Br  Br19  1  0.746628  0.249681  0.753917  1
  Br  Br20  1  0.995580  0.992616  0.745650  1
  Br  Br21  1  0.250005  0.995354  0.504690  1
  Br  Br22  1  0.754041  0.508557  0.503091  1
  Br  Br23  1  0.504701  0.251589  0.997451  1
  Br  Br24  1  0.752672  0.745445  0.250369  1
  Br  Br25  1  0.745361  0.996222  0.991506  1
  Br  Br26  1  0.996243  0.503500  0.250267  1
  Br  Br27  1  0.503762  0.752841  0.506528  1
