# generated using pymatgen
data_Th4Sc6Sn7Bi
_symmetry_space_group_name_H-M   'P 1'
_cell_length_a   7.94822700
_cell_length_b   7.97884449
_cell_length_c   15.03083393
_cell_angle_alpha   90.04026978
_cell_angle_beta   90.00000000
_cell_angle_gamma   90.00000000
_symmetry_Int_Tables_number   1
_chemical_formula_structural   Th4Sc6Sn7Bi
_chemical_formula_sum   'Th8 Sc12 Sn14 Bi2'
_cell_volume   953.22018874
_cell_formula_units_Z   2
loop_
 _symmetry_equiv_pos_site_id
 _symmetry_equiv_pos_as_xyz
  1  'x, y, z'
loop_
 _atom_site_type_symbol
 _atom_site_label
 _atom_site_symmetry_multiplicity
 _atom_site_fract_x
 _atom_site_fract_y
 _atom_site_fract_z
 _atom_site_occupancy
  Th  Th0  1  0.517317  0.326852  0.905163  1
  Th  Th1  1  0.017317  0.173148  0.594837  1
  Th  Th2  1  0.479624  0.677378  0.405098  1
  Th  Th3  1  0.979624  0.822622  0.094902  1
  Th  Th4  1  0.485591  0.672446  0.094024  1
  Th  Th5  1  0.985591  0.827554  0.405976  1
  Th  Th6  1  0.513345  0.323944  0.595368  1
  Th  Th7  1  0.013345  0.176056  0.904632  1
  Sc  Sc8  1  0.352528  0.838550  0.873069  1
  Sc  Sc9  1  0.852528  0.661450  0.626931  1
  Sc  Sc10  1  0.645680  0.156080  0.372910  1
  Sc  Sc11  1  0.145680  0.343920  0.127090  1
  Sc  Sc12  1  0.651436  0.160810  0.126116  1
  Sc  Sc13  1  0.151436  0.339190  0.373884  1
  Sc  Sc14  1  0.352310  0.840091  0.626058  1
  Sc  Sc15  1  0.852310  0.659909  0.873942  1
  Sc  Sc16  1  0.182535  0.499529  0.749696  1
  Sc  Sc17  1  0.682535  0.000471  0.750304  1
  Sc  Sc18  1  0.817206  0.501722  0.248098  1
  Sc  Sc19  1  0.317206  0.998278  0.251902  1
  Sn  Sn20  1  0.689459  0.953813  0.544040  1
  Sn  Sn21  1  0.189459  0.546187  0.955960  1
  Sn  Sn22  1  0.692475  0.953215  0.954896  1
  Sn  Sn23  1  0.192475  0.546785  0.545104  1
  Sn  Sn24  1  0.310925  0.046596  0.455939  1
  Sn  Sn25  1  0.810925  0.453404  0.044061  1
  Sn  Sn26  1  0.546663  0.632195  0.749906  1
  Sn  Sn27  1  0.046663  0.867805  0.750094  1
  Sn  Sn28  1  0.453899  0.367593  0.249893  1
  Sn  Sn29  1  0.953899  0.132407  0.250107  1
  Sn  Sn30  1  0.322256  0.141716  0.750442  1
  Sn  Sn31  1  0.822256  0.358284  0.749558  1
  Sn  Sn32  1  0.677196  0.857449  0.250000  1
  Sn  Sn33  1  0.177196  0.642551  0.250000  1
  Bi  Bi34  1  0.309556  0.047692  0.044718  1
  Bi  Bi35  1  0.809556  0.452308  0.455282  1
