# generated using pymatgen
data_Nd3Ho2Pa(Al3Os)8
_symmetry_space_group_name_H-M   'P 1'
_cell_length_a   8.84679000
_cell_length_b   8.88540900
_cell_length_c   9.62137400
_cell_angle_alpha   90.00000000
_cell_angle_beta   90.00000000
_cell_angle_gamma   119.85632813
_symmetry_Int_Tables_number   1
_chemical_formula_structural   Nd3Ho2Pa(Al3Os)8
_chemical_formula_sum   'Nd3 Ho2 Pa1 Al24 Os8'
_cell_volume   655.93045192
_cell_formula_units_Z   1
loop_
 _symmetry_equiv_pos_site_id
 _symmetry_equiv_pos_as_xyz
  1  'x, y, z'
loop_
 _atom_site_type_symbol
 _atom_site_label
 _atom_site_symmetry_multiplicity
 _atom_site_fract_x
 _atom_site_fract_y
 _atom_site_fract_z
 _atom_site_occupancy
  Nd  Nd0  1  0.809158  0.618318  0.750000  1
  Nd  Nd1  1  0.384858  0.190555  0.750000  1
  Nd  Nd2  1  0.805696  0.190555  0.750000  1
  Ho  Ho3  1  0.610107  0.802866  0.250000  1
  Ho  Ho4  1  0.192759  0.802866  0.250000  1
  Pa  Pa5  1  0.197549  0.395097  0.250000  1
  Al  Al6  1  0.336561  0.673124  0.020087  1
  Al  Al7  1  0.667544  0.335086  0.987623  1
  Al  Al8  1  0.667544  0.335086  0.512377  1
  Al  Al9  1  0.336561  0.673124  0.479913  1
  Al  Al10  1  0.163850  0.327700  0.573241  1
  Al  Al11  1  0.837230  0.674461  0.422153  1
  Al  Al12  1  0.671216  0.835165  0.570726  1
  Al  Al13  1  0.837230  0.674461  0.077847  1
  Al  Al14  1  0.325340  0.161424  0.421266  1
  Al  Al15  1  0.163850  0.327700  0.926759  1
  Al  Al16  1  0.163947  0.835165  0.570726  1
  Al  Al17  1  0.325340  0.161424  0.078734  1
  Al  Al18  1  0.836083  0.161424  0.421266  1
  Al  Al19  1  0.671216  0.835165  0.929274  1
  Al  Al20  1  0.836083  0.161424  0.078734  1
  Al  Al21  1  0.163947  0.835165  0.929274  1
  Al  Al22  1  0.558837  0.117673  0.250000  1
  Al  Al23  1  0.436143  0.872284  0.750000  1
  Al  Al24  1  0.873749  0.438292  0.250000  1
  Al  Al25  1  0.123646  0.561368  0.750000  1
  Al  Al26  1  0.564542  0.438292  0.250000  1
  Al  Al27  1  0.437722  0.561368  0.750000  1
  Al  Al28  1  0.001437  0.002874  0.250000  1
  Al  Al29  1  0.000410  0.000821  0.750000  1
  Os  Os30  1  0.500527  0.001053  0.001272  1
  Os  Os31  1  0.005488  0.500280  0.007817  1
  Os  Os32  1  0.500527  0.001053  0.498728  1
  Os  Os33  1  0.494792  0.500280  0.007817  1
  Os  Os34  1  0.005488  0.500280  0.492183  1
  Os  Os35  1  0.494792  0.500280  0.492183  1
  Os  Os36  1  0.999113  0.998227  0.000196  1
  Os  Os37  1  0.999113  0.998227  0.499804  1
