# generated using pymatgen
data_Pr9Th(SiPb3)2
_symmetry_space_group_name_H-M   'P 1'
_cell_length_a   9.78565519
_cell_length_b   9.76000638
_cell_length_c   6.74518600
_cell_angle_alpha   90.00000000
_cell_angle_beta   90.00000000
_cell_angle_gamma   119.91333858
_symmetry_Int_Tables_number   1
_chemical_formula_structural   Pr9Th(SiPb3)2
_chemical_formula_sum   'Pr9 Th1 Si2 Pb6'
_cell_volume   558.39710928
_cell_formula_units_Z   1
loop_
 _symmetry_equiv_pos_site_id
 _symmetry_equiv_pos_as_xyz
  1  'x, y, z'
loop_
 _atom_site_type_symbol
 _atom_site_label
 _atom_site_symmetry_multiplicity
 _atom_site_fract_x
 _atom_site_fract_y
 _atom_site_fract_z
 _atom_site_occupancy
  Pr  Pr0  1  0.666582  0.333794  0.499467  1
  Pr  Pr1  1  0.333418  0.667213  0.499467  1
  Pr  Pr2  1  0.333418  0.667213  0.000533  1
  Pr  Pr3  1  0.666582  0.333794  0.000533  1
  Pr  Pr4  1  0.750365  0.750059  0.250000  1
  Pr  Pr5  1  0.249635  0.999694  0.250000  1
  Pr  Pr6  1  0.000000  0.248472  0.250000  1
  Pr  Pr7  1  0.250597  0.251045  0.750000  1
  Pr  Pr8  1  0.749403  0.000448  0.750000  1
  Th  Th9  1  0.000000  0.751882  0.750000  1
  Si  Si10  1  0.000000  0.998445  0.503086  1
  Si  Si11  1  0.000000  0.998445  0.996914  1
  Pb  Pb12  1  0.390700  0.390410  0.250000  1
  Pb  Pb13  1  0.609300  0.999710  0.250000  1
  Pb  Pb14  1  0.000000  0.610447  0.250000  1
  Pb  Pb15  1  0.609915  0.608612  0.750000  1
  Pb  Pb16  1  0.390085  0.998697  0.750000  1
  Pb  Pb17  1  0.000000  0.391620  0.750000  1
