# generated using pymatgen
data_YHoRe7Si4Mo
_symmetry_space_group_name_H-M   'P 1'
_cell_length_a   7.14212926
_cell_length_b   7.68174924
_cell_length_c   4.17491600
_cell_angle_alpha   90.00000000
_cell_angle_beta   90.00000000
_cell_angle_gamma   90.16879626
_symmetry_Int_Tables_number   1
_chemical_formula_structural   YHoRe7Si4Mo
_chemical_formula_sum   'Y1 Ho1 Re7 Si4 Mo1'
_cell_volume   229.05178958
_cell_formula_units_Z   1
loop_
 _symmetry_equiv_pos_site_id
 _symmetry_equiv_pos_as_xyz
  1  'x, y, z'
loop_
 _atom_site_type_symbol
 _atom_site_label
 _atom_site_symmetry_multiplicity
 _atom_site_fract_x
 _atom_site_fract_y
 _atom_site_fract_z
 _atom_site_occupancy
  Y  Y0  1  0.999069  0.999953  0.500000  1
  Ho  Ho1  1  0.500767  0.498808  0.000000  1
  Re  Re2  1  0.156048  0.604843  0.500000  1
  Re  Re3  1  0.083498  0.340713  0.000000  1
  Re  Re4  1  0.918579  0.657317  0.000000  1
  Re  Re5  1  0.416921  0.840261  0.500000  1
  Re  Re6  1  0.581754  0.163830  0.500000  1
  Re  Re7  1  0.343981  0.107255  0.000000  1
  Re  Re8  1  0.845820  0.393891  0.500000  1
  Si  Si9  1  0.223729  0.806012  0.000000  1
  Si  Si10  1  0.777892  0.195674  0.000000  1
  Si  Si11  1  0.723520  0.692877  0.500000  1
  Si  Si12  1  0.277085  0.305684  0.500000  1
  Mo  Mo13  1  0.651337  0.892883  0.000000  1
