# generated using pymatgen
data_Na2Nb5TcS12
_symmetry_space_group_name_H-M   'P 1'
_cell_length_a   5.77056700
_cell_length_b   5.77056672
_cell_length_c   14.84030600
_cell_angle_alpha   90.00000000
_cell_angle_beta   90.00000000
_cell_angle_gamma   120.00000736
_symmetry_Int_Tables_number   1
_chemical_formula_structural   Na2Nb5TcS12
_chemical_formula_sum   'Na2 Nb5 Tc1 S12'
_cell_volume   427.96712553
_cell_formula_units_Z   1
loop_
 _symmetry_equiv_pos_site_id
 _symmetry_equiv_pos_as_xyz
  1  'x, y, z'
loop_
 _atom_site_type_symbol
 _atom_site_label
 _atom_site_symmetry_multiplicity
 _atom_site_fract_x
 _atom_site_fract_y
 _atom_site_fract_z
 _atom_site_occupancy
  Na  Na0  1  0.333333  0.666667  0.250853  1
  Na  Na1  1  0.666667  0.333333  0.750050  1
  Nb  Nb2  1  0.000000  0.000000  0.000041  1
  Nb  Nb3  1  0.666667  0.333333  0.000032  1
  Nb  Nb4  1  0.333333  0.666667  0.500105  1
  Nb  Nb5  1  0.000000  0.000000  0.500027  1
  Nb  Nb6  1  0.666667  0.333333  0.499942  1
  Tc  Tc7  1  0.333333  0.666667  0.999474  1
  S  S8  1  0.668689  0.666584  0.393830  1
  S  S9  1  0.666585  0.668612  0.606228  1
  S  S10  1  0.010814  0.668579  0.895798  1
  S  S11  1  0.657765  0.989186  0.895798  1
  S  S12  1  0.658435  0.991823  0.103969  1
  S  S13  1  0.333416  0.002106  0.393830  1
  S  S14  1  0.002026  0.333415  0.606228  1
  S  S15  1  0.331388  0.997974  0.606228  1
  S  S16  1  0.008177  0.666612  0.103969  1
  S  S17  1  0.331421  0.342235  0.895798  1
  S  S18  1  0.997894  0.331311  0.393830  1
  S  S19  1  0.333388  0.341565  0.103969  1
