# generated using pymatgen
data_Sm2Lu(Ga2Ni3)3
_symmetry_space_group_name_H-M   'P 1'
_cell_length_a   8.76135500
_cell_length_b   8.76135525
_cell_length_c   4.10211200
_cell_angle_alpha   90.00000000
_cell_angle_beta   90.00000000
_cell_angle_gamma   120.00000284
_symmetry_Int_Tables_number   1
_chemical_formula_structural   Sm2Lu(Ga2Ni3)3
_chemical_formula_sum   'Sm2 Lu1 Ga6 Ni9'
_cell_volume   272.69721396
_cell_formula_units_Z   1
loop_
 _symmetry_equiv_pos_site_id
 _symmetry_equiv_pos_as_xyz
  1  'x, y, z'
loop_
 _atom_site_type_symbol
 _atom_site_label
 _atom_site_symmetry_multiplicity
 _atom_site_fract_x
 _atom_site_fract_y
 _atom_site_fract_z
 _atom_site_occupancy
  Sm  Sm0  1  0.666667  0.333333  0.500000  1
  Sm  Sm1  1  0.333333  0.666667  0.500000  1
  Lu  Lu2  1  0.000000  0.000000  0.000000  1
  Ga  Ga3  1  0.268792  0.268792  0.500000  1
  Ga  Ga4  1  0.731208  0.000000  0.500000  1
  Ga  Ga5  1  0.000000  0.731208  0.500000  1
  Ga  Ga6  1  0.518322  0.518322  0.000000  1
  Ga  Ga7  1  0.481678  0.000000  0.000000  1
  Ga  Ga8  1  0.000000  0.481678  0.000000  1
  Ni  Ni9  1  0.805068  0.171895  0.000000  1
  Ni  Ni10  1  0.828105  0.633172  0.000000  1
  Ni  Ni11  1  0.366828  0.194932  0.000000  1
  Ni  Ni12  1  0.171895  0.805068  0.000000  1
  Ni  Ni13  1  0.633172  0.828105  0.000000  1
  Ni  Ni14  1  0.194932  0.366828  0.000000  1
  Ni  Ni15  1  0.708880  0.708880  0.500000  1
  Ni  Ni16  1  0.291120  0.000000  0.500000  1
  Ni  Ni17  1  0.000000  0.291120  0.500000  1
