# generated using pymatgen
data_Ce3In3IrAu2
_symmetry_space_group_name_H-M   'P 1'
_cell_length_a   7.88485000
_cell_length_b   7.88485102
_cell_length_c   4.04104900
_cell_angle_alpha   90.00000000
_cell_angle_beta   90.00000000
_cell_angle_gamma   120.00000413
_symmetry_Int_Tables_number   1
_chemical_formula_structural   Ce3In3IrAu2
_chemical_formula_sum   'Ce3 In3 Ir1 Au2'
_cell_volume   217.57633537
_cell_formula_units_Z   1
loop_
 _symmetry_equiv_pos_site_id
 _symmetry_equiv_pos_as_xyz
  1  'x, y, z'
loop_
 _atom_site_type_symbol
 _atom_site_label
 _atom_site_symmetry_multiplicity
 _atom_site_fract_x
 _atom_site_fract_y
 _atom_site_fract_z
 _atom_site_occupancy
  Ce  Ce0  1  0.600734  0.020791  0.500000  1
  Ce  Ce1  1  0.420057  0.399266  0.500000  1
  Ce  Ce2  1  0.979209  0.579943  0.500000  1
  In  In3  1  0.000197  0.261029  0.000000  1
  In  In4  1  0.738971  0.739168  0.000000  1
  In  In5  1  0.260832  0.999803  0.000000  1
  Ir  Ir6  1  0.666667  0.333333  0.000000  1
  Au  Au7  1  0.333333  0.666667  0.000000  1
  Au  Au8  1  0.000000  0.000000  0.500000  1
