# generated using pymatgen
data_Dy4HoLu3Au4
_symmetry_space_group_name_H-M   'P 1'
_cell_length_a   4.89785200
_cell_length_b   7.10176423
_cell_length_c   8.88857402
_cell_angle_alpha   90.17086072
_cell_angle_beta   90.00000000
_cell_angle_gamma   90.00000000
_symmetry_Int_Tables_number   1
_chemical_formula_structural   Dy4HoLu3Au4
_chemical_formula_sum   'Dy4 Ho1 Lu3 Au4'
_cell_volume   309.17336310
_cell_formula_units_Z   1
loop_
 _symmetry_equiv_pos_site_id
 _symmetry_equiv_pos_as_xyz
  1  'x, y, z'
loop_
 _atom_site_type_symbol
 _atom_site_label
 _atom_site_symmetry_multiplicity
 _atom_site_fract_x
 _atom_site_fract_y
 _atom_site_fract_z
 _atom_site_occupancy
  Dy  Dy0  1  0.250000  0.484366  0.177107  1
  Dy  Dy1  1  0.250000  0.986348  0.322518  1
  Dy  Dy2  1  0.750000  0.515007  0.822900  1
  Dy  Dy3  1  0.750000  0.015829  0.677990  1
  Ho  Ho4  1  0.750000  0.648195  0.420443  1
  Lu  Lu5  1  0.250000  0.852121  0.921304  1
  Lu  Lu6  1  0.250000  0.352031  0.579849  1
  Lu  Lu7  1  0.750000  0.148034  0.078362  1
  Au  Au8  1  0.250000  0.253401  0.899409  1
  Au  Au9  1  0.250000  0.754653  0.602556  1
  Au  Au10  1  0.750000  0.746684  0.098235  1
  Au  Au11  1  0.750000  0.243330  0.399326  1
