# generated using pymatgen
data_Hf3Zr6ScSn6
_symmetry_space_group_name_H-M   'P 1'
_cell_length_a   8.52045310
_cell_length_b   8.52027658
_cell_length_c   5.80156403
_cell_angle_alpha   89.99013902
_cell_angle_beta   90.00898950
_cell_angle_gamma   119.95093455
_symmetry_Int_Tables_number   1
_chemical_formula_structural   Hf3Zr6ScSn6
_chemical_formula_sum   'Hf3 Zr6 Sc1 Sn6'
_cell_volume   364.92751199
_cell_formula_units_Z   1
loop_
 _symmetry_equiv_pos_site_id
 _symmetry_equiv_pos_as_xyz
  1  'x, y, z'
loop_
 _atom_site_type_symbol
 _atom_site_label
 _atom_site_symmetry_multiplicity
 _atom_site_fract_x
 _atom_site_fract_y
 _atom_site_fract_z
 _atom_site_occupancy
  Hf  Hf0  1  0.331295  0.665857  0.000349  1
  Hf  Hf1  1  0.331177  0.665772  0.499663  1
  Hf  Hf2  1  0.665840  0.331208  0.499720  1
  Zr  Zr3  1  0.247890  0.001645  0.750119  1
  Zr  Zr4  1  0.001382  0.247894  0.750405  1
  Zr  Zr5  1  0.244193  0.243986  0.249746  1
  Zr  Zr6  1  0.755158  0.000367  0.249813  1
  Zr  Zr7  1  0.000232  0.755194  0.249544  1
  Zr  Zr8  1  0.665931  0.331405  0.000474  1
  Sc  Sc9  1  0.756123  0.755999  0.750288  1
  Sn  Sn10  1  0.394714  0.395305  0.749176  1
  Sn  Sn11  1  0.607522  0.996966  0.749229  1
  Sn  Sn12  1  0.998417  0.608248  0.748963  1
  Sn  Sn13  1  0.607025  0.607757  0.250986  1
  Sn  Sn14  1  0.392684  0.999090  0.250700  1
  Sn  Sn15  1  0.000420  0.393307  0.250826  1
