# generated using pymatgen
data_LaPa3(ZnRh)4
_symmetry_space_group_name_H-M   'P 1'
_cell_length_a   3.85688300
_cell_length_b   7.46360400
_cell_length_c   16.44384200
_cell_angle_alpha   90.00000000
_cell_angle_beta   90.00000000
_cell_angle_gamma   90.00000000
_symmetry_Int_Tables_number   1
_chemical_formula_structural   LaPa3(ZnRh)4
_chemical_formula_sum   'La2 Pa6 Zn8 Rh8'
_cell_volume   473.35650379
_cell_formula_units_Z   2
loop_
 _symmetry_equiv_pos_site_id
 _symmetry_equiv_pos_as_xyz
  1  'x, y, z'
loop_
 _atom_site_type_symbol
 _atom_site_label
 _atom_site_symmetry_multiplicity
 _atom_site_fract_x
 _atom_site_fract_y
 _atom_site_fract_z
 _atom_site_occupancy
  La  La0  1  0.750000  0.445540  0.213544  1
  La  La1  1  0.750000  0.945540  0.286456  1
  Pa  Pa2  1  0.750000  0.324765  0.443792  1
  Pa  Pa3  1  0.250000  0.061303  0.716244  1
  Pa  Pa4  1  0.250000  0.561303  0.783756  1
  Pa  Pa5  1  0.250000  0.668241  0.563724  1
  Pa  Pa6  1  0.750000  0.824765  0.056208  1
  Pa  Pa7  1  0.250000  0.168241  0.936276  1
  Zn  Zn8  1  0.250000  0.112952  0.149139  1
  Zn  Zn9  1  0.250000  0.990713  0.445972  1
  Zn  Zn10  1  0.750000  0.887911  0.842943  1
  Zn  Zn11  1  0.750000  0.004607  0.564804  1
  Zn  Zn12  1  0.250000  0.490713  0.054028  1
  Zn  Zn13  1  0.750000  0.387911  0.657057  1
  Zn  Zn14  1  0.750000  0.504607  0.935196  1
  Zn  Zn15  1  0.250000  0.612952  0.350861  1
  Rh  Rh16  1  0.750000  0.257656  0.812902  1
  Rh  Rh17  1  0.250000  0.255548  0.332225  1
  Rh  Rh18  1  0.250000  0.764062  0.937893  1
  Rh  Rh19  1  0.250000  0.264062  0.562107  1
  Rh  Rh20  1  0.250000  0.755548  0.167775  1
  Rh  Rh21  1  0.750000  0.726703  0.450588  1
  Rh  Rh22  1  0.750000  0.226703  0.049412  1
  Rh  Rh23  1  0.750000  0.757656  0.687098  1
