# generated using pymatgen
data_Er5Sc3Pt4
_symmetry_space_group_name_H-M   'P 1'
_cell_length_a   4.65370100
_cell_length_b   6.96428568
_cell_length_c   8.43681531
_cell_angle_alpha   89.84024378
_cell_angle_beta   90.00000000
_cell_angle_gamma   90.00000000
_symmetry_Int_Tables_number   1
_chemical_formula_structural   Er5Sc3Pt4
_chemical_formula_sum   'Er5 Sc3 Pt4'
_cell_volume   273.43361741
_cell_formula_units_Z   1
loop_
 _symmetry_equiv_pos_site_id
 _symmetry_equiv_pos_as_xyz
  1  'x, y, z'
loop_
 _atom_site_type_symbol
 _atom_site_label
 _atom_site_symmetry_multiplicity
 _atom_site_fract_x
 _atom_site_fract_y
 _atom_site_fract_z
 _atom_site_occupancy
  Er  Er0  1  0.250000  0.990941  0.324359  1
  Er  Er1  1  0.750000  0.018993  0.679649  1
  Er  Er2  1  0.250000  0.481745  0.169485  1
  Er  Er3  1  0.750000  0.513389  0.825791  1
  Er  Er4  1  0.750000  0.644561  0.423717  1
  Sc  Sc5  1  0.250000  0.354877  0.576239  1
  Sc  Sc6  1  0.750000  0.141550  0.074351  1
  Sc  Sc7  1  0.250000  0.858662  0.926899  1
  Pt  Pt8  1  0.250000  0.246651  0.902536  1
  Pt  Pt9  1  0.750000  0.751910  0.090568  1
  Pt  Pt10  1  0.250000  0.752811  0.602595  1
  Pt  Pt11  1  0.750000  0.243909  0.403811  1
