# generated using pymatgen
data_Tb2Lu2Tc3PtF28
_symmetry_space_group_name_H-M   'P 1'
_cell_length_a   5.55027168
_cell_length_b   8.85332385
_cell_length_c   11.95957278
_cell_angle_alpha   62.58160334
_cell_angle_beta   89.84031281
_cell_angle_gamma   90.02654734
_symmetry_Int_Tables_number   1
_chemical_formula_structural   Tb2Lu2Tc3PtF28
_chemical_formula_sum   'Tb2 Lu2 Tc3 Pt1 F28'
_cell_volume   521.65585725
_cell_formula_units_Z   1
loop_
 _symmetry_equiv_pos_site_id
 _symmetry_equiv_pos_as_xyz
  1  'x, y, z'
loop_
 _atom_site_type_symbol
 _atom_site_label
 _atom_site_symmetry_multiplicity
 _atom_site_fract_x
 _atom_site_fract_y
 _atom_site_fract_z
 _atom_site_occupancy
  Tb  Tb0  1  0.258773  0.816411  0.264782  1
  Tb  Tb1  1  0.741803  0.184618  0.734908  1
  Lu  Lu2  1  0.760420  0.187358  0.235235  1
  Lu  Lu3  1  0.238617  0.813630  0.762981  1
  Tc  Tc4  1  0.758207  0.724122  0.041415  1
  Tc  Tc5  1  0.242209  0.276794  0.957869  1
  Tc  Tc6  1  0.258428  0.271153  0.454869  1
  Pt  Pt7  1  0.740004  0.729988  0.544761  1
  F  F8  1  0.935865  0.704565  0.417147  1
  F  F9  1  0.055604  0.291212  0.581137  1
  F  F10  1  0.446978  0.294337  0.084315  1
  F  F11  1  0.552228  0.706089  0.915799  1
  F  F12  1  0.474616  0.728054  0.138252  1
  F  F13  1  0.526525  0.272079  0.862106  1
  F  F14  1  0.973236  0.269285  0.357786  1
  F  F15  1  0.033077  0.727647  0.638657  1
  F  F16  1  0.956014  0.743387  0.171464  1
  F  F17  1  0.046122  0.256741  0.827855  1
  F  F18  1  0.460413  0.251516  0.325586  1
  F  F19  1  0.546866  0.747226  0.677377  1
  F  F20  1  0.773500  0.475056  0.140755  1
  F  F21  1  0.226646  0.525922  0.858456  1
  F  F22  1  0.271828  0.519970  0.358120  1
  F  F23  1  0.727024  0.480202  0.643351  1
  F  F24  1  0.944492  0.278197  0.048783  1
  F  F25  1  0.055226  0.722731  0.950113  1
  F  F26  1  0.441393  0.721592  0.458490  1
  F  F27  1  0.553180  0.277872  0.544014  1
  F  F28  1  0.741984  0.979424  0.449333  1
  F  F29  1  0.258612  0.023166  0.553604  1
  F  F30  1  0.242997  0.028479  0.053268  1
  F  F31  1  0.757735  0.972397  0.946611  1
  F  F32  1  0.587027  0.976052  0.232809  1
  F  F33  1  0.413045  0.023032  0.768039  1
  F  F34  1  0.076675  0.034101  0.268395  1
  F  F35  1  0.922635  0.965593  0.731563  1
