# generated using pymatgen
data_Er4Hg3As3Rh7
_symmetry_space_group_name_H-M   'P 1'
_cell_length_a   7.57746855
_cell_length_b   7.39933725
_cell_length_c   7.39933700
_cell_angle_alpha   108.97842544
_cell_angle_beta   109.95962024
_cell_angle_gamma   109.95963878
_symmetry_Int_Tables_number   1
_chemical_formula_structural   Er4Hg3As3Rh7
_chemical_formula_sum   'Er4 Hg3 As3 Rh7'
_cell_volume   317.42019365
_cell_formula_units_Z   1
loop_
 _symmetry_equiv_pos_site_id
 _symmetry_equiv_pos_as_xyz
  1  'x, y, z'
loop_
 _atom_site_type_symbol
 _atom_site_label
 _atom_site_symmetry_multiplicity
 _atom_site_fract_x
 _atom_site_fract_y
 _atom_site_fract_z
 _atom_site_occupancy
  Er  Er0  1  0.545802  0.000000  0.000000  1
  Er  Er1  1  0.003227  0.475366  0.000000  1
  Er  Er2  1  0.003227  0.000000  0.475366  1
  Er  Er3  1  0.527862  0.524634  0.524634  1
  Hg  Hg4  1  0.030561  0.737410  0.737410  1
  Hg  Hg5  1  0.293151  0.000000  0.262590  1
  Hg  Hg6  1  0.293151  0.262590  0.000000  1
  As  As7  1  0.010552  0.346878  0.346878  1
  As  As8  1  0.663675  0.000000  0.653122  1
  As  As9  1  0.663675  0.653122  0.000000  1
  Rh  Rh10  1  0.914031  0.000000  0.000000  1
  Rh  Rh11  1  0.504406  0.740726  0.246948  1
  Rh  Rh12  1  0.763680  0.506222  0.259274  1
  Rh  Rh13  1  0.257458  0.753052  0.493778  1
  Rh  Rh14  1  0.257458  0.493778  0.753052  1
  Rh  Rh15  1  0.504406  0.246948  0.740726  1
  Rh  Rh16  1  0.763680  0.259274  0.506222  1
