# generated using pymatgen
data_DyHo3(PaGa5)2
_symmetry_space_group_name_H-M   'P 1'
_cell_length_a   6.08812551
_cell_length_b   9.53587355
_cell_length_c   11.66459500
_cell_angle_alpha   90.00000000
_cell_angle_beta   90.00000000
_cell_angle_gamma   90.01209890
_symmetry_Int_Tables_number   1
_chemical_formula_structural   DyHo3(PaGa5)2
_chemical_formula_sum   'Dy2 Ho6 Pa4 Ga20'
_cell_volume   677.19498870
_cell_formula_units_Z   2
loop_
 _symmetry_equiv_pos_site_id
 _symmetry_equiv_pos_as_xyz
  1  'x, y, z'
loop_
 _atom_site_type_symbol
 _atom_site_label
 _atom_site_symmetry_multiplicity
 _atom_site_fract_x
 _atom_site_fract_y
 _atom_site_fract_z
 _atom_site_occupancy
  Dy  Dy0  1  0.882203  0.502880  0.350552  1
  Dy  Dy1  1  0.617797  0.997120  0.850552  1
  Ho  Ho2  1  0.860591  0.749705  0.074105  1
  Ho  Ho3  1  0.639409  0.750295  0.574105  1
  Ho  Ho4  1  0.143762  0.249109  0.927498  1
  Ho  Ho5  1  0.356238  0.250891  0.427498  1
  Ho  Ho6  1  0.882301  0.997906  0.350587  1
  Ho  Ho7  1  0.617699  0.502094  0.850587  1
  Pa  Pa8  1  0.117309  0.002154  0.647681  1
  Pa  Pa9  1  0.382691  0.497846  0.147681  1
  Pa  Pa10  1  0.117266  0.497847  0.647502  1
  Pa  Pa11  1  0.382734  0.002153  0.147502  1
  Ga  Ga12  1  0.872341  0.052907  0.092605  1
  Ga  Ga13  1  0.627659  0.447093  0.592605  1
  Ga  Ga14  1  0.134357  0.553159  0.909045  1
  Ga  Ga15  1  0.365643  0.946841  0.409045  1
  Ga  Ga16  1  0.133662  0.944867  0.908917  1
  Ga  Ga17  1  0.366338  0.555133  0.408917  1
  Ga  Ga18  1  0.872357  0.446838  0.092178  1
  Ga  Ga19  1  0.627643  0.053162  0.592178  1
  Ga  Ga20  1  0.162582  0.750506  0.262234  1
  Ga  Ga21  1  0.337418  0.749494  0.762234  1
  Ga  Ga22  1  0.844176  0.250009  0.737172  1
  Ga  Ga23  1  0.655824  0.249991  0.237172  1
  Ga  Ga24  1  0.391815  0.749255  0.998519  1
  Ga  Ga25  1  0.108185  0.750745  0.498519  1
  Ga  Ga26  1  0.611075  0.250193  0.005073  1
  Ga  Ga27  1  0.888925  0.249807  0.505073  1
  Ga  Ga28  1  0.596775  0.751029  0.294136  1
  Ga  Ga29  1  0.903225  0.748971  0.794136  1
  Ga  Ga30  1  0.395587  0.249830  0.702196  1
  Ga  Ga31  1  0.104413  0.250170  0.202196  1
