# generated using pymatgen
data_TbDy7Tc2(B12Ru)2
_symmetry_space_group_name_H-M   'P 1'
_cell_length_a   3.67590600
_cell_length_b   9.15508307
_cell_length_c   11.54342405
_cell_angle_alpha   89.84201983
_cell_angle_beta   90.00000000
_cell_angle_gamma   90.00000000
_symmetry_Int_Tables_number   1
_chemical_formula_structural   TbDy7Tc2(B12Ru)2
_chemical_formula_sum   'Tb1 Dy7 Tc2 B24 Ru2'
_cell_volume   388.47196740
_cell_formula_units_Z   1
loop_
 _symmetry_equiv_pos_site_id
 _symmetry_equiv_pos_as_xyz
  1  'x, y, z'
loop_
 _atom_site_type_symbol
 _atom_site_label
 _atom_site_symmetry_multiplicity
 _atom_site_fract_x
 _atom_site_fract_y
 _atom_site_fract_z
 _atom_site_occupancy
  Tb  Tb0  1  0.000000  0.325135  0.415548  1
  Dy  Dy1  1  0.000000  0.674788  0.584380  1
  Dy  Dy2  1  0.000000  0.821464  0.087287  1
  Dy  Dy3  1  0.000000  0.178529  0.912704  1
  Dy  Dy4  1  0.000000  0.942113  0.370416  1
  Dy  Dy5  1  0.000000  0.057762  0.629663  1
  Dy  Dy6  1  0.000000  0.443084  0.130084  1
  Dy  Dy7  1  0.000000  0.556996  0.869876  1
  Tc  Tc8  1  0.000000  0.638559  0.320265  1
  Tc  Tc9  1  0.000000  0.361629  0.679816  1
  B  B10  1  0.500000  0.553422  0.432918  1
  B  B11  1  0.500000  0.446862  0.567240  1
  B  B12  1  0.500000  0.053923  0.067045  1
  B  B13  1  0.500000  0.946049  0.932930  1
  B  B14  1  0.500000  0.748259  0.418730  1
  B  B15  1  0.500000  0.251760  0.581531  1
  B  B16  1  0.500000  0.248264  0.081185  1
  B  B17  1  0.500000  0.751738  0.918775  1
  B  B18  1  0.500000  0.791267  0.265263  1
  B  B19  1  0.500000  0.208756  0.734771  1
  B  B20  1  0.500000  0.290191  0.234027  1
  B  B21  1  0.500000  0.709724  0.765800  1
  B  B22  1  0.500000  0.631483  0.185313  1
  B  B23  1  0.500000  0.368566  0.814673  1
  B  B24  1  0.500000  0.130948  0.313715  1
  B  B25  1  0.500000  0.868880  0.686164  1
  B  B26  1  0.500000  0.983340  0.211759  1
  B  B27  1  0.500000  0.016597  0.788236  1
  B  B28  1  0.500000  0.483177  0.287624  1
  B  B29  1  0.500000  0.517093  0.712293  1
  B  B30  1  0.500000  0.603973  0.028637  1
  B  B31  1  0.500000  0.396039  0.971332  1
  B  B32  1  0.500000  0.103673  0.471147  1
  B  B33  1  0.500000  0.896031  0.528948  1
  Ru  Ru34  1  0.000000  0.137563  0.178201  1
  Ru  Ru35  1  0.000000  0.862362  0.821705  1
