# generated using pymatgen
data_ThSi2(AsRh3)2
_symmetry_space_group_name_H-M   'P 1'
_cell_length_a   7.15201508
_cell_length_b   7.15201543
_cell_length_c   3.88629900
_cell_angle_alpha   90.00000000
_cell_angle_beta   90.00000000
_cell_angle_gamma   120.10657271
_symmetry_Int_Tables_number   1
_chemical_formula_structural   ThSi2(AsRh3)2
_chemical_formula_sum   'Th1 Si2 As2 Rh6'
_cell_volume   171.97143579
_cell_formula_units_Z   1
loop_
 _symmetry_equiv_pos_site_id
 _symmetry_equiv_pos_as_xyz
  1  'x, y, z'
loop_
 _atom_site_type_symbol
 _atom_site_label
 _atom_site_symmetry_multiplicity
 _atom_site_fract_x
 _atom_site_fract_y
 _atom_site_fract_z
 _atom_site_occupancy
  Th  Th0  1  0.994999  0.005001  0.000000  1
  Si  Si1  1  0.799668  0.200332  0.500000  1
  Si  Si2  1  0.334033  0.665967  0.000000  1
  As  As3  1  0.389827  0.191829  0.500000  1
  As  As4  1  0.808171  0.610173  0.500000  1
  Rh  Rh5  1  0.204299  0.795701  0.500000  1
  Rh  Rh6  1  0.193438  0.396529  0.500000  1
  Rh  Rh7  1  0.538621  0.062888  0.000000  1
  Rh  Rh8  1  0.937112  0.461379  0.000000  1
  Rh  Rh9  1  0.529694  0.470306  0.000000  1
  Rh  Rh10  1  0.603471  0.806562  0.500000  1
