# generated using pymatgen
data_Tm3U5Re2(B12W)2
_symmetry_space_group_name_H-M   'P 1'
_cell_length_a   3.63384000
_cell_length_b   9.29847231
_cell_length_c   11.40492148
_cell_angle_alpha   90.02991796
_cell_angle_beta   90.00000000
_cell_angle_gamma   90.00000000
_symmetry_Int_Tables_number   1
_chemical_formula_structural   Tm3U5Re2(B12W)2
_chemical_formula_sum   'Tm3 U5 Re2 B24 W2'
_cell_volume   385.36267130
_cell_formula_units_Z   1
loop_
 _symmetry_equiv_pos_site_id
 _symmetry_equiv_pos_as_xyz
  1  'x, y, z'
loop_
 _atom_site_type_symbol
 _atom_site_label
 _atom_site_symmetry_multiplicity
 _atom_site_fract_x
 _atom_site_fract_y
 _atom_site_fract_z
 _atom_site_occupancy
  Tm  Tm0  1  0.000000  0.337375  0.408017  1
  Tm  Tm1  1  0.000000  0.662972  0.591311  1
  Tm  Tm2  1  0.000000  0.834924  0.093238  1
  U  U3  1  0.000000  0.163452  0.907389  1
  U  U4  1  0.000000  0.956537  0.396192  1
  U  U5  1  0.000000  0.042289  0.603351  1
  U  U6  1  0.000000  0.457433  0.104545  1
  U  U7  1  0.000000  0.544916  0.896945  1
  Re  Re8  1  0.000000  0.645099  0.319489  1
  Re  Re9  1  0.000000  0.353141  0.682541  1
  B  B10  1  0.500000  0.550696  0.431753  1
  B  B11  1  0.500000  0.448718  0.569092  1
  B  B12  1  0.500000  0.051878  0.066396  1
  B  B13  1  0.500000  0.951125  0.930913  1
  B  B14  1  0.500000  0.742036  0.423785  1
  B  B15  1  0.500000  0.257685  0.576283  1
  B  B16  1  0.500000  0.243757  0.074669  1
  B  B17  1  0.500000  0.755651  0.923941  1
  B  B18  1  0.500000  0.801678  0.275693  1
  B  B19  1  0.500000  0.197462  0.726018  1
  B  B20  1  0.500000  0.304069  0.225410  1
  B  B21  1  0.500000  0.696066  0.774476  1
  B  B22  1  0.500000  0.643924  0.189271  1
  B  B23  1  0.500000  0.355537  0.811335  1
  B  B24  1  0.500000  0.144383  0.312486  1
  B  B25  1  0.500000  0.854672  0.687084  1
  B  B26  1  0.500000  0.986702  0.220453  1
  B  B27  1  0.500000  0.014940  0.780649  1
  B  B28  1  0.500000  0.488565  0.281291  1
  B  B29  1  0.500000  0.511712  0.719035  1
  B  B30  1  0.500000  0.640742  0.039719  1
  B  B31  1  0.500000  0.357369  0.959543  1
  B  B32  1  0.500000  0.141216  0.461083  1
  B  B33  1  0.500000  0.858893  0.538488  1
  W  W34  1  0.000000  0.145892  0.178605  1
  W  W35  1  0.000000  0.856492  0.819511  1
