# generated using pymatgen
data_DyHo(H2Br)2
_symmetry_space_group_name_H-M   'P 1'
_cell_length_a   11.19739320
_cell_length_b   11.19739322
_cell_length_c   11.19739306
_cell_angle_alpha   19.30891642
_cell_angle_beta   19.30891917
_cell_angle_gamma   19.30892069
_symmetry_Int_Tables_number   1
_chemical_formula_structural   DyHo(H2Br)2
_chemical_formula_sum   'Dy1 Ho1 H4 Br2'
_cell_volume   134.19556192
_cell_formula_units_Z   1
loop_
 _symmetry_equiv_pos_site_id
 _symmetry_equiv_pos_as_xyz
  1  'x, y, z'
loop_
 _atom_site_type_symbol
 _atom_site_label
 _atom_site_symmetry_multiplicity
 _atom_site_fract_x
 _atom_site_fract_y
 _atom_site_fract_z
 _atom_site_occupancy
  Dy  Dy0  1  0.881642  0.881642  0.881642  1
  Ho  Ho1  1  0.118380  0.118380  0.118380  1
  H  H2  1  0.814396  0.814396  0.814396  1
  H  H3  1  0.185397  0.185397  0.185397  1
  H  H4  1  0.542091  0.542091  0.542091  1
  H  H5  1  0.457868  0.457868  0.457868  1
  Br  Br6  1  0.726328  0.726328  0.726328  1
  Br  Br7  1  0.273898  0.273898  0.273898  1
