# generated using pymatgen
data_Ce3Er(B4Os)4
_symmetry_space_group_name_H-M   'P 1'
_cell_length_a   3.60776100
_cell_length_b   6.00120106
_cell_length_c   11.63639490
_cell_angle_alpha   89.88446463
_cell_angle_beta   90.00000000
_cell_angle_gamma   90.00000000
_symmetry_Int_Tables_number   1
_chemical_formula_structural   Ce3Er(B4Os)4
_chemical_formula_sum   'Ce3 Er1 B16 Os4'
_cell_volume   251.93790000
_cell_formula_units_Z   1
loop_
 _symmetry_equiv_pos_site_id
 _symmetry_equiv_pos_as_xyz
  1  'x, y, z'
loop_
 _atom_site_type_symbol
 _atom_site_label
 _atom_site_symmetry_multiplicity
 _atom_site_fract_x
 _atom_site_fract_y
 _atom_site_fract_z
 _atom_site_occupancy
  Ce  Ce0  1  0.000000  0.629093  0.350119  1
  Ce  Ce1  1  0.000000  0.371000  0.650809  1
  Ce  Ce2  1  0.000000  0.128686  0.148402  1
  Er  Er3  1  0.000000  0.871805  0.851078  1
  B  B4  1  0.500000  0.787561  0.184901  1
  B  B5  1  0.500000  0.211113  0.814315  1
  B  B6  1  0.500000  0.285559  0.313174  1
  B  B7  1  0.500000  0.714190  0.687440  1
  B  B8  1  0.500000  0.863661  0.029908  1
  B  B9  1  0.500000  0.136680  0.968005  1
  B  B10  1  0.500000  0.362099  0.469649  1
  B  B11  1  0.500000  0.637364  0.531371  1
  B  B12  1  0.500000  0.888330  0.454791  1
  B  B13  1  0.500000  0.110835  0.546989  1
  B  B14  1  0.500000  0.388742  0.044374  1
  B  B15  1  0.500000  0.613800  0.952704  1
  B  B16  1  0.500000  0.974385  0.309269  1
  B  B17  1  0.500000  0.025245  0.692332  1
  B  B18  1  0.500000  0.472265  0.189407  1
  B  B19  1  0.500000  0.528180  0.809658  1
  Os  Os20  1  0.000000  0.640527  0.093789  1
  Os  Os21  1  0.000000  0.358371  0.906226  1
  Os  Os22  1  0.000000  0.140826  0.406084  1
  Os  Os23  1  0.000000  0.859684  0.595203  1
