# generated using pymatgen
data_Zr2V3Re
_symmetry_space_group_name_H-M   'P 1'
_cell_length_a   5.29416579
_cell_length_b   5.29416562
_cell_length_c   5.17390807
_cell_angle_alpha   59.22810364
_cell_angle_beta   59.22809806
_cell_angle_gamma   59.99999806
_symmetry_Int_Tables_number   1
_chemical_formula_structural   Zr2V3Re
_chemical_formula_sum   'Zr2 V3 Re1'
_cell_volume   101.32858079
_cell_formula_units_Z   1
loop_
 _symmetry_equiv_pos_site_id
 _symmetry_equiv_pos_as_xyz
  1  'x, y, z'
loop_
 _atom_site_type_symbol
 _atom_site_label
 _atom_site_symmetry_multiplicity
 _atom_site_fract_x
 _atom_site_fract_y
 _atom_site_fract_z
 _atom_site_occupancy
  Zr  Zr0  1  0.250318  0.250318  0.249045  1
  Zr  Zr1  1  0.999682  0.999682  0.000955  1
  V  V2  1  0.625000  0.125000  0.625000  1
  V  V3  1  0.125000  0.625000  0.625000  1
  V  V4  1  0.625000  0.625000  0.625000  1
  Re  Re5  1  0.625000  0.625000  0.125000  1
