# generated using pymatgen
data_Rb6LuSc(RhBr9)2
_symmetry_space_group_name_H-M   'P 1'
_cell_length_a   7.67525600
_cell_length_b   7.67532177
_cell_length_c   19.56479600
_cell_angle_alpha   89.99946814
_cell_angle_beta   90.00054109
_cell_angle_gamma   119.99818051
_symmetry_Int_Tables_number   1
_chemical_formula_structural   Rb6LuSc(RhBr9)2
_chemical_formula_sum   'Rb6 Lu1 Sc1 Rh2 Br18'
_cell_volume   998.16739327
_cell_formula_units_Z   1
loop_
 _symmetry_equiv_pos_site_id
 _symmetry_equiv_pos_as_xyz
  1  'x, y, z'
loop_
 _atom_site_type_symbol
 _atom_site_label
 _atom_site_symmetry_multiplicity
 _atom_site_fract_x
 _atom_site_fract_y
 _atom_site_fract_z
 _atom_site_occupancy
  Rb  Rb0  1  0.333370  0.666711  0.055138  1
  Rb  Rb1  1  0.666716  0.333344  0.939291  1
  Rb  Rb2  1  0.666669  0.333344  0.563658  1
  Rb  Rb3  1  0.333377  0.666624  0.440637  1
  Rb  Rb4  1  0.999923  0.999929  0.260900  1
  Rb  Rb5  1  0.000016  0.999999  0.739582  1
  Lu  Lu6  1  0.666663  0.333350  0.162792  1
  Sc  Sc7  1  0.333312  0.666655  0.835802  1
  Rh  Rh8  1  0.333306  0.666651  0.665511  1
  Rh  Rh9  1  0.666698  0.333370  0.336943  1
  Br  Br10  1  0.179063  0.358220  0.593001  1
  Br  Br11  1  0.820453  0.640916  0.409721  1
  Br  Br12  1  0.641744  0.820832  0.593004  1
  Br  Br13  1  0.834709  0.669370  0.089276  1
  Br  Br14  1  0.359097  0.179569  0.409715  1
  Br  Br15  1  0.168959  0.337941  0.905106  1
  Br  Br16  1  0.179072  0.820846  0.592998  1
  Br  Br17  1  0.330633  0.165341  0.089277  1
  Br  Br18  1  0.820472  0.179579  0.409721  1
  Br  Br19  1  0.662033  0.831007  0.905098  1
  Br  Br20  1  0.834702  0.165325  0.089272  1
  Br  Br21  1  0.168949  0.831019  0.905111  1
  Br  Br22  1  0.509633  0.019121  0.260635  1
  Br  Br23  1  0.489011  0.978045  0.742182  1
  Br  Br24  1  0.980935  0.490471  0.260628  1
  Br  Br25  1  0.021893  0.510956  0.742188  1
  Br  Br26  1  0.509587  0.490502  0.260628  1
  Br  Br27  1  0.489005  0.510962  0.742185  1
