# generated using pymatgen
data_Sr4As4PdAu3
_symmetry_space_group_name_H-M   'P 1'
_cell_length_a   4.40819400
_cell_length_b   8.92296228
_cell_length_c   7.65591405
_cell_angle_alpha   89.97912061
_cell_angle_beta   90.00000000
_cell_angle_gamma   90.00000000
_symmetry_Int_Tables_number   1
_chemical_formula_structural   Sr4As4PdAu3
_chemical_formula_sum   'Sr4 As4 Pd1 Au3'
_cell_volume   301.13884234
_cell_formula_units_Z   1
loop_
 _symmetry_equiv_pos_site_id
 _symmetry_equiv_pos_as_xyz
  1  'x, y, z'
loop_
 _atom_site_type_symbol
 _atom_site_label
 _atom_site_symmetry_multiplicity
 _atom_site_fract_x
 _atom_site_fract_y
 _atom_site_fract_z
 _atom_site_occupancy
  Sr  Sr0  1  0.250000  0.495165  0.246350  1
  Sr  Sr1  1  0.750000  0.495995  0.753308  1
  Sr  Sr2  1  0.750000  0.004421  0.754456  1
  Sr  Sr3  1  0.250000  0.004406  0.244694  1
  As  As4  1  0.250000  0.748832  0.915842  1
  As  As5  1  0.750000  0.249823  0.075216  1
  As  As6  1  0.750000  0.751250  0.416736  1
  As  As7  1  0.250000  0.250107  0.591633  1
  Pd  Pd8  1  0.250000  0.250793  0.919613  1
  Au  Au9  1  0.250000  0.750437  0.582493  1
  Au  Au10  1  0.750000  0.249649  0.415530  1
  Au  Au11  1  0.750000  0.749123  0.084129  1
