# generated using pymatgen
data_Ce4Nd2Ir17Pt
_symmetry_space_group_name_H-M   'P 1'
_cell_length_a   5.35600100
_cell_length_b   5.35599958
_cell_length_c   17.69200100
_cell_angle_alpha   90.00000000
_cell_angle_beta   90.00000000
_cell_angle_gamma   120.00001495
_symmetry_Int_Tables_number   1
_chemical_formula_structural   Ce4Nd2Ir17Pt
_chemical_formula_sum   'Ce4 Nd2 Ir17 Pt1'
_cell_volume   439.53018433
_cell_formula_units_Z   1
loop_
 _symmetry_equiv_pos_site_id
 _symmetry_equiv_pos_as_xyz
  1  'x, y, z'
loop_
 _atom_site_type_symbol
 _atom_site_label
 _atom_site_symmetry_multiplicity
 _atom_site_fract_x
 _atom_site_fract_y
 _atom_site_fract_z
 _atom_site_occupancy
  Ce  Ce0  1  0.666667  0.333333  0.457493  1
  Ce  Ce1  1  0.333333  0.666667  0.542507  1
  Ce  Ce2  1  0.333333  0.666667  0.750318  1
  Ce  Ce3  1  0.666667  0.333333  0.249682  1
  Nd  Nd4  1  0.333333  0.666667  0.957933  1
  Nd  Nd5  1  0.666667  0.333333  0.042067  1
  Ir  Ir6  1  0.167528  0.832472  0.374467  1
  Ir  Ir7  1  0.167528  0.335057  0.374467  1
  Ir  Ir8  1  0.664943  0.832472  0.374467  1
  Ir  Ir9  1  0.832472  0.167528  0.625533  1
  Ir  Ir10  1  0.832472  0.664943  0.625533  1
  Ir  Ir11  1  0.335057  0.167528  0.625533  1
  Ir  Ir12  1  0.832902  0.167098  0.870439  1
  Ir  Ir13  1  0.832902  0.665804  0.870439  1
  Ir  Ir14  1  0.334196  0.167098  0.870439  1
  Ir  Ir15  1  0.167098  0.832902  0.129561  1
  Ir  Ir16  1  0.167098  0.334196  0.129561  1
  Ir  Ir17  1  0.665804  0.832902  0.129561  1
  Ir  Ir18  1  0.333333  0.666667  0.250599  1
  Ir  Ir19  1  0.666667  0.333333  0.749401  1
  Ir  Ir20  1  0.000000  0.000000  0.251383  1
  Ir  Ir21  1  0.000000  0.000000  0.748617  1
  Ir  Ir22  1  0.000000  0.000000  0.500000  1
  Pt  Pt23  1  0.000000  0.000000  0.000000  1
