# generated using pymatgen
data_Sm8Fe(PdPt3)6
_symmetry_space_group_name_H-M   'P 1'
_cell_length_a   8.42485800
_cell_length_b   8.41347900
_cell_length_c   8.45126300
_cell_angle_alpha   90.00000000
_cell_angle_beta   90.00000000
_cell_angle_gamma   90.00000000
_symmetry_Int_Tables_number   1
_chemical_formula_structural   Sm8Fe(PdPt3)6
_chemical_formula_sum   'Sm8 Fe1 Pd6 Pt18'
_cell_volume   599.04551595
_cell_formula_units_Z   1
loop_
 _symmetry_equiv_pos_site_id
 _symmetry_equiv_pos_as_xyz
  1  'x, y, z'
loop_
 _atom_site_type_symbol
 _atom_site_label
 _atom_site_symmetry_multiplicity
 _atom_site_fract_x
 _atom_site_fract_y
 _atom_site_fract_z
 _atom_site_occupancy
  Sm  Sm0  1  0.249824  0.249900  0.250186  1
  Sm  Sm1  1  0.749514  0.749500  0.749828  1
  Sm  Sm2  1  0.750176  0.750100  0.250186  1
  Sm  Sm3  1  0.749514  0.250500  0.749828  1
  Sm  Sm4  1  0.250486  0.250500  0.749828  1
  Sm  Sm5  1  0.249824  0.750100  0.250186  1
  Sm  Sm6  1  0.250486  0.749500  0.749828  1
  Sm  Sm7  1  0.750176  0.249900  0.250186  1
  Fe  Fe8  1  0.000000  0.000000  0.000595  1
  Pd  Pd9  1  0.261997  0.000000  0.500321  1
  Pd  Pd10  1  0.500000  0.000000  0.737763  1
  Pd  Pd11  1  0.738003  0.000000  0.500321  1
  Pd  Pd12  1  0.000000  0.500000  0.262310  1
  Pd  Pd13  1  0.000000  0.500000  0.737187  1
  Pd  Pd14  1  0.500000  0.500000  0.744916  1
  Pt  Pt15  1  0.261752  0.500000  0.000350  1
  Pt  Pt16  1  0.738248  0.500000  0.000350  1
  Pt  Pt17  1  0.000000  0.261294  0.500372  1
  Pt  Pt18  1  0.500000  0.261748  0.000515  1
  Pt  Pt19  1  0.000000  0.738706  0.500372  1
  Pt  Pt20  1  0.500000  0.738252  0.000515  1
  Pt  Pt21  1  0.500000  0.000000  0.262183  1
  Pt  Pt22  1  0.253625  0.500000  0.499636  1
  Pt  Pt23  1  0.746375  0.500000  0.499636  1
  Pt  Pt24  1  0.500000  0.253739  0.499114  1
  Pt  Pt25  1  0.500000  0.746261  0.499114  1
  Pt  Pt26  1  0.500000  0.500000  0.254530  1
  Pt  Pt27  1  0.294292  0.000000  0.999773  1
  Pt  Pt28  1  0.705708  0.000000  0.999773  1
  Pt  Pt29  1  0.000000  0.294675  0.999500  1
  Pt  Pt30  1  0.000000  0.705325  0.999500  1
  Pt  Pt31  1  0.000000  0.000000  0.294489  1
  Pt  Pt32  1  0.000000  0.000000  0.706811  1
