# generated using pymatgen
data_Cs3Hf2AgTe10
_symmetry_space_group_name_H-M   'P 1'
_cell_length_a   10.24526137
_cell_length_b   11.36407195
_cell_length_c   11.58472007
_cell_angle_alpha   89.25651276
_cell_angle_beta   89.76391733
_cell_angle_gamma   77.79532131
_symmetry_Int_Tables_number   1
_chemical_formula_structural   Cs3Hf2AgTe10
_chemical_formula_sum   'Cs6 Hf4 Ag2 Te20'
_cell_volume   1318.18781561
_cell_formula_units_Z   2
loop_
 _symmetry_equiv_pos_site_id
 _symmetry_equiv_pos_as_xyz
  1  'x, y, z'
loop_
 _atom_site_type_symbol
 _atom_site_label
 _atom_site_symmetry_multiplicity
 _atom_site_fract_x
 _atom_site_fract_y
 _atom_site_fract_z
 _atom_site_occupancy
  Cs  Cs0  1  0.881042  0.892219  0.256750  1
  Cs  Cs1  1  0.118958  0.107781  0.743250  1
  Cs  Cs2  1  0.444834  0.766794  0.387192  1
  Cs  Cs3  1  0.555166  0.233206  0.612808  1
  Cs  Cs4  1  0.300711  0.627968  0.894736  1
  Cs  Cs5  1  0.699289  0.372032  0.105264  1
  Hf  Hf6  1  0.108237  0.375932  0.364556  1
  Hf  Hf7  1  0.891763  0.624068  0.635444  1
  Hf  Hf8  1  0.309528  0.158290  0.142828  1
  Hf  Hf9  1  0.690472  0.841710  0.857172  1
  Ag  Ag10  1  0.910172  0.360689  0.564307  1
  Ag  Ag11  1  0.089828  0.639311  0.435693  1
  Te  Te12  1  0.839390  0.561450  0.399503  1
  Te  Te13  1  0.160610  0.438550  0.600497  1
  Te  Te14  1  0.932892  0.199771  0.389243  1
  Te  Te15  1  0.067108  0.800229  0.610757  1
  Te  Te16  1  0.199128  0.578986  0.224870  1
  Te  Te17  1  0.800872  0.421014  0.775130  1
  Te  Te18  1  0.217403  0.117382  0.387360  1
  Te  Te19  1  0.782597  0.882618  0.612640  1
  Te  Te20  1  0.079999  0.360285  0.111306  1
  Te  Te21  1  0.920001  0.639715  0.888694  1
  Te  Te22  1  0.390586  0.352191  0.289544  1
  Te  Te23  1  0.609414  0.647809  0.710456  1
  Te  Te24  1  0.047172  0.121590  0.067028  1
  Te  Te25  1  0.952828  0.878410  0.932972  1
  Te  Te26  1  0.525546  0.088683  0.305595  1
  Te  Te27  1  0.474454  0.911317  0.694405  1
  Te  Te28  1  0.331947  0.914779  0.069669  1
  Te  Te29  1  0.668053  0.085221  0.930331  1
  Te  Te30  1  0.410007  0.244167  0.933323  1
  Te  Te31  1  0.589993  0.755833  0.066677  1
