# generated using pymatgen
data_La2Ho4Zn7Rh11
_symmetry_space_group_name_H-M   'P 1'
_cell_length_a   5.59055300
_cell_length_b   5.48542139
_cell_length_c   16.24241398
_cell_angle_alpha   90.35838965
_cell_angle_beta   90.00000000
_cell_angle_gamma   120.63603950
_symmetry_Int_Tables_number   1
_chemical_formula_structural   La2Ho4Zn7Rh11
_chemical_formula_sum   'La2 Ho4 Zn7 Rh11'
_cell_volume   428.56352106
_cell_formula_units_Z   1
loop_
 _symmetry_equiv_pos_site_id
 _symmetry_equiv_pos_as_xyz
  1  'x, y, z'
loop_
 _atom_site_type_symbol
 _atom_site_label
 _atom_site_symmetry_multiplicity
 _atom_site_fract_x
 _atom_site_fract_y
 _atom_site_fract_z
 _atom_site_occupancy
  La  La0  1  0.332939  0.665880  0.748936  1
  La  La1  1  0.667045  0.334089  0.256118  1
  Ho  Ho2  1  0.333106  0.666214  0.539173  1
  Ho  Ho3  1  0.669359  0.338716  0.035692  1
  Ho  Ho4  1  0.667319  0.334637  0.463517  1
  Ho  Ho5  1  0.338936  0.677874  0.956383  1
  Zn  Zn6  1  0.167846  0.335694  0.124095  1
  Zn  Zn7  1  0.996043  0.992085  0.250534  1
  Zn  Zn8  1  0.998567  0.997133  0.750335  1
  Zn  Zn9  1  0.336061  0.672123  0.250814  1
  Zn  Zn10  1  0.666685  0.333369  0.749751  1
  Zn  Zn11  1  0.999040  0.998079  0.999291  1
  Zn  Zn12  1  0.000805  0.001610  0.500028  1
  Rh  Rh13  1  0.829923  0.659845  0.621446  1
  Rh  Rh14  1  0.659149  0.825883  0.122193  1
  Rh  Rh15  1  0.166732  0.825883  0.122193  1
  Rh  Rh16  1  0.831296  0.166211  0.623978  1
  Rh  Rh17  1  0.334915  0.166211  0.623978  1
  Rh  Rh18  1  0.832017  0.664033  0.875970  1
  Rh  Rh19  1  0.833555  0.172098  0.877498  1
  Rh  Rh20  1  0.338544  0.172098  0.877498  1
  Rh  Rh21  1  0.662177  0.832004  0.377203  1
  Rh  Rh22  1  0.169826  0.832004  0.377203  1
  Rh  Rh23  1  0.168114  0.336229  0.376171  1
