# generated using pymatgen
data_Gd8In4Ga7Sn
_symmetry_space_group_name_H-M   'P 1'
_cell_length_a   7.36337202
_cell_length_b   7.36337046
_cell_length_c   9.07972600
_cell_angle_alpha   89.99589153
_cell_angle_beta   89.99589153
_cell_angle_gamma   90.55338315
_symmetry_Int_Tables_number   1
_chemical_formula_structural   Gd8In4Ga7Sn
_chemical_formula_sum   'Gd8 In4 Ga7 Sn1'
_cell_volume   492.27284279
_cell_formula_units_Z   1
loop_
 _symmetry_equiv_pos_site_id
 _symmetry_equiv_pos_as_xyz
  1  'x, y, z'
loop_
 _atom_site_type_symbol
 _atom_site_label
 _atom_site_symmetry_multiplicity
 _atom_site_fract_x
 _atom_site_fract_y
 _atom_site_fract_z
 _atom_site_occupancy
  Gd  Gd0  1  0.822821  0.172854  0.503856  1
  Gd  Gd1  1  0.172854  0.822821  0.503856  1
  Gd  Gd2  1  0.332090  0.332090  0.994415  1
  Gd  Gd3  1  0.671176  0.671176  0.997315  1
  Gd  Gd4  1  0.671407  0.671407  0.502470  1
  Gd  Gd5  1  0.332273  0.332273  0.505988  1
  Gd  Gd6  1  0.172159  0.823488  0.996279  1
  Gd  Gd7  1  0.823488  0.172159  0.996279  1
  In  In8  1  0.510822  0.996123  0.249746  1
  In  In9  1  0.998713  0.499130  0.750077  1
  In  In10  1  0.499130  0.998713  0.750077  1
  In  In11  1  0.996123  0.510822  0.249746  1
  Ga  Ga12  1  0.625071  0.375616  0.249693  1
  Ga  Ga13  1  0.375616  0.625071  0.249693  1
  Ga  Ga14  1  0.124826  0.124826  0.750339  1
  Ga  Ga15  1  0.875058  0.875058  0.749518  1
  Ga  Ga16  1  0.375435  0.625524  0.750057  1
  Ga  Ga17  1  0.625524  0.375435  0.750057  1
  Ga  Ga18  1  0.868218  0.868218  0.250003  1
  Sn  Sn19  1  0.127195  0.127195  0.250540  1
