# generated using pymatgen
data_Er2CuSiCl2
_symmetry_space_group_name_H-M   'P 1'
_cell_length_a   3.90756100
_cell_length_b   3.90756080
_cell_length_c   10.50351900
_cell_angle_alpha   90.00000000
_cell_angle_beta   90.00000000
_cell_angle_gamma   120.00002706
_symmetry_Int_Tables_number   1
_chemical_formula_structural   Er2CuSiCl2
_chemical_formula_sum   'Er2 Cu1 Si1 Cl2'
_cell_volume   138.89187783
_cell_formula_units_Z   1
loop_
 _symmetry_equiv_pos_site_id
 _symmetry_equiv_pos_as_xyz
  1  'x, y, z'
loop_
 _atom_site_type_symbol
 _atom_site_label
 _atom_site_symmetry_multiplicity
 _atom_site_fract_x
 _atom_site_fract_y
 _atom_site_fract_z
 _atom_site_occupancy
  Er  Er0  1  0.000000  0.000000  0.183374  1
  Er  Er1  1  0.000000  0.000000  0.815509  1
  Cu  Cu2  1  0.333333  0.666667  0.013770  1
  Si  Si3  1  0.666667  0.333333  0.988484  1
  Cl  Cl4  1  0.333333  0.666667  0.661324  1
  Cl  Cl5  1  0.666667  0.333333  0.337540  1
