# generated using pymatgen
data_La4Lu(SnSb)2
_symmetry_space_group_name_H-M   'P 1'
_cell_length_a   9.13986200
_cell_length_b   9.13986289
_cell_length_c   8.50842900
_cell_angle_alpha   90.00000000
_cell_angle_beta   90.00000000
_cell_angle_gamma   124.89387144
_symmetry_Int_Tables_number   1
_chemical_formula_structural   La4Lu(SnSb)2
_chemical_formula_sum   'La8 Lu2 Sn4 Sb4'
_cell_volume   582.98231958
_cell_formula_units_Z   2
loop_
 _symmetry_equiv_pos_site_id
 _symmetry_equiv_pos_as_xyz
  1  'x, y, z'
loop_
 _atom_site_type_symbol
 _atom_site_label
 _atom_site_symmetry_multiplicity
 _atom_site_fract_x
 _atom_site_fract_y
 _atom_site_fract_z
 _atom_site_occupancy
  La  La0  1  0.028977  0.305343  0.336937  1
  La  La1  1  0.971023  0.694657  0.663063  1
  La  La2  1  0.471023  0.194657  0.836937  1
  La  La3  1  0.805343  0.528977  0.163063  1
  La  La4  1  0.528977  0.805343  0.163063  1
  La  La5  1  0.194657  0.471023  0.836937  1
  La  La6  1  0.694657  0.971023  0.663063  1
  La  La7  1  0.305343  0.028977  0.336937  1
  Lu  Lu8  1  0.000000  0.000000  0.000000  1
  Lu  Lu9  1  0.500000  0.500000  0.500000  1
  Sn  Sn10  1  0.363063  0.363063  0.135287  1
  Sn  Sn11  1  0.636937  0.636937  0.864713  1
  Sn  Sn12  1  0.136937  0.136937  0.635287  1
  Sn  Sn13  1  0.863063  0.863063  0.364713  1
  Sb  Sb14  1  0.805128  0.194872  0.000000  1
  Sb  Sb15  1  0.194872  0.805128  0.000000  1
  Sb  Sb16  1  0.694872  0.305128  0.500000  1
  Sb  Sb17  1  0.305128  0.694872  0.500000  1
