# generated using pymatgen
data_Pr2Dy2YSn3
_symmetry_space_group_name_H-M   'P 1'
_cell_length_a   9.12078625
_cell_length_b   9.20111223
_cell_length_c   6.68395000
_cell_angle_alpha   90.00000000
_cell_angle_beta   90.00000000
_cell_angle_gamma   120.29175655
_symmetry_Int_Tables_number   1
_chemical_formula_structural   Pr2Dy2YSn3
_chemical_formula_sum   'Pr4 Dy4 Y2 Sn6'
_cell_volume   484.34197842
_cell_formula_units_Z   2
loop_
 _symmetry_equiv_pos_site_id
 _symmetry_equiv_pos_as_xyz
  1  'x, y, z'
loop_
 _atom_site_type_symbol
 _atom_site_label
 _atom_site_symmetry_multiplicity
 _atom_site_fract_x
 _atom_site_fract_y
 _atom_site_fract_z
 _atom_site_occupancy
  Pr  Pr0  1  0.761916  0.761053  0.250000  1
  Pr  Pr1  1  0.761916  0.000864  0.750000  1
  Pr  Pr2  1  0.238084  0.238947  0.750000  1
  Pr  Pr3  1  0.238084  0.999136  0.250000  1
  Dy  Dy4  1  0.333064  0.666532  0.500000  1
  Dy  Dy5  1  0.666936  0.333468  0.000000  1
  Dy  Dy6  1  0.666936  0.333468  0.500000  1
  Dy  Dy7  1  0.333064  0.666532  0.000000  1
  Y  Y8  1  0.000000  0.754591  0.750000  1
  Y  Y9  1  0.000000  0.245409  0.250000  1
  Sn  Sn10  1  0.394423  0.997145  0.750000  1
  Sn  Sn11  1  0.394423  0.397277  0.250000  1
  Sn  Sn12  1  0.000000  0.597375  0.250000  1
  Sn  Sn13  1  0.000000  0.402625  0.750000  1
  Sn  Sn14  1  0.605577  0.602723  0.750000  1
  Sn  Sn15  1  0.605577  0.002855  0.250000  1
