# generated using pymatgen
data_LiGaSiRh2
_symmetry_space_group_name_H-M   'P 1'
_cell_length_a   7.13584729
_cell_length_b   7.10787629
_cell_length_c   2.83848300
_cell_angle_alpha   90.00000000
_cell_angle_beta   90.00000000
_cell_angle_gamma   89.96719229
_symmetry_Int_Tables_number   1
_chemical_formula_structural   LiGaSiRh2
_chemical_formula_sum   'Li2 Ga2 Si2 Rh4'
_cell_volume   143.96987727
_cell_formula_units_Z   2
loop_
 _symmetry_equiv_pos_site_id
 _symmetry_equiv_pos_as_xyz
  1  'x, y, z'
loop_
 _atom_site_type_symbol
 _atom_site_label
 _atom_site_symmetry_multiplicity
 _atom_site_fract_x
 _atom_site_fract_y
 _atom_site_fract_z
 _atom_site_occupancy
  Li  Li0  1  0.998929  0.000203  0.000000  1
  Li  Li1  1  0.501077  0.500176  0.000000  1
  Ga  Ga2  1  0.145415  0.648617  0.000000  1
  Ga  Ga3  1  0.354526  0.148660  0.000000  1
  Si  Si4  1  0.646398  0.859167  0.000000  1
  Si  Si5  1  0.853636  0.359209  0.000000  1
  Rh  Rh6  1  0.130773  0.343509  0.500000  1
  Rh  Rh7  1  0.369301  0.843573  0.500000  1
  Rh  Rh8  1  0.669130  0.148392  0.500000  1
  Rh  Rh9  1  0.830815  0.648494  0.500000  1
