# generated using pymatgen
data_SmBeRu2C
_symmetry_space_group_name_H-M   'P 1'
_cell_length_a   3.84899700
_cell_length_b   5.67324638
_cell_length_c   7.12789300
_cell_angle_alpha   90.00000000
_cell_angle_beta   90.00000000
_cell_angle_gamma   70.17043274
_symmetry_Int_Tables_number   1
_chemical_formula_structural   SmBeRu2C
_chemical_formula_sum   'Sm2 Be2 Ru4 C2'
_cell_volume   146.41791866
_cell_formula_units_Z   2
loop_
 _symmetry_equiv_pos_site_id
 _symmetry_equiv_pos_as_xyz
  1  'x, y, z'
loop_
 _atom_site_type_symbol
 _atom_site_label
 _atom_site_symmetry_multiplicity
 _atom_site_fract_x
 _atom_site_fract_y
 _atom_site_fract_z
 _atom_site_occupancy
  Sm  Sm0  1  0.954928  0.090145  0.250000  1
  Sm  Sm1  1  0.045073  0.909856  0.749999  1
  Be  Be2  1  0.228823  0.542355  0.250000  1
  Be  Be3  1  0.771178  0.457645  0.749999  1
  Ru  Ru4  1  0.673588  0.652825  0.057290  1
  Ru  Ru5  1  0.673588  0.652825  0.442710  1
  Ru  Ru6  1  0.326413  0.347175  0.557290  1
  Ru  Ru7  1  0.326413  0.347175  0.942710  1
  C  C8  1  0.500000  0.000000  0.000000  1
  C  C9  1  0.500000  0.000000  0.500001  1
