# generated using pymatgen
data_NbNiPt7
_symmetry_space_group_name_H-M   'P 1'
_cell_length_a   6.23010959
_cell_length_b   6.23010958
_cell_length_c   6.27408152
_cell_angle_alpha   95.64472234
_cell_angle_beta   95.64471724
_cell_angle_gamma   143.31119417
_symmetry_Int_Tables_number   1
_chemical_formula_structural   NbNiPt7
_chemical_formula_sum   'Nb1 Ni1 Pt7'
_cell_volume   138.20989718
_cell_formula_units_Z   1
loop_
 _symmetry_equiv_pos_site_id
 _symmetry_equiv_pos_as_xyz
  1  'x, y, z'
loop_
 _atom_site_type_symbol
 _atom_site_label
 _atom_site_symmetry_multiplicity
 _atom_site_fract_x
 _atom_site_fract_y
 _atom_site_fract_z
 _atom_site_occupancy
  Nb  Nb0  1  0.001837  0.998163  0.000000  1
  Ni  Ni1  1  0.663057  0.336944  0.000000  1
  Pt  Pt2  1  0.333813  0.666188  0.000000  1
  Pt  Pt3  1  0.662919  0.657793  0.320712  1
  Pt  Pt4  1  0.325273  0.995171  0.320444  1
  Pt  Pt5  1  0.997066  0.331000  0.328066  1
  Pt  Pt6  1  0.669000  0.002934  0.671934  1
  Pt  Pt7  1  0.004829  0.674727  0.679556  1
  Pt  Pt8  1  0.342208  0.337082  0.679288  1
