# generated using pymatgen
data_Nb10Ga6S
_symmetry_space_group_name_H-M   'P 1'
_cell_length_a   7.85507700
_cell_length_b   7.85507842
_cell_length_c   5.38077100
_cell_angle_alpha   90.00000000
_cell_angle_beta   90.00000000
_cell_angle_gamma   120.00000667
_symmetry_Int_Tables_number   1
_chemical_formula_structural   Nb10Ga6S
_chemical_formula_sum   'Nb10 Ga6 S1'
_cell_volume   287.52531197
_cell_formula_units_Z   1
loop_
 _symmetry_equiv_pos_site_id
 _symmetry_equiv_pos_as_xyz
  1  'x, y, z'
loop_
 _atom_site_type_symbol
 _atom_site_label
 _atom_site_symmetry_multiplicity
 _atom_site_fract_x
 _atom_site_fract_y
 _atom_site_fract_z
 _atom_site_occupancy
  Nb  Nb0  1  0.000000  0.748961  0.226175  1
  Nb  Nb1  1  0.251039  0.251039  0.226175  1
  Nb  Nb2  1  0.748961  0.000000  0.226175  1
  Nb  Nb3  1  0.000000  0.251039  0.773825  1
  Nb  Nb4  1  0.748961  0.748961  0.773825  1
  Nb  Nb5  1  0.251039  0.000000  0.773825  1
  Nb  Nb6  1  0.333333  0.666667  0.500000  1
  Nb  Nb7  1  0.666667  0.333333  0.500000  1
  Nb  Nb8  1  0.666667  0.333333  0.000000  1
  Nb  Nb9  1  0.333333  0.666667  0.000000  1
  Ga  Ga10  1  0.000000  0.398049  0.253661  1
  Ga  Ga11  1  0.601951  0.601951  0.253661  1
  Ga  Ga12  1  0.398049  0.000000  0.253661  1
  Ga  Ga13  1  0.000000  0.601951  0.746339  1
  Ga  Ga14  1  0.398049  0.398049  0.746339  1
  Ga  Ga15  1  0.601951  0.000000  0.746339  1
  S  S16  1  0.000000  0.000000  0.500000  1
