# generated using pymatgen
data_RbNd6(CBr6)2
_symmetry_space_group_name_H-M   'P 1'
_cell_length_a   9.22007350
_cell_length_b   9.20390040
_cell_length_c   9.76674831
_cell_angle_alpha   71.22086114
_cell_angle_beta   70.05830502
_cell_angle_gamma   72.38326554
_symmetry_Int_Tables_number   1
_chemical_formula_structural   RbNd6(CBr6)2
_chemical_formula_sum   'Rb1 Nd6 C2 Br12'
_cell_volume   720.11611460
_cell_formula_units_Z   1
loop_
 _symmetry_equiv_pos_site_id
 _symmetry_equiv_pos_as_xyz
  1  'x, y, z'
loop_
 _atom_site_type_symbol
 _atom_site_label
 _atom_site_symmetry_multiplicity
 _atom_site_fract_x
 _atom_site_fract_y
 _atom_site_fract_z
 _atom_site_occupancy
  Rb  Rb0  1  0.000008  0.499993  0.999996  1
  Nd  Nd1  1  0.477526  0.121511  0.180518  1
  Nd  Nd2  1  0.782652  0.033582  0.405220  1
  Nd  Nd3  1  0.596794  0.720768  0.473576  1
  Nd  Nd4  1  0.403206  0.279238  0.526421  1
  Nd  Nd5  1  0.217350  0.966415  0.594783  1
  Nd  Nd6  1  0.522472  0.878486  0.819492  1
  C  C7  1  0.494157  0.026855  0.425262  1
  C  C8  1  0.505834  0.973151  0.574742  1
  Br  Br9  1  0.801531  0.167997  0.082224  1
  Br  Br10  1  0.591199  0.789173  0.140949  1
  Br  Br11  1  0.347848  0.436519  0.225683  1
  Br  Br12  1  0.137508  0.075267  0.296144  1
  Br  Br13  1  0.927217  0.723258  0.350613  1
  Br  Br14  1  0.713492  0.368075  0.426993  1
  Br  Br15  1  0.286511  0.631924  0.573006  1
  Br  Br16  1  0.072784  0.276741  0.649386  1
  Br  Br17  1  0.862492  0.924731  0.703857  1
  Br  Br18  1  0.652156  0.563484  0.774309  1
  Br  Br19  1  0.408799  0.210828  0.859051  1
  Br  Br20  1  0.198468  0.832001  0.917777  1
