# generated using pymatgen
data_Tb9Ho(Bi3C)2
_symmetry_space_group_name_H-M   'P 1'
_cell_length_a   9.18971603
_cell_length_b   9.18971750
_cell_length_c   6.52455200
_cell_angle_alpha   90.00000000
_cell_angle_beta   90.00000000
_cell_angle_gamma   119.99006529
_symmetry_Int_Tables_number   1
_chemical_formula_structural   Tb9Ho(Bi3C)2
_chemical_formula_sum   'Tb9 Ho1 Bi6 C2'
_cell_volume   477.23144228
_cell_formula_units_Z   1
loop_
 _symmetry_equiv_pos_site_id
 _symmetry_equiv_pos_as_xyz
  1  'x, y, z'
loop_
 _atom_site_type_symbol
 _atom_site_label
 _atom_site_symmetry_multiplicity
 _atom_site_fract_x
 _atom_site_fract_y
 _atom_site_fract_z
 _atom_site_occupancy
  Tb  Tb0  1  0.666671  0.333325  0.000072  1
  Tb  Tb1  1  0.333325  0.666671  0.000072  1
  Tb  Tb2  1  0.333325  0.666671  0.499928  1
  Tb  Tb3  1  0.666671  0.333325  0.499928  1
  Tb  Tb4  1  0.208553  0.999895  0.750000  1
  Tb  Tb5  1  0.999895  0.208553  0.750000  1
  Tb  Tb6  1  0.208381  0.208381  0.250000  1
  Tb  Tb7  1  0.791077  0.999658  0.250000  1
  Tb  Tb8  1  0.999658  0.791077  0.250000  1
  Ho  Ho9  1  0.794528  0.794528  0.750000  1
  Bi  Bi10  1  0.402371  0.402371  0.750000  1
  Bi  Bi11  1  0.598314  0.999375  0.750000  1
  Bi  Bi12  1  0.999375  0.598314  0.750000  1
  Bi  Bi13  1  0.598013  0.598013  0.250000  1
  Bi  Bi14  1  0.401745  0.000087  0.250000  1
  Bi  Bi15  1  0.000087  0.401745  0.250000  1
  C  C16  1  0.999007  0.999007  0.999182  1
  C  C17  1  0.999007  0.999007  0.500818  1
