# generated using pymatgen
data_Tb12Ga9Si9Ge2
_symmetry_space_group_name_H-M   'P 1'
_cell_length_a   6.00053370
_cell_length_b   6.00053401
_cell_length_c   18.74006600
_cell_angle_alpha   90.00000000
_cell_angle_beta   90.00000000
_cell_angle_gamma   102.81692951
_symmetry_Int_Tables_number   1
_chemical_formula_structural   Tb12Ga9Si9Ge2
_chemical_formula_sum   'Tb12 Ga9 Si9 Ge2'
_cell_volume   657.94995246
_cell_formula_units_Z   1
loop_
 _symmetry_equiv_pos_site_id
 _symmetry_equiv_pos_as_xyz
  1  'x, y, z'
loop_
 _atom_site_type_symbol
 _atom_site_label
 _atom_site_symmetry_multiplicity
 _atom_site_fract_x
 _atom_site_fract_y
 _atom_site_fract_z
 _atom_site_occupancy
  Tb  Tb0  1  0.653053  0.653053  0.000000  1
  Tb  Tb1  1  0.661835  0.661835  0.500000  1
  Tb  Tb2  1  0.339072  0.339072  0.250404  1
  Tb  Tb3  1  0.339072  0.339072  0.749596  1
  Tb  Tb4  1  0.200925  0.801208  0.128397  1
  Tb  Tb5  1  0.199202  0.801423  0.625018  1
  Tb  Tb6  1  0.200925  0.801208  0.871603  1
  Tb  Tb7  1  0.199202  0.801423  0.374982  1
  Tb  Tb8  1  0.801208  0.200925  0.128397  1
  Tb  Tb9  1  0.801423  0.199202  0.625018  1
  Tb  Tb10  1  0.801423  0.199202  0.374982  1
  Tb  Tb11  1  0.801208  0.200925  0.871603  1
  Ga  Ga12  1  0.316473  0.316473  0.902825  1
  Ga  Ga13  1  0.323143  0.323143  0.402734  1
  Ga  Ga14  1  0.678105  0.678105  0.347637  1
  Ga  Ga15  1  0.678151  0.678151  0.847151  1
  Ga  Ga16  1  0.316473  0.316473  0.097175  1
  Ga  Ga17  1  0.323143  0.323143  0.597266  1
  Ga  Ga18  1  0.678151  0.678151  0.152849  1
  Ga  Ga19  1  0.678105  0.678105  0.652363  1
  Ga  Ga20  1  0.039657  0.039657  0.000000  1
  Si  Si21  1  0.482310  0.089839  0.500000  1
  Si  Si22  1  0.912041  0.519461  0.250737  1
  Si  Si23  1  0.912041  0.519461  0.749263  1
  Si  Si24  1  0.519461  0.912041  0.250737  1
  Si  Si25  1  0.519461  0.912041  0.749263  1
  Si  Si26  1  0.089839  0.482310  0.500000  1
  Si  Si27  1  0.054311  0.054311  0.500000  1
  Si  Si28  1  0.947190  0.947190  0.250983  1
  Si  Si29  1  0.947190  0.947190  0.749017  1
  Ge  Ge30  1  0.497962  0.088251  0.000000  1
  Ge  Ge31  1  0.088251  0.497962  0.000000  1
