# generated using pymatgen
data_LiZr2(TaRu2)3
_symmetry_space_group_name_H-M   'P 1'
_cell_length_a   4.49465000
_cell_length_b   6.36003200
_cell_length_c   13.46322800
_cell_angle_alpha   90.00000000
_cell_angle_beta   90.00000000
_cell_angle_gamma   90.00000000
_symmetry_Int_Tables_number   1
_chemical_formula_structural   LiZr2(TaRu2)3
_chemical_formula_sum   'Li2 Zr4 Ta6 Ru12'
_cell_volume   384.86142196
_cell_formula_units_Z   2
loop_
 _symmetry_equiv_pos_site_id
 _symmetry_equiv_pos_as_xyz
  1  'x, y, z'
loop_
 _atom_site_type_symbol
 _atom_site_label
 _atom_site_symmetry_multiplicity
 _atom_site_fract_x
 _atom_site_fract_y
 _atom_site_fract_z
 _atom_site_occupancy
  Li  Li0  1  0.000319  0.000000  0.668202  1
  Li  Li1  1  0.500318  0.500000  0.831798  1
  Zr  Zr2  1  0.999970  0.000000  0.992028  1
  Zr  Zr3  1  0.499794  0.500000  0.162409  1
  Zr  Zr4  1  0.999795  0.000000  0.337592  1
  Zr  Zr5  1  0.499971  0.500000  0.507972  1
  Ta  Ta6  1  0.999951  0.500000  0.984740  1
  Ta  Ta7  1  0.499818  0.000000  0.163230  1
  Ta  Ta8  1  0.999817  0.500000  0.336770  1
  Ta  Ta9  1  0.499952  0.000000  0.515260  1
  Ta  Ta10  1  0.000162  0.500000  0.676497  1
  Ta  Ta11  1  0.500160  0.000000  0.823502  1
  Ru  Ru12  1  0.499977  0.250438  0.996122  1
  Ru  Ru13  1  0.499977  0.749563  0.996122  1
  Ru  Ru14  1  0.999792  0.248380  0.165138  1
  Ru  Ru15  1  0.999792  0.751621  0.165138  1
  Ru  Ru16  1  0.499791  0.251620  0.334861  1
  Ru  Ru17  1  0.499791  0.748380  0.334861  1
  Ru  Ru18  1  0.999976  0.249561  0.503878  1
  Ru  Ru19  1  0.999976  0.750438  0.503878  1
  Ru  Ru20  1  0.500226  0.248951  0.670053  1
  Ru  Ru21  1  0.500226  0.751049  0.670053  1
  Ru  Ru22  1  0.000225  0.251049  0.829947  1
  Ru  Ru23  1  0.000225  0.748952  0.829947  1
