# generated using pymatgen
data_RbV(PO3)4
_symmetry_space_group_name_H-M   'P 1'
_cell_length_a   10.66500180
_cell_length_b   10.66500193
_cell_length_c   5.34457772
_cell_angle_alpha   80.42492065
_cell_angle_beta   80.42491701
_cell_angle_gamma   72.36164044
_symmetry_Int_Tables_number   1
_chemical_formula_structural   RbV(PO3)4
_chemical_formula_sum   'Rb2 V2 P8 O24'
_cell_volume   566.89032631
_cell_formula_units_Z   2
loop_
 _symmetry_equiv_pos_site_id
 _symmetry_equiv_pos_as_xyz
  1  'x, y, z'
loop_
 _atom_site_type_symbol
 _atom_site_label
 _atom_site_symmetry_multiplicity
 _atom_site_fract_x
 _atom_site_fract_y
 _atom_site_fract_z
 _atom_site_occupancy
  Rb  Rb0  1  0.402278  0.402278  0.746745  1
  Rb  Rb1  1  0.597722  0.597722  0.253255  1
  V  V2  1  0.500000  0.000000  0.000000  1
  V  V3  1  0.000000  0.500000  0.000000  1
  P  P4  1  0.802580  0.350753  0.835451  1
  P  P5  1  0.069414  0.306851  0.535846  1
  P  P6  1  0.306851  0.069414  0.535846  1
  P  P7  1  0.649247  0.197420  0.164549  1
  P  P8  1  0.350753  0.802580  0.835451  1
  P  P9  1  0.693149  0.930586  0.464154  1
  P  P10  1  0.930586  0.693149  0.464154  1
  P  P11  1  0.197420  0.649247  0.164549  1
  O  O12  1  0.420675  0.852636  0.008310  1
  O  O13  1  0.394270  0.101288  0.696016  1
  O  O14  1  0.426846  0.682383  0.715122  1
  O  O15  1  0.147364  0.579325  0.991690  1
  O  O16  1  0.579325  0.147364  0.991690  1
  O  O17  1  0.913512  0.656590  0.750063  1
  O  O18  1  0.213021  0.786979  0.000000  1
  O  O19  1  0.573154  0.317617  0.284878  1
  O  O20  1  0.605730  0.898712  0.303984  1
  O  O21  1  0.711497  0.075409  0.374838  1
  O  O22  1  0.317617  0.573154  0.284878  1
  O  O23  1  0.898712  0.605730  0.303984  1
  O  O24  1  0.852636  0.420675  0.008310  1
  O  O25  1  0.075409  0.711497  0.374838  1
  O  O26  1  0.156153  0.156153  0.599922  1
  O  O27  1  0.101288  0.394270  0.696016  1
  O  O28  1  0.682383  0.426846  0.715122  1
  O  O29  1  0.288503  0.924591  0.625162  1
  O  O30  1  0.786979  0.213021  0.000000  1
  O  O31  1  0.343410  0.086488  0.249937  1
  O  O32  1  0.656590  0.913512  0.750063  1
  O  O33  1  0.843847  0.843847  0.400078  1
  O  O34  1  0.924591  0.288503  0.625162  1
  O  O35  1  0.086488  0.343410  0.249937  1
