# generated using pymatgen
data_Gd4ErSiSe4
_symmetry_space_group_name_H-M   'P 1'
_cell_length_a   7.15470505
_cell_length_b   7.15469955
_cell_length_c   7.15429135
_cell_angle_alpha   99.45300317
_cell_angle_beta   99.45278216
_cell_angle_gamma   132.18732922
_symmetry_Int_Tables_number   1
_chemical_formula_structural   Gd4ErSiSe4
_chemical_formula_sum   'Gd4 Er1 Si1 Se4'
_cell_volume   248.07228789
_cell_formula_units_Z   1
loop_
 _symmetry_equiv_pos_site_id
 _symmetry_equiv_pos_as_xyz
  1  'x, y, z'
loop_
 _atom_site_type_symbol
 _atom_site_label
 _atom_site_symmetry_multiplicity
 _atom_site_fract_x
 _atom_site_fract_y
 _atom_site_fract_z
 _atom_site_occupancy
  Gd  Gd0  1  0.403487  0.790151  0.193643  1
  Gd  Gd1  1  0.596513  0.209849  0.806357  1
  Gd  Gd2  1  0.209848  0.403620  0.613498  1
  Gd  Gd3  1  0.790152  0.596380  0.386502  1
  Er  Er4  1  0.000000  0.000000  0.000000  1
  Si  Si5  1  0.500000  0.500000  0.000000  1
  Se  Se6  1  0.096672  0.700172  0.796843  1
  Se  Se7  1  0.700115  0.903282  0.603427  1
  Se  Se8  1  0.299885  0.096718  0.396573  1
  Se  Se9  1  0.903328  0.299828  0.203157  1
