# generated using pymatgen
data_Ta12Ga8Cu4C3N
_symmetry_space_group_name_H-M   'P 1'
_cell_length_a   8.27013378
_cell_length_b   8.27013379
_cell_length_c   8.25754481
_cell_angle_alpha   59.94949085
_cell_angle_beta   59.94949419
_cell_angle_gamma   59.99991042
_symmetry_Int_Tables_number   1
_chemical_formula_structural   Ta12Ga8Cu4C3N
_chemical_formula_sum   'Ta12 Ga8 Cu4 C3 N1'
_cell_volume   399.05131510
_cell_formula_units_Z   1
loop_
 _symmetry_equiv_pos_site_id
 _symmetry_equiv_pos_as_xyz
  1  'x, y, z'
loop_
 _atom_site_type_symbol
 _atom_site_label
 _atom_site_symmetry_multiplicity
 _atom_site_fract_x
 _atom_site_fract_y
 _atom_site_fract_z
 _atom_site_occupancy
  Ta  Ta0  1  0.567521  0.933559  0.565362  1
  Ta  Ta1  1  0.316441  0.682479  0.684638  1
  Ta  Ta2  1  0.683160  0.317201  0.316479  1
  Ta  Ta3  1  0.317201  0.683160  0.316479  1
  Ta  Ta4  1  0.683160  0.683160  0.316478  1
  Ta  Ta5  1  0.316441  0.316441  0.684638  1
  Ta  Ta6  1  0.566840  0.566840  0.933522  1
  Ta  Ta7  1  0.933559  0.567521  0.565362  1
  Ta  Ta8  1  0.566840  0.932799  0.933521  1
  Ta  Ta9  1  0.933559  0.933559  0.565362  1
  Ta  Ta10  1  0.682479  0.316441  0.684638  1
  Ta  Ta11  1  0.932799  0.566840  0.933521  1
  Ga  Ga12  1  0.915014  0.915014  0.915336  1
  Ga  Ga13  1  0.995364  0.334986  0.334664  1
  Ga  Ga14  1  0.334986  0.995364  0.334664  1
  Ga  Ga15  1  0.334814  0.334814  0.995555  1
  Ga  Ga16  1  0.915014  0.254636  0.915336  1
  Ga  Ga17  1  0.915186  0.915186  0.254445  1
  Ga  Ga18  1  0.254636  0.915014  0.915336  1
  Ga  Ga19  1  0.334986  0.334986  0.334664  1
  Cu  Cu20  1  0.125000  0.125000  0.125000  1
  Cu  Cu21  1  0.625000  0.125000  0.125000  1
  Cu  Cu22  1  0.125000  0.625000  0.125000  1
  Cu  Cu23  1  0.125000  0.125000  0.625000  1
  C  C24  1  0.625000  0.625000  0.625000  1
  C  C25  1  0.125000  0.625000  0.625000  1
  C  C26  1  0.625000  0.125000  0.625000  1
  N  N27  1  0.625000  0.625000  0.125000  1
