# generated using pymatgen
data_K2Tb3Y3F20
_symmetry_space_group_name_H-M   'P 1'
_cell_length_a   8.29328123
_cell_length_b   8.29328159
_cell_length_c   8.29333200
_cell_angle_alpha   60.00020193
_cell_angle_beta   60.00019727
_cell_angle_gamma   59.99999939
_symmetry_Int_Tables_number   1
_chemical_formula_structural   K2Tb3Y3F20
_chemical_formula_sum   'K2 Tb3 Y3 F20'
_cell_volume   403.33709514
_cell_formula_units_Z   1
loop_
 _symmetry_equiv_pos_site_id
 _symmetry_equiv_pos_as_xyz
  1  'x, y, z'
loop_
 _atom_site_type_symbol
 _atom_site_label
 _atom_site_symmetry_multiplicity
 _atom_site_fract_x
 _atom_site_fract_y
 _atom_site_fract_z
 _atom_site_occupancy
  K  K0  1  0.750002  0.750002  0.749993  1
  K  K1  1  0.250002  0.250002  0.249995  1
  Tb  Tb2  1  0.759704  0.759704  0.240337  1
  Tb  Tb3  1  0.240255  0.759704  0.240337  1
  Tb  Tb4  1  0.759704  0.240255  0.240337  1
  Y  Y5  1  0.240532  0.240532  0.759495  1
  Y  Y6  1  0.759440  0.240532  0.759495  1
  Y  Y7  1  0.240532  0.759440  0.759495  1
  F  F8  1  0.888335  0.888335  0.334996  1
  F  F9  1  0.888473  0.334885  0.888169  1
  F  F10  1  0.334885  0.888473  0.888169  1
  F  F11  1  0.888473  0.888473  0.888169  1
  F  F12  1  0.111611  0.111611  0.665167  1
  F  F13  1  0.111749  0.665060  0.111443  1
  F  F14  1  0.665060  0.111749  0.111443  1
  F  F15  1  0.111749  0.111749  0.111443  1
  F  F16  1  0.500007  0.500007  0.830013  1
  F  F17  1  0.169974  0.500007  0.830013  1
  F  F18  1  0.500007  0.169974  0.830013  1
  F  F19  1  0.169956  0.830056  0.500289  1
  F  F20  1  0.499699  0.830056  0.500289  1
  F  F21  1  0.500006  0.830074  0.169914  1
  F  F22  1  0.830056  0.169956  0.500289  1
  F  F23  1  0.830074  0.500006  0.169914  1
  F  F24  1  0.830056  0.499699  0.500289  1
  F  F25  1  0.500006  0.500006  0.169914  1
  F  F26  1  0.499699  0.169956  0.500289  1
  F  F27  1  0.169956  0.499699  0.500289  1
