# generated using pymatgen
data_Hf4Zr3U(Nb3Si4)4
_symmetry_space_group_name_H-M   'P 1'
_cell_length_a   6.91602527
_cell_length_b   6.91981695
_cell_length_c   12.79669726
_cell_angle_alpha   89.90484635
_cell_angle_beta   89.93758053
_cell_angle_gamma   90.16709609
_symmetry_Int_Tables_number   1
_chemical_formula_structural   Hf4Zr3U(Nb3Si4)4
_chemical_formula_sum   'Hf4 Zr3 U1 Nb12 Si16'
_cell_volume   612.41577214
_cell_formula_units_Z   1
loop_
 _symmetry_equiv_pos_site_id
 _symmetry_equiv_pos_as_xyz
  1  'x, y, z'
loop_
 _atom_site_type_symbol
 _atom_site_label
 _atom_site_symmetry_multiplicity
 _atom_site_fract_x
 _atom_site_fract_y
 _atom_site_fract_z
 _atom_site_occupancy
  Hf  Hf0  1  0.499970  0.839362  0.029827  1
  Hf  Hf1  1  0.840822  0.498599  0.967746  1
  Hf  Hf2  1  0.501953  0.158954  0.532249  1
  Hf  Hf3  1  0.340673  0.000288  0.781033  1
  Zr  Zr4  1  0.001392  0.342418  0.218045  1
  Zr  Zr5  1  0.000359  0.659446  0.718345  1
  Zr  Zr6  1  0.160241  0.501670  0.469024  1
  U  U7  1  0.660865  0.001244  0.280759  1
  Nb  Nb8  1  0.169077  0.169031  0.998668  1
  Nb  Nb9  1  0.829111  0.833496  0.499229  1
  Nb  Nb10  1  0.332051  0.670893  0.250200  1
  Nb  Nb11  1  0.669744  0.330604  0.750545  1
  Nb  Nb12  1  0.152100  0.994568  0.378567  1
  Nb  Nb13  1  0.847369  0.003480  0.876091  1
  Nb  Nb14  1  0.503720  0.653954  0.627828  1
  Nb  Nb15  1  0.348106  0.498112  0.873223  1
  Nb  Nb16  1  0.495546  0.342665  0.125508  1
  Nb  Nb17  1  0.652573  0.499314  0.374242  1
  Nb  Nb18  1  0.997406  0.153806  0.625993  1
  Nb  Nb19  1  0.999373  0.845845  0.121936  1
  Si  Si20  1  0.294869  0.041282  0.185373  1
  Si  Si21  1  0.700686  0.956955  0.686724  1
  Si  Si22  1  0.455983  0.798216  0.437781  1
  Si  Si23  1  0.202655  0.544869  0.062687  1
  Si  Si24  1  0.542949  0.201017  0.935797  1
  Si  Si25  1  0.796979  0.456734  0.563335  1
  Si  Si26  1  0.044689  0.299113  0.813847  1
  Si  Si27  1  0.955816  0.701066  0.313188  1
  Si  Si28  1  0.363914  0.291628  0.322836  1
  Si  Si29  1  0.635573  0.708980  0.823317  1
  Si  Si30  1  0.209278  0.866669  0.573250  1
  Si  Si31  1  0.135930  0.792758  0.926988  1
  Si  Si32  1  0.791876  0.135617  0.070670  1
  Si  Si33  1  0.867674  0.211290  0.430675  1
  Si  Si34  1  0.294010  0.363453  0.677551  1
  Si  Si35  1  0.704667  0.632602  0.176926  1
