# generated using pymatgen
data_Dy16In4Ir2RuRh
_symmetry_space_group_name_H-M   'P 1'
_cell_length_a   9.66672288
_cell_length_b   9.65067064
_cell_length_c   9.65895253
_cell_angle_alpha   59.90405524
_cell_angle_beta   59.97338677
_cell_angle_gamma   59.94495709
_symmetry_Int_Tables_number   1
_chemical_formula_structural   Dy16In4Ir2RuRh
_chemical_formula_sum   'Dy16 In4 Ir2 Ru1 Rh1'
_cell_volume   636.30882728
_cell_formula_units_Z   1
loop_
 _symmetry_equiv_pos_site_id
 _symmetry_equiv_pos_as_xyz
  1  'x, y, z'
loop_
 _atom_site_type_symbol
 _atom_site_label
 _atom_site_symmetry_multiplicity
 _atom_site_fract_x
 _atom_site_fract_y
 _atom_site_fract_z
 _atom_site_occupancy
  Dy  Dy0  1  0.689873  0.310055  0.310198  1
  Dy  Dy1  1  0.689984  0.690012  0.311005  1
  Dy  Dy2  1  0.309000  0.690012  0.311005  1
  Dy  Dy3  1  0.938211  0.939480  0.560993  1
  Dy  Dy4  1  0.150660  0.149891  0.548788  1
  Dy  Dy5  1  0.561315  0.939480  0.560993  1
  Dy  Dy6  1  0.152194  0.151623  0.149634  1
  Dy  Dy7  1  0.309086  0.311129  0.691917  1
  Dy  Dy8  1  0.940097  0.560127  0.559680  1
  Dy  Dy9  1  0.560111  0.560088  0.939171  1
  Dy  Dy10  1  0.561681  0.939734  0.936905  1
  Dy  Dy11  1  0.940631  0.560088  0.939171  1
  Dy  Dy12  1  0.151542  0.548231  0.148683  1
  Dy  Dy13  1  0.310160  0.687644  0.692036  1
  Dy  Dy14  1  0.687868  0.311129  0.691917  1
  Dy  Dy15  1  0.546549  0.151623  0.149634  1
  In  In16  1  0.917283  0.917710  0.247724  1
  In  In17  1  0.248732  0.917330  0.917176  1
  In  In18  1  0.917240  0.248298  0.917222  1
  In  In19  1  0.916760  0.917330  0.917176  1
  Ir  Ir20  1  0.358539  0.358042  0.358332  1
  Ir  Ir21  1  0.925088  0.358042  0.358332  1
  Ru  Ru22  1  0.358785  0.358387  0.924044  1
  Rh  Rh23  1  0.358612  0.924513  0.358264  1
