# generated using pymatgen
data_Dy5Y3Cd2CoNi
_symmetry_space_group_name_H-M   'P 1'
_cell_length_a   9.54769251
_cell_length_b   9.54769280
_cell_length_c   9.55804200
_cell_angle_alpha   59.96412988
_cell_angle_beta   59.96412887
_cell_angle_gamma   59.92715922
_symmetry_Int_Tables_number   1
_chemical_formula_structural   Dy5Y3Cd2CoNi
_chemical_formula_sum   'Dy10 Y6 Cd4 Co2 Ni2'
_cell_volume   615.42584304
_cell_formula_units_Z   2
loop_
 _symmetry_equiv_pos_site_id
 _symmetry_equiv_pos_as_xyz
  1  'x, y, z'
loop_
 _atom_site_type_symbol
 _atom_site_label
 _atom_site_symmetry_multiplicity
 _atom_site_fract_x
 _atom_site_fract_y
 _atom_site_fract_z
 _atom_site_occupancy
  Dy  Dy0  1  0.596476  0.596476  0.599483  1
  Dy  Dy1  1  0.596476  0.596476  0.207565  1
  Dy  Dy2  1  0.595165  0.209444  0.597695  1
  Dy  Dy3  1  0.209444  0.595165  0.597695  1
  Dy  Dy4  1  0.064842  0.437603  0.439354  1
  Dy  Dy5  1  0.437603  0.064842  0.058201  1
  Dy  Dy6  1  0.437603  0.064842  0.439354  1
  Dy  Dy7  1  0.064842  0.437603  0.058201  1
  Dy  Dy8  1  0.438425  0.438425  0.061575  1
  Dy  Dy9  1  0.061493  0.061493  0.438507  1
  Y  Y10  1  0.187343  0.811165  0.814199  1
  Y  Y11  1  0.811165  0.187343  0.187293  1
  Y  Y12  1  0.811165  0.187343  0.814199  1
  Y  Y13  1  0.187343  0.811165  0.187293  1
  Y  Y14  1  0.812828  0.812828  0.187172  1
  Y  Y15  1  0.187725  0.187725  0.812275  1
  Cd  Cd16  1  0.829963  0.829963  0.830830  1
  Cd  Cd17  1  0.829963  0.829963  0.509243  1
  Cd  Cd18  1  0.831078  0.506332  0.831295  1
  Cd  Cd19  1  0.506332  0.831078  0.831295  1
  Co  Co20  1  0.392559  0.392559  0.390667  1
  Co  Co21  1  0.392559  0.392559  0.824216  1
  Ni  Ni22  1  0.392437  0.825172  0.391196  1
  Ni  Ni23  1  0.825172  0.392437  0.391196  1
