# generated using pymatgen
data_Dy6Al24Cu3Tc5
_symmetry_space_group_name_H-M   'P 1'
_cell_length_a   8.85126419
_cell_length_b   8.80824485
_cell_length_c   9.55218140
_cell_angle_alpha   89.58946853
_cell_angle_beta   89.96591054
_cell_angle_gamma   119.20669155
_symmetry_Int_Tables_number   1
_chemical_formula_structural   Dy6Al24Cu3Tc5
_chemical_formula_sum   'Dy6 Al24 Cu3 Tc5'
_cell_volume   650.02259183
_cell_formula_units_Z   1
loop_
 _symmetry_equiv_pos_site_id
 _symmetry_equiv_pos_as_xyz
  1  'x, y, z'
loop_
 _atom_site_type_symbol
 _atom_site_label
 _atom_site_symmetry_multiplicity
 _atom_site_fract_x
 _atom_site_fract_y
 _atom_site_fract_z
 _atom_site_occupancy
  Dy  Dy0  1  0.191192  0.802286  0.249113  1
  Dy  Dy1  1  0.187456  0.386580  0.247912  1
  Dy  Dy2  1  0.617646  0.812077  0.251398  1
  Dy  Dy3  1  0.808808  0.197714  0.750887  1
  Dy  Dy4  1  0.812544  0.613420  0.752088  1
  Dy  Dy5  1  0.382354  0.187923  0.748602  1
  Al  Al6  1  0.561840  0.439349  0.251288  1
  Al  Al7  1  0.561777  0.125119  0.249069  1
  Al  Al8  1  0.875119  0.439639  0.250962  1
  Al  Al9  1  0.438160  0.560651  0.748712  1
  Al  Al10  1  0.438223  0.874881  0.750931  1
  Al  Al11  1  0.124881  0.560361  0.749038  1
  Al  Al12  1  0.322372  0.163788  0.420273  1
  Al  Al13  1  0.843952  0.169683  0.421412  1
  Al  Al14  1  0.842776  0.676952  0.423449  1
  Al  Al15  1  0.677628  0.836212  0.579727  1
  Al  Al16  1  0.156048  0.830317  0.578588  1
  Al  Al17  1  0.157224  0.323048  0.576551  1
  Al  Al18  1  0.676849  0.841995  0.924656  1
  Al  Al19  1  0.164516  0.837356  0.923783  1
  Al  Al20  1  0.158892  0.324700  0.923702  1
  Al  Al21  1  0.323151  0.158005  0.075344  1
  Al  Al22  1  0.835484  0.162644  0.076217  1
  Al  Al23  1  0.841108  0.675300  0.076298  1
  Al  Al24  1  0.669748  0.335788  0.519686  1
  Al  Al25  1  0.330252  0.664212  0.480314  1
  Al  Al26  1  0.332983  0.669480  0.021584  1
  Al  Al27  1  0.667017  0.330520  0.978416  1
  Al  Al28  1  0.996729  0.000469  0.250186  1
  Al  Al29  1  0.003271  0.999531  0.749814  1
  Cu  Cu30  1  0.500000  0.500000  0.500000  1
  Cu  Cu31  1  0.500000  0.000000  0.500000  1
  Cu  Cu32  1  0.500000  0.500000  0.000000  1
  Tc  Tc33  1  0.000000  0.000000  0.500000  1
  Tc  Tc34  1  0.000000  0.000000  0.000000  1
  Tc  Tc35  1  0.000000  0.500000  0.500000  1
  Tc  Tc36  1  0.500000  0.000000  0.000000  1
  Tc  Tc37  1  0.000000  0.500000  0.000000  1
