# generated using pymatgen
data_Tb7ErHf9Si16Mo3
_symmetry_space_group_name_H-M   'P 1'
_cell_length_a   7.20056548
_cell_length_b   7.19988056
_cell_length_c   13.22588941
_cell_angle_alpha   89.87461060
_cell_angle_beta   89.87429169
_cell_angle_gamma   90.13427736
_symmetry_Int_Tables_number   1
_chemical_formula_structural   Tb7ErHf9Si16Mo3
_chemical_formula_sum   'Tb7 Er1 Hf9 Si16 Mo3'
_cell_volume   685.66739752
_cell_formula_units_Z   1
loop_
 _symmetry_equiv_pos_site_id
 _symmetry_equiv_pos_as_xyz
  1  'x, y, z'
loop_
 _atom_site_type_symbol
 _atom_site_label
 _atom_site_symmetry_multiplicity
 _atom_site_fract_x
 _atom_site_fract_y
 _atom_site_fract_z
 _atom_site_occupancy
  Tb  Tb0  1  0.001918  0.657582  0.714682  1
  Tb  Tb1  1  0.155241  0.500161  0.463717  1
  Tb  Tb2  1  0.499723  0.844688  0.036485  1
  Tb  Tb3  1  0.846258  0.501651  0.968107  1
  Tb  Tb4  1  0.498511  0.153680  0.531982  1
  Tb  Tb5  1  0.342518  0.998138  0.785402  1
  Tb  Tb6  1  0.655969  0.999912  0.284993  1
  Er  Er7  1  0.000830  0.344442  0.214418  1
  Hf  Hf8  1  0.675830  0.324160  0.750057  1
  Hf  Hf9  1  0.146109  0.993619  0.373231  1
  Hf  Hf10  1  0.854745  0.004338  0.875873  1
  Hf  Hf11  1  0.505917  0.650236  0.620290  1
  Hf  Hf12  1  0.349722  0.493973  0.879914  1
  Hf  Hf13  1  0.493222  0.352989  0.124074  1
  Hf  Hf14  1  0.647113  0.506523  0.375726  1
  Hf  Hf15  1  0.995746  0.145299  0.624261  1
  Hf  Hf16  1  0.006335  0.853855  0.126750  1
  Si  Si17  1  0.360044  0.298765  0.315251  1
  Si  Si18  1  0.639121  0.703690  0.815970  1
  Si  Si19  1  0.201778  0.860031  0.564796  1
  Si  Si20  1  0.139898  0.798006  0.935276  1
  Si  Si21  1  0.798285  0.139819  0.067484  1
  Si  Si22  1  0.861231  0.202845  0.432925  1
  Si  Si23  1  0.296334  0.360940  0.684133  1
  Si  Si24  1  0.702891  0.637868  0.184142  1
  Si  Si25  1  0.293777  0.052263  0.184850  1
  Si  Si26  1  0.705704  0.946745  0.682741  1
  Si  Si27  1  0.447404  0.793913  0.432677  1
  Si  Si28  1  0.205114  0.551764  0.067652  1
  Si  Si29  1  0.549335  0.203853  0.936331  1
  Si  Si30  1  0.796205  0.451091  0.563732  1
  Si  Si31  1  0.053280  0.294409  0.817379  1
  Si  Si32  1  0.949260  0.704294  0.314678  1
  Mo  Mo33  1  0.176533  0.176282  0.002483  1
  Mo  Mo34  1  0.824100  0.823151  0.497647  1
  Mo  Mo35  1  0.324000  0.675020  0.249890  1
