# generated using pymatgen
data_Cs6K3GaAs4
_symmetry_space_group_name_H-M   'P 1'
_cell_length_a   10.62940100
_cell_length_b   10.62940086
_cell_length_c   11.28885100
_cell_angle_alpha   90.00000000
_cell_angle_beta   90.00000000
_cell_angle_gamma   119.99999109
_symmetry_Int_Tables_number   1
_chemical_formula_structural   Cs6K3GaAs4
_chemical_formula_sum   'Cs12 K6 Ga2 As8'
_cell_volume   1104.58206833
_cell_formula_units_Z   2
loop_
 _symmetry_equiv_pos_site_id
 _symmetry_equiv_pos_as_xyz
  1  'x, y, z'
loop_
 _atom_site_type_symbol
 _atom_site_label
 _atom_site_symmetry_multiplicity
 _atom_site_fract_x
 _atom_site_fract_y
 _atom_site_fract_z
 _atom_site_occupancy
  Cs  Cs0  1  0.208728  0.417454  0.543691  1
  Cs  Cs1  1  0.791272  0.208728  0.043691  1
  Cs  Cs2  1  0.417454  0.208728  0.043691  1
  Cs  Cs3  1  0.582546  0.791272  0.543691  1
  Cs  Cs4  1  0.208728  0.791272  0.543691  1
  Cs  Cs5  1  0.791272  0.582546  0.456309  1
  Cs  Cs6  1  0.791272  0.208728  0.456309  1
  Cs  Cs7  1  0.791272  0.582546  0.043691  1
  Cs  Cs8  1  0.417454  0.208728  0.456309  1
  Cs  Cs9  1  0.582546  0.791272  0.956309  1
  Cs  Cs10  1  0.208728  0.417454  0.956309  1
  Cs  Cs11  1  0.208728  0.791272  0.956309  1
  K  K12  1  0.120021  0.240041  0.250000  1
  K  K13  1  0.879979  0.120021  0.750000  1
  K  K14  1  0.240041  0.120021  0.750000  1
  K  K15  1  0.759959  0.879979  0.250000  1
  K  K16  1  0.120021  0.879979  0.250000  1
  K  K17  1  0.879979  0.759959  0.750000  1
  Ga  Ga18  1  0.333333  0.666667  0.250000  1
  Ga  Ga19  1  0.666667  0.333333  0.750000  1
  As  As20  1  0.469185  0.530815  0.250000  1
  As  As21  1  0.938369  0.469185  0.750000  1
  As  As22  1  0.530815  0.061631  0.750000  1
  As  As23  1  0.469185  0.938369  0.250000  1
  As  As24  1  0.061631  0.530815  0.250000  1
  As  As25  1  0.530815  0.469185  0.750000  1
  As  As26  1  0.000000  0.000000  0.000000  1
  As  As27  1  0.000000  0.000000  0.500000  1
