# generated using pymatgen
data_Li4Al8CoPd3
_symmetry_space_group_name_H-M   'P 1'
_cell_length_a   6.00240600
_cell_length_b   4.26711400
_cell_length_c   8.57221800
_cell_angle_alpha   89.99989950
_cell_angle_beta   89.99994463
_cell_angle_gamma   90.00000000
_symmetry_Int_Tables_number   1
_chemical_formula_structural   Li4Al8CoPd3
_chemical_formula_sum   'Li4 Al8 Co1 Pd3'
_cell_volume   219.55979682
_cell_formula_units_Z   1
loop_
 _symmetry_equiv_pos_site_id
 _symmetry_equiv_pos_as_xyz
  1  'x, y, z'
loop_
 _atom_site_type_symbol
 _atom_site_label
 _atom_site_symmetry_multiplicity
 _atom_site_fract_x
 _atom_site_fract_y
 _atom_site_fract_z
 _atom_site_occupancy
  Li  Li0  1  0.250011  0.250001  0.124918  1
  Li  Li1  1  0.749995  0.750000  0.376430  1
  Li  Li2  1  0.250002  0.250001  0.624880  1
  Li  Li3  1  0.750012  0.750000  0.873730  1
  Al  Al4  1  0.515096  0.750001  0.125041  1
  Al  Al5  1  0.984919  0.750001  0.125047  1
  Al  Al6  1  0.510477  0.250001  0.362842  1
  Al  Al7  1  0.989530  0.250001  0.362839  1
  Al  Al8  1  0.001324  0.750000  0.625070  1
  Al  Al9  1  0.498687  0.750000  0.625073  1
  Al  Al10  1  0.989522  0.250001  0.887067  1
  Al  Al11  1  0.510499  0.250001  0.887059  1
  Co  Co12  1  0.750007  0.250001  0.124959  1
  Pd  Pd13  1  0.250006  0.749999  0.374620  1
  Pd  Pd14  1  0.750006  0.250001  0.624946  1
  Pd  Pd15  1  0.250007  0.749999  0.875481  1
