# generated using pymatgen
data_Ho3In3Cu2Hg
_symmetry_space_group_name_H-M   'P 1'
_cell_length_a   7.59161700
_cell_length_b   7.59161673
_cell_length_c   3.99062600
_cell_angle_alpha   90.00000000
_cell_angle_beta   90.00000000
_cell_angle_gamma   120.00000670
_symmetry_Int_Tables_number   1
_chemical_formula_structural   Ho3In3Cu2Hg
_chemical_formula_sum   'Ho3 In3 Cu2 Hg1'
_cell_volume   199.17746194
_cell_formula_units_Z   1
loop_
 _symmetry_equiv_pos_site_id
 _symmetry_equiv_pos_as_xyz
  1  'x, y, z'
loop_
 _atom_site_type_symbol
 _atom_site_label
 _atom_site_symmetry_multiplicity
 _atom_site_fract_x
 _atom_site_fract_y
 _atom_site_fract_z
 _atom_site_occupancy
  Ho  Ho0  1  0.984952  0.585405  0.500000  1
  Ho  Ho1  1  0.414595  0.399548  0.500000  1
  Ho  Ho2  1  0.600452  0.015048  0.500000  1
  In  In3  1  0.755458  0.745234  0.000000  1
  In  In4  1  0.989776  0.244542  0.000000  1
  In  In5  1  0.254766  0.010224  0.000000  1
  Cu  Cu6  1  0.000000  0.000000  0.500000  1
  Cu  Cu7  1  0.666667  0.333333  0.000000  1
  Hg  Hg8  1  0.333333  0.666667  0.000000  1
