# generated using pymatgen
data_AcEr(Si2Rh3)2
_symmetry_space_group_name_H-M   'P 1'
_cell_length_a   6.71453657
_cell_length_b   6.71453564
_cell_length_c   6.71453681
_cell_angle_alpha   130.34041548
_cell_angle_beta   114.89762159
_cell_angle_gamma   86.08217132
_symmetry_Int_Tables_number   1
_chemical_formula_structural   AcEr(Si2Rh3)2
_chemical_formula_sum   'Ac1 Er1 Si4 Rh6'
_cell_volume   199.95885554
_cell_formula_units_Z   1
loop_
 _symmetry_equiv_pos_site_id
 _symmetry_equiv_pos_as_xyz
  1  'x, y, z'
loop_
 _atom_site_type_symbol
 _atom_site_label
 _atom_site_symmetry_multiplicity
 _atom_site_fract_x
 _atom_site_fract_y
 _atom_site_fract_z
 _atom_site_occupancy
  Ac  Ac0  1  0.750000  0.034213  0.284213  1
  Er  Er1  1  0.250000  0.939305  0.689305  1
  Si  Si2  1  0.573704  0.376455  0.802751  1
  Si  Si3  1  0.926296  0.729047  0.802751  1
  Si  Si4  1  0.418382  0.613971  0.195588  1
  Si  Si5  1  0.081618  0.277206  0.195588  1
  Rh  Rh6  1  0.220720  0.513850  0.722484  1
  Rh  Rh7  1  0.791365  0.513850  0.293130  1
  Rh  Rh8  1  0.497249  0.499287  0.496537  1
  Rh  Rh9  1  0.002751  0.499287  0.002038  1
  Rh  Rh10  1  0.708635  0.001765  0.722484  1
  Rh  Rh11  1  0.279280  0.001765  0.293130  1
