# generated using pymatgen
data_NaEr3As6Ir7
_symmetry_space_group_name_H-M   'P 1'
_cell_length_a   7.25831219
_cell_length_b   7.24258505
_cell_length_c   7.24258513
_cell_angle_alpha   109.42718326
_cell_angle_beta   109.51522212
_cell_angle_gamma   109.51521601
_symmetry_Int_Tables_number   1
_chemical_formula_structural   NaEr3As6Ir7
_chemical_formula_sum   'Na1 Er3 As6 Ir7'
_cell_volume   292.93068847
_cell_formula_units_Z   1
loop_
 _symmetry_equiv_pos_site_id
 _symmetry_equiv_pos_as_xyz
  1  'x, y, z'
loop_
 _atom_site_type_symbol
 _atom_site_label
 _atom_site_symmetry_multiplicity
 _atom_site_fract_x
 _atom_site_fract_y
 _atom_site_fract_z
 _atom_site_occupancy
  Na  Na0  1  0.500000  0.000000  0.000000  1
  Er  Er1  1  0.000000  0.000000  0.500000  1
  Er  Er2  1  0.000000  0.500000  0.000000  1
  Er  Er3  1  0.500000  0.500000  0.500000  1
  As  As4  1  0.678465  0.685926  0.000000  1
  As  As5  1  0.321535  0.314074  0.000000  1
  As  As6  1  0.007463  0.685926  0.685926  1
  As  As7  1  0.992537  0.314074  0.314074  1
  As  As8  1  0.678465  0.000000  0.685926  1
  As  As9  1  0.321535  0.000000  0.314074  1
  Ir  Ir10  1  0.000000  0.000000  0.000000  1
  Ir  Ir11  1  0.247450  0.494899  0.747450  1
  Ir  Ir12  1  0.752550  0.252550  0.505101  1
  Ir  Ir13  1  0.500000  0.252550  0.747450  1
  Ir  Ir14  1  0.500000  0.747450  0.252550  1
  Ir  Ir15  1  0.752550  0.505101  0.252550  1
  Ir  Ir16  1  0.247450  0.747450  0.494899  1
