# generated using pymatgen
data_EuCd10Au
_symmetry_space_group_name_H-M   'P 1'
_cell_length_a   9.37065675
_cell_length_b   9.37065493
_cell_length_c   9.35795852
_cell_angle_alpha   99.68423693
_cell_angle_beta   99.68423680
_cell_angle_gamma   131.55321579
_symmetry_Int_Tables_number   1
_chemical_formula_structural   EuCd10Au
_chemical_formula_sum   'Eu2 Cd20 Au2'
_cell_volume   560.86341888
_cell_formula_units_Z   2
loop_
 _symmetry_equiv_pos_site_id
 _symmetry_equiv_pos_as_xyz
  1  'x, y, z'
loop_
 _atom_site_type_symbol
 _atom_site_label
 _atom_site_symmetry_multiplicity
 _atom_site_fract_x
 _atom_site_fract_y
 _atom_site_fract_z
 _atom_site_occupancy
  Eu  Eu0  1  0.499698  0.500302  0.000000  1
  Eu  Eu1  1  0.750302  0.249698  0.500000  1
  Cd  Cd2  1  0.997414  0.321628  0.915419  1
  Cd  Cd3  1  0.567407  0.154723  0.824361  1
  Cd  Cd4  1  0.000295  0.077316  0.679031  1
  Cd  Cd5  1  0.571628  0.747414  0.415419  1
  Cd  Cd6  1  0.924257  0.602849  0.920163  1
  Cd  Cd7  1  0.922684  0.999705  0.320969  1
  Cd  Cd8  1  0.845277  0.432593  0.175639  1
  Cd  Cd9  1  0.249705  0.672684  0.820969  1
  Cd  Cd10  1  0.246492  0.753508  0.500000  1
  Cd  Cd11  1  0.678372  0.002586  0.084581  1
  Cd  Cd12  1  0.003508  0.996492  0.000000  1
  Cd  Cd13  1  0.625000  0.875000  0.750000  1
  Cd  Cd14  1  0.682593  0.595277  0.675639  1
  Cd  Cd15  1  0.397151  0.075743  0.079837  1
  Cd  Cd16  1  0.252586  0.428372  0.584581  1
  Cd  Cd17  1  0.327316  0.750295  0.179031  1
  Cd  Cd18  1  0.325743  0.147151  0.579837  1
  Cd  Cd19  1  0.852849  0.674257  0.420163  1
  Cd  Cd20  1  0.404723  0.317407  0.324361  1
  Cd  Cd21  1  0.125000  0.375000  0.250000  1
  Au  Au22  1  0.125000  0.875000  0.750000  1
  Au  Au23  1  0.125000  0.875000  0.250000  1
