# generated using pymatgen
data_HoEr2Lu17Bi12
_symmetry_space_group_name_H-M   'P 1'
_cell_length_a   8.14319027
_cell_length_b   9.39619300
_cell_length_c   11.80372600
_cell_angle_alpha   90.00000000
_cell_angle_beta   90.03178997
_cell_angle_gamma   90.00000000
_symmetry_Int_Tables_number   1
_chemical_formula_structural   HoEr2Lu17Bi12
_chemical_formula_sum   'Ho1 Er2 Lu17 Bi12'
_cell_volume   903.16180699
_cell_formula_units_Z   1
loop_
 _symmetry_equiv_pos_site_id
 _symmetry_equiv_pos_as_xyz
  1  'x, y, z'
loop_
 _atom_site_type_symbol
 _atom_site_label
 _atom_site_symmetry_multiplicity
 _atom_site_fract_x
 _atom_site_fract_y
 _atom_site_fract_z
 _atom_site_occupancy
  Ho  Ho0  1  0.687128  0.750000  0.782652  1
  Er  Er1  1  0.812646  0.250000  0.282881  1
  Er  Er2  1  0.187114  0.750000  0.717156  1
  Lu  Lu3  1  0.352651  0.750000  0.217976  1
  Lu  Lu4  1  0.852618  0.750000  0.282054  1
  Lu  Lu5  1  0.647322  0.250000  0.782191  1
  Lu  Lu6  1  0.147491  0.250000  0.717974  1
  Lu  Lu7  1  0.692142  0.567116  0.059234  1
  Lu  Lu8  1  0.191930  0.932812  0.440767  1
  Lu  Lu9  1  0.307965  0.067118  0.940954  1
  Lu  Lu10  1  0.808112  0.432904  0.559111  1
  Lu  Lu11  1  0.307965  0.432882  0.940954  1
  Lu  Lu12  1  0.808112  0.067096  0.559111  1
  Lu  Lu13  1  0.692142  0.932884  0.059234  1
  Lu  Lu14  1  0.191930  0.567188  0.440767  1
  Lu  Lu15  1  0.477621  0.250000  0.489096  1
  Lu  Lu16  1  0.977954  0.250000  0.010849  1
  Lu  Lu17  1  0.522076  0.750000  0.510505  1
  Lu  Lu18  1  0.022364  0.750000  0.989556  1
  Lu  Lu19  1  0.312524  0.250000  0.216660  1
  Bi  Bi20  1  0.402451  0.750000  0.957955  1
  Bi  Bi21  1  0.902576  0.750000  0.542128  1
  Bi  Bi22  1  0.596913  0.250000  0.042849  1
  Bi  Bi23  1  0.097891  0.250000  0.457549  1
  Bi  Bi24  1  0.564798  0.995726  0.324999  1
  Bi  Bi25  1  0.065965  0.504136  0.174814  1
  Bi  Bi26  1  0.434681  0.495285  0.674718  1
  Bi  Bi27  1  0.934740  0.004795  0.825389  1
  Bi  Bi28  1  0.434681  0.004715  0.674718  1
  Bi  Bi29  1  0.934740  0.495205  0.825389  1
  Bi  Bi30  1  0.564798  0.504274  0.324999  1
  Bi  Bi31  1  0.065965  0.995864  0.174814  1
