# generated using pymatgen
data_ClF23
_symmetry_space_group_name_H-M   'P 1'
_cell_length_a   5.75153647
_cell_length_b   6.46195939
_cell_length_c   11.34688584
_cell_angle_alpha   90.34379394
_cell_angle_beta   89.57352500
_cell_angle_gamma   87.10190245
_symmetry_Int_Tables_number   1
_chemical_formula_structural   ClF23
_chemical_formula_sum   'Cl1 F23'
_cell_volume   421.16095520
_cell_formula_units_Z   1
loop_
 _symmetry_equiv_pos_site_id
 _symmetry_equiv_pos_as_xyz
  1  'x, y, z'
loop_
 _atom_site_type_symbol
 _atom_site_label
 _atom_site_symmetry_multiplicity
 _atom_site_fract_x
 _atom_site_fract_y
 _atom_site_fract_z
 _atom_site_occupancy
  Cl  Cl0  1  0.847183  0.423976  0.863875  1
  F  F1  1  0.765220  0.086626  0.565988  1
  F  F2  1  0.281495  0.920148  0.914321  1
  F  F3  1  0.755992  0.578626  0.395640  1
  F  F4  1  0.140499  0.510322  0.175977  1
  F  F5  1  0.215943  0.904420  0.385489  1
  F  F6  1  0.651700  0.983872  0.156163  1
  F  F7  1  0.318630  0.388497  0.581455  1
  F  F8  1  0.687257  0.080416  0.447096  1
  F  F9  1  0.220395  0.875920  0.033401  1
  F  F10  1  0.784002  0.613085  0.535468  1
  F  F11  1  0.122011  0.442590  0.917220  1
  F  F12  1  0.206797  0.860689  0.614454  1
  F  F13  1  0.803533  0.223409  0.957053  1
  F  F14  1  0.243710  0.371449  0.462497  1
  F  F15  1  0.741491  0.595856  0.969550  1
  F  F16  1  0.890713  0.625785  0.769276  1
  F  F17  1  0.571480  0.404054  0.809824  1
  F  F18  1  0.606307  0.178887  0.213926  1
  F  F19  1  0.101623  0.922973  0.274716  1
  F  F20  1  0.100433  0.312985  0.225963  1
  F  F21  1  0.592174  0.571412  0.278831  1
  F  F22  1  0.398225  0.871659  0.692793  1
  F  F23  1  0.953183  0.252343  0.759023  1
