# generated using pymatgen
data_PaSe6Br7
_symmetry_space_group_name_H-M   'P 1'
_cell_length_a   7.19695242
_cell_length_b   8.94706516
_cell_length_c   8.62257125
_cell_angle_alpha   92.48546795
_cell_angle_beta   100.34942787
_cell_angle_gamma   96.80674668
_symmetry_Int_Tables_number   1
_chemical_formula_structural   PaSe6Br7
_chemical_formula_sum   'Pa1 Se6 Br7'
_cell_volume   541.14870824
_cell_formula_units_Z   1
loop_
 _symmetry_equiv_pos_site_id
 _symmetry_equiv_pos_as_xyz
  1  'x, y, z'
loop_
 _atom_site_type_symbol
 _atom_site_label
 _atom_site_symmetry_multiplicity
 _atom_site_fract_x
 _atom_site_fract_y
 _atom_site_fract_z
 _atom_site_occupancy
  Pa  Pa0  1  0.500000  0.500000  0.500000  1
  Se  Se1  1  0.953623  0.959519  0.745764  1
  Se  Se2  1  0.022649  0.801300  0.134245  1
  Se  Se3  1  0.821581  0.176110  0.091835  1
  Se  Se4  1  0.977351  0.198700  0.865755  1
  Se  Se5  1  0.178419  0.823890  0.908165  1
  Se  Se6  1  0.046377  0.040481  0.254236  1
  Br  Br7  1  0.500000  0.000000  0.000000  1
  Br  Br8  1  0.373422  0.769253  0.552817  1
  Br  Br9  1  0.353047  0.500472  0.186271  1
  Br  Br10  1  0.626578  0.230747  0.447183  1
  Br  Br11  1  0.832245  0.654343  0.451318  1
  Br  Br12  1  0.167755  0.345657  0.548682  1
  Br  Br13  1  0.646953  0.499528  0.813729  1
