# generated using pymatgen
data_Lu12Co4SnOs
_symmetry_space_group_name_H-M   'P 1'
_cell_length_a   8.09738587
_cell_length_b   8.09738493
_cell_length_c   8.09738504
_cell_angle_alpha   111.82714240
_cell_angle_beta   110.63093112
_cell_angle_gamma   106.01240220
_symmetry_Int_Tables_number   1
_chemical_formula_structural   Lu12Co4SnOs
_chemical_formula_sum   'Lu12 Co4 Sn1 Os1'
_cell_volume   407.55158804
_cell_formula_units_Z   1
loop_
 _symmetry_equiv_pos_site_id
 _symmetry_equiv_pos_as_xyz
  1  'x, y, z'
loop_
 _atom_site_type_symbol
 _atom_site_label
 _atom_site_symmetry_multiplicity
 _atom_site_fract_x
 _atom_site_fract_y
 _atom_site_fract_z
 _atom_site_occupancy
  Lu  Lu0  1  0.418877  0.223235  0.195641  1
  Lu  Lu1  1  0.581123  0.776765  0.804359  1
  Lu  Lu2  1  0.027595  0.223235  0.804359  1
  Lu  Lu3  1  0.972405  0.776765  0.195641  1
  Lu  Lu4  1  0.181223  0.276760  0.457984  1
  Lu  Lu5  1  0.818777  0.723240  0.542016  1
  Lu  Lu6  1  0.181223  0.723240  0.904463  1
  Lu  Lu7  1  0.818777  0.276760  0.095537  1
  Lu  Lu8  1  0.314683  0.621685  0.307002  1
  Lu  Lu9  1  0.685317  0.378315  0.692998  1
  Lu  Lu10  1  0.314683  0.007681  0.692998  1
  Lu  Lu11  1  0.685317  0.992319  0.307002  1
  Co  Co12  1  0.372946  0.000000  0.372946  1
  Co  Co13  1  0.627054  0.000000  0.627054  1
  Co  Co14  1  0.113010  0.613010  0.500000  1
  Co  Co15  1  0.886990  0.386990  0.500000  1
  Sn  Sn16  1  0.500000  0.500000  0.000000  1
  Os  Os17  1  0.000000  0.000000  0.000000  1
