# generated using pymatgen
data_Ac3GeS2
_symmetry_space_group_name_H-M   'P 1'
_cell_length_a   7.63193107
_cell_length_b   7.63193047
_cell_length_c   7.63193156
_cell_angle_alpha   145.91819353
_cell_angle_beta   131.81172793
_cell_angle_gamma   60.33529907
_symmetry_Int_Tables_number   1
_chemical_formula_structural   Ac3GeS2
_chemical_formula_sum   'Ac3 Ge1 S2'
_cell_volume   183.91549660
_cell_formula_units_Z   1
loop_
 _symmetry_equiv_pos_site_id
 _symmetry_equiv_pos_as_xyz
  1  'x, y, z'
loop_
 _atom_site_type_symbol
 _atom_site_label
 _atom_site_symmetry_multiplicity
 _atom_site_fract_x
 _atom_site_fract_y
 _atom_site_fract_z
 _atom_site_occupancy
  Ac  Ac0  1  0.332442  0.332442  0.000000  1
  Ac  Ac1  1  0.000000  0.000000  0.000000  1
  Ac  Ac2  1  0.667558  0.667558  0.000000  1
  Ge  Ge3  1  0.500000  0.000000  0.500000  1
  S  S4  1  0.164954  0.664954  0.500000  1
  S  S5  1  0.835046  0.335046  0.500000  1
