# generated using pymatgen
data_La4ZnB4Ir9
_symmetry_space_group_name_H-M   'P 1'
_cell_length_a   11.02797020
_cell_length_b   11.02796825
_cell_length_c   11.02796799
_cell_angle_alpha   29.50483162
_cell_angle_beta   29.50482967
_cell_angle_gamma   29.50483641
_symmetry_Int_Tables_number   1
_chemical_formula_structural   La4ZnB4Ir9
_chemical_formula_sum   'La4 Zn1 B4 Ir9'
_cell_volume   287.94147070
_cell_formula_units_Z   1
loop_
 _symmetry_equiv_pos_site_id
 _symmetry_equiv_pos_as_xyz
  1  'x, y, z'
loop_
 _atom_site_type_symbol
 _atom_site_label
 _atom_site_symmetry_multiplicity
 _atom_site_fract_x
 _atom_site_fract_y
 _atom_site_fract_z
 _atom_site_occupancy
  La  La0  1  0.149026  0.149026  0.149026  1
  La  La1  1  0.950485  0.950485  0.950485  1
  La  La2  1  0.850974  0.850974  0.850974  1
  La  La3  1  0.049515  0.049515  0.049515  1
  Zn  Zn4  1  0.500000  0.500000  0.500000  1
  B  B5  1  0.616281  0.616281  0.616281  1
  B  B6  1  0.717806  0.717806  0.717806  1
  B  B7  1  0.383719  0.383719  0.383719  1
  B  B8  1  0.282194  0.282194  0.282194  1
  Ir  Ir9  1  0.404278  0.902947  0.404278  1
  Ir  Ir10  1  0.902947  0.404278  0.404278  1
  Ir  Ir11  1  0.500000  0.500000  0.000000  1
  Ir  Ir12  1  0.500000  0.000000  0.500000  1
  Ir  Ir13  1  0.000000  0.500000  0.500000  1
  Ir  Ir14  1  0.595722  0.097053  0.595722  1
  Ir  Ir15  1  0.595722  0.595722  0.097053  1
  Ir  Ir16  1  0.097053  0.595722  0.595722  1
  Ir  Ir17  1  0.404278  0.404278  0.902947  1
