# generated using pymatgen
data_Y3Ho5In3Tc
_symmetry_space_group_name_H-M   'P 1'
_cell_length_a   10.38718100
_cell_length_b   10.38718108
_cell_length_c   7.09578700
_cell_angle_alpha   90.00000000
_cell_angle_beta   90.00000000
_cell_angle_gamma   119.99999656
_symmetry_Int_Tables_number   1
_chemical_formula_structural   Y3Ho5In3Tc
_chemical_formula_sum   'Y6 Ho10 In6 Tc2'
_cell_volume   663.01998508
_cell_formula_units_Z   2
loop_
 _symmetry_equiv_pos_site_id
 _symmetry_equiv_pos_as_xyz
  1  'x, y, z'
loop_
 _atom_site_type_symbol
 _atom_site_label
 _atom_site_symmetry_multiplicity
 _atom_site_fract_x
 _atom_site_fract_y
 _atom_site_fract_z
 _atom_site_occupancy
  Y  Y0  1  0.532568  0.065136  0.510449  1
  Y  Y1  1  0.934864  0.467432  0.510449  1
  Y  Y2  1  0.532568  0.467432  0.510449  1
  Y  Y3  1  0.467432  0.934864  0.010449  1
  Y  Y4  1  0.065136  0.532568  0.010449  1
  Y  Y5  1  0.467432  0.532568  0.010449  1
  Ho  Ho6  1  0.176500  0.353000  0.711160  1
  Ho  Ho7  1  0.647000  0.823500  0.711160  1
  Ho  Ho8  1  0.176500  0.823500  0.711160  1
  Ho  Ho9  1  0.823500  0.647000  0.211160  1
  Ho  Ho10  1  0.353000  0.176500  0.211160  1
  Ho  Ho11  1  0.823500  0.176500  0.211160  1
  Ho  Ho12  1  0.666667  0.333333  0.885454  1
  Ho  Ho13  1  0.333333  0.666667  0.385454  1
  Ho  Ho14  1  0.000000  0.000000  0.491148  1
  Ho  Ho15  1  0.000000  0.000000  0.991148  1
  In  In16  1  0.836849  0.673700  0.753847  1
  In  In17  1  0.326300  0.163151  0.753847  1
  In  In18  1  0.836849  0.163151  0.753847  1
  In  In19  1  0.163151  0.326300  0.253847  1
  In  In20  1  0.673700  0.836849  0.253847  1
  In  In21  1  0.163151  0.836849  0.253847  1
  Tc  Tc22  1  0.666667  0.333333  0.276050  1
  Tc  Tc23  1  0.333333  0.666667  0.776050  1
