# generated using pymatgen
data_Hf10TcSb5
_symmetry_space_group_name_H-M   'P 1'
_cell_length_a   5.61445842
_cell_length_b   8.30011143
_cell_length_c   8.30011045
_cell_angle_alpha   96.56843885
_cell_angle_beta   109.76821807
_cell_angle_gamma   70.23179022
_symmetry_Int_Tables_number   1
_chemical_formula_structural   Hf10TcSb5
_chemical_formula_sum   'Hf10 Tc1 Sb5'
_cell_volume   342.54543243
_cell_formula_units_Z   1
loop_
 _symmetry_equiv_pos_site_id
 _symmetry_equiv_pos_as_xyz
  1  'x, y, z'
loop_
 _atom_site_type_symbol
 _atom_site_label
 _atom_site_symmetry_multiplicity
 _atom_site_fract_x
 _atom_site_fract_y
 _atom_site_fract_z
 _atom_site_occupancy
  Hf  Hf0  1  0.932981  0.858585  0.708797  1
  Hf  Hf1  1  0.082768  0.141415  0.291203  1
  Hf  Hf2  1  0.417232  0.291203  0.141415  1
  Hf  Hf3  1  0.567019  0.708797  0.858585  1
  Hf  Hf4  1  0.224184  0.708797  0.141415  1
  Hf  Hf5  1  0.791565  0.291203  0.858585  1
  Hf  Hf6  1  0.275816  0.141415  0.708797  1
  Hf  Hf7  1  0.708435  0.858585  0.291203  1
  Hf  Hf8  1  0.250000  0.500000  0.500000  1
  Hf  Hf9  1  0.750000  0.500000  0.500000  1
  Tc  Tc10  1  0.250000  0.000000  0.000000  1
  Sb  Sb11  1  0.335596  0.828808  0.500000  1
  Sb  Sb12  1  0.664404  0.171192  0.500000  1
  Sb  Sb13  1  0.835596  0.500000  0.171192  1
  Sb  Sb14  1  0.164404  0.500000  0.828808  1
  Sb  Sb15  1  0.750000  0.000000  0.000000  1
