# generated using pymatgen
data_Na2Mn3Fe3Ni6As7
_symmetry_space_group_name_H-M   'P 1'
_cell_length_a   9.53196400
_cell_length_b   9.53196489
_cell_length_c   3.70757800
_cell_angle_alpha   90.00000000
_cell_angle_beta   90.00000000
_cell_angle_gamma   119.99999691
_symmetry_Int_Tables_number   1
_chemical_formula_structural   Na2Mn3Fe3Ni6As7
_chemical_formula_sum   'Na2 Mn3 Fe3 Ni6 As7'
_cell_volume   291.73314181
_cell_formula_units_Z   1
loop_
 _symmetry_equiv_pos_site_id
 _symmetry_equiv_pos_as_xyz
  1  'x, y, z'
loop_
 _atom_site_type_symbol
 _atom_site_label
 _atom_site_symmetry_multiplicity
 _atom_site_fract_x
 _atom_site_fract_y
 _atom_site_fract_z
 _atom_site_occupancy
  Na  Na0  1  0.333333  0.666667  0.000000  1
  Na  Na1  1  0.666667  0.333333  0.500000  1
  Mn  Mn2  1  0.215786  0.116639  0.500000  1
  Mn  Mn3  1  0.883361  0.099147  0.500000  1
  Mn  Mn4  1  0.900853  0.784214  0.500000  1
  Fe  Fe5  1  0.116408  0.277557  0.000000  1
  Fe  Fe6  1  0.722443  0.838851  0.000000  1
  Fe  Fe7  1  0.161149  0.883592  0.000000  1
  Ni  Ni8  1  0.430340  0.374917  0.000000  1
  Ni  Ni9  1  0.625083  0.055423  0.000000  1
  Ni  Ni10  1  0.944577  0.569660  0.000000  1
  Ni  Ni11  1  0.049779  0.435565  0.500000  1
  Ni  Ni12  1  0.564435  0.614214  0.500000  1
  Ni  Ni13  1  0.385786  0.950221  0.500000  1
  As  As14  1  0.285747  0.408134  0.500000  1
  As  As15  1  0.591866  0.877614  0.500000  1
  As  As16  1  0.122386  0.714253  0.500000  1
  As  As17  1  0.414928  0.119859  0.000000  1
  As  As18  1  0.880141  0.295070  0.000000  1
  As  As19  1  0.704930  0.585072  0.000000  1
  As  As20  1  0.000000  0.000000  0.000000  1
