# generated using pymatgen
data_LaCe3Co4
_symmetry_space_group_name_H-M   'P 1'
_cell_length_a   5.74199282
_cell_length_b   5.74199247
_cell_length_c   6.10864200
_cell_angle_alpha   110.77003554
_cell_angle_beta   110.77003420
_cell_angle_gamma   108.14175163
_symmetry_Int_Tables_number   1
_chemical_formula_structural   LaCe3Co4
_chemical_formula_sum   'La1 Ce3 Co4'
_cell_volume   152.48751710
_cell_formula_units_Z   1
loop_
 _symmetry_equiv_pos_site_id
 _symmetry_equiv_pos_as_xyz
  1  'x, y, z'
loop_
 _atom_site_type_symbol
 _atom_site_label
 _atom_site_symmetry_multiplicity
 _atom_site_fract_x
 _atom_site_fract_y
 _atom_site_fract_z
 _atom_site_occupancy
  La  La0  1  0.000000  0.500000  0.555804  1
  Ce  Ce1  1  0.966365  0.994291  0.979391  1
  Ce  Ce2  1  0.505709  0.972073  0.485100  1
  Ce  Ce3  1  0.527927  0.533635  0.013027  1
  Co  Co4  1  0.397699  0.391889  0.396384  1
  Co  Co5  1  0.108111  0.005810  0.504495  1
  Co  Co6  1  0.494190  0.102301  0.998685  1
  Co  Co7  1  0.000000  0.500000  0.067114  1
