# generated using pymatgen
data_Cs2ZnAs2O7
_symmetry_space_group_name_H-M   'P 1'
_cell_length_a   7.81215703
_cell_length_b   7.81215763
_cell_length_c   8.78780393
_cell_angle_alpha   100.50866757
_cell_angle_beta   100.50866547
_cell_angle_gamma   111.26106559
_symmetry_Int_Tables_number   1
_chemical_formula_structural   Cs2ZnAs2O7
_chemical_formula_sum   'Cs4 Zn2 As4 O14'
_cell_volume   473.01170549
_cell_formula_units_Z   2
loop_
 _symmetry_equiv_pos_site_id
 _symmetry_equiv_pos_as_xyz
  1  'x, y, z'
loop_
 _atom_site_type_symbol
 _atom_site_label
 _atom_site_symmetry_multiplicity
 _atom_site_fract_x
 _atom_site_fract_y
 _atom_site_fract_z
 _atom_site_occupancy
  Cs  Cs0  1  0.810547  0.734658  0.027299  1
  Cs  Cs1  1  0.265341  0.189453  0.472701  1
  Cs  Cs2  1  0.734658  0.810547  0.527299  1
  Cs  Cs3  1  0.189453  0.265342  0.972701  1
  Zn  Zn4  1  0.745456  0.254546  0.250000  1
  Zn  Zn5  1  0.254544  0.745454  0.749999  1
  As  As6  1  0.391254  0.841460  0.134264  1
  As  As7  1  0.158540  0.608746  0.365736  1
  As  As8  1  0.841461  0.391254  0.634265  1
  As  As9  1  0.608746  0.158540  0.865735  1
  O  O10  1  0.631292  0.303212  0.048334  1
  O  O11  1  0.251916  0.961541  0.133086  1
  O  O12  1  0.630585  0.973960  0.229572  1
  O  O13  1  0.333765  0.666236  0.250000  1
  O  O14  1  0.026040  0.369414  0.270427  1
  O  O15  1  0.038459  0.748084  0.366914  1
  O  O16  1  0.696789  0.368709  0.451666  1
  O  O17  1  0.303211  0.631291  0.548334  1
  O  O18  1  0.961541  0.251916  0.633087  1
  O  O19  1  0.973960  0.630586  0.729573  1
  O  O20  1  0.666235  0.333763  0.749999  1
  O  O21  1  0.369414  0.026040  0.770427  1
  O  O22  1  0.748084  0.038459  0.866913  1
  O  O23  1  0.368708  0.696788  0.951666  1
