# generated using pymatgen
data_TbPaF8
_symmetry_space_group_name_H-M   'P 1'
_cell_length_a   8.32314720
_cell_length_b   8.37823077
_cell_length_c   8.20695554
_cell_angle_alpha   63.62633876
_cell_angle_beta   64.14344129
_cell_angle_gamma   80.66795779
_symmetry_Int_Tables_number   1
_chemical_formula_structural   TbPaF8
_chemical_formula_sum   'Tb3 Pa3 F24'
_cell_volume   461.04646323
_cell_formula_units_Z   3
loop_
 _symmetry_equiv_pos_site_id
 _symmetry_equiv_pos_as_xyz
  1  'x, y, z'
loop_
 _atom_site_type_symbol
 _atom_site_label
 _atom_site_symmetry_multiplicity
 _atom_site_fract_x
 _atom_site_fract_y
 _atom_site_fract_z
 _atom_site_occupancy
  Tb  Tb0  1  0.368350  0.235725  0.335062  1
  Tb  Tb1  1  0.222136  0.361920  0.843545  1
  Tb  Tb2  1  0.780026  0.619276  0.166007  1
  Pa  Pa3  1  0.626835  0.775809  0.661790  1
  Pa  Pa4  1  0.787072  0.208195  0.757382  1
  Pa  Pa5  1  0.212947  0.786323  0.261266  1
  F  F6  1  0.314123  0.265953  0.608526  1
  F  F7  1  0.683531  0.742384  0.392416  1
  F  F8  1  0.727911  0.684125  0.887378  1
  F  F9  1  0.270526  0.318451  0.103873  1
  F  F10  1  0.823360  0.933852  0.945860  1
  F  F11  1  0.182084  0.050992  0.049637  1
  F  F12  1  0.052240  0.172634  0.555373  1
  F  F13  1  0.929161  0.829849  0.460685  1
  F  F14  1  0.412333  0.599389  0.742659  1
  F  F15  1  0.599041  0.405574  0.245272  1
  F  F16  1  0.501830  0.994566  0.498928  1
  F  F17  1  0.003440  0.506862  0.992732  1
  F  F18  1  0.513185  0.243507  0.790679  1
  F  F19  1  0.493971  0.755573  0.200236  1
  F  F20  1  0.744637  0.500272  0.710616  1
  F  F21  1  0.251817  0.515512  0.286827  1
  F  F22  1  0.401988  0.811058  0.913066  1
  F  F23  1  0.615921  0.183008  0.063582  1
  F  F24  1  0.181281  0.612530  0.568279  1
  F  F25  1  0.811842  0.390954  0.444224  1
  F  F26  1  0.721979  0.022930  0.645374  1
  F  F27  1  0.271035  0.968926  0.352968  1
  F  F28  1  0.967397  0.275214  0.848795  1
  F  F29  1  0.028003  0.728637  0.166965  1
