# generated using pymatgen
data_Ce3Pa(TcB4)4
_symmetry_space_group_name_H-M   'P 1'
_cell_length_a   3.67069100
_cell_length_b   5.98556807
_cell_length_c   11.58883668
_cell_angle_alpha   90.06025127
_cell_angle_beta   90.00000000
_cell_angle_gamma   90.00000000
_symmetry_Int_Tables_number   1
_chemical_formula_structural   Ce3Pa(TcB4)4
_chemical_formula_sum   'Ce3 Pa1 Tc4 B16'
_cell_volume   254.62016983
_cell_formula_units_Z   1
loop_
 _symmetry_equiv_pos_site_id
 _symmetry_equiv_pos_as_xyz
  1  'x, y, z'
loop_
 _atom_site_type_symbol
 _atom_site_label
 _atom_site_symmetry_multiplicity
 _atom_site_fract_x
 _atom_site_fract_y
 _atom_site_fract_z
 _atom_site_occupancy
  Ce  Ce0  1  0.000000  0.372717  0.650579  1
  Ce  Ce1  1  0.000000  0.126849  0.149366  1
  Ce  Ce2  1  0.000000  0.872873  0.849997  1
  Pa  Pa3  1  0.000000  0.627316  0.349867  1
  Tc  Tc4  1  0.000000  0.636447  0.093215  1
  Tc  Tc5  1  0.000000  0.363364  0.909030  1
  Tc  Tc6  1  0.000000  0.138256  0.406918  1
  Tc  Tc7  1  0.000000  0.861453  0.590045  1
  B  B8  1  0.500000  0.785134  0.186594  1
  B  B9  1  0.500000  0.214236  0.815013  1
  B  B10  1  0.500000  0.288718  0.314951  1
  B  B11  1  0.500000  0.714661  0.685152  1
  B  B12  1  0.500000  0.861567  0.032007  1
  B  B13  1  0.500000  0.137509  0.968453  1
  B  B14  1  0.500000  0.364213  0.467522  1
  B  B15  1  0.500000  0.637059  0.530620  1
  B  B16  1  0.500000  0.887720  0.453685  1
  B  B17  1  0.500000  0.111694  0.545725  1
  B  B18  1  0.500000  0.388334  0.045930  1
  B  B19  1  0.500000  0.611627  0.954275  1
  B  B20  1  0.500000  0.972539  0.309398  1
  B  B21  1  0.500000  0.024605  0.690353  1
  B  B22  1  0.500000  0.476458  0.191839  1
  B  B23  1  0.500000  0.524651  0.809461  1
