# generated using pymatgen
data_La8Nd12Si15Sb
_symmetry_space_group_name_H-M   'P 1'
_cell_length_a   7.96023629
_cell_length_b   7.95129518
_cell_length_c   15.33195600
_cell_angle_alpha   90.03347835
_cell_angle_beta   89.57665337
_cell_angle_gamma   90.11454339
_symmetry_Int_Tables_number   1
_chemical_formula_structural   La8Nd12Si15Sb
_chemical_formula_sum   'La8 Nd12 Si15 Sb1'
_cell_volume   970.39512600
_cell_formula_units_Z   1
loop_
 _symmetry_equiv_pos_site_id
 _symmetry_equiv_pos_as_xyz
  1  'x, y, z'
loop_
 _atom_site_type_symbol
 _atom_site_label
 _atom_site_symmetry_multiplicity
 _atom_site_fract_x
 _atom_site_fract_y
 _atom_site_fract_z
 _atom_site_occupancy
  La  La0  1  0.988005  0.623227  0.050727  1
  La  La1  1  0.012879  0.369507  0.554672  1
  La  La2  1  0.625430  0.987996  0.949196  1
  La  La3  1  0.125534  0.513049  0.800887  1
  La  La4  1  0.865718  0.480941  0.293975  1
  La  La5  1  0.510742  0.122714  0.196355  1
  La  La6  1  0.491175  0.877370  0.700889  1
  La  La7  1  0.377964  0.013132  0.448313  1
  Nd  Nd8  1  0.377002  0.479815  0.373326  1
  Nd  Nd9  1  0.861896  0.026839  0.371574  1
  Nd  Nd10  1  0.981535  0.129191  0.123652  1
  Nd  Nd11  1  0.019248  0.872777  0.626744  1
  Nd  Nd12  1  0.628818  0.516846  0.874039  1
  Nd  Nd13  1  0.485674  0.368720  0.628704  1
  Nd  Nd14  1  0.516819  0.628700  0.125005  1
  Nd  Nd15  1  0.127734  0.982454  0.876952  1
  Nd  Nd16  1  0.679259  0.692784  0.501690  1
  Nd  Nd17  1  0.812322  0.190287  0.751147  1
  Nd  Nd18  1  0.192366  0.811823  0.242741  1
  Nd  Nd19  1  0.308535  0.310452  0.999974  1
  Si  Si20  1  0.921520  0.287512  0.939605  1
  Si  Si21  1  0.717200  0.077984  0.560872  1
  Si  Si22  1  0.213460  0.422781  0.190401  1
  Si  Si23  1  0.791432  0.577022  0.690163  1
  Si  Si24  1  0.422134  0.213245  0.812057  1
  Si  Si25  1  0.575317  0.786884  0.309808  1
  Si  Si26  1  0.286892  0.923509  0.057935  1
  Si  Si27  1  0.833858  0.802579  0.798341  1
  Si  Si28  1  0.167824  0.195884  0.297976  1
  Si  Si29  1  0.801949  0.832528  0.200092  1
  Si  Si30  1  0.315810  0.664928  0.558780  1
  Si  Si31  1  0.697316  0.334164  0.048485  1
  Si  Si32  1  0.669590  0.307108  0.454972  1
  Si  Si33  1  0.332912  0.696479  0.951123  1
  Si  Si34  1  0.197206  0.167244  0.703948  1
  Sb  Sb35  1  0.066921  0.711526  0.434877  1
