# generated using pymatgen
data_Tm5(Cd2Pd)2
_symmetry_space_group_name_H-M   'P 1'
_cell_length_a   3.58115500
_cell_length_b   7.95850300
_cell_length_c   18.26852000
_cell_angle_alpha   90.00000000
_cell_angle_beta   90.00000000
_cell_angle_gamma   90.00000000
_symmetry_Int_Tables_number   1
_chemical_formula_structural   Tm5(Cd2Pd)2
_chemical_formula_sum   'Tm10 Cd8 Pd4'
_cell_volume   520.66438052
_cell_formula_units_Z   2
loop_
 _symmetry_equiv_pos_site_id
 _symmetry_equiv_pos_as_xyz
  1  'x, y, z'
loop_
 _atom_site_type_symbol
 _atom_site_label
 _atom_site_symmetry_multiplicity
 _atom_site_fract_x
 _atom_site_fract_y
 _atom_site_fract_z
 _atom_site_occupancy
  Tm  Tm0  1  0.000000  0.500000  0.500000  1
  Tm  Tm1  1  0.000000  0.000000  0.000000  1
  Tm  Tm2  1  0.000000  0.738194  0.281470  1
  Tm  Tm3  1  0.000000  0.261806  0.718531  1
  Tm  Tm4  1  0.000000  0.761806  0.781469  1
  Tm  Tm5  1  0.000000  0.238194  0.218530  1
  Tm  Tm6  1  0.000000  0.612563  0.083227  1
  Tm  Tm7  1  0.000000  0.387437  0.916773  1
  Tm  Tm8  1  0.000000  0.887437  0.583227  1
  Tm  Tm9  1  0.000000  0.112563  0.416773  1
  Cd  Cd10  1  0.500000  0.715017  0.932474  1
  Cd  Cd11  1  0.500000  0.284983  0.067526  1
  Cd  Cd12  1  0.500000  0.784983  0.432474  1
  Cd  Cd13  1  0.500000  0.215017  0.567526  1
  Cd  Cd14  1  0.500000  0.579868  0.647831  1
  Cd  Cd15  1  0.500000  0.420132  0.352169  1
  Cd  Cd16  1  0.500000  0.920132  0.147831  1
  Cd  Cd17  1  0.500000  0.079868  0.852169  1
  Pd  Pd18  1  0.500000  0.524901  0.195983  1
  Pd  Pd19  1  0.500000  0.475099  0.804017  1
  Pd  Pd20  1  0.500000  0.975099  0.695983  1
  Pd  Pd21  1  0.500000  0.024901  0.304017  1
