# generated using pymatgen
data_HfZr2(SeO4)6
_symmetry_space_group_name_H-M   'P 1'
_cell_length_a   9.63175343
_cell_length_b   9.63175329
_cell_length_c   9.63175558
_cell_angle_alpha   56.53763933
_cell_angle_beta   56.53764778
_cell_angle_gamma   56.53764282
_symmetry_Int_Tables_number   1
_chemical_formula_structural   HfZr2(SeO4)6
_chemical_formula_sum   'Hf1 Zr2 Se6 O24'
_cell_volume   581.27652937
_cell_formula_units_Z   1
loop_
 _symmetry_equiv_pos_site_id
 _symmetry_equiv_pos_as_xyz
  1  'x, y, z'
loop_
 _atom_site_type_symbol
 _atom_site_label
 _atom_site_symmetry_multiplicity
 _atom_site_fract_x
 _atom_site_fract_y
 _atom_site_fract_z
 _atom_site_occupancy
  Hf  Hf0  1  0.146623  0.146623  0.146623  1
  Zr  Zr1  1  0.643307  0.643307  0.643307  1
  Zr  Zr2  1  0.356786  0.356786  0.356786  1
  Se  Se3  1  0.964643  0.251946  0.529345  1
  Se  Se4  1  0.529345  0.964643  0.251946  1
  Se  Se5  1  0.251946  0.529345  0.964643  1
  Se  Se6  1  0.748702  0.472979  0.037816  1
  Se  Se7  1  0.472979  0.037816  0.748702  1
  Se  Se8  1  0.037816  0.748702  0.472979  1
  O  O9  1  0.868831  0.721061  0.489681  1
  O  O10  1  0.721061  0.489681  0.868831  1
  O  O11  1  0.992970  0.053175  0.674326  1
  O  O12  1  0.489681  0.868831  0.721061  1
  O  O13  1  0.985460  0.275278  0.330888  1
  O  O14  1  0.764710  0.406318  0.594070  1
  O  O15  1  0.594070  0.764710  0.406318  1
  O  O16  1  0.674326  0.992970  0.053175  1
  O  O17  1  0.406318  0.594070  0.764710  1
  O  O18  1  0.953919  0.314665  0.030423  1
  O  O19  1  0.714362  0.660527  0.029971  1
  O  O20  1  0.660527  0.029971  0.714362  1
  O  O21  1  0.330888  0.985460  0.275278  1
  O  O22  1  0.275278  0.330888  0.985460  1
  O  O23  1  0.053175  0.674326  0.992970  1
  O  O24  1  0.611424  0.371127  0.229926  1
  O  O25  1  0.314665  0.030423  0.953919  1
  O  O26  1  0.371127  0.229926  0.611424  1
  O  O27  1  0.229926  0.611424  0.371127  1
  O  O28  1  0.029971  0.714362  0.660527  1
  O  O29  1  0.476656  0.107390  0.338340  1
  O  O30  1  0.030423  0.953919  0.314665  1
  O  O31  1  0.338340  0.476656  0.107390  1
  O  O32  1  0.107390  0.338340  0.476656  1
