# generated using pymatgen
data_Er2AlB2Ru5
_symmetry_space_group_name_H-M   'P 1'
_cell_length_a   9.52977000
_cell_length_b   9.52977000
_cell_length_c   3.09818700
_cell_angle_alpha   90.00000000
_cell_angle_beta   90.00000000
_cell_angle_gamma   90.00000000
_symmetry_Int_Tables_number   1
_chemical_formula_structural   Er2AlB2Ru5
_chemical_formula_sum   'Er4 Al2 B4 Ru10'
_cell_volume   281.36655004
_cell_formula_units_Z   2
loop_
 _symmetry_equiv_pos_site_id
 _symmetry_equiv_pos_as_xyz
  1  'x, y, z'
loop_
 _atom_site_type_symbol
 _atom_site_label
 _atom_site_symmetry_multiplicity
 _atom_site_fract_x
 _atom_site_fract_y
 _atom_site_fract_z
 _atom_site_occupancy
  Er  Er0  1  0.675289  0.175289  0.000000  1
  Er  Er1  1  0.324711  0.824711  0.000000  1
  Er  Er2  1  0.175289  0.324711  0.000000  1
  Er  Er3  1  0.824711  0.675289  0.000000  1
  Al  Al4  1  0.000000  0.000000  0.000000  1
  Al  Al5  1  0.500000  0.500000  0.000000  1
  B  B6  1  0.123492  0.623492  0.000000  1
  B  B7  1  0.876508  0.376508  0.000000  1
  B  B8  1  0.623492  0.876508  0.000000  1
  B  B9  1  0.376508  0.123492  0.000000  1
  Ru  Ru10  1  0.216137  0.070047  0.500000  1
  Ru  Ru11  1  0.783863  0.929953  0.500000  1
  Ru  Ru12  1  0.070047  0.783863  0.500000  1
  Ru  Ru13  1  0.716137  0.429953  0.500000  1
  Ru  Ru14  1  0.929953  0.216137  0.500000  1
  Ru  Ru15  1  0.283863  0.570047  0.500000  1
  Ru  Ru16  1  0.570047  0.716137  0.500000  1
  Ru  Ru17  1  0.429953  0.283863  0.500000  1
  Ru  Ru18  1  0.500000  0.000000  0.500000  1
  Ru  Ru19  1  0.000000  0.500000  0.500000  1
