# generated using pymatgen
data_Hf18MnCr(CoRe3)2
_symmetry_space_group_name_H-M   'P 1'
_cell_length_a   8.52889400
_cell_length_b   8.52889361
_cell_length_c   8.40748700
_cell_angle_alpha   90.00000000
_cell_angle_beta   90.00000000
_cell_angle_gamma   119.99999375
_symmetry_Int_Tables_number   1
_chemical_formula_structural   Hf18MnCr(CoRe3)2
_chemical_formula_sum   'Hf18 Mn1 Cr1 Co2 Re6'
_cell_volume   529.64183013
_cell_formula_units_Z   1
loop_
 _symmetry_equiv_pos_site_id
 _symmetry_equiv_pos_as_xyz
  1  'x, y, z'
loop_
 _atom_site_type_symbol
 _atom_site_label
 _atom_site_symmetry_multiplicity
 _atom_site_fract_x
 _atom_site_fract_y
 _atom_site_fract_z
 _atom_site_occupancy
  Hf  Hf0  1  0.197914  0.802086  0.441379  1
  Hf  Hf1  1  0.197914  0.395830  0.441379  1
  Hf  Hf2  1  0.604170  0.802086  0.441379  1
  Hf  Hf3  1  0.802086  0.197914  0.558621  1
  Hf  Hf4  1  0.802086  0.604170  0.558621  1
  Hf  Hf5  1  0.395830  0.197914  0.558621  1
  Hf  Hf6  1  0.801683  0.198317  0.941568  1
  Hf  Hf7  1  0.801683  0.603364  0.941568  1
  Hf  Hf8  1  0.396636  0.198317  0.941568  1
  Hf  Hf9  1  0.198317  0.801683  0.058432  1
  Hf  Hf10  1  0.198317  0.396636  0.058432  1
  Hf  Hf11  1  0.603364  0.801683  0.058432  1
  Hf  Hf12  1  0.541842  0.458158  0.249900  1
  Hf  Hf13  1  0.541842  0.083684  0.249900  1
  Hf  Hf14  1  0.916316  0.458158  0.249900  1
  Hf  Hf15  1  0.458158  0.541842  0.750100  1
  Hf  Hf16  1  0.458158  0.916316  0.750100  1
  Hf  Hf17  1  0.083684  0.541842  0.750100  1
  Mn  Mn18  1  0.000000  0.000000  0.500000  1
  Cr  Cr19  1  0.000000  0.000000  0.000000  1
  Co  Co20  1  0.333333  0.666667  0.250537  1
  Co  Co21  1  0.666667  0.333333  0.749463  1
  Re  Re22  1  0.891224  0.108776  0.249709  1
  Re  Re23  1  0.891224  0.782450  0.249709  1
  Re  Re24  1  0.217550  0.108776  0.249709  1
  Re  Re25  1  0.108776  0.891224  0.750291  1
  Re  Re26  1  0.108776  0.217550  0.750291  1
  Re  Re27  1  0.782450  0.891224  0.750291  1
