# generated using pymatgen
data_Tb2Tm2ScPb4
_symmetry_space_group_name_H-M   'P 1'
_cell_length_a   8.03611100
_cell_length_b   15.40084600
_cell_length_c   8.13857100
_cell_angle_alpha   90.00000000
_cell_angle_beta   90.00000000
_cell_angle_gamma   90.00000000
_symmetry_Int_Tables_number   1
_chemical_formula_structural   Tb2Tm2ScPb4
_chemical_formula_sum   'Tb8 Tm8 Sc4 Pb16'
_cell_volume   1007.25321352
_cell_formula_units_Z   4
loop_
 _symmetry_equiv_pos_site_id
 _symmetry_equiv_pos_as_xyz
  1  'x, y, z'
loop_
 _atom_site_type_symbol
 _atom_site_label
 _atom_site_symmetry_multiplicity
 _atom_site_fract_x
 _atom_site_fract_y
 _atom_site_fract_z
 _atom_site_occupancy
  Tb  Tb0  1  0.471985  0.595971  0.678032  1
  Tb  Tb1  1  0.971985  0.904029  0.821968  1
  Tb  Tb2  1  0.528015  0.095971  0.321968  1
  Tb  Tb3  1  0.028015  0.404029  0.178032  1
  Tb  Tb4  1  0.528015  0.404029  0.321968  1
  Tb  Tb5  1  0.028015  0.095971  0.178032  1
  Tb  Tb6  1  0.471985  0.904029  0.678032  1
  Tb  Tb7  1  0.971985  0.595971  0.821968  1
  Tm  Tm8  1  0.632315  0.623367  0.155678  1
  Tm  Tm9  1  0.132315  0.876633  0.344322  1
  Tm  Tm10  1  0.367685  0.123367  0.844322  1
  Tm  Tm11  1  0.867685  0.376633  0.655678  1
  Tm  Tm12  1  0.367685  0.376633  0.844322  1
  Tm  Tm13  1  0.867685  0.123367  0.655678  1
  Tm  Tm14  1  0.632315  0.876633  0.155678  1
  Tm  Tm15  1  0.132315  0.623367  0.344322  1
  Sc  Sc16  1  0.800065  0.750000  0.493906  1
  Sc  Sc17  1  0.300065  0.750000  0.006094  1
  Sc  Sc18  1  0.199935  0.250000  0.506094  1
  Sc  Sc19  1  0.699935  0.250000  0.993906  1
  Pb  Pb20  1  0.708963  0.455229  0.961228  1
  Pb  Pb21  1  0.208963  0.044771  0.538772  1
  Pb  Pb22  1  0.291037  0.955229  0.038772  1
  Pb  Pb23  1  0.791037  0.544771  0.461228  1
  Pb  Pb24  1  0.291037  0.544771  0.038772  1
  Pb  Pb25  1  0.791037  0.955229  0.461228  1
  Pb  Pb26  1  0.708963  0.044771  0.961228  1
  Pb  Pb27  1  0.208963  0.455229  0.538772  1
  Pb  Pb28  1  0.440964  0.750000  0.375600  1
  Pb  Pb29  1  0.940964  0.750000  0.124400  1
  Pb  Pb30  1  0.559036  0.250000  0.624400  1
  Pb  Pb31  1  0.059036  0.250000  0.875600  1
  Pb  Pb32  1  0.659563  0.750000  0.841002  1
  Pb  Pb33  1  0.159563  0.750000  0.658998  1
  Pb  Pb34  1  0.340437  0.250000  0.158998  1
  Pb  Pb35  1  0.840437  0.250000  0.341002  1
