# generated using pymatgen
data_La2Nd6CdHgIr2
_symmetry_space_group_name_H-M   'P 1'
_cell_length_a   9.99041497
_cell_length_b   9.99041566
_cell_length_c   9.99859600
_cell_angle_alpha   59.97291000
_cell_angle_beta   59.97290772
_cell_angle_gamma   59.97023333
_symmetry_Int_Tables_number   1
_chemical_formula_structural   La2Nd6CdHgIr2
_chemical_formula_sum   'La4 Nd12 Cd2 Hg2 Ir4'
_cell_volume   705.20508745
_cell_formula_units_Z   2
loop_
 _symmetry_equiv_pos_site_id
 _symmetry_equiv_pos_as_xyz
  1  'x, y, z'
loop_
 _atom_site_type_symbol
 _atom_site_label
 _atom_site_symmetry_multiplicity
 _atom_site_fract_x
 _atom_site_fract_y
 _atom_site_fract_z
 _atom_site_occupancy
  La  La0  1  0.348617  0.348617  0.347830  1
  La  La1  1  0.348617  0.348617  0.954936  1
  La  La2  1  0.349632  0.952344  0.349012  1
  La  La3  1  0.952344  0.349632  0.349012  1
  Nd  Nd4  1  0.810151  0.188786  0.190679  1
  Nd  Nd5  1  0.188786  0.810151  0.810384  1
  Nd  Nd6  1  0.188786  0.810151  0.190679  1
  Nd  Nd7  1  0.810151  0.188786  0.810384  1
  Nd  Nd8  1  0.188525  0.188525  0.811475  1
  Nd  Nd9  1  0.809098  0.809098  0.190902  1
  Nd  Nd10  1  0.938132  0.561083  0.562512  1
  Nd  Nd11  1  0.561083  0.938132  0.938273  1
  Nd  Nd12  1  0.561083  0.938132  0.562512  1
  Nd  Nd13  1  0.938132  0.561083  0.938273  1
  Nd  Nd14  1  0.561666  0.561666  0.938334  1
  Nd  Nd15  1  0.937519  0.937519  0.562481  1
  Cd  Cd16  1  0.579118  0.260377  0.580251  1
  Cd  Cd17  1  0.260377  0.579118  0.580251  1
  Hg  Hg18  1  0.583197  0.583197  0.585747  1
  Hg  Hg19  1  0.583197  0.583197  0.247859  1
  Ir  Ir20  1  0.142371  0.142371  0.140869  1
  Ir  Ir21  1  0.142371  0.142371  0.574389  1
  Ir  Ir22  1  0.142392  0.574655  0.141476  1
  Ir  Ir23  1  0.574655  0.142392  0.141476  1
