# generated using pymatgen
data_Pr6In8SiHg
_symmetry_space_group_name_H-M   'P 1'
_cell_length_a   8.61437129
_cell_length_b   8.61433490
_cell_length_c   8.61436091
_cell_angle_alpha   119.98576646
_cell_angle_beta   119.98578144
_cell_angle_gamma   90.02468329
_symmetry_Int_Tables_number   1
_chemical_formula_structural   Pr6In8SiHg
_chemical_formula_sum   'Pr6 In8 Si1 Hg1'
_cell_volume   452.11256665
_cell_formula_units_Z   1
loop_
 _symmetry_equiv_pos_site_id
 _symmetry_equiv_pos_as_xyz
  1  'x, y, z'
loop_
 _atom_site_type_symbol
 _atom_site_label
 _atom_site_symmetry_multiplicity
 _atom_site_fract_x
 _atom_site_fract_y
 _atom_site_fract_z
 _atom_site_occupancy
  Pr  Pr0  1  0.762936  0.762937  0.999999  1
  Pr  Pr1  1  0.237064  0.237063  0.000001  1
  Pr  Pr2  1  0.676070  0.146198  0.822272  1
  Pr  Pr3  1  0.323930  0.853802  0.177728  1
  Pr  Pr4  1  0.146198  0.323930  0.470129  1
  Pr  Pr5  1  0.853802  0.676070  0.529871  1
  In  In6  1  0.332661  0.818527  0.788237  1
  In  In7  1  0.667339  0.181473  0.211763  1
  In  In8  1  0.030291  0.544424  0.211763  1
  In  In9  1  0.818527  0.030290  0.485867  1
  In  In10  1  0.455576  0.667340  0.485866  1
  In  In11  1  0.969709  0.455576  0.788237  1
  In  In12  1  0.181473  0.969710  0.514133  1
  In  In13  1  0.544424  0.332660  0.514134  1
  Si  Si14  1  0.000000  0.000000  0.000000  1
  Hg  Hg15  1  0.500000  0.500000  0.000000  1
