# generated using pymatgen
data_Yb2Y5Tm(B6Os)4
_symmetry_space_group_name_H-M   'P 1'
_cell_length_a   3.64949200
_cell_length_b   9.16281651
_cell_length_c   11.55794811
_cell_angle_alpha   89.84656007
_cell_angle_beta   90.00000000
_cell_angle_gamma   90.00000000
_symmetry_Int_Tables_number   1
_chemical_formula_structural   Yb2Y5Tm(B6Os)4
_chemical_formula_sum   'Yb2 Y5 Tm1 B24 Os4'
_cell_volume   386.49207102
_cell_formula_units_Z   1
loop_
 _symmetry_equiv_pos_site_id
 _symmetry_equiv_pos_as_xyz
  1  'x, y, z'
loop_
 _atom_site_type_symbol
 _atom_site_label
 _atom_site_symmetry_multiplicity
 _atom_site_fract_x
 _atom_site_fract_y
 _atom_site_fract_z
 _atom_site_occupancy
  Yb  Yb0  1  0.000000  0.324851  0.414613  1
  Yb  Yb1  1  0.000000  0.675157  0.585664  1
  Y  Y2  1  0.000000  0.821752  0.086075  1
  Y  Y3  1  0.000000  0.178282  0.913559  1
  Y  Y4  1  0.000000  0.942043  0.370428  1
  Y  Y5  1  0.000000  0.058015  0.629846  1
  Y  Y6  1  0.000000  0.443042  0.129569  1
  Tm  Tm7  1  0.000000  0.557340  0.869339  1
  B  B8  1  0.500000  0.553725  0.432707  1
  B  B9  1  0.500000  0.446370  0.567708  1
  B  B10  1  0.500000  0.053543  0.066849  1
  B  B11  1  0.500000  0.945898  0.932939  1
  B  B12  1  0.500000  0.747171  0.417932  1
  B  B13  1  0.500000  0.253111  0.582267  1
  B  B14  1  0.500000  0.247816  0.081472  1
  B  B15  1  0.500000  0.750924  0.918265  1
  B  B16  1  0.500000  0.790501  0.264942  1
  B  B17  1  0.500000  0.210023  0.735181  1
  B  B18  1  0.500000  0.289904  0.234352  1
  B  B19  1  0.500000  0.709023  0.765978  1
  B  B20  1  0.500000  0.631294  0.185637  1
  B  B21  1  0.500000  0.369738  0.814684  1
  B  B22  1  0.500000  0.131160  0.313615  1
  B  B23  1  0.500000  0.868476  0.686639  1
  B  B24  1  0.500000  0.983552  0.211441  1
  B  B25  1  0.500000  0.016111  0.788672  1
  B  B26  1  0.500000  0.483897  0.288531  1
  B  B27  1  0.500000  0.516781  0.712341  1
  B  B28  1  0.500000  0.603481  0.027408  1
  B  B29  1  0.500000  0.397522  0.970537  1
  B  B30  1  0.500000  0.100487  0.472225  1
  B  B31  1  0.500000  0.899512  0.527928  1
  Os  Os32  1  0.000000  0.639088  0.319514  1
  Os  Os33  1  0.000000  0.361739  0.681200  1
  Os  Os34  1  0.000000  0.136776  0.177631  1
  Os  Os35  1  0.000000  0.861895  0.822314  1
