# generated using pymatgen
data_Ce8TiSi16W11
_symmetry_space_group_name_H-M   'P 1'
_cell_length_a   6.94624515
_cell_length_b   6.94624494
_cell_length_c   12.99174714
_cell_angle_alpha   90.03944041
_cell_angle_beta   89.96056094
_cell_angle_gamma   90.24268949
_symmetry_Int_Tables_number   1
_chemical_formula_structural   Ce8TiSi16W11
_chemical_formula_sum   'Ce8 Ti1 Si16 W11'
_cell_volume   626.85004060
_cell_formula_units_Z   1
loop_
 _symmetry_equiv_pos_site_id
 _symmetry_equiv_pos_as_xyz
  1  'x, y, z'
loop_
 _atom_site_type_symbol
 _atom_site_label
 _atom_site_symmetry_multiplicity
 _atom_site_fract_x
 _atom_site_fract_y
 _atom_site_fract_z
 _atom_site_occupancy
  Ce  Ce0  1  0.998668  0.668752  0.030418  1
  Ce  Ce1  1  0.000123  0.332489  0.529784  1
  Ce  Ce2  1  0.668752  0.998668  0.969582  1
  Ce  Ce3  1  0.166916  0.502227  0.778235  1
  Ce  Ce4  1  0.833029  0.500665  0.279870  1
  Ce  Ce5  1  0.502227  0.166916  0.221765  1
  Ce  Ce6  1  0.500665  0.833029  0.720130  1
  Ce  Ce7  1  0.332489  0.000123  0.470216  1
  Ti  Ti8  1  0.331849  0.331849  0.000000  1
  Si  Si9  1  0.032171  0.714544  0.434811  1
  Si  Si10  1  0.965398  0.289449  0.933115  1
  Si  Si11  1  0.714544  0.032171  0.565189  1
  Si  Si12  1  0.214694  0.467617  0.185594  1
  Si  Si13  1  0.784867  0.532795  0.684771  1
  Si  Si14  1  0.467617  0.214694  0.814406  1
  Si  Si15  1  0.532795  0.784867  0.315229  1
  Si  Si16  1  0.289449  0.965398  0.066885  1
  Si  Si17  1  0.800795  0.880991  0.185497  1
  Si  Si18  1  0.300906  0.619488  0.563927  1
  Si  Si19  1  0.700793  0.377840  0.063536  1
  Si  Si20  1  0.619488  0.300906  0.436073  1
  Si  Si21  1  0.377840  0.700793  0.936464  1
  Si  Si22  1  0.119021  0.199592  0.313477  1
  Si  Si23  1  0.199592  0.119021  0.686523  1
  Si  Si24  1  0.880991  0.800795  0.814503  1
  W  W25  1  0.328460  0.497622  0.376286  1
  W  W26  1  0.828472  0.002527  0.374388  1
  W  W27  1  0.001015  0.170225  0.123489  1
  W  W28  1  0.002527  0.828472  0.625612  1
  W  W29  1  0.497622  0.328460  0.623714  1
  W  W30  1  0.170225  0.001015  0.876511  1
  W  W31  1  0.666817  0.666817  0.500000  1
  W  W32  1  0.832362  0.166388  0.748762  1
  W  W33  1  0.166388  0.832362  0.251238  1
  W  W34  1  0.502468  0.667959  0.123859  1
  W  W35  1  0.667959  0.502468  0.876141  1
