# generated using pymatgen
data_Tb3Ho(Hf3Ge4)2
_symmetry_space_group_name_H-M   'P 1'
_cell_length_a   7.39915101
_cell_length_b   7.39791701
_cell_length_c   13.57480200
_cell_angle_alpha   90.00000000
_cell_angle_beta   90.00000000
_cell_angle_gamma   90.00104500
_symmetry_Int_Tables_number   1
_chemical_formula_structural   Tb3Ho(Hf3Ge4)2
_chemical_formula_sum   'Tb6 Ho2 Hf12 Ge16'
_cell_volume   743.06165347
_cell_formula_units_Z   2
loop_
 _symmetry_equiv_pos_site_id
 _symmetry_equiv_pos_as_xyz
  1  'x, y, z'
loop_
 _atom_site_type_symbol
 _atom_site_label
 _atom_site_symmetry_multiplicity
 _atom_site_fract_x
 _atom_site_fract_y
 _atom_site_fract_z
 _atom_site_occupancy
  Tb  Tb0  1  0.157076  0.495752  0.467254  1
  Tb  Tb1  1  0.504253  0.842732  0.032797  1
  Tb  Tb2  1  0.842924  0.504248  0.967254  1
  Tb  Tb3  1  0.495747  0.157268  0.532797  1
  Tb  Tb4  1  0.342673  0.995937  0.782620  1
  Tb  Tb5  1  0.657327  0.004063  0.282620  1
  Ho  Ho6  1  0.996610  0.343073  0.217338  1
  Ho  Ho7  1  0.003390  0.656927  0.717338  1
  Hf  Hf8  1  0.173664  0.173856  0.999949  1
  Hf  Hf9  1  0.826336  0.826144  0.499949  1
  Hf  Hf10  1  0.325939  0.673717  0.249992  1
  Hf  Hf11  1  0.674061  0.326283  0.749992  1
  Hf  Hf12  1  0.154007  0.996606  0.374906  1
  Hf  Hf13  1  0.845993  0.003394  0.874906  1
  Hf  Hf14  1  0.503091  0.654177  0.624832  1
  Hf  Hf15  1  0.345748  0.497204  0.875156  1
  Hf  Hf16  1  0.496909  0.345823  0.124832  1
  Hf  Hf17  1  0.654252  0.502796  0.375156  1
  Hf  Hf18  1  0.996829  0.153984  0.625041  1
  Hf  Hf19  1  0.003171  0.846016  0.125041  1
  Ge  Ge20  1  0.364324  0.301248  0.321527  1
  Ge  Ge21  1  0.635676  0.698752  0.821527  1
  Ge  Ge22  1  0.197983  0.863834  0.572311  1
  Ge  Ge23  1  0.135177  0.801125  0.928016  1
  Ge  Ge24  1  0.802017  0.136166  0.072311  1
  Ge  Ge25  1  0.864823  0.198875  0.428016  1
  Ge  Ge26  1  0.300558  0.365482  0.678186  1
  Ge  Ge27  1  0.699442  0.634518  0.178186  1
  Ge  Ge28  1  0.296027  0.040294  0.181625  1
  Ge  Ge29  1  0.703973  0.959706  0.681625  1
  Ge  Ge30  1  0.460050  0.796121  0.431484  1
  Ge  Ge31  1  0.203216  0.539291  0.068825  1
  Ge  Ge32  1  0.539950  0.203879  0.931484  1
  Ge  Ge33  1  0.796784  0.460709  0.568825  1
  Ge  Ge34  1  0.039934  0.296986  0.818141  1
  Ge  Ge35  1  0.960066  0.703014  0.318141  1
