# generated using pymatgen
data_Ti2AlRh5
_symmetry_space_group_name_H-M   'P 1'
_cell_length_a   4.03289200
_cell_length_b   5.37910400
_cell_length_c   10.56908000
_cell_angle_alpha   90.00000000
_cell_angle_beta   90.00000000
_cell_angle_gamma   90.00000000
_symmetry_Int_Tables_number   1
_chemical_formula_structural   Ti2AlRh5
_chemical_formula_sum   'Ti4 Al2 Rh10'
_cell_volume   229.27870394
_cell_formula_units_Z   2
loop_
 _symmetry_equiv_pos_site_id
 _symmetry_equiv_pos_as_xyz
  1  'x, y, z'
loop_
 _atom_site_type_symbol
 _atom_site_label
 _atom_site_symmetry_multiplicity
 _atom_site_fract_x
 _atom_site_fract_y
 _atom_site_fract_z
 _atom_site_occupancy
  Ti  Ti0  1  0.500000  0.329437  0.139838  1
  Ti  Ti1  1  0.500000  0.670563  0.860162  1
  Ti  Ti2  1  0.500000  0.829437  0.360162  1
  Ti  Ti3  1  0.500000  0.170563  0.639838  1
  Al  Al4  1  0.000000  0.000000  0.000000  1
  Al  Al5  1  0.000000  0.500000  0.500000  1
  Rh  Rh6  1  0.000000  0.000000  0.500000  1
  Rh  Rh7  1  0.000000  0.500000  0.000000  1
  Rh  Rh8  1  0.000000  0.083621  0.242990  1
  Rh  Rh9  1  0.000000  0.916379  0.757010  1
  Rh  Rh10  1  0.000000  0.583621  0.257010  1
  Rh  Rh11  1  0.000000  0.416379  0.742990  1
  Rh  Rh12  1  0.500000  0.314919  0.390038  1
  Rh  Rh13  1  0.500000  0.685081  0.609962  1
  Rh  Rh14  1  0.500000  0.814919  0.109962  1
  Rh  Rh15  1  0.500000  0.185081  0.890038  1
