# generated using pymatgen
data_Yb4Sm3Th(B6Ru)4
_symmetry_space_group_name_H-M   'P 1'
_cell_length_a   3.72130200
_cell_length_b   9.12709741
_cell_length_c   11.53553150
_cell_angle_alpha   89.96599996
_cell_angle_beta   90.00000000
_cell_angle_gamma   90.00000000
_symmetry_Int_Tables_number   1
_chemical_formula_structural   Yb4Sm3Th(B6Ru)4
_chemical_formula_sum   'Yb4 Sm3 Th1 B24 Ru4'
_cell_volume   391.80063439
_cell_formula_units_Z   1
loop_
 _symmetry_equiv_pos_site_id
 _symmetry_equiv_pos_as_xyz
  1  'x, y, z'
loop_
 _atom_site_type_symbol
 _atom_site_label
 _atom_site_symmetry_multiplicity
 _atom_site_fract_x
 _atom_site_fract_y
 _atom_site_fract_z
 _atom_site_occupancy
  Yb  Yb0  1  0.000000  0.941648  0.369085  1
  Yb  Yb1  1  0.000000  0.057603  0.629893  1
  Yb  Yb2  1  0.000000  0.442600  0.132363  1
  Yb  Yb3  1  0.000000  0.559108  0.867987  1
  Sm  Sm4  1  0.000000  0.322619  0.413759  1
  Sm  Sm5  1  0.000000  0.678171  0.584830  1
  Sm  Sm6  1  0.000000  0.820602  0.087571  1
  Th  Th7  1  0.000000  0.179542  0.913989  1
  B  B8  1  0.500000  0.555400  0.431089  1
  B  B9  1  0.500000  0.444452  0.568668  1
  B  B10  1  0.500000  0.054998  0.070149  1
  B  B11  1  0.500000  0.943544  0.930996  1
  B  B12  1  0.500000  0.750361  0.416953  1
  B  B13  1  0.500000  0.249692  0.582212  1
  B  B14  1  0.500000  0.250088  0.084646  1
  B  B15  1  0.500000  0.749047  0.916653  1
  B  B16  1  0.500000  0.789768  0.266189  1
  B  B17  1  0.500000  0.210951  0.732700  1
  B  B18  1  0.500000  0.289610  0.234843  1
  B  B19  1  0.500000  0.710224  0.765579  1
  B  B20  1  0.500000  0.628464  0.186206  1
  B  B21  1  0.500000  0.371990  0.813143  1
  B  B22  1  0.500000  0.128263  0.314632  1
  B  B23  1  0.500000  0.870962  0.685194  1
  B  B24  1  0.500000  0.983325  0.213784  1
  B  B25  1  0.500000  0.014905  0.786504  1
  B  B26  1  0.500000  0.483530  0.287516  1
  B  B27  1  0.500000  0.516815  0.712207  1
  B  B28  1  0.500000  0.596473  0.026773  1
  B  B29  1  0.500000  0.405446  0.973649  1
  B  B30  1  0.500000  0.096834  0.473041  1
  B  B31  1  0.500000  0.903157  0.526669  1
  Ru  Ru32  1  0.000000  0.638620  0.319812  1
  Ru  Ru33  1  0.000000  0.360802  0.680717  1
  Ru  Ru34  1  0.000000  0.138010  0.179258  1
  Ru  Ru35  1  0.000000  0.862375  0.820743  1
