# generated using pymatgen
data_K4In3GaI16
_symmetry_space_group_name_H-M   'P 1'
_cell_length_a   8.39892306
_cell_length_b   8.66399032
_cell_length_c   17.00664946
_cell_angle_alpha   85.15490013
_cell_angle_beta   89.80551463
_cell_angle_gamma   89.98050109
_symmetry_Int_Tables_number   1
_chemical_formula_structural   K4In3GaI16
_chemical_formula_sum   'K4 In3 Ga1 I16'
_cell_volume   1233.11382857
_cell_formula_units_Z   1
loop_
 _symmetry_equiv_pos_site_id
 _symmetry_equiv_pos_as_xyz
  1  'x, y, z'
loop_
 _atom_site_type_symbol
 _atom_site_label
 _atom_site_symmetry_multiplicity
 _atom_site_fract_x
 _atom_site_fract_y
 _atom_site_fract_z
 _atom_site_occupancy
  K  K0  1  0.501470  0.256227  0.639402  1
  K  K1  1  0.002476  0.743247  0.861065  1
  K  K2  1  0.498058  0.743799  0.361325  1
  K  K3  1  0.998385  0.255708  0.138154  1
  In  In4  1  0.358307  0.243610  0.361087  1
  In  In5  1  0.858305  0.756287  0.138853  1
  In  In6  1  0.641891  0.756568  0.638922  1
  Ga  Ga7  1  0.141214  0.244740  0.860933  1
  I  I8  1  0.866003  0.136375  0.907943  1
  I  I9  1  0.348727  0.871249  0.589411  1
  I  I10  1  0.151504  0.870289  0.088594  1
  I  I11  1  0.650868  0.128564  0.411024  1
  I  I12  1  0.387279  0.423425  0.219400  1
  I  I13  1  0.887139  0.576443  0.280307  1
  I  I14  1  0.611936  0.577101  0.780405  1
  I  I15  1  0.113237  0.412452  0.727726  1
  I  I16  1  0.650103  0.995072  0.161703  1
  I  I17  1  0.150210  0.005286  0.338075  1
  I  I18  1  0.338080  0.021206  0.839836  1
  I  I19  1  0.849606  0.994882  0.662001  1
  I  I20  1  0.245362  0.431045  0.472665  1
  I  I21  1  0.745428  0.569201  0.027639  1
  I  I22  1  0.754801  0.568593  0.527719  1
  I  I23  1  0.249613  0.418632  0.965812  1
