# generated using pymatgen
data_Pr4Ho6Ga7Si
_symmetry_space_group_name_H-M   'P 1'
_cell_length_a   7.61989700
_cell_length_b   7.96227900
_cell_length_c   15.34738900
_cell_angle_alpha   90.00000000
_cell_angle_beta   90.00000000
_cell_angle_gamma   90.00000000
_symmetry_Int_Tables_number   1
_chemical_formula_structural   Pr4Ho6Ga7Si
_chemical_formula_sum   'Pr8 Ho12 Ga14 Si2'
_cell_volume   931.15288510
_cell_formula_units_Z   2
loop_
 _symmetry_equiv_pos_site_id
 _symmetry_equiv_pos_as_xyz
  1  'x, y, z'
loop_
 _atom_site_type_symbol
 _atom_site_label
 _atom_site_symmetry_multiplicity
 _atom_site_fract_x
 _atom_site_fract_y
 _atom_site_fract_z
 _atom_site_occupancy
  Pr  Pr0  1  0.977174  0.821276  0.095624  1
  Pr  Pr1  1  0.477174  0.678724  0.404376  1
  Pr  Pr2  1  0.520963  0.324092  0.904258  1
  Pr  Pr3  1  0.020963  0.175908  0.595742  1
  Pr  Pr4  1  0.020963  0.175908  0.904258  1
  Pr  Pr5  1  0.520963  0.324092  0.595742  1
  Pr  Pr6  1  0.477174  0.678724  0.095624  1
  Pr  Pr7  1  0.977174  0.821276  0.404376  1
  Ho  Ho8  1  0.655165  0.989367  0.250000  1
  Ho  Ho9  1  0.155165  0.510633  0.250000  1
  Ho  Ho10  1  0.844150  0.491802  0.750000  1
  Ho  Ho11  1  0.344150  0.008198  0.750000  1
  Ho  Ho12  1  0.679427  0.822868  0.876434  1
  Ho  Ho13  1  0.179427  0.677132  0.623566  1
  Ho  Ho14  1  0.820149  0.324599  0.121379  1
  Ho  Ho15  1  0.320149  0.175401  0.378621  1
  Ho  Ho16  1  0.320149  0.175401  0.121379  1
  Ho  Ho17  1  0.820149  0.324599  0.378621  1
  Ho  Ho18  1  0.179427  0.677132  0.876434  1
  Ho  Ho19  1  0.679427  0.822868  0.623566  1
  Ga  Ga20  1  0.767420  0.621525  0.250000  1
  Ga  Ga21  1  0.267420  0.878475  0.250000  1
  Ga  Ga22  1  0.737017  0.118995  0.750000  1
  Ga  Ga23  1  0.237017  0.381005  0.750000  1
  Ga  Ga24  1  0.025149  0.115522  0.250000  1
  Ga  Ga25  1  0.525149  0.384478  0.250000  1
  Ga  Ga26  1  0.851009  0.533810  0.958887  1
  Ga  Ga27  1  0.351009  0.966190  0.541113  1
  Ga  Ga28  1  0.649926  0.032330  0.040720  1
  Ga  Ga29  1  0.149926  0.467670  0.459280  1
  Ga  Ga30  1  0.149926  0.467670  0.040720  1
  Ga  Ga31  1  0.649926  0.032330  0.459280  1
  Ga  Ga32  1  0.351009  0.966190  0.958887  1
  Ga  Ga33  1  0.851009  0.533810  0.541113  1
  Si  Si34  1  0.473800  0.616051  0.750000  1
  Si  Si35  1  0.973800  0.883949  0.750000  1
