# generated using pymatgen
data_Ta(NbSb)4
_symmetry_space_group_name_H-M   'P 1'
_cell_length_a   3.57409001
_cell_length_b   7.56468659
_cell_length_c   7.56275800
_cell_angle_alpha   93.23886429
_cell_angle_beta   76.29535822
_cell_angle_gamma   103.70892398
_symmetry_Int_Tables_number   1
_chemical_formula_structural   Ta(NbSb)4
_chemical_formula_sum   'Ta1 Nb4 Sb4'
_cell_volume   192.99277471
_cell_formula_units_Z   1
loop_
 _symmetry_equiv_pos_site_id
 _symmetry_equiv_pos_as_xyz
  1  'x, y, z'
loop_
 _atom_site_type_symbol
 _atom_site_label
 _atom_site_symmetry_multiplicity
 _atom_site_fract_x
 _atom_site_fract_y
 _atom_site_fract_z
 _atom_site_occupancy
  Ta  Ta0  1  0.000000  0.000000  0.000000  1
  Nb  Nb1  1  0.630400  0.317330  0.059311  1
  Nb  Nb2  1  0.310499  0.940997  0.317472  1
  Nb  Nb3  1  0.689500  0.059003  0.682528  1
  Nb  Nb4  1  0.369602  0.682670  0.940689  1
  Sb  Sb5  1  0.705084  0.653455  0.242377  1
  Sb  Sb6  1  0.947839  0.242362  0.346611  1
  Sb  Sb7  1  0.052161  0.757638  0.653389  1
  Sb  Sb8  1  0.294919  0.346545  0.757623  1
