# generated using pymatgen
data_Pr3AlSn2Pt3
_symmetry_space_group_name_H-M   'P 1'
_cell_length_a   7.63780107
_cell_length_b   7.50916678
_cell_length_c   4.15956900
_cell_angle_alpha   90.00000000
_cell_angle_beta   90.00000000
_cell_angle_gamma   119.44441004
_symmetry_Int_Tables_number   1
_chemical_formula_structural   Pr3AlSn2Pt3
_chemical_formula_sum   'Pr3 Al1 Sn2 Pt3'
_cell_volume   207.75109851
_cell_formula_units_Z   1
loop_
 _symmetry_equiv_pos_site_id
 _symmetry_equiv_pos_as_xyz
  1  'x, y, z'
loop_
 _atom_site_type_symbol
 _atom_site_label
 _atom_site_symmetry_multiplicity
 _atom_site_fract_x
 _atom_site_fract_y
 _atom_site_fract_z
 _atom_site_occupancy
  Pr  Pr0  1  0.590569  0.585802  0.000000  1
  Pr  Pr1  1  0.409431  0.995233  0.000000  1
  Pr  Pr2  1  0.000000  0.419380  0.000000  1
  Al  Al3  1  0.000000  0.756141  0.500000  1
  Sn  Sn4  1  0.248865  0.245018  0.500000  1
  Sn  Sn5  1  0.751135  0.996153  0.500000  1
  Pt  Pt6  1  0.683553  0.353699  0.500000  1
  Pt  Pt7  1  0.000000  0.978428  0.000000  1
  Pt  Pt8  1  0.316447  0.670147  0.500000  1
