# generated using pymatgen
data_YHo3(Sc4Bi3)4
_symmetry_space_group_name_H-M   'P 1'
_cell_length_a   7.87913408
_cell_length_b   9.05716400
_cell_length_c   11.54770411
_cell_angle_alpha   90.00000000
_cell_angle_beta   89.98410826
_cell_angle_gamma   90.00000000
_symmetry_Int_Tables_number   1
_chemical_formula_structural   YHo3(Sc4Bi3)4
_chemical_formula_sum   'Y1 Ho3 Sc16 Bi12'
_cell_volume   824.07426743
_cell_formula_units_Z   1
loop_
 _symmetry_equiv_pos_site_id
 _symmetry_equiv_pos_as_xyz
  1  'x, y, z'
loop_
 _atom_site_type_symbol
 _atom_site_label
 _atom_site_symmetry_multiplicity
 _atom_site_fract_x
 _atom_site_fract_y
 _atom_site_fract_z
 _atom_site_occupancy
  Y  Y0  1  0.315955  0.250000  0.218955  1
  Ho  Ho1  1  0.815871  0.250000  0.281263  1
  Ho  Ho2  1  0.684146  0.750000  0.781239  1
  Ho  Ho3  1  0.184160  0.750000  0.718724  1
  Sc  Sc4  1  0.349955  0.750000  0.220280  1
  Sc  Sc5  1  0.849939  0.750000  0.279754  1
  Sc  Sc6  1  0.650069  0.250000  0.779713  1
  Sc  Sc7  1  0.150026  0.250000  0.720280  1
  Sc  Sc8  1  0.693138  0.567244  0.061722  1
  Sc  Sc9  1  0.193179  0.932717  0.438303  1
  Sc  Sc10  1  0.306843  0.067217  0.938178  1
  Sc  Sc11  1  0.806825  0.432765  0.561721  1
  Sc  Sc12  1  0.306843  0.432783  0.938178  1
  Sc  Sc13  1  0.806825  0.067235  0.561721  1
  Sc  Sc14  1  0.693138  0.932756  0.061722  1
  Sc  Sc15  1  0.193179  0.567283  0.438303  1
  Sc  Sc16  1  0.481814  0.250000  0.489276  1
  Sc  Sc17  1  0.981514  0.250000  0.010788  1
  Sc  Sc18  1  0.518300  0.750000  0.510898  1
  Sc  Sc19  1  0.018297  0.750000  0.989065  1
  Bi  Bi20  1  0.402053  0.750000  0.966167  1
  Bi  Bi21  1  0.902086  0.750000  0.533838  1
  Bi  Bi22  1  0.598246  0.250000  0.033550  1
  Bi  Bi23  1  0.097815  0.250000  0.466306  1
  Bi  Bi24  1  0.564726  0.990336  0.328371  1
  Bi  Bi25  1  0.064198  0.509741  0.171660  1
  Bi  Bi26  1  0.435481  0.490548  0.671750  1
  Bi  Bi27  1  0.935487  0.009470  0.828247  1
  Bi  Bi28  1  0.435481  0.009452  0.671750  1
  Bi  Bi29  1  0.935487  0.490530  0.828247  1
  Bi  Bi30  1  0.564726  0.509664  0.328371  1
  Bi  Bi31  1  0.064198  0.990259  0.171660  1
