# generated using pymatgen
data_Nb5GaSi2B
_symmetry_space_group_name_H-M   'P 1'
_cell_length_a   7.73440812
_cell_length_b   7.71273127
_cell_length_c   5.32088300
_cell_angle_alpha   90.00000000
_cell_angle_beta   90.00000000
_cell_angle_gamma   119.90733758
_symmetry_Int_Tables_number   1
_chemical_formula_structural   Nb5GaSi2B
_chemical_formula_sum   'Nb10 Ga2 Si4 B2'
_cell_volume   275.14041076
_cell_formula_units_Z   2
loop_
 _symmetry_equiv_pos_site_id
 _symmetry_equiv_pos_as_xyz
  1  'x, y, z'
loop_
 _atom_site_type_symbol
 _atom_site_label
 _atom_site_symmetry_multiplicity
 _atom_site_fract_x
 _atom_site_fract_y
 _atom_site_fract_z
 _atom_site_occupancy
  Nb  Nb0  1  0.670732  0.336688  0.502335  1
  Nb  Nb1  1  0.329268  0.665957  0.502335  1
  Nb  Nb2  1  0.329268  0.665957  0.997665  1
  Nb  Nb3  1  0.670732  0.336688  0.997665  1
  Nb  Nb4  1  0.757209  0.752867  0.250000  1
  Nb  Nb5  1  0.242791  0.995658  0.250000  1
  Nb  Nb6  1  0.000000  0.249848  0.250000  1
  Nb  Nb7  1  0.244731  0.244362  0.750000  1
  Nb  Nb8  1  0.755269  0.999631  0.750000  1
  Nb  Nb9  1  0.000000  0.752706  0.750000  1
  Ga  Ga10  1  0.400788  0.400162  0.250000  1
  Ga  Ga11  1  0.599212  0.999374  0.250000  1
  Si  Si12  1  0.000000  0.597661  0.250000  1
  Si  Si13  1  0.597120  0.598840  0.750000  1
  Si  Si14  1  0.402880  0.001720  0.750000  1
  Si  Si15  1  0.000000  0.399697  0.750000  1
  B  B16  1  0.000000  0.001093  0.498444  1
  B  B17  1  0.000000  0.001093  0.001556  1
