# generated using pymatgen
data_Dy8Ti2Si16Tc9W
_symmetry_space_group_name_H-M   'P 1'
_cell_length_a   6.77864503
_cell_length_b   6.77864442
_cell_length_c   12.95653709
_cell_angle_alpha   90.01809054
_cell_angle_beta   89.98190813
_cell_angle_gamma   89.05994485
_symmetry_Int_Tables_number   1
_chemical_formula_structural   Dy8Ti2Si16Tc9W
_chemical_formula_sum   'Dy8 Ti2 Si16 Tc9 W1'
_cell_volume   595.27300328
_cell_formula_units_Z   1
loop_
 _symmetry_equiv_pos_site_id
 _symmetry_equiv_pos_as_xyz
  1  'x, y, z'
loop_
 _atom_site_type_symbol
 _atom_site_label
 _atom_site_symmetry_multiplicity
 _atom_site_fract_x
 _atom_site_fract_y
 _atom_site_fract_z
 _atom_site_occupancy
  Dy  Dy0  1  0.998114  0.662653  0.027321  1
  Dy  Dy1  1  0.002313  0.337526  0.527698  1
  Dy  Dy2  1  0.662653  0.998114  0.972679  1
  Dy  Dy3  1  0.178774  0.488435  0.783587  1
  Dy  Dy4  1  0.820681  0.511602  0.283024  1
  Dy  Dy5  1  0.488435  0.178774  0.216413  1
  Dy  Dy6  1  0.511602  0.820681  0.716976  1
  Dy  Dy7  1  0.337526  0.002313  0.472302  1
  Ti  Ti8  1  0.843767  0.156145  0.749735  1
  Ti  Ti9  1  0.156145  0.843767  0.250265  1
  Si  Si10  1  0.015324  0.737849  0.444298  1
  Si  Si11  1  0.981224  0.263294  0.943552  1
  Si  Si12  1  0.737849  0.015324  0.555702  1
  Si  Si13  1  0.195984  0.471220  0.182656  1
  Si  Si14  1  0.804455  0.528872  0.683019  1
  Si  Si15  1  0.471220  0.195984  0.817344  1
  Si  Si16  1  0.528872  0.804455  0.316981  1
  Si  Si17  1  0.263294  0.981224  0.056448  1
  Si  Si18  1  0.787717  0.883021  0.182440  1
  Si  Si19  1  0.319334  0.601569  0.558727  1
  Si  Si20  1  0.684699  0.396994  0.060145  1
  Si  Si21  1  0.601569  0.319334  0.441273  1
  Si  Si22  1  0.396994  0.684699  0.939855  1
  Si  Si23  1  0.116497  0.212065  0.317694  1
  Si  Si24  1  0.212065  0.116497  0.682306  1
  Si  Si25  1  0.883021  0.787717  0.817560  1
  Tc  Tc26  1  0.307182  0.527474  0.365934  1
  Tc  Tc27  1  0.817681  0.018941  0.364917  1
  Tc  Tc28  1  0.981246  0.180320  0.136138  1
  Tc  Tc29  1  0.018941  0.817681  0.635083  1
  Tc  Tc30  1  0.527474  0.307182  0.634066  1
  Tc  Tc31  1  0.180320  0.981246  0.863862  1
  Tc  Tc32  1  0.666647  0.666647  0.500000  1
  Tc  Tc33  1  0.474975  0.692281  0.134707  1
  Tc  Tc34  1  0.692281  0.474975  0.865293  1
  W  W35  1  0.333123  0.333123  0.000000  1
