# generated using pymatgen
data_Nd9Tm3(Si2Ni)4
_symmetry_space_group_name_H-M   'P 1'
_cell_length_a   4.18619300
_cell_length_b   11.70508661
_cell_length_c   11.40102169
_cell_angle_alpha   89.70486817
_cell_angle_beta   90.00000000
_cell_angle_gamma   90.00000000
_symmetry_Int_Tables_number   1
_chemical_formula_structural   Nd9Tm3(Si2Ni)4
_chemical_formula_sum   'Nd9 Tm3 Si8 Ni4'
_cell_volume   558.63982002
_cell_formula_units_Z   1
loop_
 _symmetry_equiv_pos_site_id
 _symmetry_equiv_pos_as_xyz
  1  'x, y, z'
loop_
 _atom_site_type_symbol
 _atom_site_label
 _atom_site_symmetry_multiplicity
 _atom_site_fract_x
 _atom_site_fract_y
 _atom_site_fract_z
 _atom_site_occupancy
  Nd  Nd0  1  0.250000  0.060144  0.886713  1
  Nd  Nd1  1  0.250000  0.438140  0.382247  1
  Nd  Nd2  1  0.750000  0.939458  0.119240  1
  Nd  Nd3  1  0.750000  0.557202  0.612291  1
  Nd  Nd4  1  0.250000  0.123272  0.561451  1
  Nd  Nd5  1  0.250000  0.377728  0.060369  1
  Nd  Nd6  1  0.750000  0.879338  0.436676  1
  Nd  Nd7  1  0.750000  0.621403  0.940194  1
  Nd  Nd8  1  0.250000  0.803088  0.709605  1
  Tm  Tm9  1  0.250000  0.689185  0.208382  1
  Tm  Tm10  1  0.750000  0.193325  0.288432  1
  Tm  Tm11  1  0.750000  0.307343  0.788272  1
  Si  Si12  1  0.250000  0.809307  0.974703  1
  Si  Si13  1  0.250000  0.688163  0.462187  1
  Si  Si14  1  0.750000  0.189065  0.031518  1
  Si  Si15  1  0.750000  0.310620  0.530559  1
  Si  Si16  1  0.250000  0.482898  0.801612  1
  Si  Si17  1  0.250000  0.020298  0.303623  1
  Si  Si18  1  0.750000  0.515887  0.196622  1
  Si  Si19  1  0.750000  0.988574  0.700707  1
  Ni  Ni20  1  0.250000  0.360308  0.633789  1
  Ni  Ni21  1  0.250000  0.141181  0.135200  1
  Ni  Ni22  1  0.750000  0.639682  0.362628  1
  Ni  Ni23  1  0.750000  0.864390  0.872982  1
