# generated using pymatgen
data_Ac2Sc3Sn4
_symmetry_space_group_name_H-M   'P 1'
_cell_length_a   8.09937900
_cell_length_b   8.22791500
_cell_length_c   15.45071300
_cell_angle_alpha   90.00000000
_cell_angle_beta   90.00000000
_cell_angle_gamma   90.00000000
_symmetry_Int_Tables_number   1
_chemical_formula_structural   Ac2Sc3Sn4
_chemical_formula_sum   'Ac8 Sc12 Sn16'
_cell_volume   1029.65099539
_cell_formula_units_Z   4
loop_
 _symmetry_equiv_pos_site_id
 _symmetry_equiv_pos_as_xyz
  1  'x, y, z'
loop_
 _atom_site_type_symbol
 _atom_site_label
 _atom_site_symmetry_multiplicity
 _atom_site_fract_x
 _atom_site_fract_y
 _atom_site_fract_z
 _atom_site_occupancy
  Ac  Ac0  1  0.510404  0.328341  0.905637  1
  Ac  Ac1  1  0.010404  0.171659  0.594363  1
  Ac  Ac2  1  0.489596  0.671659  0.405637  1
  Ac  Ac3  1  0.989596  0.828341  0.094363  1
  Ac  Ac4  1  0.489596  0.671659  0.094363  1
  Ac  Ac5  1  0.989596  0.828341  0.405637  1
  Ac  Ac6  1  0.510404  0.328341  0.594363  1
  Ac  Ac7  1  0.010404  0.171659  0.905637  1
  Sc  Sc8  1  0.348278  0.837752  0.872528  1
  Sc  Sc9  1  0.848278  0.662248  0.627472  1
  Sc  Sc10  1  0.651722  0.162248  0.372528  1
  Sc  Sc11  1  0.151722  0.337752  0.127472  1
  Sc  Sc12  1  0.651722  0.162248  0.127472  1
  Sc  Sc13  1  0.151722  0.337752  0.372528  1
  Sc  Sc14  1  0.348278  0.837752  0.627472  1
  Sc  Sc15  1  0.848278  0.662248  0.872528  1
  Sc  Sc16  1  0.179236  0.509957  0.750000  1
  Sc  Sc17  1  0.679236  0.990043  0.750000  1
  Sc  Sc18  1  0.820764  0.490043  0.250000  1
  Sc  Sc19  1  0.320764  0.009957  0.250000  1
  Sn  Sn20  1  0.325225  0.049423  0.046505  1
  Sn  Sn21  1  0.825225  0.450577  0.453495  1
  Sn  Sn22  1  0.674775  0.950577  0.546505  1
  Sn  Sn23  1  0.174775  0.549423  0.953495  1
  Sn  Sn24  1  0.674775  0.950577  0.953495  1
  Sn  Sn25  1  0.174775  0.549423  0.546505  1
  Sn  Sn26  1  0.325225  0.049423  0.453495  1
  Sn  Sn27  1  0.825225  0.450577  0.046505  1
  Sn  Sn28  1  0.543376  0.640394  0.750000  1
  Sn  Sn29  1  0.043376  0.859606  0.750000  1
  Sn  Sn30  1  0.456624  0.359606  0.250000  1
  Sn  Sn31  1  0.956624  0.140394  0.250000  1
  Sn  Sn32  1  0.319170  0.131567  0.750000  1
  Sn  Sn33  1  0.819170  0.368433  0.750000  1
  Sn  Sn34  1  0.680830  0.868433  0.250000  1
  Sn  Sn35  1  0.180830  0.631567  0.250000  1
