# generated using pymatgen
data_Tb2Ho2ReTcC4
_symmetry_space_group_name_H-M   'P 1'
_cell_length_a   5.11824500
_cell_length_b   6.59051700
_cell_length_c   9.87609500
_cell_angle_alpha   90.00000000
_cell_angle_beta   90.00000000
_cell_angle_gamma   90.00000000
_symmetry_Int_Tables_number   1
_chemical_formula_structural   Tb2Ho2ReTcC4
_chemical_formula_sum   'Tb4 Ho4 Re2 Tc2 C8'
_cell_volume   333.13925815
_cell_formula_units_Z   2
loop_
 _symmetry_equiv_pos_site_id
 _symmetry_equiv_pos_as_xyz
  1  'x, y, z'
loop_
 _atom_site_type_symbol
 _atom_site_label
 _atom_site_symmetry_multiplicity
 _atom_site_fract_x
 _atom_site_fract_y
 _atom_site_fract_z
 _atom_site_occupancy
  Tb  Tb0  1  0.750000  0.467466  0.784117  1
  Tb  Tb1  1  0.250000  0.032534  0.284117  1
  Tb  Tb2  1  0.750000  0.968284  0.714925  1
  Tb  Tb3  1  0.250000  0.531716  0.214925  1
  Ho  Ho4  1  0.750000  0.823327  0.056775  1
  Ho  Ho5  1  0.250000  0.676673  0.556775  1
  Ho  Ho6  1  0.750000  0.322268  0.441951  1
  Ho  Ho7  1  0.250000  0.177732  0.941951  1
  Re  Re8  1  0.750000  0.778852  0.365349  1
  Re  Re9  1  0.250000  0.721148  0.865349  1
  Tc  Tc10  1  0.750000  0.278294  0.134444  1
  Tc  Tc11  1  0.250000  0.221706  0.634444  1
  C  C12  1  0.750000  0.176174  0.952644  1
  C  C13  1  0.250000  0.823168  0.048537  1
  C  C14  1  0.750000  0.676832  0.548537  1
  C  C15  1  0.250000  0.323826  0.452644  1
  C  C16  1  0.750000  0.044933  0.259847  1
  C  C17  1  0.250000  0.455067  0.759847  1
  C  C18  1  0.750000  0.546891  0.241410  1
  C  C19  1  0.250000  0.953109  0.741410  1
