# generated using pymatgen
data_Tb2Y(MgHg)3
_symmetry_space_group_name_H-M   'P 1'
_cell_length_a   7.76286101
_cell_length_b   7.76286115
_cell_length_c   4.28384900
_cell_angle_alpha   90.00000000
_cell_angle_beta   90.00000000
_cell_angle_gamma   119.99465572
_symmetry_Int_Tables_number   1
_chemical_formula_structural   Tb2Y(MgHg)3
_chemical_formula_sum   'Tb2 Y1 Mg3 Hg3'
_cell_volume   223.57940702
_cell_formula_units_Z   1
loop_
 _symmetry_equiv_pos_site_id
 _symmetry_equiv_pos_as_xyz
  1  'x, y, z'
loop_
 _atom_site_type_symbol
 _atom_site_label
 _atom_site_symmetry_multiplicity
 _atom_site_fract_x
 _atom_site_fract_y
 _atom_site_fract_z
 _atom_site_occupancy
  Tb  Tb0  1  0.412285  0.999979  0.000000  1
  Tb  Tb1  1  0.999979  0.412285  0.000000  1
  Y  Y2  1  0.587818  0.587819  0.000000  1
  Mg  Mg3  1  0.750684  0.999983  0.500000  1
  Mg  Mg4  1  0.249281  0.249282  0.500000  1
  Mg  Mg5  1  0.999983  0.750684  0.500000  1
  Hg  Hg6  1  0.999994  0.999994  0.000000  1
  Hg  Hg7  1  0.666652  0.333322  0.500000  1
  Hg  Hg8  1  0.333323  0.666653  0.500000  1
