# generated using pymatgen
data_CaMnCo4As3
_symmetry_space_group_name_H-M   'P 1'
_cell_length_a   3.77072000
_cell_length_b   10.77651800
_cell_length_c   12.34759900
_cell_angle_alpha   90.00000000
_cell_angle_beta   90.00000000
_cell_angle_gamma   90.00000000
_symmetry_Int_Tables_number   1
_chemical_formula_structural   CaMnCo4As3
_chemical_formula_sum   'Ca4 Mn4 Co16 As12'
_cell_volume   501.74754943
_cell_formula_units_Z   4
loop_
 _symmetry_equiv_pos_site_id
 _symmetry_equiv_pos_as_xyz
  1  'x, y, z'
loop_
 _atom_site_type_symbol
 _atom_site_label
 _atom_site_symmetry_multiplicity
 _atom_site_fract_x
 _atom_site_fract_y
 _atom_site_fract_z
 _atom_site_occupancy
  Ca  Ca0  1  0.250000  0.580771  0.703874  1
  Ca  Ca1  1  0.250000  0.919229  0.203874  1
  Ca  Ca2  1  0.750000  0.419229  0.296126  1
  Ca  Ca3  1  0.750000  0.080771  0.796126  1
  Mn  Mn4  1  0.250000  0.702952  0.989691  1
  Mn  Mn5  1  0.250000  0.797048  0.489691  1
  Mn  Mn6  1  0.750000  0.297048  0.010309  1
  Mn  Mn7  1  0.750000  0.202952  0.510309  1
  Co  Co8  1  0.250000  0.404895  0.488529  1
  Co  Co9  1  0.250000  0.095105  0.988529  1
  Co  Co10  1  0.750000  0.595105  0.511471  1
  Co  Co11  1  0.750000  0.904895  0.011471  1
  Co  Co12  1  0.250000  0.215853  0.173892  1
  Co  Co13  1  0.250000  0.284147  0.673892  1
  Co  Co14  1  0.750000  0.784147  0.826108  1
  Co  Co15  1  0.750000  0.715853  0.326108  1
  Co  Co16  1  0.250000  0.881218  0.697677  1
  Co  Co17  1  0.250000  0.618782  0.197677  1
  Co  Co18  1  0.750000  0.118782  0.302323  1
  Co  Co19  1  0.750000  0.381218  0.802323  1
  Co  Co20  1  0.250000  0.464708  0.933893  1
  Co  Co21  1  0.250000  0.035292  0.433893  1
  Co  Co22  1  0.750000  0.535292  0.066107  1
  Co  Co23  1  0.750000  0.964708  0.566107  1
  As  As24  1  0.250000  0.419308  0.116341  1
  As  As25  1  0.250000  0.080692  0.616341  1
  As  As26  1  0.750000  0.580692  0.883659  1
  As  As27  1  0.750000  0.919308  0.383659  1
  As  As28  1  0.250000  0.267204  0.864642  1
  As  As29  1  0.250000  0.232796  0.364642  1
  As  As30  1  0.750000  0.732796  0.135358  1
  As  As31  1  0.750000  0.767204  0.635358  1
  As  As32  1  0.250000  0.596483  0.390354  1
  As  As33  1  0.250000  0.903517  0.890354  1
  As  As34  1  0.750000  0.403517  0.609646  1
  As  As35  1  0.750000  0.096483  0.109646  1
