# generated using pymatgen
data_Ti8Ga15Ir7
_symmetry_space_group_name_H-M   'P 1'
_cell_length_a   8.70198325
_cell_length_b   8.70198207
_cell_length_c   8.70167984
_cell_angle_alpha   120.40981558
_cell_angle_beta   119.77932071
_cell_angle_gamma   89.83916657
_symmetry_Int_Tables_number   1
_chemical_formula_structural   Ti8Ga15Ir7
_chemical_formula_sum   'Ti8 Ga15 Ir7'
_cell_volume   465.24026497
_cell_formula_units_Z   1
loop_
 _symmetry_equiv_pos_site_id
 _symmetry_equiv_pos_as_xyz
  1  'x, y, z'
loop_
 _atom_site_type_symbol
 _atom_site_label
 _atom_site_symmetry_multiplicity
 _atom_site_fract_x
 _atom_site_fract_y
 _atom_site_fract_z
 _atom_site_occupancy
  Ti  Ti0  1  0.793085  0.286817  0.069259  1
  Ti  Ti1  1  0.217561  0.286837  0.493749  1
  Ti  Ti2  1  0.205007  0.705007  0.500000  1
  Ti  Ti3  1  0.217558  0.723825  0.930741  1
  Ti  Ti4  1  0.793089  0.723812  0.506251  1
  Ti  Ti5  1  0.778527  0.278527  0.500000  1
  Ti  Ti6  1  0.377553  0.123971  0.746352  1
  Ti  Ti7  1  0.377619  0.631201  0.253648  1
  Ga  Ga8  1  0.993314  0.493314  0.500000  1
  Ga  Ga9  1  0.151593  0.351369  0.199815  1
  Ga  Ga10  1  0.151553  0.951777  0.800185  1
  Ga  Ga11  1  0.149511  0.353635  0.795838  1
  Ga  Ga12  1  0.557796  0.353673  0.204162  1
  Ga  Ga13  1  0.850595  0.647816  0.797184  1
  Ga  Ga14  1  0.850633  0.053411  0.202816  1
  Ga  Ga15  1  0.848565  0.649219  0.199383  1
  Ga  Ga16  1  0.449836  0.649182  0.800617  1
  Ga  Ga17  1  0.377040  0.123952  0.253130  1
  Ga  Ga18  1  0.870823  0.123911  0.746870  1
  Ga  Ga19  1  0.620131  0.871149  0.251047  1
  Ga  Ga20  1  0.620101  0.369084  0.748953  1
  Ga  Ga21  1  0.614246  0.875536  0.738677  1
  Ga  Ga22  1  0.136859  0.875569  0.261323  1
  Ir  Ir23  1  0.002018  0.001766  0.503040  1
  Ir  Ir24  1  0.498730  0.001774  0.999747  1
  Ir  Ir25  1  0.496508  0.496508  0.000000  1
  Ir  Ir26  1  0.498726  0.498979  0.496960  1
  Ir  Ir27  1  0.002027  0.498983  0.000253  1
  Ir  Ir28  1  0.999146  0.999146  0.000000  1
  Ir  Ir29  1  0.500244  0.000244  0.500000  1
