# generated using pymatgen
data_La12Nd2Pd5Ru
_symmetry_space_group_name_H-M   'P 1'
_cell_length_a   10.35703981
_cell_length_b   10.35703895
_cell_length_c   6.57050500
_cell_angle_alpha   89.65587049
_cell_angle_beta   90.34412948
_cell_angle_gamma   120.31582148
_symmetry_Int_Tables_number   1
_chemical_formula_structural   La12Nd2Pd5Ru
_chemical_formula_sum   'La12 Nd2 Pd5 Ru1'
_cell_volume   608.41414059
_cell_formula_units_Z   1
loop_
 _symmetry_equiv_pos_site_id
 _symmetry_equiv_pos_as_xyz
  1  'x, y, z'
loop_
 _atom_site_type_symbol
 _atom_site_label
 _atom_site_symmetry_multiplicity
 _atom_site_fract_x
 _atom_site_fract_y
 _atom_site_fract_z
 _atom_site_occupancy
  La  La0  1  0.127372  0.872628  0.242536  1
  La  La1  1  0.752029  0.886775  0.241468  1
  La  La2  1  0.113225  0.247971  0.241468  1
  La  La3  1  0.872881  0.127119  0.751315  1
  La  La4  1  0.254531  0.126006  0.742521  1
  La  La5  1  0.873994  0.745469  0.742521  1
  La  La6  1  0.537119  0.462881  0.445588  1
  La  La7  1  0.917388  0.451806  0.437297  1
  La  La8  1  0.548194  0.082612  0.437297  1
  La  La9  1  0.462963  0.537037  0.946656  1
  La  La10  1  0.075427  0.534804  0.942012  1
  La  La11  1  0.465196  0.924573  0.942012  1
  Nd  Nd12  1  0.333819  0.666181  0.452022  1
  Nd  Nd13  1  0.668331  0.331669  0.960978  1
  Pd  Pd14  1  0.373212  0.189702  0.193083  1
  Pd  Pd15  1  0.810298  0.626788  0.193083  1
  Pd  Pd16  1  0.189005  0.810995  0.692706  1
  Pd  Pd17  1  0.623133  0.810472  0.692668  1
  Pd  Pd18  1  0.189528  0.376867  0.692668  1
  Ru  Ru19  1  0.812356  0.187644  0.195888  1
