# generated using pymatgen
data_Dy3Zr7(Co2Si5)4
_symmetry_space_group_name_H-M   'P 1'
_cell_length_a   12.18304935
_cell_length_b   12.18304844
_cell_length_c   3.97667500
_cell_angle_alpha   90.00000000
_cell_angle_beta   90.00000000
_cell_angle_gamma   89.96935583
_symmetry_Int_Tables_number   1
_chemical_formula_structural   Dy3Zr7(Co2Si5)4
_chemical_formula_sum   'Dy3 Zr7 Co8 Si20'
_cell_volume   590.24458484
_cell_formula_units_Z   1
loop_
 _symmetry_equiv_pos_site_id
 _symmetry_equiv_pos_as_xyz
  1  'x, y, z'
loop_
 _atom_site_type_symbol
 _atom_site_label
 _atom_site_symmetry_multiplicity
 _atom_site_fract_x
 _atom_site_fract_y
 _atom_site_fract_z
 _atom_site_occupancy
  Dy  Dy0  1  0.112394  0.612394  0.500000  1
  Dy  Dy1  1  0.386841  0.113916  0.500000  1
  Dy  Dy2  1  0.613916  0.886841  0.500000  1
  Zr  Zr3  1  0.500788  0.500135  0.000000  1
  Zr  Zr4  1  0.000135  0.000788  0.000000  1
  Zr  Zr5  1  0.679634  0.179634  0.500000  1
  Zr  Zr6  1  0.322902  0.822902  0.500000  1
  Zr  Zr7  1  0.176078  0.321568  0.500000  1
  Zr  Zr8  1  0.821568  0.676078  0.500000  1
  Zr  Zr9  1  0.885593  0.385593  0.500000  1
  Co  Co10  1  0.743314  0.525233  0.000000  1
  Co  Co11  1  0.256406  0.473829  0.000000  1
  Co  Co12  1  0.241858  0.974102  0.000000  1
  Co  Co13  1  0.759365  0.028000  0.000000  1
  Co  Co14  1  0.474102  0.741858  0.000000  1
  Co  Co15  1  0.528000  0.259365  0.000000  1
  Co  Co16  1  0.025233  0.243314  0.000000  1
  Co  Co17  1  0.973829  0.756406  0.000000  1
  Si  Si18  1  0.570721  0.070721  0.000000  1
  Si  Si19  1  0.430886  0.930886  0.000000  1
  Si  Si20  1  0.066649  0.428918  0.000000  1
  Si  Si21  1  0.928918  0.566649  0.000000  1
  Si  Si22  1  0.655244  0.696113  0.000000  1
  Si  Si23  1  0.345190  0.304009  0.000000  1
  Si  Si24  1  0.154991  0.803514  0.000000  1
  Si  Si25  1  0.846035  0.199692  0.000000  1
  Si  Si26  1  0.303514  0.654991  0.000000  1
  Si  Si27  1  0.699692  0.346035  0.000000  1
  Si  Si28  1  0.196113  0.155244  0.000000  1
  Si  Si29  1  0.804009  0.845190  0.000000  1
  Si  Si30  1  0.665038  0.501269  0.500000  1
  Si  Si31  1  0.336995  0.492186  0.500000  1
  Si  Si32  1  0.163152  0.994880  0.500000  1
  Si  Si33  1  0.837579  0.004985  0.500000  1
  Si  Si34  1  0.494880  0.663152  0.500000  1
  Si  Si35  1  0.504985  0.337579  0.500000  1
  Si  Si36  1  0.001269  0.165038  0.500000  1
  Si  Si37  1  0.992186  0.836995  0.500000  1
