# generated using pymatgen
data_TbGaFeCo
_symmetry_space_group_name_H-M   'P 1'
_cell_length_a   3.95743200
_cell_length_b   4.96242100
_cell_length_c   6.81583800
_cell_angle_alpha   90.00000000
_cell_angle_beta   90.00000000
_cell_angle_gamma   90.00000000
_symmetry_Int_Tables_number   1
_chemical_formula_structural   TbGaFeCo
_chemical_formula_sum   'Tb2 Ga2 Fe2 Co2'
_cell_volume   133.85245058
_cell_formula_units_Z   2
loop_
 _symmetry_equiv_pos_site_id
 _symmetry_equiv_pos_as_xyz
  1  'x, y, z'
loop_
 _atom_site_type_symbol
 _atom_site_label
 _atom_site_symmetry_multiplicity
 _atom_site_fract_x
 _atom_site_fract_y
 _atom_site_fract_z
 _atom_site_occupancy
  Tb  Tb0  1  0.500000  0.750000  0.309644  1
  Tb  Tb1  1  0.500000  0.250000  0.690356  1
  Ga  Ga2  1  0.000000  0.750000  0.668192  1
  Ga  Ga3  1  0.000000  0.250000  0.331808  1
  Fe  Fe4  1  0.000000  0.500000  0.000000  1
  Fe  Fe5  1  0.000000  0.000000  0.000000  1
  Co  Co6  1  0.500000  0.250000  0.098142  1
  Co  Co7  1  0.500000  0.750000  0.901858  1
