# generated using pymatgen
data_Y6Tm10Cd4Ni3Os
_symmetry_space_group_name_H-M   'P 1'
_cell_length_a   9.52796253
_cell_length_b   9.52796311
_cell_length_c   9.52796365
_cell_angle_alpha   59.48614437
_cell_angle_beta   59.48614337
_cell_angle_gamma   59.48614483
_symmetry_Int_Tables_number   1
_chemical_formula_structural   Y6Tm10Cd4Ni3Os
_chemical_formula_sum   'Y6 Tm10 Cd4 Ni3 Os1'
_cell_volume   604.47663051
_cell_formula_units_Z   1
loop_
 _symmetry_equiv_pos_site_id
 _symmetry_equiv_pos_as_xyz
  1  'x, y, z'
loop_
 _atom_site_type_symbol
 _atom_site_label
 _atom_site_symmetry_multiplicity
 _atom_site_fract_x
 _atom_site_fract_y
 _atom_site_fract_z
 _atom_site_occupancy
  Y  Y0  1  0.186818  0.814265  0.814265  1
  Y  Y1  1  0.806318  0.190472  0.190472  1
  Y  Y2  1  0.814265  0.186818  0.814265  1
  Y  Y3  1  0.190472  0.806318  0.190472  1
  Y  Y4  1  0.814265  0.814265  0.186818  1
  Y  Y5  1  0.190472  0.190472  0.806318  1
  Tm  Tm6  1  0.597292  0.597292  0.597292  1
  Tm  Tm7  1  0.600852  0.600852  0.205178  1
  Tm  Tm8  1  0.600852  0.205178  0.600852  1
  Tm  Tm9  1  0.205178  0.600852  0.600852  1
  Tm  Tm10  1  0.061114  0.437177  0.437177  1
  Tm  Tm11  1  0.435030  0.062360  0.062360  1
  Tm  Tm12  1  0.437177  0.061114  0.437177  1
  Tm  Tm13  1  0.062360  0.435030  0.062360  1
  Tm  Tm14  1  0.437177  0.437177  0.061114  1
  Tm  Tm15  1  0.062360  0.062360  0.435030  1
  Cd  Cd16  1  0.829613  0.829613  0.829613  1
  Cd  Cd17  1  0.829655  0.829655  0.506997  1
  Cd  Cd18  1  0.829655  0.506997  0.829655  1
  Cd  Cd19  1  0.506997  0.829655  0.829655  1
  Ni  Ni20  1  0.391914  0.391914  0.825007  1
  Ni  Ni21  1  0.391914  0.825007  0.391914  1
  Ni  Ni22  1  0.825007  0.391914  0.391914  1
  Os  Os23  1  0.393241  0.393241  0.393241  1
