# generated using pymatgen
data_Y3Ho2(FeB3)2
_symmetry_space_group_name_H-M   'P 1'
_cell_length_a   5.42917788
_cell_length_b   5.42917782
_cell_length_c   8.31875978
_cell_angle_alpha   70.95435577
_cell_angle_beta   70.95435706
_cell_angle_gamma   59.99999024
_symmetry_Int_Tables_number   1
_chemical_formula_structural   Y3Ho2(FeB3)2
_chemical_formula_sum   'Y3 Ho2 Fe2 B6'
_cell_volume   196.70066284
_cell_formula_units_Z   1
loop_
 _symmetry_equiv_pos_site_id
 _symmetry_equiv_pos_as_xyz
  1  'x, y, z'
loop_
 _atom_site_type_symbol
 _atom_site_label
 _atom_site_symmetry_multiplicity
 _atom_site_fract_x
 _atom_site_fract_y
 _atom_site_fract_z
 _atom_site_occupancy
  Y  Y0  1  0.000000  0.000000  0.000000  1
  Y  Y1  1  0.251460  0.251460  0.245619  1
  Y  Y2  1  0.748540  0.748540  0.754381  1
  Ho  Ho3  1  0.417396  0.417396  0.747810  1
  Ho  Ho4  1  0.582604  0.582604  0.252190  1
  Fe  Fe5  1  0.118879  0.118879  0.643365  1
  Fe  Fe6  1  0.881121  0.881121  0.356635  1
  B  B7  1  0.168030  0.831970  0.500000  1
  B  B8  1  0.831970  0.500000  0.500000  1
  B  B9  1  0.500000  0.168030  0.500000  1
  B  B10  1  0.168030  0.500000  0.500000  1
  B  B11  1  0.500000  0.831970  0.500000  1
  B  B12  1  0.831970  0.168030  0.500000  1
