# generated using pymatgen
data_Sm8GeRhBr12
_symmetry_space_group_name_H-M   'P 1'
_cell_length_a   4.16993300
_cell_length_b   13.56084731
_cell_length_c   14.33321710
_cell_angle_alpha   89.62495671
_cell_angle_beta   90.00000000
_cell_angle_gamma   90.00000000
_symmetry_Int_Tables_number   1
_chemical_formula_structural   Sm8GeRhBr12
_chemical_formula_sum   'Sm8 Ge1 Rh1 Br12'
_cell_volume   810.49488449
_cell_formula_units_Z   1
loop_
 _symmetry_equiv_pos_site_id
 _symmetry_equiv_pos_as_xyz
  1  'x, y, z'
loop_
 _atom_site_type_symbol
 _atom_site_label
 _atom_site_symmetry_multiplicity
 _atom_site_fract_x
 _atom_site_fract_y
 _atom_site_fract_z
 _atom_site_occupancy
  Sm  Sm0  1  0.500000  0.116932  0.343356  1
  Sm  Sm1  1  0.500000  0.883068  0.656644  1
  Sm  Sm2  1  0.500000  0.619500  0.160803  1
  Sm  Sm3  1  0.500000  0.380500  0.839197  1
  Sm  Sm4  1  0.000000  0.117265  0.577981  1
  Sm  Sm5  1  0.000000  0.882735  0.422019  1
  Sm  Sm6  1  0.000000  0.620117  0.920054  1
  Sm  Sm7  1  0.000000  0.379883  0.079946  1
  Ge  Ge8  1  0.500000  0.500000  0.000000  1
  Rh  Rh9  1  0.500000  0.000000  0.500000  1
  Br  Br10  1  0.500000  0.243853  0.162609  1
  Br  Br11  1  0.500000  0.756147  0.837391  1
  Br  Br12  1  0.500000  0.742156  0.336596  1
  Br  Br13  1  0.500000  0.257844  0.663404  1
  Br  Br14  1  0.000000  0.255565  0.410364  1
  Br  Br15  1  0.000000  0.744435  0.589636  1
  Br  Br16  1  0.000000  0.754780  0.088258  1
  Br  Br17  1  0.000000  0.245220  0.911742  1
  Br  Br18  1  0.000000  0.002484  0.242914  1
  Br  Br19  1  0.000000  0.997516  0.757086  1
  Br  Br20  1  0.000000  0.501168  0.256242  1
  Br  Br21  1  0.000000  0.498832  0.743758  1
