# generated using pymatgen
data_La16Cd4Ir3Au
_symmetry_space_group_name_H-M   'P 1'
_cell_length_a   10.19055138
_cell_length_b   10.19055218
_cell_length_c   10.19055177
_cell_angle_alpha   60.03628674
_cell_angle_beta   60.03628325
_cell_angle_gamma   60.03628189
_symmetry_Int_Tables_number   1
_chemical_formula_structural   La16Cd4Ir3Au
_chemical_formula_sum   'La16 Cd4 Ir3 Au1'
_cell_volume   748.91950999
_cell_formula_units_Z   1
loop_
 _symmetry_equiv_pos_site_id
 _symmetry_equiv_pos_as_xyz
  1  'x, y, z'
loop_
 _atom_site_type_symbol
 _atom_site_label
 _atom_site_symmetry_multiplicity
 _atom_site_fract_x
 _atom_site_fract_y
 _atom_site_fract_z
 _atom_site_occupancy
  La  La0  1  0.595669  0.595669  0.595669  1
  La  La1  1  0.605200  0.605200  0.200016  1
  La  La2  1  0.605200  0.200016  0.605200  1
  La  La3  1  0.200016  0.605200  0.605200  1
  La  La4  1  0.048521  0.441294  0.441294  1
  La  La5  1  0.438815  0.059974  0.059974  1
  La  La6  1  0.441294  0.048521  0.441294  1
  La  La7  1  0.059974  0.438815  0.059974  1
  La  La8  1  0.441294  0.441294  0.048521  1
  La  La9  1  0.059974  0.059974  0.438815  1
  La  La10  1  0.191381  0.811367  0.811367  1
  La  La11  1  0.811619  0.189498  0.189498  1
  La  La12  1  0.811367  0.191381  0.811367  1
  La  La13  1  0.189498  0.811619  0.189498  1
  La  La14  1  0.811367  0.811367  0.191381  1
  La  La15  1  0.189498  0.189498  0.811619  1
  Cd  Cd16  1  0.829698  0.829698  0.829698  1
  Cd  Cd17  1  0.830282  0.830282  0.509872  1
  Cd  Cd18  1  0.830282  0.509872  0.830282  1
  Cd  Cd19  1  0.509872  0.830282  0.830282  1
  Ir  Ir20  1  0.391062  0.391062  0.824077  1
  Ir  Ir21  1  0.391062  0.824077  0.391062  1
  Ir  Ir22  1  0.824077  0.391062  0.391062  1
  Au  Au23  1  0.392976  0.392976  0.392976  1
