# generated using pymatgen
data_Na3TbSn12
_symmetry_space_group_name_H-M   'P 1'
_cell_length_a   11.74760488
_cell_length_b   11.74760441
_cell_length_c   11.74760520
_cell_angle_alpha   33.07377475
_cell_angle_beta   33.07377942
_cell_angle_gamma   33.07378032
_symmetry_Int_Tables_number   1
_chemical_formula_structural   Na3TbSn12
_chemical_formula_sum   'Na3 Tb1 Sn12'
_cell_volume   429.71967692
_cell_formula_units_Z   1
loop_
 _symmetry_equiv_pos_site_id
 _symmetry_equiv_pos_as_xyz
  1  'x, y, z'
loop_
 _atom_site_type_symbol
 _atom_site_label
 _atom_site_symmetry_multiplicity
 _atom_site_fract_x
 _atom_site_fract_y
 _atom_site_fract_z
 _atom_site_occupancy
  Na  Na0  1  0.875029  0.875029  0.875029  1
  Na  Na1  1  0.123887  0.123887  0.123887  1
  Na  Na2  1  0.708501  0.708501  0.708501  1
  Tb  Tb3  1  0.291447  0.291447  0.291447  1
  Sn  Sn4  1  0.290942  0.792435  0.792435  1
  Sn  Sn5  1  0.792435  0.792435  0.290942  1
  Sn  Sn6  1  0.862457  0.382102  0.382102  1
  Sn  Sn7  1  0.382102  0.382102  0.862457  1
  Sn  Sn8  1  0.382102  0.862457  0.382102  1
  Sn  Sn9  1  0.621229  0.133055  0.621229  1
  Sn  Sn10  1  0.133055  0.621229  0.621229  1
  Sn  Sn11  1  0.621229  0.621229  0.133055  1
  Sn  Sn12  1  0.792435  0.290942  0.792435  1
  Sn  Sn13  1  0.207335  0.708485  0.207335  1
  Sn  Sn14  1  0.207335  0.207335  0.708485  1
  Sn  Sn15  1  0.708485  0.207335  0.207335  1
