# generated using pymatgen
data_Ho7Er3(Ga2Bi)2
_symmetry_space_group_name_H-M   'P 1'
_cell_length_a   8.69474148
_cell_length_b   8.72942042
_cell_length_c   6.54628900
_cell_angle_alpha   90.00198336
_cell_angle_beta   89.99900001
_cell_angle_gamma   120.13202421
_symmetry_Int_Tables_number   1
_chemical_formula_structural   Ho7Er3(Ga2Bi)2
_chemical_formula_sum   'Ho7 Er3 Ga4 Bi2'
_cell_volume   429.72298249
_cell_formula_units_Z   1
loop_
 _symmetry_equiv_pos_site_id
 _symmetry_equiv_pos_as_xyz
  1  'x, y, z'
loop_
 _atom_site_type_symbol
 _atom_site_label
 _atom_site_symmetry_multiplicity
 _atom_site_fract_x
 _atom_site_fract_y
 _atom_site_fract_z
 _atom_site_occupancy
  Ho  Ho0  1  0.982366  0.748678  0.750049  1
  Ho  Ho1  1  0.982366  0.233689  0.249951  1
  Ho  Ho2  1  0.768382  0.768927  0.249932  1
  Ho  Ho3  1  0.768382  0.999455  0.750068  1
  Ho  Ho4  1  0.233667  0.250753  0.750074  1
  Ho  Ho5  1  0.233667  0.982913  0.249926  1
  Ho  Ho6  1  0.329961  0.664982  0.500000  1
  Er  Er7  1  0.692312  0.346156  0.000000  1
  Er  Er8  1  0.692375  0.346187  0.500000  1
  Er  Er9  1  0.329867  0.664935  0.000000  1
  Ga  Ga10  1  0.001525  0.601084  0.249878  1
  Ga  Ga11  1  0.001525  0.400440  0.750122  1
  Ga  Ga12  1  0.596300  0.601039  0.750165  1
  Ga  Ga13  1  0.596300  0.995260  0.249835  1
  Bi  Bi14  1  0.395504  0.006356  0.750178  1
  Bi  Bi15  1  0.395504  0.389148  0.249822  1
