# generated using pymatgen
data_Tb2Dy2Lu(ReO6)2
_symmetry_space_group_name_H-M   'P 1'
_cell_length_a   6.83043211
_cell_length_b   6.83043261
_cell_length_c   7.51000236
_cell_angle_alpha   73.71109443
_cell_angle_beta   73.71109460
_cell_angle_gamma   49.14276367
_symmetry_Int_Tables_number   1
_chemical_formula_structural   Tb2Dy2Lu(ReO6)2
_chemical_formula_sum   'Tb2 Dy2 Lu1 Re2 O12'
_cell_volume   252.08734580
_cell_formula_units_Z   1
loop_
 _symmetry_equiv_pos_site_id
 _symmetry_equiv_pos_as_xyz
  1  'x, y, z'
loop_
 _atom_site_type_symbol
 _atom_site_label
 _atom_site_symmetry_multiplicity
 _atom_site_fract_x
 _atom_site_fract_y
 _atom_site_fract_z
 _atom_site_occupancy
  Tb  Tb0  1  0.197280  0.197280  0.641441  1
  Tb  Tb1  1  0.184196  0.184196  0.177301  1
  Dy  Dy2  1  0.802700  0.802700  0.358711  1
  Dy  Dy3  1  0.815828  0.815828  0.822287  1
  Lu  Lu4  1  0.500028  0.500028  0.500018  1
  Re  Re5  1  0.713627  0.286239  0.000019  1
  Re  Re6  1  0.286239  0.713627  0.000019  1
  O  O7  1  0.413945  0.917268  0.914007  1
  O  O8  1  0.917268  0.413945  0.914007  1
  O  O9  1  0.898713  0.402450  0.429298  1
  O  O10  1  0.402450  0.898713  0.429298  1
  O  O11  1  0.502044  0.502044  0.208230  1
  O  O12  1  0.998284  0.998284  0.177033  1
  O  O13  1  0.000870  0.000870  0.823270  1
  O  O14  1  0.497902  0.497902  0.791805  1
  O  O15  1  0.081281  0.587799  0.085990  1
  O  O16  1  0.587799  0.081281  0.085990  1
  O  O17  1  0.099714  0.599834  0.570639  1
  O  O18  1  0.599834  0.099714  0.570639  1
