# generated using pymatgen
data_La2In2BRh6
_symmetry_space_group_name_H-M   'P 1'
_cell_length_a   5.87187500
_cell_length_b   5.87187396
_cell_length_c   13.88441400
_cell_angle_alpha   90.00000000
_cell_angle_beta   90.00000000
_cell_angle_gamma   120.00000025
_symmetry_Int_Tables_number   1
_chemical_formula_structural   La2In2BRh6
_chemical_formula_sum   'La4 In4 B2 Rh12'
_cell_volume   414.58321176
_cell_formula_units_Z   2
loop_
 _symmetry_equiv_pos_site_id
 _symmetry_equiv_pos_as_xyz
  1  'x, y, z'
loop_
 _atom_site_type_symbol
 _atom_site_label
 _atom_site_symmetry_multiplicity
 _atom_site_fract_x
 _atom_site_fract_y
 _atom_site_fract_z
 _atom_site_occupancy
  La  La0  1  0.333333  0.666667  0.400189  1
  La  La1  1  0.666667  0.333333  0.900189  1
  La  La2  1  0.666667  0.333333  0.599811  1
  La  La3  1  0.333333  0.666667  0.099811  1
  In  In4  1  0.000000  0.000000  0.750000  1
  In  In5  1  0.000000  0.000000  0.250000  1
  In  In6  1  0.333333  0.666667  0.750000  1
  In  In7  1  0.666667  0.333333  0.250000  1
  B  B8  1  0.000000  0.000000  0.500000  1
  B  B9  1  0.000000  0.000000  0.000000  1
  Rh  Rh10  1  0.339572  0.169786  0.411106  1
  Rh  Rh11  1  0.830214  0.169786  0.411106  1
  Rh  Rh12  1  0.830214  0.660428  0.411106  1
  Rh  Rh13  1  0.169786  0.339572  0.911106  1
  Rh  Rh14  1  0.660428  0.830214  0.588894  1
  Rh  Rh15  1  0.660428  0.830214  0.911106  1
  Rh  Rh16  1  0.339572  0.169786  0.088894  1
  Rh  Rh17  1  0.169786  0.339572  0.588894  1
  Rh  Rh18  1  0.169786  0.830214  0.588894  1
  Rh  Rh19  1  0.830214  0.169786  0.088894  1
  Rh  Rh20  1  0.830214  0.660428  0.088894  1
  Rh  Rh21  1  0.169786  0.830214  0.911106  1
