# generated using pymatgen
data_YbAl5Cu6
_symmetry_space_group_name_H-M   'P 1'
_cell_length_a   10.32592124
_cell_length_b   8.21032238
_cell_length_c   7.78268806
_cell_angle_alpha   80.38067721
_cell_angle_beta   51.62257095
_cell_angle_gamma   47.99673397
_symmetry_Int_Tables_number   1
_chemical_formula_structural   YbAl5Cu6
_chemical_formula_sum   'Yb2 Al10 Cu12'
_cell_volume   347.69377254
_cell_formula_units_Z   2
loop_
 _symmetry_equiv_pos_site_id
 _symmetry_equiv_pos_as_xyz
  1  'x, y, z'
loop_
 _atom_site_type_symbol
 _atom_site_label
 _atom_site_symmetry_multiplicity
 _atom_site_fract_x
 _atom_site_fract_y
 _atom_site_fract_z
 _atom_site_occupancy
  Yb  Yb0  1  0.000000  0.000000  0.000000  1
  Yb  Yb1  1  0.250000  0.250000  0.250000  1
  Al  Al2  1  0.500000  0.500000  0.500000  1
  Al  Al3  1  0.750000  0.750000  0.750000  1
  Al  Al4  1  0.755392  0.070929  0.834632  1
  Al  Al5  1  0.834632  0.339048  0.755392  1
  Al  Al6  1  0.070929  0.755392  0.339048  1
  Al  Al7  1  0.339048  0.834632  0.070929  1
  Al  Al8  1  0.494608  0.179071  0.415368  1
  Al  Al9  1  0.415368  0.910952  0.494608  1
  Al  Al10  1  0.179071  0.494608  0.910952  1
  Al  Al11  1  0.910952  0.415368  0.179071  1
  Cu  Cu12  1  0.625000  0.125000  0.625000  1
  Cu  Cu13  1  0.625000  0.625000  0.625000  1
  Cu  Cu14  1  0.125000  0.625000  0.625000  1
  Cu  Cu15  1  0.625000  0.625000  0.125000  1
  Cu  Cu16  1  0.492826  0.434747  0.182966  1
  Cu  Cu17  1  0.182966  0.889461  0.492826  1
  Cu  Cu18  1  0.434747  0.492826  0.889461  1
  Cu  Cu19  1  0.889461  0.182966  0.434747  1
  Cu  Cu20  1  0.757174  0.815253  0.067034  1
  Cu  Cu21  1  0.067034  0.360539  0.757174  1
  Cu  Cu22  1  0.815253  0.757174  0.360539  1
  Cu  Cu23  1  0.360539  0.067034  0.815253  1
