# generated using pymatgen
data_DyYRe7Si4W
_symmetry_space_group_name_H-M   'P 1'
_cell_length_a   7.16592065
_cell_length_b   7.67830446
_cell_length_c   4.16649100
_cell_angle_alpha   90.00000000
_cell_angle_beta   90.00000000
_cell_angle_gamma   90.02996638
_symmetry_Int_Tables_number   1
_chemical_formula_structural   DyYRe7Si4W
_chemical_formula_sum   'Dy1 Y1 Re7 Si4 W1'
_cell_volume   229.24913832
_cell_formula_units_Z   1
loop_
 _symmetry_equiv_pos_site_id
 _symmetry_equiv_pos_as_xyz
  1  'x, y, z'
loop_
 _atom_site_type_symbol
 _atom_site_label
 _atom_site_symmetry_multiplicity
 _atom_site_fract_x
 _atom_site_fract_y
 _atom_site_fract_z
 _atom_site_occupancy
  Dy  Dy0  1  0.500788  0.498012  0.000000  1
  Y  Y1  1  0.999387  0.999726  0.500000  1
  Re  Re2  1  0.155675  0.604376  0.500000  1
  Re  Re3  1  0.083375  0.341049  0.000000  1
  Re  Re4  1  0.917868  0.658828  0.000000  1
  Re  Re5  1  0.417409  0.839465  0.500000  1
  Re  Re6  1  0.582943  0.163828  0.500000  1
  Re  Re7  1  0.342139  0.106799  0.000000  1
  Re  Re8  1  0.846527  0.394147  0.500000  1
  Si  Si9  1  0.222640  0.805449  0.000000  1
  Si  Si10  1  0.779827  0.196862  0.000000  1
  Si  Si11  1  0.723015  0.692432  0.500000  1
  Si  Si12  1  0.278048  0.304631  0.500000  1
  W  W13  1  0.650361  0.894396  0.000000  1
