# generated using pymatgen
data_YHo2B7Os
_symmetry_space_group_name_H-M   'P 1'
_cell_length_a   8.03070501
_cell_length_b   8.03070391
_cell_length_c   9.32521600
_cell_angle_alpha   90.00000000
_cell_angle_beta   90.00000000
_cell_angle_gamma   154.71626829
_symmetry_Int_Tables_number   1
_chemical_formula_structural   YHo2B7Os
_chemical_formula_sum   'Y2 Ho4 B14 Os2'
_cell_volume   256.86026321
_cell_formula_units_Z   2
loop_
 _symmetry_equiv_pos_site_id
 _symmetry_equiv_pos_as_xyz
  1  'x, y, z'
loop_
 _atom_site_type_symbol
 _atom_site_label
 _atom_site_symmetry_multiplicity
 _atom_site_fract_x
 _atom_site_fract_y
 _atom_site_fract_z
 _atom_site_occupancy
  Y  Y0  1  0.245132  0.754868  0.250000  1
  Y  Y1  1  0.754868  0.245132  0.750000  1
  Ho  Ho2  1  0.894122  0.105878  0.059461  1
  Ho  Ho3  1  0.105878  0.894122  0.559461  1
  Ho  Ho4  1  0.105878  0.894122  0.940539  1
  Ho  Ho5  1  0.894122  0.105878  0.440539  1
  B  B6  1  0.456028  0.543972  0.250000  1
  B  B7  1  0.543972  0.456028  0.750000  1
  B  B8  1  0.727202  0.272798  0.033863  1
  B  B9  1  0.272798  0.727202  0.533863  1
  B  B10  1  0.272798  0.727202  0.966137  1
  B  B11  1  0.727202  0.272798  0.466137  1
  B  B12  1  0.631941  0.368059  0.349408  1
  B  B13  1  0.368059  0.631941  0.849408  1
  B  B14  1  0.368059  0.631941  0.650592  1
  B  B15  1  0.631941  0.368059  0.150592  1
  B  B16  1  0.520473  0.479527  0.403917  1
  B  B17  1  0.479527  0.520473  0.903917  1
  B  B18  1  0.479527  0.520473  0.596083  1
  B  B19  1  0.520473  0.479527  0.096083  1
  Os  Os20  1  0.053541  0.946459  0.250000  1
  Os  Os21  1  0.946458  0.053541  0.750000  1
