# generated using pymatgen
data_Li2TmPaPt2
_symmetry_space_group_name_H-M   'P 1'
_cell_length_a   3.97195500
_cell_length_b   7.01899500
_cell_length_c   8.41554500
_cell_angle_alpha   90.00000000
_cell_angle_beta   90.00000000
_cell_angle_gamma   90.00000000
_symmetry_Int_Tables_number   1
_chemical_formula_structural   Li2TmPaPt2
_chemical_formula_sum   'Li4 Tm2 Pa2 Pt4'
_cell_volume   234.61809231
_cell_formula_units_Z   2
loop_
 _symmetry_equiv_pos_site_id
 _symmetry_equiv_pos_as_xyz
  1  'x, y, z'
loop_
 _atom_site_type_symbol
 _atom_site_label
 _atom_site_symmetry_multiplicity
 _atom_site_fract_x
 _atom_site_fract_y
 _atom_site_fract_z
 _atom_site_occupancy
  Li  Li0  1  0.250000  0.120228  0.059905  1
  Li  Li1  1  0.250000  0.620228  0.440095  1
  Li  Li2  1  0.750000  0.884011  0.947754  1
  Li  Li3  1  0.750000  0.384011  0.552246  1
  Tm  Tm4  1  0.750000  0.942656  0.314563  1
  Tm  Tm5  1  0.750000  0.442656  0.185437  1
  Pa  Pa6  1  0.250000  0.052427  0.682057  1
  Pa  Pa7  1  0.250000  0.552427  0.817943  1
  Pt  Pt8  1  0.250000  0.234038  0.382180  1
  Pt  Pt9  1  0.250000  0.734038  0.117820  1
  Pt  Pt10  1  0.750000  0.766639  0.637494  1
  Pt  Pt11  1  0.750000  0.266639  0.862506  1
