# generated using pymatgen
data_Ho4TmBi3
_symmetry_space_group_name_H-M   'P 1'
_cell_length_a   8.21868900
_cell_length_b   9.48477600
_cell_length_c   11.99058700
_cell_angle_alpha   90.00000000
_cell_angle_beta   90.00000000
_cell_angle_gamma   90.00000000
_symmetry_Int_Tables_number   1
_chemical_formula_structural   Ho4TmBi3
_chemical_formula_sum   'Ho16 Tm4 Bi12'
_cell_volume   934.69532398
_cell_formula_units_Z   4
loop_
 _symmetry_equiv_pos_site_id
 _symmetry_equiv_pos_as_xyz
  1  'x, y, z'
loop_
 _atom_site_type_symbol
 _atom_site_label
 _atom_site_symmetry_multiplicity
 _atom_site_fract_x
 _atom_site_fract_y
 _atom_site_fract_z
 _atom_site_occupancy
  Ho  Ho0  1  0.353602  0.750010  0.216313  1
  Ho  Ho1  1  0.853602  0.749990  0.283687  1
  Ho  Ho2  1  0.646398  0.250010  0.783687  1
  Ho  Ho3  1  0.146398  0.249990  0.716313  1
  Ho  Ho4  1  0.307944  0.435688  0.941010  1
  Ho  Ho5  1  0.807944  0.064312  0.558990  1
  Ho  Ho6  1  0.692056  0.935688  0.058990  1
  Ho  Ho7  1  0.192056  0.564312  0.441010  1
  Ho  Ho8  1  0.476787  0.250035  0.488962  1
  Ho  Ho9  1  0.976787  0.249965  0.011038  1
  Ho  Ho10  1  0.523213  0.750035  0.511038  1
  Ho  Ho11  1  0.023213  0.749965  0.988962  1
  Ho  Ho12  1  0.314460  0.249930  0.218079  1
  Ho  Ho13  1  0.814460  0.250070  0.281921  1
  Ho  Ho14  1  0.685540  0.749930  0.781921  1
  Ho  Ho15  1  0.185540  0.750070  0.718079  1
  Tm  Tm16  1  0.691956  0.564595  0.058973  1
  Tm  Tm17  1  0.191956  0.935405  0.441027  1
  Tm  Tm18  1  0.308044  0.064595  0.941027  1
  Tm  Tm19  1  0.808044  0.435405  0.558973  1
  Bi  Bi20  1  0.405477  0.750379  0.957467  1
  Bi  Bi21  1  0.905477  0.749621  0.542533  1
  Bi  Bi22  1  0.594523  0.250379  0.042533  1
  Bi  Bi23  1  0.094523  0.249621  0.457467  1
  Bi  Bi24  1  0.566022  0.996200  0.325697  1
  Bi  Bi25  1  0.066022  0.503800  0.174303  1
  Bi  Bi26  1  0.433978  0.496200  0.674303  1
  Bi  Bi27  1  0.933978  0.003800  0.825697  1
  Bi  Bi28  1  0.433851  0.003830  0.674301  1
  Bi  Bi29  1  0.933851  0.496170  0.825699  1
  Bi  Bi30  1  0.566149  0.503830  0.325699  1
  Bi  Bi31  1  0.066149  0.996170  0.174301  1
