# generated using pymatgen
data_NdAlCoNi2B
_symmetry_space_group_name_H-M   'P 1'
_cell_length_a   5.23801600
_cell_length_b   5.25719979
_cell_length_c   6.81100100
_cell_angle_alpha   90.00000000
_cell_angle_beta   90.00000000
_cell_angle_gamma   119.87936359
_symmetry_Int_Tables_number   1
_chemical_formula_structural   NdAlCoNi2B
_chemical_formula_sum   'Nd2 Al2 Co2 Ni4 B2'
_cell_volume   162.62583135
_cell_formula_units_Z   2
loop_
 _symmetry_equiv_pos_site_id
 _symmetry_equiv_pos_as_xyz
  1  'x, y, z'
loop_
 _atom_site_type_symbol
 _atom_site_label
 _atom_site_symmetry_multiplicity
 _atom_site_fract_x
 _atom_site_fract_y
 _atom_site_fract_z
 _atom_site_occupancy
  Nd  Nd0  1  0.000000  0.000000  0.000000  1
  Nd  Nd1  1  0.000000  0.000000  0.500000  1
  Al  Al2  1  0.335595  0.671191  0.000000  1
  Al  Al3  1  0.664405  0.328809  0.000000  1
  Co  Co4  1  0.500000  0.000000  0.700278  1
  Co  Co5  1  0.500000  0.000000  0.299722  1
  Ni  Ni6  1  0.000000  0.500000  0.294988  1
  Ni  Ni7  1  0.500000  0.500000  0.705012  1
  Ni  Ni8  1  0.500000  0.500000  0.294988  1
  Ni  Ni9  1  0.000000  0.500000  0.705012  1
  B  B10  1  0.337299  0.674600  0.500000  1
  B  B11  1  0.662701  0.325400  0.500000  1
