# generated using pymatgen
data_Ce2Ta3Ni9P7
_symmetry_space_group_name_H-M   'P 1'
_cell_length_a   9.35957200
_cell_length_b   9.35957328
_cell_length_c   3.75331300
_cell_angle_alpha   90.00000000
_cell_angle_beta   90.00000000
_cell_angle_gamma   120.00000891
_symmetry_Int_Tables_number   1
_chemical_formula_structural   Ce2Ta3Ni9P7
_chemical_formula_sum   'Ce2 Ta3 Ni9 P7'
_cell_volume   284.74585715
_cell_formula_units_Z   1
loop_
 _symmetry_equiv_pos_site_id
 _symmetry_equiv_pos_as_xyz
  1  'x, y, z'
loop_
 _atom_site_type_symbol
 _atom_site_label
 _atom_site_symmetry_multiplicity
 _atom_site_fract_x
 _atom_site_fract_y
 _atom_site_fract_z
 _atom_site_occupancy
  Ce  Ce0  1  0.333333  0.666667  0.000000  1
  Ce  Ce1  1  0.666667  0.333333  0.500000  1
  Ta  Ta2  1  0.882123  0.777980  0.500000  1
  Ta  Ta3  1  0.895858  0.117877  0.500000  1
  Ta  Ta4  1  0.222020  0.104142  0.500000  1
  Ni  Ni5  1  0.717744  0.874149  0.000000  1
  Ni  Ni6  1  0.156404  0.282256  0.000000  1
  Ni  Ni7  1  0.125851  0.843596  0.000000  1
  Ni  Ni8  1  0.631468  0.572747  0.000000  1
  Ni  Ni9  1  0.941280  0.368532  0.000000  1
  Ni  Ni10  1  0.427253  0.058720  0.000000  1
  Ni  Ni11  1  0.561093  0.943325  0.500000  1
  Ni  Ni12  1  0.382231  0.438907  0.500000  1
  Ni  Ni13  1  0.056675  0.617769  0.500000  1
  P  P14  1  0.591102  0.707261  0.500000  1
  P  P15  1  0.116159  0.408898  0.500000  1
  P  P16  1  0.292739  0.883841  0.500000  1
  P  P17  1  0.000000  0.000000  0.000000  1
  P  P18  1  0.889712  0.585634  0.000000  1
  P  P19  1  0.695922  0.110288  0.000000  1
  P  P20  1  0.414366  0.304078  0.000000  1
