# generated using pymatgen
data_K4Al5(GaAu4)3
_symmetry_space_group_name_H-M   'P 1'
_cell_length_a   5.64024479
_cell_length_b   7.12065687
_cell_length_c   13.48823754
_cell_angle_alpha   89.85419957
_cell_angle_beta   90.14792784
_cell_angle_gamma   90.00907876
_symmetry_Int_Tables_number   1
_chemical_formula_structural   K4Al5(GaAu4)3
_chemical_formula_sum   'K4 Al5 Ga3 Au12'
_cell_volume   541.71437224
_cell_formula_units_Z   1
loop_
 _symmetry_equiv_pos_site_id
 _symmetry_equiv_pos_as_xyz
  1  'x, y, z'
loop_
 _atom_site_type_symbol
 _atom_site_label
 _atom_site_symmetry_multiplicity
 _atom_site_fract_x
 _atom_site_fract_y
 _atom_site_fract_z
 _atom_site_occupancy
  K  K0  1  0.249101  0.110036  0.077241  1
  K  K1  1  0.250420  0.391047  0.577438  1
  K  K2  1  0.749689  0.890639  0.922073  1
  K  K3  1  0.750722  0.609173  0.422819  1
  Al  Al4  1  0.002460  0.398067  0.844407  1
  Al  Al5  1  0.999495  0.100271  0.344115  1
  Al  Al6  1  0.500495  0.398911  0.843761  1
  Al  Al7  1  0.499757  0.898956  0.656482  1
  Al  Al8  1  0.000281  0.600258  0.155750  1
  Ga  Ga9  1  0.997407  0.897277  0.655886  1
  Ga  Ga10  1  0.502468  0.603188  0.155708  1
  Ga  Ga11  1  0.497081  0.103363  0.344319  1
  Au  Au12  1  0.253055  0.112706  0.790483  1
  Au  Au13  1  0.243613  0.390362  0.289875  1
  Au  Au14  1  0.756704  0.890519  0.210121  1
  Au  Au15  1  0.746896  0.608185  0.711310  1
  Au  Au16  1  0.253857  0.696846  0.789633  1
  Au  Au17  1  0.243221  0.799535  0.289873  1
  Au  Au18  1  0.756897  0.300491  0.209830  1
  Au  Au19  1  0.746693  0.200773  0.711342  1
  Au  Au20  1  0.245813  0.583044  0.993963  1
  Au  Au21  1  0.250791  0.916214  0.494689  1
  Au  Au22  1  0.751707  0.415917  0.003298  1
  Au  Au23  1  0.751376  0.084225  0.505583  1
