# generated using pymatgen
data_Pa2Mn(Al2Pt)8
_symmetry_space_group_name_H-M   'P 1'
_cell_length_a   11.12011229
_cell_length_b   11.12011253
_cell_length_c   11.12011200
_cell_angle_alpha   158.62443646
_cell_angle_beta   115.67948114
_cell_angle_gamma   68.62025310
_symmetry_Int_Tables_number   1
_chemical_formula_structural   Pa2Mn(Al2Pt)8
_chemical_formula_sum   'Pa2 Mn1 Al16 Pt8'
_cell_volume   448.49533821
_cell_formula_units_Z   1
loop_
 _symmetry_equiv_pos_site_id
 _symmetry_equiv_pos_as_xyz
  1  'x, y, z'
loop_
 _atom_site_type_symbol
 _atom_site_label
 _atom_site_symmetry_multiplicity
 _atom_site_fract_x
 _atom_site_fract_y
 _atom_site_fract_z
 _atom_site_occupancy
  Pa  Pa0  1  0.228767  0.229012  0.999753  1
  Pa  Pa1  1  0.770736  0.770986  0.999749  1
  Mn  Mn2  1  0.777059  0.499969  0.277051  1
  Al  Al3  1  0.274912  0.391022  0.883890  1
  Al  Al4  1  0.090496  0.925959  0.164537  1
  Al  Al5  1  0.502851  0.199460  0.303389  1
  Al  Al6  1  0.238552  0.074032  0.164517  1
  Al  Al7  1  0.908933  0.416913  0.492020  1
  Al  Al8  1  0.729146  0.601088  0.128061  1
  Al  Al9  1  0.900293  0.207874  0.692419  1
  Al  Al10  1  0.484544  0.792120  0.692424  1
  Al  Al11  1  0.393711  0.999998  0.393711  1
  Al  Al12  1  0.623561  0.000008  0.623562  1
  Al  Al13  1  0.492901  0.608985  0.883909  1
  Al  Al14  1  0.103929  0.800530  0.303397  1
  Al  Al15  1  0.902085  0.084211  0.817884  1
  Al  Al16  1  0.733649  0.915789  0.817871  1
  Al  Al17  1  0.527017  0.398926  0.128096  1
  Al  Al18  1  0.075106  0.583080  0.492026  1
  Pt  Pt19  1  0.019645  0.342906  0.676738  1
  Pt  Pt20  1  0.635194  0.131422  0.503768  1
  Pt  Pt21  1  0.261682  0.499997  0.761685  1
  Pt  Pt22  1  0.372413  0.868633  0.503783  1
  Pt  Pt23  1  0.980413  0.999991  0.980421  1
  Pt  Pt24  1  0.653423  0.334146  0.319290  1
  Pt  Pt25  1  0.333900  0.657086  0.676815  1
  Pt  Pt26  1  0.985082  0.665856  0.319234  1
