# generated using pymatgen
data_Sm3Eu(SeO)4
_symmetry_space_group_name_H-M   'P 1'
_cell_length_a   7.35462266
_cell_length_b   7.35462353
_cell_length_c   5.86096068
_cell_angle_alpha   90.01125565
_cell_angle_beta   90.01125704
_cell_angle_gamma   132.80323717
_symmetry_Int_Tables_number   1
_chemical_formula_structural   Sm3Eu(SeO)4
_chemical_formula_sum   'Sm3 Eu1 Se4 O4'
_cell_volume   232.59644401
_cell_formula_units_Z   1
loop_
 _symmetry_equiv_pos_site_id
 _symmetry_equiv_pos_as_xyz
  1  'x, y, z'
loop_
 _atom_site_type_symbol
 _atom_site_label
 _atom_site_symmetry_multiplicity
 _atom_site_fract_x
 _atom_site_fract_y
 _atom_site_fract_z
 _atom_site_occupancy
  Sm  Sm0  1  0.171571  0.828429  0.500000  1
  Sm  Sm1  1  0.827621  0.172379  0.500000  1
  Sm  Sm2  1  0.670681  0.329319  0.000000  1
  Eu  Eu3  1  0.333742  0.666258  0.000000  1
  Se  Se4  1  0.863607  0.861593  0.846183  1
  Se  Se5  1  0.352699  0.351331  0.642946  1
  Se  Se6  1  0.138407  0.136393  0.153817  1
  Se  Se7  1  0.648669  0.647301  0.357054  1
  O  O8  1  0.497688  0.000727  0.748227  1
  O  O9  1  0.999273  0.502312  0.251773  1
  O  O10  1  0.506025  0.009984  0.253289  1
  O  O11  1  0.990016  0.493975  0.746711  1
