# generated using pymatgen
data_Ce(Gd2Tc)2
_symmetry_space_group_name_H-M   'P 1'
_cell_length_a   6.35872254
_cell_length_b   7.45005163
_cell_length_c   8.64932800
_cell_angle_alpha   95.58236107
_cell_angle_beta   111.56084453
_cell_angle_gamma   92.66496671
_symmetry_Int_Tables_number   1
_chemical_formula_structural   Ce(Gd2Tc)2
_chemical_formula_sum   'Ce2 Gd8 Tc4'
_cell_volume   377.76502221
_cell_formula_units_Z   2
loop_
 _symmetry_equiv_pos_site_id
 _symmetry_equiv_pos_as_xyz
  1  'x, y, z'
loop_
 _atom_site_type_symbol
 _atom_site_label
 _atom_site_symmetry_multiplicity
 _atom_site_fract_x
 _atom_site_fract_y
 _atom_site_fract_z
 _atom_site_occupancy
  Ce  Ce0  1  0.505339  0.100621  0.813923  1
  Ce  Ce1  1  0.494661  0.899379  0.186077  1
  Gd  Gd2  1  0.709596  0.418609  0.188648  1
  Gd  Gd3  1  0.290404  0.581391  0.811352  1
  Gd  Gd4  1  0.296697  0.317265  0.431221  1
  Gd  Gd5  1  0.703303  0.682735  0.568779  1
  Gd  Gd6  1  0.860235  0.181469  0.570802  1
  Gd  Gd7  1  0.139765  0.818531  0.429198  1
  Gd  Gd8  1  0.082768  0.244525  0.005019  1
  Gd  Gd9  1  0.917232  0.755475  0.994981  1
  Tc  Tc10  1  0.336061  0.602166  0.215149  1
  Tc  Tc11  1  0.663939  0.397834  0.784851  1
  Tc  Tc12  1  0.153282  0.931722  0.783581  1
  Tc  Tc13  1  0.846718  0.068278  0.216419  1
