# generated using pymatgen
data_YbU3F12
_symmetry_space_group_name_H-M   'P 1'
_cell_length_a   4.60774770
_cell_length_b   6.66405998
_cell_length_c   7.15206500
_cell_angle_alpha   90.00000000
_cell_angle_beta   90.00000000
_cell_angle_gamma   89.58507390
_symmetry_Int_Tables_number   1
_chemical_formula_structural   YbU3F12
_chemical_formula_sum   'Yb1 U3 F12'
_cell_volume   219.60774513
_cell_formula_units_Z   1
loop_
 _symmetry_equiv_pos_site_id
 _symmetry_equiv_pos_as_xyz
  1  'x, y, z'
loop_
 _atom_site_type_symbol
 _atom_site_label
 _atom_site_symmetry_multiplicity
 _atom_site_fract_x
 _atom_site_fract_y
 _atom_site_fract_z
 _atom_site_occupancy
  Yb  Yb0  1  0.045974  0.364136  0.250000  1
  U  U1  1  0.946286  0.626449  0.750000  1
  U  U2  1  0.437462  0.864743  0.250000  1
  U  U3  1  0.549794  0.139959  0.750000  1
  F  F4  1  0.084888  0.976023  0.750000  1
  F  F5  1  0.610834  0.541724  0.250000  1
  F  F6  1  0.421971  0.486797  0.750000  1
  F  F7  1  0.905214  0.015909  0.250000  1
  F  F8  1  0.370726  0.166934  0.063781  1
  F  F9  1  0.881835  0.331834  0.936079  1
  F  F10  1  0.126978  0.657698  0.438378  1
  F  F11  1  0.619250  0.835665  0.567572  1
  F  F12  1  0.619250  0.835665  0.932428  1
  F  F13  1  0.126978  0.657698  0.061622  1
  F  F14  1  0.881835  0.331834  0.563921  1
  F  F15  1  0.370726  0.166934  0.436219  1
