# generated using pymatgen
data_ErU3Ga6Ru7
_symmetry_space_group_name_H-M   'P 1'
_cell_length_a   7.10547591
_cell_length_b   7.22325375
_cell_length_c   7.22325407
_cell_angle_alpha   109.79916025
_cell_angle_beta   109.14125960
_cell_angle_gamma   109.14124816
_symmetry_Int_Tables_number   1
_chemical_formula_structural   ErU3Ga6Ru7
_chemical_formula_sum   'Er1 U3 Ga6 Ru7'
_cell_volume   286.54274681
_cell_formula_units_Z   1
loop_
 _symmetry_equiv_pos_site_id
 _symmetry_equiv_pos_as_xyz
  1  'x, y, z'
loop_
 _atom_site_type_symbol
 _atom_site_label
 _atom_site_symmetry_multiplicity
 _atom_site_fract_x
 _atom_site_fract_y
 _atom_site_fract_z
 _atom_site_occupancy
  Er  Er0  1  0.500000  0.000000  0.000000  1
  U  U1  1  0.000000  0.000000  0.500000  1
  U  U2  1  0.000000  0.500000  0.000000  1
  U  U3  1  0.500000  0.500000  0.500000  1
  Ga  Ga4  1  0.308291  0.000000  0.304593  1
  Ga  Ga5  1  0.996302  0.304593  0.304593  1
  Ga  Ga6  1  0.003698  0.695407  0.695407  1
  Ga  Ga7  1  0.308291  0.304593  0.000000  1
  Ga  Ga8  1  0.691709  0.695407  0.000000  1
  Ga  Ga9  1  0.691709  0.000000  0.695407  1
  Ru  Ru10  1  0.756084  0.512169  0.256084  1
  Ru  Ru11  1  0.500000  0.743916  0.256084  1
  Ru  Ru12  1  0.500000  0.256084  0.743916  1
  Ru  Ru13  1  0.756084  0.256084  0.512169  1
  Ru  Ru14  1  0.243916  0.743916  0.487831  1
  Ru  Ru15  1  0.243916  0.487831  0.743916  1
  Ru  Ru16  1  0.000000  0.000000  0.000000  1
