# generated using pymatgen
data_Gd3Ho3PuO12
_symmetry_space_group_name_H-M   'P 1'
_cell_length_a   6.52079241
_cell_length_b   6.51748170
_cell_length_c   6.52248900
_cell_angle_alpha   98.76196002
_cell_angle_beta   98.85126293
_cell_angle_gamma   98.88415661
_symmetry_Int_Tables_number   1
_chemical_formula_structural   Gd3Ho3PuO12
_chemical_formula_sum   'Gd3 Ho3 Pu1 O12'
_cell_volume   266.17415173
_cell_formula_units_Z   1
loop_
 _symmetry_equiv_pos_site_id
 _symmetry_equiv_pos_as_xyz
  1  'x, y, z'
loop_
 _atom_site_type_symbol
 _atom_site_label
 _atom_site_symmetry_multiplicity
 _atom_site_fract_x
 _atom_site_fract_y
 _atom_site_fract_z
 _atom_site_occupancy
  Gd  Gd0  1  0.685601  0.856150  0.390057  1
  Gd  Gd1  1  0.390988  0.682665  0.856757  1
  Gd  Gd2  1  0.145170  0.610792  0.319357  1
  Ho  Ho3  1  0.852502  0.386072  0.678864  1
  Ho  Ho4  1  0.609699  0.313563  0.143444  1
  Ho  Ho5  1  0.318941  0.146071  0.612239  1
  Pu  Pu6  1  0.000892  0.002579  0.999692  1
  O  O7  1  0.928355  0.048982  0.689331  1
  O  O8  1  0.955374  0.306205  0.068904  1
  O  O9  1  0.585190  0.180063  0.431652  1
  O  O10  1  0.820519  0.562091  0.410877  1
  O  O11  1  0.311658  0.074386  0.953908  1
  O  O12  1  0.572516  0.407443  0.823553  1
  O  O13  1  0.431731  0.580840  0.177708  1
  O  O14  1  0.690435  0.933479  0.045987  1
  O  O15  1  0.176310  0.428655  0.592536  1
  O  O16  1  0.411051  0.825100  0.569080  1
  O  O17  1  0.036821  0.695492  0.925147  1
  O  O18  1  0.076247  0.959371  0.310905  1
