# generated using pymatgen
data_Ba8Si3Sn
_symmetry_space_group_name_H-M   'P 1'
_cell_length_a   5.49119000
_cell_length_b   8.56604940
_cell_length_c   10.34049840
_cell_angle_alpha   90.60657791
_cell_angle_beta   90.00000000
_cell_angle_gamma   90.00000000
_symmetry_Int_Tables_number   1
_chemical_formula_structural   Ba8Si3Sn
_chemical_formula_sum   'Ba8 Si3 Sn1'
_cell_volume   486.36708805
_cell_formula_units_Z   1
loop_
 _symmetry_equiv_pos_site_id
 _symmetry_equiv_pos_as_xyz
  1  'x, y, z'
loop_
 _atom_site_type_symbol
 _atom_site_label
 _atom_site_symmetry_multiplicity
 _atom_site_fract_x
 _atom_site_fract_y
 _atom_site_fract_z
 _atom_site_occupancy
  Ba  Ba0  1  0.750000  0.360007  0.408079  1
  Ba  Ba1  1  0.250000  0.660058  0.581930  1
  Ba  Ba2  1  0.750000  0.853084  0.080953  1
  Ba  Ba3  1  0.250000  0.140740  0.930061  1
  Ba  Ba4  1  0.750000  0.475512  0.830761  1
  Ba  Ba5  1  0.250000  0.523064  0.167605  1
  Ba  Ba6  1  0.750000  0.973291  0.673332  1
  Ba  Ba7  1  0.250000  0.014386  0.323942  1
  Si  Si8  1  0.750000  0.248809  0.101049  1
  Si  Si9  1  0.250000  0.749605  0.900458  1
  Si  Si10  1  0.750000  0.751819  0.394961  1
  Sn  Sn11  1  0.250000  0.249624  0.606870  1
