# generated using pymatgen
data_Tb4SiPd28Se
_symmetry_space_group_name_H-M   'P 1'
_cell_length_a   8.96922800
_cell_length_b   8.96922800
_cell_length_c   7.09558400
_cell_angle_alpha   90.00000000
_cell_angle_beta   90.00000000
_cell_angle_gamma   90.00000000
_symmetry_Int_Tables_number   1
_chemical_formula_structural   Tb4SiPd28Se
_chemical_formula_sum   'Tb4 Si1 Pd28 Se1'
_cell_volume   570.81880733
_cell_formula_units_Z   1
loop_
 _symmetry_equiv_pos_site_id
 _symmetry_equiv_pos_as_xyz
  1  'x, y, z'
loop_
 _atom_site_type_symbol
 _atom_site_label
 _atom_site_symmetry_multiplicity
 _atom_site_fract_x
 _atom_site_fract_y
 _atom_site_fract_z
 _atom_site_occupancy
  Tb  Tb0  1  0.500000  0.000000  0.933974  1
  Tb  Tb1  1  0.000000  0.500000  0.066635  1
  Tb  Tb2  1  0.000000  0.000000  0.500506  1
  Tb  Tb3  1  0.500000  0.500000  0.500506  1
  Si  Si4  1  0.000000  0.500000  0.551370  1
  Pd  Pd5  1  0.328633  0.828633  0.622969  1
  Pd  Pd6  1  0.328633  0.171367  0.622969  1
  Pd  Pd7  1  0.671367  0.828633  0.622969  1
  Pd  Pd8  1  0.671367  0.171367  0.622969  1
  Pd  Pd9  1  0.164566  0.664566  0.382785  1
  Pd  Pd10  1  0.164566  0.335434  0.382785  1
  Pd  Pd11  1  0.835434  0.664566  0.382785  1
  Pd  Pd12  1  0.835434  0.335434  0.382785  1
  Pd  Pd13  1  0.500000  0.763202  0.251246  1
  Pd  Pd14  1  0.500000  0.236798  0.251246  1
  Pd  Pd15  1  0.263202  0.000000  0.251246  1
  Pd  Pd16  1  0.736798  0.000000  0.251246  1
  Pd  Pd17  1  0.000000  0.729538  0.743100  1
  Pd  Pd18  1  0.000000  0.270462  0.743100  1
  Pd  Pd19  1  0.229538  0.500000  0.743100  1
  Pd  Pd20  1  0.770462  0.500000  0.743100  1
  Pd  Pd21  1  0.500000  0.348228  0.854460  1
  Pd  Pd22  1  0.500000  0.651772  0.854460  1
  Pd  Pd23  1  0.848228  0.000000  0.854460  1
  Pd  Pd24  1  0.151772  0.000000  0.854460  1
  Pd  Pd25  1  0.000000  0.151290  0.144927  1
  Pd  Pd26  1  0.000000  0.848710  0.144927  1
  Pd  Pd27  1  0.651290  0.500000  0.144927  1
  Pd  Pd28  1  0.348710  0.500000  0.144927  1
  Pd  Pd29  1  0.247883  0.747883  0.000268  1
  Pd  Pd30  1  0.247883  0.252117  0.000268  1
  Pd  Pd31  1  0.752117  0.747883  0.000268  1
  Pd  Pd32  1  0.752117  0.252117  0.000268  1
  Se  Se33  1  0.500000  0.000000  0.447987  1
