# generated using pymatgen
data_Li2Mg2Ni9MoP7
_symmetry_space_group_name_H-M   'P 1'
_cell_length_a   3.61839700
_cell_length_b   9.12156510
_cell_length_c   9.20751858
_cell_angle_alpha   120.27071420
_cell_angle_beta   90.00000000
_cell_angle_gamma   90.00000000
_symmetry_Int_Tables_number   1
_chemical_formula_structural   Li2Mg2Ni9MoP7
_chemical_formula_sum   'Li2 Mg2 Ni9 Mo1 P7'
_cell_volume   262.46272095
_cell_formula_units_Z   1
loop_
 _symmetry_equiv_pos_site_id
 _symmetry_equiv_pos_as_xyz
  1  'x, y, z'
loop_
 _atom_site_type_symbol
 _atom_site_label
 _atom_site_symmetry_multiplicity
 _atom_site_fract_x
 _atom_site_fract_y
 _atom_site_fract_z
 _atom_site_occupancy
  Li  Li0  1  0.500000  0.776855  0.895370  1
  Li  Li1  1  0.500000  0.117332  0.220437  1
  Mg  Mg2  1  0.000000  0.667463  0.332029  1
  Mg  Mg3  1  0.500000  0.332733  0.663215  1
  Ni  Ni4  1  0.000000  0.563980  0.932019  1
  Ni  Ni5  1  0.000000  0.369393  0.433435  1
  Ni  Ni6  1  0.000000  0.067684  0.630143  1
  Ni  Ni7  1  0.500000  0.947510  0.387181  1
  Ni  Ni8  1  0.500000  0.444990  0.058696  1
  Ni  Ni9  1  0.500000  0.612387  0.561008  1
  Ni  Ni10  1  0.000000  0.877962  0.159667  1
  Ni  Ni11  1  0.000000  0.288485  0.130967  1
  Ni  Ni12  1  0.000000  0.834203  0.713700  1
  Mo  Mo13  1  0.500000  0.096639  0.881617  1
  P  P14  1  0.500000  0.710982  0.122583  1
  P  P15  1  0.500000  0.414433  0.290269  1
  P  P16  1  0.500000  0.880376  0.589314  1
  P  P17  1  0.000000  0.001093  0.998844  1
  P  P18  1  0.000000  0.578213  0.696997  1
  P  P19  1  0.000000  0.116672  0.417504  1
  P  P20  1  0.000000  0.300619  0.885008  1
