# generated using pymatgen
data_Y(Tm3Se4)2
_symmetry_space_group_name_H-M   'P 1'
_cell_length_a   8.00108722
_cell_length_b   7.99569221
_cell_length_c   8.00108800
_cell_angle_alpha   119.97934015
_cell_angle_beta   90.08698469
_cell_angle_gamma   119.96480429
_symmetry_Int_Tables_number   1
_chemical_formula_structural   Y(Tm3Se4)2
_chemical_formula_sum   'Y1 Tm6 Se8'
_cell_volume   361.97248015
_cell_formula_units_Z   1
loop_
 _symmetry_equiv_pos_site_id
 _symmetry_equiv_pos_as_xyz
  1  'x, y, z'
loop_
 _atom_site_type_symbol
 _atom_site_label
 _atom_site_symmetry_multiplicity
 _atom_site_fract_x
 _atom_site_fract_y
 _atom_site_fract_z
 _atom_site_occupancy
  Y  Y0  1  0.250022  0.500001  0.750020  1
  Tm  Tm1  1  0.249941  0.000002  0.249946  1
  Tm  Tm2  1  0.249960  0.499896  0.249962  1
  Tm  Tm3  1  0.750056  0.999992  0.249952  1
  Tm  Tm4  1  0.249954  0.999997  0.750064  1
  Tm  Tm5  1  0.750054  0.000007  0.750060  1
  Tm  Tm6  1  0.750068  0.500108  0.750065  1
  Se  Se7  1  0.000005  0.000001  0.000009  1
  Se  Se8  1  0.500023  0.999996  0.500015  1
  Se  Se9  1  0.993256  0.986572  0.493269  1
  Se  Se10  1  0.993173  0.499961  0.493160  1
  Se  Se11  1  0.506513  0.500018  0.493477  1
  Se  Se12  1  0.993467  0.499981  0.006503  1
  Se  Se13  1  0.506767  0.500042  0.006782  1
  Se  Se14  1  0.506741  0.013429  0.006723  1
