# generated using pymatgen
data_Lu4ReCl4
_symmetry_space_group_name_H-M   'P 1'
_cell_length_a   8.41391341
_cell_length_b   8.41391369
_cell_length_c   6.42564211
_cell_angle_alpha   89.58372370
_cell_angle_beta   89.58372989
_cell_angle_gamma   89.38969612
_symmetry_Int_Tables_number   1
_chemical_formula_structural   Lu4ReCl4
_chemical_formula_sum   'Lu8 Re2 Cl8'
_cell_volume   454.84696641
_cell_formula_units_Z   2
loop_
 _symmetry_equiv_pos_site_id
 _symmetry_equiv_pos_as_xyz
  1  'x, y, z'
loop_
 _atom_site_type_symbol
 _atom_site_label
 _atom_site_symmetry_multiplicity
 _atom_site_fract_x
 _atom_site_fract_y
 _atom_site_fract_z
 _atom_site_occupancy
  Lu  Lu0  1  0.104340  0.742430  0.986529  1
  Lu  Lu1  1  0.257570  0.895660  0.513471  1
  Lu  Lu2  1  0.895660  0.257570  0.013471  1
  Lu  Lu3  1  0.742430  0.104340  0.486529  1
  Lu  Lu4  1  0.743929  0.897166  0.009684  1
  Lu  Lu5  1  0.102834  0.256071  0.490316  1
  Lu  Lu6  1  0.256071  0.102834  0.990316  1
  Lu  Lu7  1  0.897166  0.743929  0.509684  1
  Re  Re8  1  0.008227  0.991773  0.250000  1
  Re  Re9  1  0.991773  0.008227  0.750000  1
  Cl  Cl10  1  0.424155  0.818956  0.898095  1
  Cl  Cl11  1  0.181044  0.575845  0.601905  1
  Cl  Cl12  1  0.575845  0.181044  0.101905  1
  Cl  Cl13  1  0.818956  0.424155  0.398095  1
  Cl  Cl14  1  0.807973  0.578967  0.897648  1
  Cl  Cl15  1  0.421033  0.192027  0.602352  1
  Cl  Cl16  1  0.192027  0.421033  0.102352  1
  Cl  Cl17  1  0.578967  0.807973  0.397648  1
