# generated using pymatgen
data_HoZr(Re2Si)4
_symmetry_space_group_name_H-M   'P 1'
_cell_length_a   7.39100514
_cell_length_b   7.39100520
_cell_length_c   4.10925000
_cell_angle_alpha   90.00000000
_cell_angle_beta   90.00000000
_cell_angle_gamma   90.99396324
_symmetry_Int_Tables_number   1
_chemical_formula_structural   HoZr(Re2Si)4
_chemical_formula_sum   'Ho1 Zr1 Re8 Si4'
_cell_volume   224.44204766
_cell_formula_units_Z   1
loop_
 _symmetry_equiv_pos_site_id
 _symmetry_equiv_pos_as_xyz
  1  'x, y, z'
loop_
 _atom_site_type_symbol
 _atom_site_label
 _atom_site_symmetry_multiplicity
 _atom_site_fract_x
 _atom_site_fract_y
 _atom_site_fract_z
 _atom_site_occupancy
  Ho  Ho0  1  0.000000  0.000000  0.500000  1
  Zr  Zr1  1  0.500000  0.500000  0.000000  1
  Re  Re2  1  0.655297  0.902162  0.000000  1
  Re  Re3  1  0.159884  0.587853  0.500000  1
  Re  Re4  1  0.097838  0.344703  0.000000  1
  Re  Re5  1  0.902162  0.655297  0.000000  1
  Re  Re6  1  0.412147  0.840116  0.500000  1
  Re  Re7  1  0.587853  0.159884  0.500000  1
  Re  Re8  1  0.344703  0.097838  0.000000  1
  Re  Re9  1  0.840116  0.412147  0.500000  1
  Si  Si10  1  0.211179  0.788821  0.000000  1
  Si  Si11  1  0.788821  0.211179  0.000000  1
  Si  Si12  1  0.703785  0.703785  0.500000  1
  Si  Si13  1  0.296215  0.296215  0.500000  1
