# generated using pymatgen
data_Pr8Y7Ho5Si16
_symmetry_space_group_name_H-M   'P 1'
_cell_length_a   7.52731505
_cell_length_b   7.81164402
_cell_length_c   14.85238206
_cell_angle_alpha   89.99992512
_cell_angle_beta   89.98970072
_cell_angle_gamma   90.00819545
_symmetry_Int_Tables_number   1
_chemical_formula_structural   Pr8Y7Ho5Si16
_chemical_formula_sum   'Pr8 Y7 Ho5 Si16'
_cell_volume   873.33052184
_cell_formula_units_Z   1
loop_
 _symmetry_equiv_pos_site_id
 _symmetry_equiv_pos_as_xyz
  1  'x, y, z'
loop_
 _atom_site_type_symbol
 _atom_site_label
 _atom_site_symmetry_multiplicity
 _atom_site_fract_x
 _atom_site_fract_y
 _atom_site_fract_z
 _atom_site_occupancy
  Pr  Pr0  1  0.975563  0.820729  0.097938  1
  Pr  Pr1  1  0.475577  0.679268  0.402119  1
  Pr  Pr2  1  0.524348  0.320528  0.901880  1
  Pr  Pr3  1  0.024652  0.179162  0.598070  1
  Pr  Pr4  1  0.024949  0.179186  0.901831  1
  Pr  Pr5  1  0.524612  0.320496  0.598126  1
  Pr  Pr6  1  0.475266  0.679299  0.097960  1
  Pr  Pr7  1  0.975294  0.820693  0.402045  1
  Y  Y8  1  0.649880  0.989463  0.250064  1
  Y  Y9  1  0.149882  0.510549  0.250041  1
  Y  Y10  1  0.850115  0.489447  0.749920  1
  Y  Y11  1  0.680680  0.821947  0.877066  1
  Y  Y12  1  0.181221  0.678474  0.622865  1
  Y  Y13  1  0.819010  0.321797  0.122723  1
  Y  Y14  1  0.319039  0.178147  0.377360  1
  Ho  Ho15  1  0.350074  0.010608  0.750070  1
  Ho  Ho16  1  0.319033  0.178007  0.122973  1
  Ho  Ho17  1  0.818986  0.321976  0.376952  1
  Ho  Ho18  1  0.181233  0.678448  0.876814  1
  Ho  Ho19  1  0.680654  0.822083  0.623217  1
  Si  Si20  1  0.768035  0.620101  0.250270  1
  Si  Si21  1  0.268053  0.879912  0.249669  1
  Si  Si22  1  0.731065  0.119933  0.749722  1
  Si  Si23  1  0.232108  0.378998  0.750330  1
  Si  Si24  1  0.024872  0.112151  0.250044  1
  Si  Si25  1  0.524871  0.387845  0.249910  1
  Si  Si26  1  0.475106  0.612495  0.749955  1
  Si  Si27  1  0.975971  0.888036  0.750085  1
  Si  Si28  1  0.857750  0.530692  0.959966  1
  Si  Si29  1  0.357787  0.969425  0.540320  1
  Si  Si30  1  0.642226  0.030651  0.039987  1
  Si  Si31  1  0.142155  0.469325  0.459995  1
  Si  Si32  1  0.144023  0.469247  0.039506  1
  Si  Si33  1  0.643983  0.030739  0.460513  1
  Si  Si34  1  0.355925  0.969377  0.960175  1
  Si  Si35  1  0.856002  0.530764  0.539517  1
