# generated using pymatgen
data_Bi5Os4Pb3O22
_symmetry_space_group_name_H-M   'P 1'
_cell_length_a   6.73078547
_cell_length_b   7.55150660
_cell_length_c   10.18954821
_cell_angle_alpha   100.73851748
_cell_angle_beta   92.31401804
_cell_angle_gamma   89.94820416
_symmetry_Int_Tables_number   1
_chemical_formula_structural   Bi5Os4Pb3O22
_chemical_formula_sum   'Bi5 Os4 Pb3 O22'
_cell_volume   508.41372657
_cell_formula_units_Z   1
loop_
 _symmetry_equiv_pos_site_id
 _symmetry_equiv_pos_as_xyz
  1  'x, y, z'
loop_
 _atom_site_type_symbol
 _atom_site_label
 _atom_site_symmetry_multiplicity
 _atom_site_fract_x
 _atom_site_fract_y
 _atom_site_fract_z
 _atom_site_occupancy
  Bi  Bi0  1  0.257029  0.129049  0.524938  1
  Bi  Bi1  1  0.455506  0.956619  0.821744  1
  Bi  Bi2  1  0.542676  0.044223  0.179070  1
  Bi  Bi3  1  0.423339  0.458589  0.826372  1
  Bi  Bi4  1  0.575855  0.542647  0.175779  1
  Os  Os5  1  0.940158  0.704297  0.812488  1
  Os  Os6  1  0.061798  0.294607  0.187201  1
  Os  Os7  1  0.938765  0.206094  0.815697  1
  Os  Os8  1  0.061914  0.795628  0.185110  1
  Pb  Pb9  1  0.747189  0.368040  0.480775  1
  Pb  Pb10  1  0.252130  0.627822  0.511813  1
  Pb  Pb11  1  0.751670  0.870234  0.480133  1
  O  O12  1  0.233058  0.718391  0.780321  1
  O  O13  1  0.769121  0.281299  0.223970  1
  O  O14  1  0.646125  0.687262  0.830897  1
  O  O15  1  0.352947  0.311041  0.161397  1
  O  O16  1  0.648404  0.234187  0.839209  1
  O  O17  1  0.351695  0.764847  0.155183  1
  O  O18  1  0.907113  0.163383  0.627479  1
  O  O19  1  0.110003  0.847847  0.373074  1
  O  O20  1  0.232206  0.173789  0.778509  1
  O  O21  1  0.770486  0.828253  0.223012  1
  O  O22  1  0.904540  0.651378  0.625037  1
  O  O23  1  0.103777  0.337406  0.377746  1
  O  O24  1  0.032505  0.546277  0.190855  1
  O  O25  1  0.970264  0.455355  0.816921  1
  O  O26  1  0.996160  0.752377  0.999601  1
  O  O27  1  0.998961  0.247988  0.001365  1
  O  O28  1  0.560342  0.598538  0.386839  1
  O  O29  1  0.426874  0.389284  0.612608  1
  O  O30  1  0.092882  0.044959  0.182471  1
  O  O31  1  0.906550  0.954415  0.812801  1
  O  O32  1  0.522234  0.094839  0.389644  1
  O  O33  1  0.455723  0.919035  0.609942  1
