# generated using pymatgen
data_Ho3AlGa2Ge2Ir
_symmetry_space_group_name_H-M   'P 1'
_cell_length_a   7.00351193
_cell_length_b   6.94059201
_cell_length_c   4.19511700
_cell_angle_alpha   90.00000000
_cell_angle_beta   90.00000000
_cell_angle_gamma   119.70325715
_symmetry_Int_Tables_number   1
_chemical_formula_structural   Ho3AlGa2Ge2Ir
_chemical_formula_sum   'Ho3 Al1 Ga2 Ge2 Ir1'
_cell_volume   177.12422575
_cell_formula_units_Z   1
loop_
 _symmetry_equiv_pos_site_id
 _symmetry_equiv_pos_as_xyz
  1  'x, y, z'
loop_
 _atom_site_type_symbol
 _atom_site_label
 _atom_site_symmetry_multiplicity
 _atom_site_fract_x
 _atom_site_fract_y
 _atom_site_fract_z
 _atom_site_occupancy
  Ho  Ho0  1  0.412590  0.002344  0.000000  1
  Ho  Ho1  1  0.000000  0.410030  0.000000  1
  Ho  Ho2  1  0.587410  0.589754  0.000000  1
  Al  Al3  1  0.000000  0.771756  0.500000  1
  Ga  Ga4  1  0.766480  0.998150  0.500000  1
  Ga  Ga5  1  0.233521  0.231671  0.500000  1
  Ge  Ge6  1  0.670015  0.336846  0.500000  1
  Ge  Ge7  1  0.329984  0.666831  0.500000  1
  Ir  Ir8  1  0.000000  0.992618  0.000000  1
