# generated using pymatgen
data_Ti8Nb2Sn6As
_symmetry_space_group_name_H-M   'P 1'
_cell_length_a   8.19331400
_cell_length_b   8.19331394
_cell_length_c   5.54929500
_cell_angle_alpha   90.00000000
_cell_angle_beta   90.00000000
_cell_angle_gamma   120.00000023
_symmetry_Int_Tables_number   1
_chemical_formula_structural   Ti8Nb2Sn6As
_chemical_formula_sum   'Ti8 Nb2 Sn6 As1'
_cell_volume   322.61728963
_cell_formula_units_Z   1
loop_
 _symmetry_equiv_pos_site_id
 _symmetry_equiv_pos_as_xyz
  1  'x, y, z'
loop_
 _atom_site_type_symbol
 _atom_site_label
 _atom_site_symmetry_multiplicity
 _atom_site_fract_x
 _atom_site_fract_y
 _atom_site_fract_z
 _atom_site_occupancy
  Ti  Ti0  1  0.333333  0.666667  0.000000  1
  Ti  Ti1  1  0.666667  0.333333  0.000000  1
  Ti  Ti2  1  0.743167  0.743167  0.240750  1
  Ti  Ti3  1  0.256833  0.000000  0.240750  1
  Ti  Ti4  1  0.000000  0.256833  0.240750  1
  Ti  Ti5  1  0.256833  0.256833  0.759250  1
  Ti  Ti6  1  0.743167  0.000000  0.759250  1
  Ti  Ti7  1  0.000000  0.743167  0.759250  1
  Nb  Nb8  1  0.666667  0.333333  0.500000  1
  Nb  Nb9  1  0.333333  0.666667  0.500000  1
  Sn  Sn10  1  0.390217  0.390217  0.247002  1
  Sn  Sn11  1  0.609783  0.000000  0.247002  1
  Sn  Sn12  1  0.000000  0.609783  0.247002  1
  Sn  Sn13  1  0.609783  0.609783  0.752998  1
  Sn  Sn14  1  0.390217  0.000000  0.752998  1
  Sn  Sn15  1  0.000000  0.390217  0.752998  1
  As  As16  1  0.000000  0.000000  0.500000  1
