# generated using pymatgen
data_Ce2TmHf3F22
_symmetry_space_group_name_H-M   'P 1'
_cell_length_a   8.43090400
_cell_length_b   8.43090466
_cell_length_c   8.44563763
_cell_angle_alpha   124.65659208
_cell_angle_beta   106.53281594
_cell_angle_gamma   98.35395620
_symmetry_Int_Tables_number   1
_chemical_formula_structural   Ce2TmHf3F22
_chemical_formula_sum   'Ce2 Tm1 Hf3 F22'
_cell_volume   436.01521039
_cell_formula_units_Z   1
loop_
 _symmetry_equiv_pos_site_id
 _symmetry_equiv_pos_as_xyz
  1  'x, y, z'
loop_
 _atom_site_type_symbol
 _atom_site_label
 _atom_site_symmetry_multiplicity
 _atom_site_fract_x
 _atom_site_fract_y
 _atom_site_fract_z
 _atom_site_occupancy
  Ce  Ce0  1  0.749200  0.248905  0.498376  1
  Ce  Ce1  1  0.249471  0.749176  0.498376  1
  Tm  Tm2  1  0.680522  0.635088  0.315609  1
  Hf  Hf3  1  0.318890  0.365525  0.684415  1
  Hf  Hf4  1  0.180066  0.866348  0.046415  1
  Hf  Hf5  1  0.818211  0.134838  0.953048  1
  F  F6  1  0.707507  0.915495  0.347327  1
  F  F7  1  0.293316  0.101173  0.653119  1
  F  F8  1  0.551945  0.359803  0.653119  1
  F  F9  1  0.947304  0.605566  0.813317  1
  F  F10  1  0.431832  0.639820  0.347327  1
  F  F11  1  0.055489  0.391911  0.185953  1
  F  F12  1  0.794041  0.130464  0.185953  1
  F  F13  1  0.207751  0.866013  0.813317  1
  F  F14  1  0.492065  0.494302  0.986367  1
  F  F15  1  0.003021  0.001503  0.004524  1
  F  F16  1  0.782862  0.879044  0.661907  1
  F  F17  1  0.221003  0.129492  0.350494  1
  F  F18  1  0.277379  0.630162  0.907541  1
  F  F19  1  0.721097  0.361323  0.082419  1
  F  F20  1  0.970573  0.739847  0.423078  1
  F  F21  1  0.048338  0.263691  0.583872  1
  F  F22  1  0.320181  0.535534  0.583872  1
  F  F23  1  0.176267  0.762027  0.212311  1
  F  F24  1  0.683229  0.452504  0.423078  1
  F  F25  1  0.823451  0.241573  0.786279  1
  F  F26  1  0.544706  0.962828  0.786279  1
  F  F27  1  0.450285  0.036044  0.212311  1
