# generated using pymatgen
data_PuNiO4
_symmetry_space_group_name_H-M   'P 1'
_cell_length_a   5.00687805
_cell_length_b   10.28205409
_cell_length_c   6.02812449
_cell_angle_alpha   84.79629649
_cell_angle_beta   89.99112943
_cell_angle_gamma   89.98340875
_symmetry_Int_Tables_number   1
_chemical_formula_structural   PuNiO4
_chemical_formula_sum   'Pu4 Ni4 O16'
_cell_volume   309.05477770
_cell_formula_units_Z   4
loop_
 _symmetry_equiv_pos_site_id
 _symmetry_equiv_pos_as_xyz
  1  'x, y, z'
loop_
 _atom_site_type_symbol
 _atom_site_label
 _atom_site_symmetry_multiplicity
 _atom_site_fract_x
 _atom_site_fract_y
 _atom_site_fract_z
 _atom_site_occupancy
  Pu  Pu0  1  0.000025  0.374940  0.375068  1
  Pu  Pu1  1  0.999925  0.875022  0.874915  1
  Pu  Pu2  1  0.500083  0.374960  0.875071  1
  Pu  Pu3  1  0.499968  0.875019  0.374912  1
  Ni  Ni4  1  0.502545  0.625035  0.124269  1
  Ni  Ni5  1  0.002870  0.124905  0.125599  1
  Ni  Ni6  1  0.497259  0.124919  0.625790  1
  Ni  Ni7  1  0.997323  0.625059  0.624443  1
  O  O8  1  0.812107  0.211470  0.402119  1
  O  O9  1  0.810080  0.710373  0.901651  1
  O  O10  1  0.688085  0.211430  0.902144  1
  O  O11  1  0.689682  0.710311  0.401671  1
  O  O12  1  0.310255  0.039696  0.348180  1
  O  O13  1  0.311965  0.538631  0.847947  1
  O  O14  1  0.189828  0.039714  0.848169  1
  O  O15  1  0.188012  0.538500  0.348013  1
  O  O16  1  0.305112  0.294726  0.609504  1
  O  O17  1  0.305001  0.794417  0.108144  1
  O  O18  1  0.195063  0.294751  0.109397  1
  O  O19  1  0.194833  0.794460  0.608119  1
  O  O20  1  0.805048  0.455239  0.640755  1
  O  O21  1  0.805133  0.955566  0.141751  1
  O  O22  1  0.694966  0.455277  0.140645  1
  O  O23  1  0.694828  0.955578  0.641722  1
