# generated using pymatgen
data_Dy2B3Ru4C
_symmetry_space_group_name_H-M   'P 1'
_cell_length_a   6.61449608
_cell_length_b   5.81891352
_cell_length_c   5.52759404
_cell_angle_alpha   71.26452568
_cell_angle_beta   57.74246622
_cell_angle_gamma   52.31630814
_symmetry_Int_Tables_number   1
_chemical_formula_structural   Dy2B3Ru4C
_chemical_formula_sum   'Dy2 B3 Ru4 C1'
_cell_volume   142.38086987
_cell_formula_units_Z   1
loop_
 _symmetry_equiv_pos_site_id
 _symmetry_equiv_pos_as_xyz
  1  'x, y, z'
loop_
 _atom_site_type_symbol
 _atom_site_label
 _atom_site_symmetry_multiplicity
 _atom_site_fract_x
 _atom_site_fract_y
 _atom_site_fract_z
 _atom_site_occupancy
  Dy  Dy0  1  0.999035  0.000965  0.999035  1
  Dy  Dy1  1  0.250441  0.249559  0.250441  1
  B  B2  1  0.312703  0.687297  0.312703  1
  B  B3  1  0.936246  0.563754  0.936246  1
  B  B4  1  0.560579  0.939421  0.560579  1
  Ru  Ru5  1  0.611472  0.607371  0.884272  1
  Ru  Ru6  1  0.644816  0.626256  0.362872  1
  Ru  Ru7  1  0.362872  0.366055  0.644816  1
  Ru  Ru8  1  0.884273  0.896885  0.611471  1
  C  C9  1  0.687565  0.312435  0.687565  1
