# generated using pymatgen
data_Pa(PS3)4
_symmetry_space_group_name_H-M   'P 1'
_cell_length_a   10.69225711
_cell_length_b   10.69192339
_cell_length_c   10.69231108
_cell_angle_alpha   102.35640279
_cell_angle_beta   102.35989268
_cell_angle_gamma   124.88800392
_symmetry_Int_Tables_number   1
_chemical_formula_structural   Pa(PS3)4
_chemical_formula_sum   'Pa2 P8 S24'
_cell_volume   888.90897217
_cell_formula_units_Z   2
loop_
 _symmetry_equiv_pos_site_id
 _symmetry_equiv_pos_as_xyz
  1  'x, y, z'
loop_
 _atom_site_type_symbol
 _atom_site_label
 _atom_site_symmetry_multiplicity
 _atom_site_fract_x
 _atom_site_fract_y
 _atom_site_fract_z
 _atom_site_occupancy
  Pa  Pa0  1  0.500002  0.500001  0.000004  1
  Pa  Pa1  1  0.749998  0.249999  0.499996  1
  P  P2  1  0.939834  0.761740  0.189991  1
  P  P3  1  0.571754  0.749853  0.810001  1
  P  P4  1  0.999845  0.689842  0.678094  1
  P  P5  1  0.011745  0.321750  0.321903  1
  P  P6  1  0.310166  0.988260  0.310009  1
  P  P7  1  0.678246  0.000147  0.689999  1
  P  P8  1  0.250155  0.060158  0.821906  1
  P  P9  1  0.238255  0.428250  0.178097  1
  S  S10  1  0.986298  0.878591  0.765826  1
  S  S11  1  0.112755  0.220464  0.234176  1
  S  S12  1  0.470467  0.736289  0.607708  1
  S  S13  1  0.128593  0.862761  0.392290  1
  S  S14  1  0.263702  0.871409  0.734174  1
  S  S15  1  0.137245  0.529536  0.265824  1
  S  S16  1  0.779533  0.013711  0.892292  1
  S  S17  1  0.121407  0.887239  0.107710  1
  S  S18  1  0.856146  0.554537  0.469711  1
  S  S19  1  0.084835  0.386444  0.530290  1
  S  S20  1  0.636438  0.606147  0.801622  1
  S  S21  1  0.804544  0.834835  0.198392  1
  S  S22  1  0.393854  0.195463  0.030289  1
  S  S23  1  0.165165  0.363556  0.969710  1
  S  S24  1  0.613562  0.143853  0.698378  1
  S  S25  1  0.445456  0.915165  0.301608  1
  S  S26  1  0.780084  0.510474  0.087260  1
  S  S27  1  0.423208  0.692821  0.912735  1
  S  S28  1  0.942822  0.530080  0.769612  1
  S  S29  1  0.760478  0.173217  0.230392  1
  S  S30  1  0.469916  0.239526  0.412740  1
  S  S31  1  0.826792  0.057179  0.587265  1
  S  S32  1  0.307178  0.219920  0.730388  1
  S  S33  1  0.489522  0.576783  0.269608  1
