# generated using pymatgen
data_Pr5Fe2BiO12
_symmetry_space_group_name_H-M   'P 1'
_cell_length_a   7.42521556
_cell_length_b   7.58408232
_cell_length_c   5.70463479
_cell_angle_alpha   90.60948181
_cell_angle_beta   90.01790770
_cell_angle_gamma   102.73027059
_symmetry_Int_Tables_number   1
_chemical_formula_structural   Pr5Fe2BiO12
_chemical_formula_sum   'Pr5 Fe2 Bi1 O12'
_cell_volume   313.33192619
_cell_formula_units_Z   1
loop_
 _symmetry_equiv_pos_site_id
 _symmetry_equiv_pos_as_xyz
  1  'x, y, z'
loop_
 _atom_site_type_symbol
 _atom_site_label
 _atom_site_symmetry_multiplicity
 _atom_site_fract_x
 _atom_site_fract_y
 _atom_site_fract_z
 _atom_site_occupancy
  Pr  Pr0  1  0.293064  0.087140  0.972312  1
  Pr  Pr1  1  0.608312  0.398036  0.433170  1
  Pr  Pr2  1  0.398534  0.608653  0.932149  1
  Pr  Pr3  1  0.709641  0.918121  0.475656  1
  Pr  Pr4  1  0.912566  0.699521  0.971115  1
  Fe  Fe5  1  0.807052  0.189522  0.009721  1
  Fe  Fe6  1  0.195867  0.807305  0.500923  1
  Bi  Bi7  1  0.094968  0.315940  0.471931  1
  O  O8  1  0.322489  0.360968  0.208129  1
  O  O9  1  0.351984  0.327786  0.706757  1
  O  O10  1  0.582396  0.110930  0.182925  1
  O  O11  1  0.111296  0.580039  0.659676  1
  O  O12  1  0.952194  0.029065  0.126492  1
  O  O13  1  0.774480  0.216694  0.682966  1
  O  O14  1  0.033757  0.934956  0.648915  1
  O  O15  1  0.218557  0.787730  0.168899  1
  O  O16  1  0.898521  0.414199  0.177058  1
  O  O17  1  0.414832  0.892574  0.680961  1
  O  O18  1  0.648755  0.672529  0.205565  1
  O  O19  1  0.670737  0.648291  0.702279  1
