# generated using pymatgen
data_Ac3Hg5Pd
_symmetry_space_group_name_H-M   'P 1'
_cell_length_a   8.44671200
_cell_length_b   8.44671185
_cell_length_c   4.18027500
_cell_angle_alpha   90.00000000
_cell_angle_beta   90.00000000
_cell_angle_gamma   120.00000736
_symmetry_Int_Tables_number   1
_chemical_formula_structural   Ac3Hg5Pd
_chemical_formula_sum   'Ac3 Hg5 Pd1'
_cell_volume   258.29191851
_cell_formula_units_Z   1
loop_
 _symmetry_equiv_pos_site_id
 _symmetry_equiv_pos_as_xyz
  1  'x, y, z'
loop_
 _atom_site_type_symbol
 _atom_site_label
 _atom_site_symmetry_multiplicity
 _atom_site_fract_x
 _atom_site_fract_y
 _atom_site_fract_z
 _atom_site_occupancy
  Ac  Ac0  1  0.393674  0.412683  0.500000  1
  Ac  Ac1  1  0.587317  0.980990  0.500000  1
  Ac  Ac2  1  0.019010  0.606326  0.500000  1
  Hg  Hg3  1  0.666667  0.333333  0.000000  1
  Hg  Hg4  1  0.000000  0.000000  0.500000  1
  Hg  Hg5  1  0.722510  0.728294  0.000000  1
  Hg  Hg6  1  0.271706  0.994217  0.000000  1
  Hg  Hg7  1  0.005783  0.277490  0.000000  1
  Pd  Pd8  1  0.333333  0.666667  0.000000  1
