# generated using pymatgen
data_Pr16Cd2Hg2Ir3Pt
_symmetry_space_group_name_H-M   'P 1'
_cell_length_a   10.02690000
_cell_length_b   10.02689995
_cell_length_c   10.03605645
_cell_angle_alpha   60.15852349
_cell_angle_beta   60.15852263
_cell_angle_gamma   60.22239668
_symmetry_Int_Tables_number   1
_chemical_formula_structural   Pr16Cd2Hg2Ir3Pt
_chemical_formula_sum   'Pr16 Cd2 Hg2 Ir3 Pt1'
_cell_volume   716.38427532
_cell_formula_units_Z   1
loop_
 _symmetry_equiv_pos_site_id
 _symmetry_equiv_pos_as_xyz
  1  'x, y, z'
loop_
 _atom_site_type_symbol
 _atom_site_label
 _atom_site_symmetry_multiplicity
 _atom_site_fract_x
 _atom_site_fract_y
 _atom_site_fract_z
 _atom_site_occupancy
  Pr  Pr0  1  0.347581  0.347581  0.347261  1
  Pr  Pr1  1  0.351745  0.351745  0.950713  1
  Pr  Pr2  1  0.352261  0.949035  0.352086  1
  Pr  Pr3  1  0.949035  0.352261  0.352086  1
  Pr  Pr4  1  0.805369  0.190449  0.191330  1
  Pr  Pr5  1  0.188579  0.808884  0.809374  1
  Pr  Pr6  1  0.190449  0.805369  0.191330  1
  Pr  Pr7  1  0.808884  0.188579  0.809374  1
  Pr  Pr8  1  0.189903  0.189903  0.806500  1
  Pr  Pr9  1  0.808036  0.808036  0.190168  1
  Pr  Pr10  1  0.939819  0.561307  0.562118  1
  Pr  Pr11  1  0.561575  0.938498  0.939071  1
  Pr  Pr12  1  0.561307  0.939819  0.562118  1
  Pr  Pr13  1  0.938498  0.561575  0.939071  1
  Pr  Pr14  1  0.561451  0.561451  0.940498  1
  Pr  Pr15  1  0.938328  0.938328  0.562193  1
  Cd  Cd16  1  0.578886  0.261569  0.579731  1
  Cd  Cd17  1  0.261569  0.578886  0.579731  1
  Hg  Hg18  1  0.583055  0.583055  0.585257  1
  Hg  Hg19  1  0.583276  0.583276  0.248396  1
  Ir  Ir20  1  0.141996  0.141996  0.574111  1
  Ir  Ir21  1  0.141894  0.573984  0.142292  1
  Ir  Ir22  1  0.573984  0.141894  0.142292  1
  Pt  Pt23  1  0.142519  0.142519  0.142897  1
