# generated using pymatgen
data_La7Pd2Ru
_symmetry_space_group_name_H-M   'P 1'
_cell_length_a   10.38660000
_cell_length_b   10.28461329
_cell_length_c   6.59903225
_cell_angle_alpha   90.06065847
_cell_angle_beta   90.00000000
_cell_angle_gamma   120.32857235
_symmetry_Int_Tables_number   1
_chemical_formula_structural   La7Pd2Ru
_chemical_formula_sum   'La14 Pd4 Ru2'
_cell_volume   608.44941130
_cell_formula_units_Z   2
loop_
 _symmetry_equiv_pos_site_id
 _symmetry_equiv_pos_as_xyz
  1  'x, y, z'
loop_
 _atom_site_type_symbol
 _atom_site_label
 _atom_site_symmetry_multiplicity
 _atom_site_fract_x
 _atom_site_fract_y
 _atom_site_fract_z
 _atom_site_occupancy
  La  La0  1  0.333530  0.667060  0.451413  1
  La  La1  1  0.663984  0.327968  0.969378  1
  La  La2  1  0.135868  0.888169  0.240651  1
  La  La3  1  0.752301  0.888169  0.240651  1
  La  La4  1  0.122484  0.244967  0.240395  1
  La  La5  1  0.872381  0.127229  0.755413  1
  La  La6  1  0.254848  0.127229  0.755413  1
  La  La7  1  0.873099  0.746198  0.741661  1
  La  La8  1  0.530600  0.451380  0.435257  1
  La  La9  1  0.920780  0.451380  0.435257  1
  La  La10  1  0.541782  0.083565  0.431890  1
  La  La11  1  0.462103  0.533584  0.946132  1
  La  La12  1  0.071481  0.533584  0.946132  1
  La  La13  1  0.464380  0.928760  0.941122  1
  Pd  Pd14  1  0.814073  0.628146  0.191300  1
  Pd  Pd15  1  0.186870  0.809119  0.692061  1
  Pd  Pd16  1  0.622250  0.809119  0.692061  1
  Pd  Pd17  1  0.189251  0.378500  0.690938  1
  Ru  Ru18  1  0.814584  0.187938  0.194333  1
  Ru  Ru19  1  0.373352  0.187938  0.194333  1
