# generated using pymatgen
data_Tm8Ta9Ge16Mo3
_symmetry_space_group_name_H-M   'P 1'
_cell_length_a   6.89960002
_cell_length_b   7.10561102
_cell_length_c   13.44878800
_cell_angle_alpha   90.00000000
_cell_angle_beta   90.00000000
_cell_angle_gamma   90.00859941
_symmetry_Int_Tables_number   1
_chemical_formula_structural   Tm8Ta9Ge16Mo3
_chemical_formula_sum   'Tm8 Ta9 Ge16 Mo3'
_cell_volume   659.33857760
_cell_formula_units_Z   1
loop_
 _symmetry_equiv_pos_site_id
 _symmetry_equiv_pos_as_xyz
  1  'x, y, z'
loop_
 _atom_site_type_symbol
 _atom_site_label
 _atom_site_symmetry_multiplicity
 _atom_site_fract_x
 _atom_site_fract_y
 _atom_site_fract_z
 _atom_site_occupancy
  Tm  Tm0  1  0.493599  0.674795  0.592856  1
  Tm  Tm1  1  0.993393  0.825077  0.907042  1
  Tm  Tm2  1  0.506386  0.325361  0.093305  1
  Tm  Tm3  1  0.006087  0.174785  0.406871  1
  Tm  Tm4  1  0.506386  0.325361  0.406695  1
  Tm  Tm5  1  0.006087  0.174785  0.093129  1
  Tm  Tm6  1  0.493599  0.674795  0.907144  1
  Tm  Tm7  1  0.993393  0.825077  0.592958  1
  Ta  Ta8  1  0.658891  0.165367  0.627446  1
  Ta  Ta9  1  0.158847  0.334367  0.873074  1
  Ta  Ta10  1  0.340764  0.833352  0.126015  1
  Ta  Ta11  1  0.841535  0.666095  0.373434  1
  Ta  Ta12  1  0.340764  0.833352  0.373985  1
  Ta  Ta13  1  0.841535  0.666095  0.126566  1
  Ta  Ta14  1  0.658891  0.165367  0.872554  1
  Ta  Ta15  1  0.158847  0.334367  0.626926  1
  Ta  Ta16  1  0.665590  0.986787  0.250000  1
  Ge  Ge17  1  0.678927  0.960577  0.457727  1
  Ge  Ge18  1  0.178512  0.540357  0.042519  1
  Ge  Ge19  1  0.321568  0.040736  0.957028  1
  Ge  Ge20  1  0.821771  0.458963  0.542942  1
  Ge  Ge21  1  0.321568  0.040736  0.542972  1
  Ge  Ge22  1  0.821771  0.458963  0.957058  1
  Ge  Ge23  1  0.678927  0.960577  0.042273  1
  Ge  Ge24  1  0.178512  0.540357  0.457481  1
  Ge  Ge25  1  0.462022  0.381990  0.750000  1
  Ge  Ge26  1  0.962823  0.117698  0.750000  1
  Ge  Ge27  1  0.535915  0.616590  0.250000  1
  Ge  Ge28  1  0.041270  0.881605  0.250000  1
  Ge  Ge29  1  0.691719  0.854875  0.750000  1
  Ge  Ge30  1  0.191907  0.644825  0.750000  1
  Ge  Ge31  1  0.306212  0.146508  0.250000  1
  Ge  Ge32  1  0.807776  0.357177  0.250000  1
  Mo  Mo33  1  0.834469  0.486894  0.750000  1
  Mo  Mo34  1  0.335099  0.012812  0.750000  1
  Mo  Mo35  1  0.164641  0.512572  0.250000  1
