# generated using pymatgen
data_HoErU2(InIr2)2
_symmetry_space_group_name_H-M   'P 1'
_cell_length_a   7.68868517
_cell_length_b   7.68868518
_cell_length_c   3.57007300
_cell_angle_alpha   90.00000000
_cell_angle_beta   90.00000000
_cell_angle_gamma   85.26866787
_symmetry_Int_Tables_number   1
_chemical_formula_structural   HoErU2(InIr2)2
_chemical_formula_sum   'Ho1 Er1 U2 In2 Ir4'
_cell_volume   210.32884501
_cell_formula_units_Z   1
loop_
 _symmetry_equiv_pos_site_id
 _symmetry_equiv_pos_as_xyz
  1  'x, y, z'
loop_
 _atom_site_type_symbol
 _atom_site_label
 _atom_site_symmetry_multiplicity
 _atom_site_fract_x
 _atom_site_fract_y
 _atom_site_fract_z
 _atom_site_occupancy
  Ho  Ho0  1  0.669338  0.169338  0.500000  1
  Er  Er1  1  0.330402  0.830402  0.500000  1
  U  U2  1  0.167806  0.332321  0.500000  1
  U  U3  1  0.832321  0.667806  0.500000  1
  In  In4  1  0.499811  0.500373  0.000000  1
  In  In5  1  0.000373  0.999811  0.000000  1
  Ir  Ir6  1  0.124687  0.624687  0.000000  1
  Ir  Ir7  1  0.875749  0.375749  0.000000  1
  Ir  Ir8  1  0.644985  0.854527  0.000000  1
  Ir  Ir9  1  0.354527  0.144985  0.000000  1
