# generated using pymatgen
data_Li2InTc3O8
_symmetry_space_group_name_H-M   'P 1'
_cell_length_a   5.78008100
_cell_length_b   5.80941606
_cell_length_c   10.44201100
_cell_angle_alpha   90.00000000
_cell_angle_beta   90.00000000
_cell_angle_gamma   120.19923366
_symmetry_Int_Tables_number   1
_chemical_formula_structural   Li2InTc3O8
_chemical_formula_sum   'Li4 In2 Tc6 O16'
_cell_volume   303.04406566
_cell_formula_units_Z   2
loop_
 _symmetry_equiv_pos_site_id
 _symmetry_equiv_pos_as_xyz
  1  'x, y, z'
loop_
 _atom_site_type_symbol
 _atom_site_label
 _atom_site_symmetry_multiplicity
 _atom_site_fract_x
 _atom_site_fract_y
 _atom_site_fract_z
 _atom_site_occupancy
  Li  Li0  1  0.334708  0.667293  0.889059  1
  Li  Li1  1  0.999894  0.999919  0.992448  1
  Li  Li2  1  0.000106  0.000081  0.492448  1
  Li  Li3  1  0.665292  0.332707  0.389059  1
  In  In4  1  0.333171  0.666583  0.498921  1
  In  In5  1  0.666829  0.333417  0.998921  1
  Tc  Tc6  1  0.186681  0.813000  0.213179  1
  Tc  Tc7  1  0.186683  0.373622  0.213179  1
  Tc  Tc8  1  0.626733  0.813334  0.213265  1
  Tc  Tc9  1  0.373267  0.186666  0.713265  1
  Tc  Tc10  1  0.813317  0.626378  0.713179  1
  Tc  Tc11  1  0.813319  0.187000  0.713179  1
  O  O12  1  0.155369  0.845501  0.605492  1
  O  O13  1  0.025404  0.512592  0.343218  1
  O  O14  1  0.332730  0.666358  0.078634  1
  O  O15  1  0.000697  0.000252  0.307397  1
  O  O16  1  0.999303  0.999748  0.807397  1
  O  O17  1  0.155399  0.309938  0.605604  1
  O  O18  1  0.487776  0.973819  0.343533  1
  O  O19  1  0.487651  0.513837  0.343567  1
  O  O20  1  0.310089  0.155053  0.106448  1
  O  O21  1  0.689911  0.844947  0.606448  1
  O  O22  1  0.512349  0.486163  0.843567  1
  O  O23  1  0.512224  0.026181  0.843533  1
  O  O24  1  0.667270  0.333642  0.578634  1
  O  O25  1  0.844601  0.690062  0.105604  1
  O  O26  1  0.974596  0.487408  0.843218  1
  O  O27  1  0.844631  0.154499  0.105492  1
