# generated using pymatgen
data_Tb12Pr8Si15Ir
_symmetry_space_group_name_H-M   'P 1'
_cell_length_a   7.53595032
_cell_length_b   7.84170033
_cell_length_c   14.98521100
_cell_angle_alpha   90.00000000
_cell_angle_beta   90.00000000
_cell_angle_gamma   90.45535303
_symmetry_Int_Tables_number   1
_chemical_formula_structural   Tb12Pr8Si15Ir
_chemical_formula_sum   'Tb12 Pr8 Si15 Ir1'
_cell_volume   885.51804462
_cell_formula_units_Z   1
loop_
 _symmetry_equiv_pos_site_id
 _symmetry_equiv_pos_as_xyz
  1  'x, y, z'
loop_
 _atom_site_type_symbol
 _atom_site_label
 _atom_site_symmetry_multiplicity
 _atom_site_fract_x
 _atom_site_fract_y
 _atom_site_fract_z
 _atom_site_occupancy
  Tb  Tb0  1  0.317234  0.176387  0.623959  1
  Tb  Tb1  1  0.679024  0.819071  0.377266  1
  Tb  Tb2  1  0.637017  0.978163  0.750000  1
  Tb  Tb3  1  0.177777  0.680950  0.376418  1
  Tb  Tb4  1  0.825021  0.319980  0.876394  1
  Tb  Tb5  1  0.825021  0.319980  0.623606  1
  Tb  Tb6  1  0.846176  0.488499  0.250000  1
  Tb  Tb7  1  0.346877  0.014542  0.250000  1
  Tb  Tb8  1  0.317234  0.176387  0.876041  1
  Tb  Tb9  1  0.177777  0.680950  0.123582  1
  Tb  Tb10  1  0.679024  0.819071  0.122734  1
  Tb  Tb11  1  0.163349  0.527554  0.750000  1
  Pr  Pr12  1  0.022801  0.180196  0.401883  1
  Pr  Pr13  1  0.522508  0.322134  0.401795  1
  Pr  Pr14  1  0.474928  0.680628  0.904507  1
  Pr  Pr15  1  0.474928  0.680628  0.595493  1
  Pr  Pr16  1  0.978146  0.821410  0.596409  1
  Pr  Pr17  1  0.978146  0.821410  0.903591  1
  Pr  Pr18  1  0.522508  0.322134  0.098205  1
  Pr  Pr19  1  0.022801  0.180196  0.098117  1
  Si  Si20  1  0.470614  0.611640  0.250000  1
  Si  Si21  1  0.025160  0.099520  0.750000  1
  Si  Si22  1  0.532851  0.387830  0.750000  1
  Si  Si23  1  0.146547  0.468377  0.537712  1
  Si  Si24  1  0.970816  0.890452  0.250000  1
  Si  Si25  1  0.730204  0.118826  0.250000  1
  Si  Si26  1  0.856346  0.528378  0.040038  1
  Si  Si27  1  0.356680  0.971795  0.040428  1
  Si  Si28  1  0.146547  0.468377  0.962288  1
  Si  Si29  1  0.645890  0.034616  0.537627  1
  Si  Si30  1  0.356680  0.971795  0.459572  1
  Si  Si31  1  0.856346  0.528378  0.459962  1
  Si  Si32  1  0.768795  0.614235  0.750000  1
  Si  Si33  1  0.230411  0.382882  0.250000  1
  Si  Si34  1  0.645890  0.034616  0.962373  1
  Ir  Ir35  1  0.271923  0.878014  0.750000  1
