# generated using pymatgen
data_Lu3Si2GeRh2
_symmetry_space_group_name_H-M   'P 1'
_cell_length_a   5.63823425
_cell_length_b   5.63823618
_cell_length_c   13.56579200
_cell_angle_alpha   90.00000000
_cell_angle_beta   90.00000000
_cell_angle_gamma   136.62838079
_symmetry_Int_Tables_number   1
_chemical_formula_structural   Lu3Si2GeRh2
_chemical_formula_sum   'Lu6 Si4 Ge2 Rh4'
_cell_volume   296.15289935
_cell_formula_units_Z   2
loop_
 _symmetry_equiv_pos_site_id
 _symmetry_equiv_pos_as_xyz
  1  'x, y, z'
loop_
 _atom_site_type_symbol
 _atom_site_label
 _atom_site_symmetry_multiplicity
 _atom_site_fract_x
 _atom_site_fract_y
 _atom_site_fract_z
 _atom_site_occupancy
  Lu  Lu0  1  0.646892  0.353108  0.250000  1
  Lu  Lu1  1  0.353108  0.646892  0.750000  1
  Lu  Lu2  1  0.922869  0.077131  0.112888  1
  Lu  Lu3  1  0.077131  0.922869  0.887112  1
  Lu  Lu4  1  0.077131  0.922869  0.612888  1
  Lu  Lu5  1  0.922869  0.077131  0.387112  1
  Si  Si6  1  0.607586  0.392414  0.038777  1
  Si  Si7  1  0.392414  0.607586  0.961223  1
  Si  Si8  1  0.392414  0.607586  0.538777  1
  Si  Si9  1  0.607586  0.392414  0.461223  1
  Ge  Ge10  1  0.344706  0.655294  0.250000  1
  Ge  Ge11  1  0.655294  0.344706  0.750000  1
  Rh  Rh12  1  0.789809  0.210191  0.580617  1
  Rh  Rh13  1  0.210191  0.789809  0.419383  1
  Rh  Rh14  1  0.210191  0.789809  0.080617  1
  Rh  Rh15  1  0.789809  0.210191  0.919383  1
