# generated using pymatgen
data_Nd4Mn4Co3CuO20
_symmetry_space_group_name_H-M   'P 1'
_cell_length_a   5.73912700
_cell_length_b   7.62568881
_cell_length_c   8.65832378
_cell_angle_alpha   90.40713893
_cell_angle_beta   90.00000000
_cell_angle_gamma   90.00000000
_symmetry_Int_Tables_number   1
_chemical_formula_structural   Nd4Mn4Co3CuO20
_chemical_formula_sum   'Nd4 Mn4 Co3 Cu1 O20'
_cell_volume   378.92021165
_cell_formula_units_Z   1
loop_
 _symmetry_equiv_pos_site_id
 _symmetry_equiv_pos_as_xyz
  1  'x, y, z'
loop_
 _atom_site_type_symbol
 _atom_site_label
 _atom_site_symmetry_multiplicity
 _atom_site_fract_x
 _atom_site_fract_y
 _atom_site_fract_z
 _atom_site_occupancy
  Nd  Nd0  1  0.000000  0.351987  0.671685  1
  Nd  Nd1  1  0.000000  0.647387  0.326076  1
  Nd  Nd2  1  0.000000  0.854839  0.826913  1
  Nd  Nd3  1  0.000000  0.144414  0.175228  1
  Mn  Mn4  1  0.259159  0.500736  0.998480  1
  Mn  Mn5  1  0.739665  0.997086  0.501284  1
  Mn  Mn6  1  0.740841  0.500736  0.998480  1
  Mn  Mn7  1  0.260335  0.997086  0.501284  1
  Co  Co8  1  0.500000  0.084417  0.853377  1
  Co  Co9  1  0.500000  0.913367  0.147909  1
  Co  Co10  1  0.500000  0.588512  0.647744  1
  Cu  Cu11  1  0.500000  0.434825  0.347458  1
  O  O12  1  0.249124  0.904364  0.289449  1
  O  O13  1  0.249772  0.092136  0.711895  1
  O  O14  1  0.749761  0.408857  0.209517  1
  O  O15  1  0.751841  0.592587  0.788332  1
  O  O16  1  0.750228  0.092136  0.711895  1
  O  O17  1  0.750876  0.904364  0.289449  1
  O  O18  1  0.248159  0.592587  0.788332  1
  O  O19  1  0.250239  0.408857  0.209517  1
  O  O20  1  0.500000  0.345224  0.938680  1
  O  O21  1  0.500000  0.658646  0.058146  1
  O  O22  1  0.500000  0.839443  0.563478  1
  O  O23  1  0.500000  0.147610  0.444423  1
  O  O24  1  0.279654  0.000865  0.001031  1
  O  O25  1  0.719456  0.501157  0.498622  1
  O  O26  1  0.720346  0.000865  0.001031  1
  O  O27  1  0.280544  0.501157  0.498622  1
  O  O28  1  0.000000  0.155464  0.450840  1
  O  O29  1  0.000000  0.838595  0.551565  1
  O  O30  1  0.000000  0.658561  0.049122  1
  O  O31  1  0.000000  0.341138  0.950137  1
