# generated using pymatgen
data_LiHf2(AsPd)3
_symmetry_space_group_name_H-M   'P 1'
_cell_length_a   6.78364000
_cell_length_b   6.87549161
_cell_length_c   3.77512500
_cell_angle_alpha   90.00000000
_cell_angle_beta   90.00000000
_cell_angle_gamma   119.55906345
_symmetry_Int_Tables_number   1
_chemical_formula_structural   LiHf2(AsPd)3
_chemical_formula_sum   'Li1 Hf2 As3 Pd3'
_cell_volume   153.15848568
_cell_formula_units_Z   1
loop_
 _symmetry_equiv_pos_site_id
 _symmetry_equiv_pos_as_xyz
  1  'x, y, z'
loop_
 _atom_site_type_symbol
 _atom_site_label
 _atom_site_symmetry_multiplicity
 _atom_site_fract_x
 _atom_site_fract_y
 _atom_site_fract_z
 _atom_site_occupancy
  Li  Li0  1  0.599622  0.000000  0.000000  1
  Hf  Hf1  1  0.996383  0.593859  0.000000  1
  Hf  Hf2  1  0.402525  0.406141  0.000000  1
  As  As3  1  0.325953  0.659723  0.500000  1
  As  As4  1  0.666231  0.340277  0.500000  1
  As  As5  1  0.006734  0.000000  0.000000  1
  Pd  Pd6  1  0.274592  0.000000  0.500000  1
  Pd  Pd7  1  0.990345  0.252730  0.500000  1
  Pd  Pd8  1  0.737615  0.747270  0.500000  1
