# generated using pymatgen
data_Tb7Lu3(In2Pt)4
_symmetry_space_group_name_H-M   'P 1'
_cell_length_a   3.63879900
_cell_length_b   8.15796123
_cell_length_c   18.17076169
_cell_angle_alpha   89.93737628
_cell_angle_beta   90.00000000
_cell_angle_gamma   90.00000000
_symmetry_Int_Tables_number   1
_chemical_formula_structural   Tb7Lu3(In2Pt)4
_chemical_formula_sum   'Tb7 Lu3 In8 Pt4'
_cell_volume   539.40203041
_cell_formula_units_Z   1
loop_
 _symmetry_equiv_pos_site_id
 _symmetry_equiv_pos_as_xyz
  1  'x, y, z'
loop_
 _atom_site_type_symbol
 _atom_site_label
 _atom_site_symmetry_multiplicity
 _atom_site_fract_x
 _atom_site_fract_y
 _atom_site_fract_z
 _atom_site_occupancy
  Tb  Tb0  1  0.000000  0.617888  0.084593  1
  Tb  Tb1  1  0.000000  0.242555  0.219518  1
  Tb  Tb2  1  0.000000  0.759225  0.781054  1
  Tb  Tb3  1  0.000000  0.258774  0.717748  1
  Tb  Tb4  1  0.000000  0.741261  0.282408  1
  Tb  Tb5  1  0.000000  0.999413  0.999267  1
  Tb  Tb6  1  0.000000  0.499862  0.500484  1
  Lu  Lu7  1  0.000000  0.116034  0.414052  1
  Lu  Lu8  1  0.000000  0.883309  0.586046  1
  Lu  Lu9  1  0.000000  0.383066  0.913080  1
  In  In10  1  0.500000  0.418272  0.351621  1
  In  In11  1  0.500000  0.582003  0.649611  1
  In  In12  1  0.500000  0.081181  0.849922  1
  In  In13  1  0.500000  0.923108  0.150393  1
  In  In14  1  0.500000  0.294321  0.064422  1
  In  In15  1  0.500000  0.702685  0.933562  1
  In  In16  1  0.500000  0.201390  0.563654  1
  In  In17  1  0.500000  0.797425  0.436626  1
  Pt  Pt18  1  0.500000  0.026159  0.306131  1
  Pt  Pt19  1  0.500000  0.974059  0.694005  1
  Pt  Pt20  1  0.500000  0.472951  0.804834  1
  Pt  Pt21  1  0.500000  0.525059  0.196968  1
