# generated using pymatgen
data_Zr10Bi3B2Pb3
_symmetry_space_group_name_H-M   'P 1'
_cell_length_a   8.71381600
_cell_length_b   8.71381648
_cell_length_c   5.90273700
_cell_angle_alpha   90.00000000
_cell_angle_beta   90.00000000
_cell_angle_gamma   120.00000576
_symmetry_Int_Tables_number   1
_chemical_formula_structural   Zr10Bi3B2Pb3
_chemical_formula_sum   'Zr10 Bi3 B2 Pb3'
_cell_volume   388.15111166
_cell_formula_units_Z   1
loop_
 _symmetry_equiv_pos_site_id
 _symmetry_equiv_pos_as_xyz
  1  'x, y, z'
loop_
 _atom_site_type_symbol
 _atom_site_label
 _atom_site_symmetry_multiplicity
 _atom_site_fract_x
 _atom_site_fract_y
 _atom_site_fract_z
 _atom_site_occupancy
  Zr  Zr0  1  0.666667  0.333333  0.498562  1
  Zr  Zr1  1  0.333333  0.666667  0.498562  1
  Zr  Zr2  1  0.333333  0.666667  0.001438  1
  Zr  Zr3  1  0.666667  0.333333  0.001438  1
  Zr  Zr4  1  0.774218  0.774218  0.250000  1
  Zr  Zr5  1  0.225782  0.000000  0.250000  1
  Zr  Zr6  1  0.000000  0.225782  0.250000  1
  Zr  Zr7  1  0.223714  0.223714  0.750000  1
  Zr  Zr8  1  0.776286  0.000000  0.750000  1
  Zr  Zr9  1  0.000000  0.776286  0.750000  1
  Bi  Bi10  1  0.598744  0.598744  0.750000  1
  Bi  Bi11  1  0.401256  0.000000  0.750000  1
  Bi  Bi12  1  0.000000  0.401256  0.750000  1
  B  B13  1  0.000000  0.000000  0.498704  1
  B  B14  1  0.000000  0.000000  0.001296  1
  Pb  Pb15  1  0.398458  0.398458  0.250000  1
  Pb  Pb16  1  0.601542  0.000000  0.250000  1
  Pb  Pb17  1  0.000000  0.601542  0.250000  1
