# generated using pymatgen
data_CaNd6CoI12
_symmetry_space_group_name_H-M   'P 1'
_cell_length_a   9.98077116
_cell_length_b   9.98077191
_cell_length_c   9.98077289
_cell_angle_alpha   106.88368756
_cell_angle_beta   106.88367595
_cell_angle_gamma   106.88368353
_symmetry_Int_Tables_number   1
_chemical_formula_structural   CaNd6CoI12
_chemical_formula_sum   'Ca1 Nd6 Co1 I12'
_cell_volume   830.62811848
_cell_formula_units_Z   1
loop_
 _symmetry_equiv_pos_site_id
 _symmetry_equiv_pos_as_xyz
  1  'x, y, z'
loop_
 _atom_site_type_symbol
 _atom_site_label
 _atom_site_symmetry_multiplicity
 _atom_site_fract_x
 _atom_site_fract_y
 _atom_site_fract_z
 _atom_site_occupancy
  Ca  Ca0  1  0.996895  0.996895  0.996895  1
  Nd  Nd1  1  0.521415  0.595725  0.797102  1
  Nd  Nd2  1  0.797102  0.521415  0.595725  1
  Nd  Nd3  1  0.595725  0.797102  0.521415  1
  Nd  Nd4  1  0.476729  0.402291  0.201236  1
  Nd  Nd5  1  0.201236  0.476729  0.402291  1
  Nd  Nd6  1  0.402291  0.201236  0.476729  1
  Co  Co7  1  0.499219  0.499219  0.499219  1
  I  I8  1  0.273241  0.821430  0.426791  1
  I  I9  1  0.426791  0.273241  0.821430  1
  I  I10  1  0.821430  0.426791  0.273241  1
  I  I11  1  0.724993  0.177028  0.571534  1
  I  I12  1  0.571534  0.724993  0.177028  1
  I  I13  1  0.177028  0.571534  0.724993  1
  I  I14  1  0.039215  0.118990  0.341707  1
  I  I15  1  0.341707  0.039215  0.118990  1
  I  I16  1  0.118990  0.341707  0.039215  1
  I  I17  1  0.958374  0.878211  0.653247  1
  I  I18  1  0.653247  0.958374  0.878211  1
  I  I19  1  0.878211  0.653247  0.958374  1
