# generated using pymatgen
data_Al3Zn3(Pd3Pt2)2
_symmetry_space_group_name_H-M   'P 1'
_cell_length_a   4.07419200
_cell_length_b   5.46843133
_cell_length_c   10.63729031
_cell_angle_alpha   89.57703300
_cell_angle_beta   90.00000000
_cell_angle_gamma   90.00000000
_symmetry_Int_Tables_number   1
_chemical_formula_structural   Al3Zn3(Pd3Pt2)2
_chemical_formula_sum   'Al3 Zn3 Pd6 Pt4'
_cell_volume   236.98640484
_cell_formula_units_Z   1
loop_
 _symmetry_equiv_pos_site_id
 _symmetry_equiv_pos_as_xyz
  1  'x, y, z'
loop_
 _atom_site_type_symbol
 _atom_site_label
 _atom_site_symmetry_multiplicity
 _atom_site_fract_x
 _atom_site_fract_y
 _atom_site_fract_z
 _atom_site_occupancy
  Al  Al0  1  0.000000  0.990597  0.002680  1
  Al  Al1  1  0.000000  0.498245  0.499417  1
  Al  Al2  1  0.500000  0.340152  0.857950  1
  Zn  Zn3  1  0.500000  0.165448  0.359175  1
  Zn  Zn4  1  0.500000  0.835778  0.637919  1
  Zn  Zn5  1  0.500000  0.665855  0.141854  1
  Pd  Pd6  1  0.000000  0.001956  0.501140  1
  Pd  Pd7  1  0.000000  0.492782  0.996326  1
  Pd  Pd8  1  0.000000  0.910105  0.236295  1
  Pd  Pd9  1  0.000000  0.097026  0.769154  1
  Pd  Pd10  1  0.000000  0.408620  0.263379  1
  Pd  Pd11  1  0.000000  0.594995  0.735371  1
  Pt  Pt12  1  0.500000  0.185705  0.102530  1
  Pt  Pt13  1  0.500000  0.812688  0.892314  1
  Pt  Pt14  1  0.500000  0.682963  0.393827  1
  Pt  Pt15  1  0.500000  0.317086  0.610669  1
