# generated using pymatgen
data_Be8MoOs2W
_symmetry_space_group_name_H-M   'P 1'
_cell_length_a   4.39588200
_cell_length_b   4.39588071
_cell_length_c   7.19801300
_cell_angle_alpha   90.00000000
_cell_angle_beta   90.00000000
_cell_angle_gamma   120.00000967
_symmetry_Int_Tables_number   1
_chemical_formula_structural   Be8MoOs2W
_chemical_formula_sum   'Be8 Mo1 Os2 W1'
_cell_volume   120.45785935
_cell_formula_units_Z   1
loop_
 _symmetry_equiv_pos_site_id
 _symmetry_equiv_pos_as_xyz
  1  'x, y, z'
loop_
 _atom_site_type_symbol
 _atom_site_label
 _atom_site_symmetry_multiplicity
 _atom_site_fract_x
 _atom_site_fract_y
 _atom_site_fract_z
 _atom_site_occupancy
  Be  Be0  1  0.000000  0.000000  0.504249  1
  Be  Be1  1  0.000000  0.000000  0.995472  1
  Be  Be2  1  0.831300  0.168700  0.250854  1
  Be  Be3  1  0.831300  0.662600  0.250854  1
  Be  Be4  1  0.337400  0.168700  0.250854  1
  Be  Be5  1  0.168441  0.831559  0.749050  1
  Be  Be6  1  0.168441  0.336881  0.749050  1
  Be  Be7  1  0.663119  0.831559  0.749050  1
  Mo  Mo8  1  0.333333  0.666667  0.435828  1
  Os  Os9  1  0.666667  0.333333  0.559807  1
  Os  Os10  1  0.666667  0.333333  0.941476  1
  W  W11  1  0.333333  0.666667  0.063454  1
