# generated using pymatgen
data_TmNb6SnSe12
_symmetry_space_group_name_H-M   'P 1'
_cell_length_a   6.09827300
_cell_length_b   6.09827209
_cell_length_c   14.66075700
_cell_angle_alpha   90.00000000
_cell_angle_beta   90.00000000
_cell_angle_gamma   120.00001035
_symmetry_Int_Tables_number   1
_chemical_formula_structural   TmNb6SnSe12
_chemical_formula_sum   'Tm1 Nb6 Sn1 Se12'
_cell_volume   472.17244833
_cell_formula_units_Z   1
loop_
 _symmetry_equiv_pos_site_id
 _symmetry_equiv_pos_as_xyz
  1  'x, y, z'
loop_
 _atom_site_type_symbol
 _atom_site_label
 _atom_site_symmetry_multiplicity
 _atom_site_fract_x
 _atom_site_fract_y
 _atom_site_fract_z
 _atom_site_occupancy
  Tm  Tm0  1  0.000000  0.000000  0.500000  1
  Nb  Nb1  1  0.333333  0.666667  0.256744  1
  Nb  Nb2  1  0.666667  0.333333  0.743256  1
  Nb  Nb3  1  0.666667  0.333333  0.256744  1
  Nb  Nb4  1  0.333333  0.666667  0.743256  1
  Nb  Nb5  1  0.000000  0.000000  0.257331  1
  Nb  Nb6  1  0.000000  0.000000  0.742669  1
  Sn  Sn7  1  0.000000  0.000000  0.000000  1
  Se  Se8  1  0.337201  0.000000  0.143601  1
  Se  Se9  1  0.000000  0.337201  0.143601  1
  Se  Se10  1  0.662799  0.662799  0.143601  1
  Se  Se11  1  0.339154  0.339154  0.628867  1
  Se  Se12  1  0.660846  0.660846  0.371133  1
  Se  Se13  1  0.660846  0.000000  0.628867  1
  Se  Se14  1  0.000000  0.660846  0.628867  1
  Se  Se15  1  0.000000  0.662799  0.856399  1
  Se  Se16  1  0.337201  0.337201  0.856399  1
  Se  Se17  1  0.000000  0.339154  0.371133  1
  Se  Se18  1  0.339154  0.000000  0.371133  1
  Se  Se19  1  0.662799  0.000000  0.856399  1
