# generated using pymatgen
data_Dy17(ErBi4)3
_symmetry_space_group_name_H-M   'P 1'
_cell_length_a   8.26631415
_cell_length_b   9.52378701
_cell_length_c   12.05347822
_cell_angle_alpha   89.99769488
_cell_angle_beta   90.02179081
_cell_angle_gamma   89.99681871
_symmetry_Int_Tables_number   1
_chemical_formula_structural   Dy17(ErBi4)3
_chemical_formula_sum   'Dy17 Er3 Bi12'
_cell_volume   948.92947216
_cell_formula_units_Z   1
loop_
 _symmetry_equiv_pos_site_id
 _symmetry_equiv_pos_as_xyz
  1  'x, y, z'
loop_
 _atom_site_type_symbol
 _atom_site_label
 _atom_site_symmetry_multiplicity
 _atom_site_fract_x
 _atom_site_fract_y
 _atom_site_fract_z
 _atom_site_occupancy
  Dy  Dy0  1  0.352500  0.749922  0.215207  1
  Dy  Dy1  1  0.852497  0.750000  0.284801  1
  Dy  Dy2  1  0.647288  0.249781  0.784857  1
  Dy  Dy3  1  0.147564  0.249928  0.715305  1
  Dy  Dy4  1  0.807436  0.436181  0.558454  1
  Dy  Dy5  1  0.307193  0.436045  0.941553  1
  Dy  Dy6  1  0.807281  0.063810  0.558478  1
  Dy  Dy7  1  0.692831  0.935976  0.058452  1
  Dy  Dy8  1  0.192721  0.564056  0.441559  1
  Dy  Dy9  1  0.475211  0.249950  0.488155  1
  Dy  Dy10  1  0.975446  0.250030  0.011766  1
  Dy  Dy11  1  0.524377  0.750009  0.511797  1
  Dy  Dy12  1  0.024494  0.749884  0.988253  1
  Dy  Dy13  1  0.312600  0.249941  0.218599  1
  Dy  Dy14  1  0.812589  0.249982  0.281322  1
  Dy  Dy15  1  0.687451  0.749929  0.781378  1
  Dy  Dy16  1  0.187394  0.750053  0.718615  1
  Er  Er17  1  0.692603  0.564284  0.058481  1
  Er  Er18  1  0.192640  0.935781  0.441516  1
  Er  Er19  1  0.307356  0.064245  0.941533  1
  Bi  Bi20  1  0.407395  0.750392  0.956797  1
  Bi  Bi21  1  0.907589  0.750185  0.543130  1
  Bi  Bi22  1  0.592606  0.250412  0.043244  1
  Bi  Bi23  1  0.092817  0.249431  0.456692  1
  Bi  Bi24  1  0.564660  0.995504  0.325204  1
  Bi  Bi25  1  0.064744  0.504444  0.174728  1
  Bi  Bi26  1  0.435221  0.495551  0.674854  1
  Bi  Bi27  1  0.935347  0.004417  0.825238  1
  Bi  Bi28  1  0.435174  0.004438  0.674817  1
  Bi  Bi29  1  0.935252  0.495517  0.825307  1
  Bi  Bi30  1  0.564853  0.504449  0.325135  1
  Bi  Bi31  1  0.064872  0.995473  0.174771  1
