# generated using pymatgen
data_Er2Si7(MoPt3)3
_symmetry_space_group_name_H-M   'P 1'
_cell_length_a   9.81401400
_cell_length_b   9.81401499
_cell_length_c   3.99354400
_cell_angle_alpha   90.00000000
_cell_angle_beta   90.00000000
_cell_angle_gamma   120.00000341
_symmetry_Int_Tables_number   1
_chemical_formula_structural   Er2Si7(MoPt3)3
_chemical_formula_sum   'Er2 Si7 Mo3 Pt9'
_cell_volume   333.10601931
_cell_formula_units_Z   1
loop_
 _symmetry_equiv_pos_site_id
 _symmetry_equiv_pos_as_xyz
  1  'x, y, z'
loop_
 _atom_site_type_symbol
 _atom_site_label
 _atom_site_symmetry_multiplicity
 _atom_site_fract_x
 _atom_site_fract_y
 _atom_site_fract_z
 _atom_site_occupancy
  Er  Er0  1  0.000000  0.000000  0.000000  1
  Er  Er1  1  0.333333  0.666667  0.500000  1
  Si  Si2  1  0.263353  0.219003  0.500000  1
  Si  Si3  1  0.780997  0.044353  0.500000  1
  Si  Si4  1  0.955647  0.736647  0.500000  1
  Si  Si5  1  0.552511  0.628540  0.000000  1
  Si  Si6  1  0.371460  0.923972  0.000000  1
  Si  Si7  1  0.076028  0.447489  0.000000  1
  Si  Si8  1  0.666667  0.333333  0.000000  1
  Mo  Mo9  1  0.879333  0.452017  0.500000  1
  Mo  Mo10  1  0.572685  0.120667  0.500000  1
  Mo  Mo11  1  0.547983  0.427315  0.500000  1
  Pt  Pt12  1  0.222298  0.945808  0.500000  1
  Pt  Pt13  1  0.054192  0.276491  0.500000  1
  Pt  Pt14  1  0.723509  0.777702  0.500000  1
  Pt  Pt15  1  0.300514  0.409080  0.000000  1
  Pt  Pt16  1  0.590920  0.891434  0.000000  1
  Pt  Pt17  1  0.108566  0.699486  0.000000  1
  Pt  Pt18  1  0.385422  0.175639  0.000000  1
  Pt  Pt19  1  0.824361  0.209784  0.000000  1
  Pt  Pt20  1  0.790216  0.614578  0.000000  1
