# generated using pymatgen
data_YTm4Lu5Pb6
_symmetry_space_group_name_H-M   'P 1'
_cell_length_a   6.48268803
_cell_length_b   8.93476306
_cell_length_c   8.93674609
_cell_angle_alpha   120.07983442
_cell_angle_beta   90.00847251
_cell_angle_gamma   89.99857136
_symmetry_Int_Tables_number   1
_chemical_formula_structural   YTm4Lu5Pb6
_chemical_formula_sum   'Y1 Tm4 Lu5 Pb6'
_cell_volume   447.91774750
_cell_formula_units_Z   1
loop_
 _symmetry_equiv_pos_site_id
 _symmetry_equiv_pos_as_xyz
  1  'x, y, z'
loop_
 _atom_site_type_symbol
 _atom_site_label
 _atom_site_symmetry_multiplicity
 _atom_site_fract_x
 _atom_site_fract_y
 _atom_site_fract_z
 _atom_site_occupancy
  Y  Y0  1  0.250098  0.237300  0.237433  1
  Tm  Tm1  1  0.750025  0.237368  0.999061  1
  Tm  Tm2  1  0.750143  0.763863  0.763454  1
  Tm  Tm3  1  0.750000  0.999683  0.238048  1
  Tm  Tm4  1  0.250027  0.762405  0.000050  1
  Lu  Lu5  1  0.250066  0.999761  0.762203  1
  Lu  Lu6  1  0.500150  0.333395  0.666711  1
  Lu  Lu7  1  0.500010  0.666737  0.333286  1
  Lu  Lu8  1  0.000040  0.666599  0.333377  1
  Lu  Lu9  1  0.999929  0.333688  0.666759  1
  Pb  Pb10  1  0.749757  0.605403  0.999550  1
  Pb  Pb11  1  0.749974  0.394281  0.393986  1
  Pb  Pb12  1  0.750242  0.999432  0.604876  1
  Pb  Pb13  1  0.249716  0.394140  0.998790  1
  Pb  Pb14  1  0.250547  0.606633  0.606738  1
  Pb  Pb15  1  0.249276  0.999311  0.395677  1
