# generated using pymatgen
data_Ga2Te2Br13Cl
_symmetry_space_group_name_H-M   'P 1'
_cell_length_a   6.94314419
_cell_length_b   7.31962231
_cell_length_c   16.22045000
_cell_angle_alpha   76.42396972
_cell_angle_beta   90.71074181
_cell_angle_gamma   90.31402211
_symmetry_Int_Tables_number   1
_chemical_formula_structural   Ga2Te2Br13Cl
_chemical_formula_sum   'Ga2 Te2 Br13 Cl1'
_cell_volume   801.24545254
_cell_formula_units_Z   1
loop_
 _symmetry_equiv_pos_site_id
 _symmetry_equiv_pos_as_xyz
  1  'x, y, z'
loop_
 _atom_site_type_symbol
 _atom_site_label
 _atom_site_symmetry_multiplicity
 _atom_site_fract_x
 _atom_site_fract_y
 _atom_site_fract_z
 _atom_site_occupancy
  Ga  Ga0  1  0.493982  0.718298  0.804250  1
  Ga  Ga1  1  0.509489  0.716218  0.309379  1
  Te  Te2  1  0.086738  0.991197  0.657032  1
  Te  Te3  1  0.913775  0.987194  0.159265  1
  Br  Br4  1  0.835051  0.704603  0.805598  1
  Br  Br5  1  0.167731  0.705911  0.307804  1
  Br  Br6  1  0.368016  0.507255  0.921416  1
  Br  Br7  1  0.629943  0.499769  0.427184  1
  Br  Br8  1  0.369831  0.654182  0.674737  1
  Br  Br9  1  0.626285  0.651173  0.180225  1
  Br  Br10  1  0.381174  0.029185  0.800693  1
  Br  Br11  1  0.633416  0.023910  0.306499  1
  Br  Br12  1  0.313684  0.191213  0.552710  1
  Br  Br13  1  0.684371  0.189601  0.055890  1
  Br  Br14  1  0.881471  0.263716  0.674990  1
  Br  Br15  1  0.130259  0.255982  0.175373  1
  Br  Br16  1  0.883545  0.887318  0.545618  1
  Cl  Cl17  1  0.091238  0.890671  0.053234  1
