# generated using pymatgen
data_Ba2Ni3P4W
_symmetry_space_group_name_H-M   'P 1'
_cell_length_a   5.58465841
_cell_length_b   6.86434136
_cell_length_c   5.59118650
_cell_angle_alpha   65.84098906
_cell_angle_beta   89.99774994
_cell_angle_gamma   89.99900190
_symmetry_Int_Tables_number   1
_chemical_formula_structural   Ba2Ni3P4W
_chemical_formula_sum   'Ba2 Ni3 P4 W1'
_cell_volume   195.56493891
_cell_formula_units_Z   1
loop_
 _symmetry_equiv_pos_site_id
 _symmetry_equiv_pos_as_xyz
  1  'x, y, z'
loop_
 _atom_site_type_symbol
 _atom_site_label
 _atom_site_symmetry_multiplicity
 _atom_site_fract_x
 _atom_site_fract_y
 _atom_site_fract_z
 _atom_site_occupancy
  Ba  Ba0  1  0.992618  0.000068  0.999976  1
  Ba  Ba1  1  0.507107  0.000045  0.499980  1
  Ni  Ni2  1  0.249509  0.499513  0.000216  1
  Ni  Ni3  1  0.750305  0.499695  0.000171  1
  Ni  Ni4  1  0.749846  0.500571  0.499741  1
  P  P5  1  0.503757  0.692583  0.148812  1
  P  P6  1  0.996354  0.692027  0.657643  1
  P  P7  1  0.996105  0.307998  0.342737  1
  P  P8  1  0.503951  0.307398  0.850773  1
  W  W9  1  0.250449  0.500099  0.499954  1
