# generated using pymatgen
data_Pr2Nd2Re5TcB12
_symmetry_space_group_name_H-M   'P 1'
_cell_length_a   6.32541758
_cell_length_b   6.32541642
_cell_length_c   7.64325614
_cell_angle_alpha   90.59716946
_cell_angle_beta   90.59717178
_cell_angle_gamma   114.62673118
_symmetry_Int_Tables_number   1
_chemical_formula_structural   Pr2Nd2Re5TcB12
_chemical_formula_sum   'Pr2 Nd2 Re5 Tc1 B12'
_cell_volume   277.94553034
_cell_formula_units_Z   1
loop_
 _symmetry_equiv_pos_site_id
 _symmetry_equiv_pos_as_xyz
  1  'x, y, z'
loop_
 _atom_site_type_symbol
 _atom_site_label
 _atom_site_symmetry_multiplicity
 _atom_site_fract_x
 _atom_site_fract_y
 _atom_site_fract_z
 _atom_site_occupancy
  Pr  Pr0  1  0.093469  0.441520  0.326290  1
  Pr  Pr1  1  0.558480  0.906531  0.173710  1
  Nd  Nd2  1  0.905597  0.558507  0.673952  1
  Nd  Nd3  1  0.441493  0.094403  0.826048  1
  Re  Re4  1  0.415911  0.584089  0.750000  1
  Re  Re5  1  0.989418  0.805388  0.087609  1
  Re  Re6  1  0.194612  0.010582  0.412391  1
  Re  Re7  1  0.010627  0.195283  0.911477  1
  Re  Re8  1  0.804717  0.989373  0.588523  1
  Tc  Tc9  1  0.583973  0.416027  0.250000  1
  B  B10  1  0.242350  0.153036  0.131966  1
  B  B11  1  0.846964  0.757650  0.368034  1
  B  B12  1  0.756945  0.846771  0.867536  1
  B  B13  1  0.153229  0.243055  0.632464  1
  B  B14  1  0.582922  0.156330  0.483180  1
  B  B15  1  0.843670  0.417078  0.016820  1
  B  B16  1  0.415162  0.841267  0.520851  1
  B  B17  1  0.158733  0.584838  0.979149  1
  B  B18  1  0.441423  0.349622  0.533164  1
  B  B19  1  0.650378  0.558577  0.966836  1
  B  B20  1  0.560091  0.650167  0.467167  1
  B  B21  1  0.349833  0.439909  0.032833  1
