# generated using pymatgen
data_TbDy2Nb3(B2Ru5)2
_symmetry_space_group_name_H-M   'P 1'
_cell_length_a   9.61915687
_cell_length_b   9.61875208
_cell_length_c   3.12884300
_cell_angle_alpha   90.00000000
_cell_angle_beta   90.00000000
_cell_angle_gamma   90.43756203
_symmetry_Int_Tables_number   1
_chemical_formula_structural   TbDy2Nb3(B2Ru5)2
_chemical_formula_sum   'Tb1 Dy2 Nb3 B4 Ru10'
_cell_volume   289.48552001
_cell_formula_units_Z   1
loop_
 _symmetry_equiv_pos_site_id
 _symmetry_equiv_pos_as_xyz
  1  'x, y, z'
loop_
 _atom_site_type_symbol
 _atom_site_label
 _atom_site_symmetry_multiplicity
 _atom_site_fract_x
 _atom_site_fract_y
 _atom_site_fract_z
 _atom_site_occupancy
  Tb  Tb0  1  0.824076  0.675027  0.000000  1
  Dy  Dy1  1  0.175153  0.324005  0.000000  1
  Dy  Dy2  1  0.325572  0.825598  0.000000  1
  Nb  Nb3  1  0.675867  0.175858  0.000000  1
  Nb  Nb4  1  0.497981  0.502642  0.000000  1
  Nb  Nb5  1  0.002808  0.998321  0.000000  1
  B  B6  1  0.623078  0.881514  0.000000  1
  B  B7  1  0.381258  0.123305  0.000000  1
  B  B8  1  0.119255  0.619000  0.000000  1
  B  B9  1  0.876101  0.375885  0.000000  1
  Ru  Ru10  1  0.570664  0.722594  0.500000  1
  Ru  Ru11  1  0.441008  0.280089  0.500000  1
  Ru  Ru12  1  0.069686  0.780284  0.500000  1
  Ru  Ru13  1  0.915593  0.213517  0.500000  1
  Ru  Ru14  1  0.280232  0.569307  0.500000  1
  Ru  Ru15  1  0.713448  0.415309  0.500000  1
  Ru  Ru16  1  0.222419  0.071105  0.500000  1
  Ru  Ru17  1  0.780001  0.941349  0.500000  1
  Ru  Ru18  1  0.509526  0.009661  0.500000  1
  Ru  Ru19  1  0.996271  0.495629  0.500000  1
