# generated using pymatgen
data_Ho2Er3RuRh
_symmetry_space_group_name_H-M   'P 1'
_cell_length_a   6.32259465
_cell_length_b   7.23945278
_cell_length_c   8.45357350
_cell_angle_alpha   96.76277843
_cell_angle_beta   111.96003600
_cell_angle_gamma   89.99999684
_symmetry_Int_Tables_number   1
_chemical_formula_structural   Ho2Er3RuRh
_chemical_formula_sum   'Ho4 Er6 Ru2 Rh2'
_cell_volume   355.95920538
_cell_formula_units_Z   2
loop_
 _symmetry_equiv_pos_site_id
 _symmetry_equiv_pos_as_xyz
  1  'x, y, z'
loop_
 _atom_site_type_symbol
 _atom_site_label
 _atom_site_symmetry_multiplicity
 _atom_site_fract_x
 _atom_site_fract_y
 _atom_site_fract_z
 _atom_site_occupancy
  Ho  Ho0  1  0.792909  0.582248  0.811806  1
  Ho  Ho1  1  0.981103  0.917752  0.188194  1
  Ho  Ho2  1  0.209245  0.414536  0.185621  1
  Ho  Ho3  1  0.023624  0.085464  0.814379  1
  Er  Er4  1  0.207033  0.684214  0.565382  1
  Er  Er5  1  0.641651  0.815786  0.434618  1
  Er  Er6  1  0.792652  0.312447  0.436927  1
  Er  Er7  1  0.355725  0.187553  0.563073  1
  Er  Er8  1  0.418894  0.750000  0.000000  1
  Er  Er9  1  0.578562  0.250000  0.000000  1
  Ru  Ru10  1  0.397520  0.075147  0.220573  1
  Ru  Ru11  1  0.176948  0.424853  0.779427  1
  Rh  Rh12  1  0.601330  0.923367  0.778527  1
  Rh  Rh13  1  0.822802  0.576633  0.221473  1
