# generated using pymatgen
data_Ce2Co2AgSn
_symmetry_space_group_name_H-M   'P 1'
_cell_length_a   6.17944669
_cell_length_b   6.17944650
_cell_length_c   4.74968060
_cell_angle_alpha   74.35561979
_cell_angle_beta   74.35562806
_cell_angle_gamma   44.26261355
_symmetry_Int_Tables_number   1
_chemical_formula_structural   Ce2Co2AgSn
_chemical_formula_sum   'Ce2 Co2 Ag1 Sn1'
_cell_volume   121.10363989
_cell_formula_units_Z   1
loop_
 _symmetry_equiv_pos_site_id
 _symmetry_equiv_pos_as_xyz
  1  'x, y, z'
loop_
 _atom_site_type_symbol
 _atom_site_label
 _atom_site_symmetry_multiplicity
 _atom_site_fract_x
 _atom_site_fract_y
 _atom_site_fract_z
 _atom_site_occupancy
  Ce  Ce0  1  0.867215  0.867215  0.336881  1
  Ce  Ce1  1  0.135899  0.135899  0.667674  1
  Co  Co2  1  0.191890  0.191890  0.173864  1
  Co  Co3  1  0.803254  0.803254  0.813089  1
  Ag  Ag4  1  0.421027  0.421027  0.812479  1
  Sn  Sn5  1  0.580716  0.580716  0.196012  1
