# generated using pymatgen
data_Tb8Lu4InCo4Pt
_symmetry_space_group_name_H-M   'P 1'
_cell_length_a   8.28750450
_cell_length_b   8.28750541
_cell_length_c   8.28750600
_cell_angle_alpha   111.25077590
_cell_angle_beta   110.22364338
_cell_angle_gamma   106.96957840
_symmetry_Int_Tables_number   1
_chemical_formula_structural   Tb8Lu4InCo4Pt
_chemical_formula_sum   'Tb8 Lu4 In1 Co4 Pt1'
_cell_volume   437.51708116
_cell_formula_units_Z   1
loop_
 _symmetry_equiv_pos_site_id
 _symmetry_equiv_pos_as_xyz
  1  'x, y, z'
loop_
 _atom_site_type_symbol
 _atom_site_label
 _atom_site_symmetry_multiplicity
 _atom_site_fract_x
 _atom_site_fract_y
 _atom_site_fract_z
 _atom_site_occupancy
  Tb  Tb0  1  0.417049  0.218170  0.198880  1
  Tb  Tb1  1  0.582951  0.781830  0.801120  1
  Tb  Tb2  1  0.019289  0.218170  0.801120  1
  Tb  Tb3  1  0.980711  0.781830  0.198880  1
  Tb  Tb4  1  0.185884  0.289201  0.475085  1
  Tb  Tb5  1  0.814116  0.710799  0.524915  1
  Tb  Tb6  1  0.185884  0.710799  0.896685  1
  Tb  Tb7  1  0.814116  0.289201  0.103315  1
  Lu  Lu8  1  0.317297  0.625259  0.307961  1
  Lu  Lu9  1  0.682703  0.374741  0.692039  1
  Lu  Lu10  1  0.317297  0.009336  0.692039  1
  Lu  Lu11  1  0.682703  0.990664  0.307961  1
  In  In12  1  0.500000  0.500000  0.000000  1
  Co  Co13  1  0.380217  0.000000  0.380217  1
  Co  Co14  1  0.619783  0.000000  0.619783  1
  Co  Co15  1  0.112745  0.612745  0.500000  1
  Co  Co16  1  0.887255  0.387255  0.500000  1
  Pt  Pt17  1  0.000000  0.000000  0.000000  1
