# generated using pymatgen
data_ScZn3(BiO3)8
_symmetry_space_group_name_H-M   'P 1'
_cell_length_a   4.96393604
_cell_length_b   9.92763895
_cell_length_c   10.01893600
_cell_angle_alpha   90.00001154
_cell_angle_beta   90.00000000
_cell_angle_gamma   90.03207117
_symmetry_Int_Tables_number   1
_chemical_formula_structural   ScZn3(BiO3)8
_chemical_formula_sum   'Sc1 Zn3 Bi8 O24'
_cell_volume   493.73473917
_cell_formula_units_Z   1
loop_
 _symmetry_equiv_pos_site_id
 _symmetry_equiv_pos_as_xyz
  1  'x, y, z'
loop_
 _atom_site_type_symbol
 _atom_site_label
 _atom_site_symmetry_multiplicity
 _atom_site_fract_x
 _atom_site_fract_y
 _atom_site_fract_z
 _atom_site_occupancy
  Sc  Sc0  1  0.500080  0.250049  0.500000  1
  Zn  Zn1  1  0.000276  0.500861  0.000000  1
  Zn  Zn2  1  0.499996  0.749997  0.500000  1
  Zn  Zn3  1  0.999716  0.999137  0.999999  1
  Bi  Bi4  1  0.999086  0.997221  0.331770  1
  Bi  Bi5  1  0.000919  0.502785  0.331772  1
  Bi  Bi6  1  0.999086  0.997221  0.668230  1
  Bi  Bi7  1  0.000919  0.502785  0.668228  1
  Bi  Bi8  1  0.499987  0.249995  0.164818  1
  Bi  Bi9  1  0.499998  0.749999  0.166740  1
  Bi  Bi10  1  0.499987  0.249995  0.835182  1
  Bi  Bi11  1  0.499998  0.749998  0.833260  1
  O  O12  1  0.195699  0.400970  0.500000  1
  O  O13  1  0.197111  0.902550  0.500000  1
  O  O14  1  0.300791  0.150318  0.000000  1
  O  O15  1  0.301775  0.650899  0.000000  1
  O  O16  1  0.699192  0.349680  0.000000  1
  O  O17  1  0.698226  0.849094  0.000000  1
  O  O18  1  0.804288  0.099026  0.500000  1
  O  O19  1  0.802876  0.597439  0.500000  1
  O  O20  1  0.191743  0.403367  0.165216  1
  O  O21  1  0.191534  0.904860  0.164166  1
  O  O22  1  0.191743  0.403367  0.834784  1
  O  O23  1  0.191534  0.904860  0.835834  1
  O  O24  1  0.308091  0.154201  0.336158  1
  O  O25  1  0.309760  0.654527  0.336466  1
  O  O26  1  0.308091  0.154201  0.663842  1
  O  O27  1  0.309760  0.654527  0.663535  1
  O  O28  1  0.691917  0.345809  0.336150  1
  O  O29  1  0.690250  0.845463  0.336465  1
  O  O30  1  0.691917  0.345809  0.663850  1
  O  O31  1  0.690251  0.845463  0.663535  1
  O  O32  1  0.808252  0.096632  0.165216  1
  O  O33  1  0.808449  0.595132  0.164165  1
  O  O34  1  0.808252  0.096631  0.834784  1
  O  O35  1  0.808450  0.595133  0.835835  1
