# generated using pymatgen
data_YEr19(Al3Ru)2
_symmetry_space_group_name_H-M   'P 1'
_cell_length_a   9.44033134
_cell_length_b   9.43592719
_cell_length_c   9.55378500
_cell_angle_alpha   90.00000000
_cell_angle_beta   90.00000000
_cell_angle_gamma   119.98456778
_symmetry_Int_Tables_number   1
_chemical_formula_structural   YEr19(Al3Ru)2
_chemical_formula_sum   'Y1 Er19 Al6 Ru2'
_cell_volume   737.13227715
_cell_formula_units_Z   1
loop_
 _symmetry_equiv_pos_site_id
 _symmetry_equiv_pos_as_xyz
  1  'x, y, z'
loop_
 _atom_site_type_symbol
 _atom_site_label
 _atom_site_symmetry_multiplicity
 _atom_site_fract_x
 _atom_site_fract_y
 _atom_site_fract_z
 _atom_site_occupancy
  Y  Y0  1  0.080436  0.540218  0.750000  1
  Er  Er1  1  0.999889  0.999944  0.499980  1
  Er  Er2  1  0.999889  0.999944  0.000020  1
  Er  Er3  1  0.207309  0.793404  0.439502  1
  Er  Er4  1  0.207309  0.413906  0.439502  1
  Er  Er5  1  0.585696  0.792848  0.439974  1
  Er  Er6  1  0.792369  0.206703  0.559749  1
  Er  Er7  1  0.792369  0.585665  0.559749  1
  Er  Er8  1  0.414264  0.207132  0.560007  1
  Er  Er9  1  0.792369  0.206703  0.940251  1
  Er  Er10  1  0.792369  0.585665  0.940251  1
  Er  Er11  1  0.414264  0.207132  0.939993  1
  Er  Er12  1  0.207309  0.793404  0.060498  1
  Er  Er13  1  0.207309  0.413906  0.060498  1
  Er  Er14  1  0.585696  0.792848  0.060026  1
  Er  Er15  1  0.540097  0.460114  0.250000  1
  Er  Er16  1  0.540097  0.079983  0.250000  1
  Er  Er17  1  0.919985  0.459993  0.250000  1
  Er  Er18  1  0.460630  0.539916  0.750000  1
  Er  Er19  1  0.460630  0.920714  0.750000  1
  Al  Al20  1  0.888910  0.111073  0.250000  1
  Al  Al21  1  0.888910  0.777838  0.250000  1
  Al  Al22  1  0.222215  0.111108  0.250000  1
  Al  Al23  1  0.111389  0.889672  0.750000  1
  Al  Al24  1  0.111389  0.221716  0.750000  1
  Al  Al25  1  0.777671  0.888835  0.750000  1
  Ru  Ru26  1  0.333299  0.666650  0.250000  1
  Ru  Ru27  1  0.665927  0.332963  0.750000  1
