# generated using pymatgen
data_YbSc3(B4Ru5)2
_symmetry_space_group_name_H-M   'P 1'
_cell_length_a   3.00661000
_cell_length_b   8.55602755
_cell_length_c   10.13387451
_cell_angle_alpha   90.01078529
_cell_angle_beta   90.00000000
_cell_angle_gamma   90.00000000
_symmetry_Int_Tables_number   1
_chemical_formula_structural   YbSc3(B4Ru5)2
_chemical_formula_sum   'Yb1 Sc3 B8 Ru10'
_cell_volume   260.69024869
_cell_formula_units_Z   1
loop_
 _symmetry_equiv_pos_site_id
 _symmetry_equiv_pos_as_xyz
  1  'x, y, z'
loop_
 _atom_site_type_symbol
 _atom_site_label
 _atom_site_symmetry_multiplicity
 _atom_site_fract_x
 _atom_site_fract_y
 _atom_site_fract_z
 _atom_site_occupancy
  Yb  Yb0  1  0.500000  0.842176  0.181378  1
  Sc  Sc1  1  0.500000  0.156636  0.819222  1
  Sc  Sc2  1  0.500000  0.656720  0.681298  1
  Sc  Sc3  1  0.500000  0.343273  0.318735  1
  B  B4  1  0.500000  0.965082  0.589491  1
  B  B5  1  0.500000  0.035335  0.410768  1
  B  B6  1  0.500000  0.852292  0.899050  1
  B  B7  1  0.500000  0.148921  0.101140  1
  B  B8  1  0.500000  0.646730  0.398840  1
  B  B9  1  0.500000  0.352158  0.601591  1
  B  B10  1  0.500000  0.464849  0.910487  1
  B  B11  1  0.500000  0.533828  0.089176  1
  Ru  Ru12  1  0.000000  0.657906  0.951265  1
  Ru  Ru13  1  0.000000  0.342316  0.044837  1
  Ru  Ru14  1  0.000000  0.841195  0.455540  1
  Ru  Ru15  1  0.000000  0.158649  0.547834  1
  Ru  Ru16  1  0.000000  0.005351  0.996287  1
  Ru  Ru17  1  0.000000  0.402888  0.761169  1
  Ru  Ru18  1  0.000000  0.589205  0.240246  1
  Ru  Ru19  1  0.000000  0.500152  0.501595  1
  Ru  Ru20  1  0.000000  0.902604  0.738446  1
  Ru  Ru21  1  0.000000  0.101734  0.261605  1
