# generated using pymatgen
data_YbHo3Os8
_symmetry_space_group_name_H-M   'P 1'
_cell_length_a   5.32287900
_cell_length_b   5.32287837
_cell_length_c   8.76121900
_cell_angle_alpha   90.00000000
_cell_angle_beta   90.00000000
_cell_angle_gamma   119.99999768
_symmetry_Int_Tables_number   1
_chemical_formula_structural   YbHo3Os8
_chemical_formula_sum   'Yb1 Ho3 Os8'
_cell_volume   214.97517679
_cell_formula_units_Z   1
loop_
 _symmetry_equiv_pos_site_id
 _symmetry_equiv_pos_as_xyz
  1  'x, y, z'
loop_
 _atom_site_type_symbol
 _atom_site_label
 _atom_site_symmetry_multiplicity
 _atom_site_fract_x
 _atom_site_fract_y
 _atom_site_fract_z
 _atom_site_occupancy
  Yb  Yb0  1  0.333333  0.666667  0.063538  1
  Ho  Ho1  1  0.333333  0.666667  0.429415  1
  Ho  Ho2  1  0.666667  0.333333  0.565357  1
  Ho  Ho3  1  0.666667  0.333333  0.939009  1
  Os  Os4  1  0.000000  0.000000  0.500835  1
  Os  Os5  1  0.000000  0.000000  0.000786  1
  Os  Os6  1  0.827958  0.172042  0.250405  1
  Os  Os7  1  0.827958  0.655916  0.250405  1
  Os  Os8  1  0.344084  0.172042  0.250405  1
  Os  Os9  1  0.172961  0.827039  0.749948  1
  Os  Os10  1  0.172961  0.345921  0.749948  1
  Os  Os11  1  0.654079  0.827039  0.749948  1
