# generated using pymatgen
data_HoEr2Bi(AuO5)2
_symmetry_space_group_name_H-M   'P 1'
_cell_length_a   8.50665782
_cell_length_b   8.50665775
_cell_length_c   5.68490005
_cell_angle_alpha   88.93774891
_cell_angle_beta   91.06225246
_cell_angle_gamma   89.88292941
_symmetry_Int_Tables_number   1
_chemical_formula_structural   HoEr2Bi(AuO5)2
_chemical_formula_sum   'Ho2 Er4 Bi2 Au4 O20'
_cell_volume   411.23515495
_cell_formula_units_Z   2
loop_
 _symmetry_equiv_pos_site_id
 _symmetry_equiv_pos_as_xyz
  1  'x, y, z'
loop_
 _atom_site_type_symbol
 _atom_site_label
 _atom_site_symmetry_multiplicity
 _atom_site_fract_x
 _atom_site_fract_y
 _atom_site_fract_z
 _atom_site_occupancy
  Ho  Ho0  1  0.651678  0.651678  0.750000  1
  Ho  Ho1  1  0.848322  0.848322  0.250000  1
  Er  Er2  1  0.354680  0.656339  0.247524  1
  Er  Er3  1  0.843661  0.145320  0.747524  1
  Er  Er4  1  0.656339  0.354680  0.252476  1
  Er  Er5  1  0.145320  0.843661  0.752476  1
  Bi  Bi6  1  0.358974  0.358974  0.750000  1
  Bi  Bi7  1  0.141026  0.141026  0.250000  1
  Au  Au8  1  0.497131  0.000092  0.408461  1
  Au  Au9  1  0.499908  0.002869  0.908461  1
  Au  Au10  1  0.000092  0.497131  0.091539  1
  Au  Au11  1  0.002869  0.499908  0.591539  1
  O  O12  1  0.105983  0.288130  0.599949  1
  O  O13  1  0.909382  0.279668  0.109025  1
  O  O14  1  0.908193  0.717440  0.610561  1
  O  O15  1  0.717440  0.908193  0.889439  1
  O  O16  1  0.220332  0.590618  0.609025  1
  O  O17  1  0.403909  0.786907  0.893488  1
  O  O18  1  0.394017  0.211870  0.400051  1
  O  O19  1  0.782560  0.591807  0.110561  1
  O  O20  1  0.279668  0.909382  0.390975  1
  O  O21  1  0.590618  0.220332  0.890975  1
  O  O22  1  0.494913  0.499756  0.000302  1
  O  O23  1  0.499756  0.494913  0.499698  1
  O  O24  1  0.786907  0.403909  0.606512  1
  O  O25  1  0.096091  0.713093  0.106512  1
  O  O26  1  0.288130  0.105983  0.900051  1
  O  O27  1  0.591807  0.782560  0.389439  1
  O  O28  1  0.211870  0.394017  0.099949  1
  O  O29  1  0.005087  0.000244  0.999698  1
  O  O30  1  0.000244  0.005087  0.500302  1
  O  O31  1  0.713093  0.096091  0.393488  1
