# generated using pymatgen
data_ZrU(PO5)2
_symmetry_space_group_name_H-M   'P 1'
_cell_length_a   5.73126596
_cell_length_b   5.52028813
_cell_length_c   7.82496152
_cell_angle_alpha   107.15948414
_cell_angle_beta   109.68281103
_cell_angle_gamma   95.52835113
_symmetry_Int_Tables_number   1
_chemical_formula_structural   ZrU(PO5)2
_chemical_formula_sum   'Zr1 U1 P2 O10'
_cell_volume   217.39311733
_cell_formula_units_Z   1
loop_
 _symmetry_equiv_pos_site_id
 _symmetry_equiv_pos_as_xyz
  1  'x, y, z'
loop_
 _atom_site_type_symbol
 _atom_site_label
 _atom_site_symmetry_multiplicity
 _atom_site_fract_x
 _atom_site_fract_y
 _atom_site_fract_z
 _atom_site_occupancy
  Zr  Zr0  1  0.000000  0.500000  0.500000  1
  U  U1  1  0.000000  0.500000  0.000000  1
  P  P2  1  0.338939  0.142070  0.749198  1
  P  P3  1  0.661061  0.857930  0.250802  1
  O  O4  1  0.193514  0.205037  0.888540  1
  O  O5  1  0.273236  0.847267  0.640985  1
  O  O6  1  0.927804  0.561843  0.761016  1
  O  O7  1  0.262328  0.290107  0.606403  1
  O  O8  1  0.737672  0.709893  0.393597  1
  O  O9  1  0.627444  0.231603  0.872234  1
  O  O10  1  0.372556  0.768397  0.127766  1
  O  O11  1  0.072196  0.438157  0.238984  1
  O  O12  1  0.726764  0.152733  0.359015  1
  O  O13  1  0.806486  0.794963  0.111460  1
