# generated using pymatgen
data_La2Nd2YRh2
_symmetry_space_group_name_H-M   'P 1'
_cell_length_a   6.63870950
_cell_length_b   7.26103118
_cell_length_c   9.04109200
_cell_angle_alpha   95.64293171
_cell_angle_beta   111.53940818
_cell_angle_gamma   89.99998899
_symmetry_Int_Tables_number   1
_chemical_formula_structural   La2Nd2YRh2
_chemical_formula_sum   'La4 Nd4 Y2 Rh4'
_cell_volume   403.10922990
_cell_formula_units_Z   2
loop_
 _symmetry_equiv_pos_site_id
 _symmetry_equiv_pos_as_xyz
  1  'x, y, z'
loop_
 _atom_site_type_symbol
 _atom_site_label
 _atom_site_symmetry_multiplicity
 _atom_site_fract_x
 _atom_site_fract_y
 _atom_site_fract_z
 _atom_site_occupancy
  La  La0  1  0.982779  0.913358  0.187994  1
  La  La1  1  0.794786  0.586642  0.812006  1
  La  La2  1  0.017221  0.086642  0.812006  1
  La  La3  1  0.205214  0.413358  0.187994  1
  Nd  Nd4  1  0.639593  0.813322  0.429087  1
  Nd  Nd5  1  0.210506  0.686678  0.570913  1
  Nd  Nd6  1  0.360407  0.186678  0.570913  1
  Nd  Nd7  1  0.789494  0.313322  0.429087  1
  Y  Y8  1  0.428215  0.750000  0.000000  1
  Y  Y9  1  0.571785  0.250000  0.000000  1
  Rh  Rh10  1  0.818258  0.577500  0.217093  1
  Rh  Rh11  1  0.601164  0.922500  0.782907  1
  Rh  Rh12  1  0.181742  0.422500  0.782907  1
  Rh  Rh13  1  0.398836  0.077500  0.217093  1
