# generated using pymatgen
data_Pu4Al3CrB16
_symmetry_space_group_name_H-M   'P 1'
_cell_length_a   5.93219451
_cell_length_b   11.50059013
_cell_length_c   3.54485200
_cell_angle_alpha   90.00003735
_cell_angle_beta   89.99999661
_cell_angle_gamma   90.14281655
_symmetry_Int_Tables_number   1
_chemical_formula_structural   Pu4Al3CrB16
_chemical_formula_sum   'Pu4 Al3 Cr1 B16'
_cell_volume   241.84230133
_cell_formula_units_Z   1
loop_
 _symmetry_equiv_pos_site_id
 _symmetry_equiv_pos_as_xyz
  1  'x, y, z'
loop_
 _atom_site_type_symbol
 _atom_site_label
 _atom_site_symmetry_multiplicity
 _atom_site_fract_x
 _atom_site_fract_y
 _atom_site_fract_z
 _atom_site_occupancy
  Pu  Pu0  1  0.129544  0.147575  0.999999  1
  Pu  Pu1  1  0.873400  0.850797  0.000000  1
  Pu  Pu2  1  0.629110  0.349375  0.999999  1
  Pu  Pu3  1  0.370264  0.653036  0.999995  1
  Al  Al4  1  0.137511  0.409098  0.999999  1
  Al  Al5  1  0.861005  0.592928  0.999999  1
  Al  Al6  1  0.636034  0.087370  0.000001  1
  Cr  Cr7  1  0.370475  0.914954  0.000002  1
  B  B8  1  0.472635  0.192774  0.500000  1
  B  B9  1  0.523204  0.808246  0.500000  1
  B  B10  1  0.971654  0.306115  0.500000  1
  B  B11  1  0.028648  0.693031  0.499999  1
  B  B12  1  0.288243  0.311606  0.499999  1
  B  B13  1  0.709663  0.688139  0.499999  1
  B  B14  1  0.787368  0.187204  0.500001  1
  B  B15  1  0.216051  0.815101  0.500000  1
  B  B16  1  0.366478  0.468592  0.499999  1
  B  B17  1  0.632239  0.531230  0.499998  1
  B  B18  1  0.867023  0.031117  0.500001  1
  B  B19  1  0.135310  0.966511  0.500001  1
  B  B20  1  0.382557  0.044518  0.500001  1
  B  B21  1  0.611764  0.950765  0.500002  1
  B  B22  1  0.885609  0.453211  0.500000  1
  B  B23  1  0.114215  0.546707  0.499999  1
