# generated using pymatgen
data_Ho4ReTc3B8
_symmetry_space_group_name_H-M   'P 1'
_cell_length_a   5.27973100
_cell_length_b   5.93322779
_cell_length_c   6.43760611
_cell_angle_alpha   90.14859026
_cell_angle_beta   90.00000000
_cell_angle_gamma   90.00000000
_symmetry_Int_Tables_number   1
_chemical_formula_structural   Ho4ReTc3B8
_chemical_formula_sum   'Ho4 Re1 Tc3 B8'
_cell_volume   201.66278411
_cell_formula_units_Z   1
loop_
 _symmetry_equiv_pos_site_id
 _symmetry_equiv_pos_as_xyz
  1  'x, y, z'
loop_
 _atom_site_type_symbol
 _atom_site_label
 _atom_site_symmetry_multiplicity
 _atom_site_fract_x
 _atom_site_fract_y
 _atom_site_fract_z
 _atom_site_occupancy
  Ho  Ho0  1  0.250000  0.013875  0.338657  1
  Ho  Ho1  1  0.250000  0.514745  0.160664  1
  Ho  Ho2  1  0.750000  0.984997  0.662065  1
  Ho  Ho3  1  0.750000  0.485785  0.838588  1
  Re  Re4  1  0.750000  0.318325  0.314475  1
  Tc  Tc5  1  0.250000  0.181218  0.815270  1
  Tc  Tc6  1  0.250000  0.681251  0.684922  1
  Tc  Tc7  1  0.750000  0.818057  0.184751  1
  B  B8  1  0.077429  0.368735  0.534852  1
  B  B9  1  0.421691  0.870470  0.964532  1
  B  B10  1  0.577633  0.630142  0.464464  1
  B  B11  1  0.922920  0.131527  0.036456  1
  B  B12  1  0.922367  0.630142  0.464464  1
  B  B13  1  0.577080  0.131527  0.036456  1
  B  B14  1  0.422571  0.368735  0.534852  1
  B  B15  1  0.078309  0.870470  0.964532  1
