# generated using pymatgen
data_Be4Nb15TcTe16
_symmetry_space_group_name_H-M   'P 1'
_cell_length_a   4.77665600
_cell_length_b   10.83546463
_cell_length_c   18.88792267
_cell_angle_alpha   90.18160167
_cell_angle_beta   90.00000000
_cell_angle_gamma   90.00000000
_symmetry_Int_Tables_number   1
_chemical_formula_structural   Be4Nb15TcTe16
_chemical_formula_sum   'Be4 Nb15 Tc1 Te16'
_cell_volume   977.58272704
_cell_formula_units_Z   1
loop_
 _symmetry_equiv_pos_site_id
 _symmetry_equiv_pos_as_xyz
  1  'x, y, z'
loop_
 _atom_site_type_symbol
 _atom_site_label
 _atom_site_symmetry_multiplicity
 _atom_site_fract_x
 _atom_site_fract_y
 _atom_site_fract_z
 _atom_site_occupancy
  Be  Be0  1  0.256725  0.499268  0.500883  1
  Be  Be1  1  0.755735  0.999993  0.000018  1
  Be  Be2  1  0.743275  0.499268  0.500883  1
  Be  Be3  1  0.244265  0.999993  0.000018  1
  Nb  Nb4  1  0.500000  0.436459  0.616107  1
  Nb  Nb5  1  0.500000  0.061858  0.113794  1
  Nb  Nb6  1  0.500000  0.937968  0.886536  1
  Nb  Nb7  1  0.500000  0.701450  0.535511  1
  Nb  Nb8  1  0.500000  0.298227  0.463792  1
  Nb  Nb9  1  0.500000  0.199110  0.964601  1
  Nb  Nb10  1  0.500000  0.800946  0.035182  1
  Nb  Nb11  1  0.000000  0.682821  0.443307  1
  Nb  Nb12  1  0.000000  0.315004  0.556047  1
  Nb  Nb13  1  0.000000  0.188380  0.057266  1
  Nb  Nb14  1  0.000000  0.811422  0.942617  1
  Nb  Nb15  1  0.000000  0.406020  0.394052  1
  Nb  Nb16  1  0.000000  0.597562  0.605759  1
  Nb  Nb17  1  0.000000  0.901754  0.107821  1
  Nb  Nb18  1  0.000000  0.098276  0.892423  1
  Tc  Tc19  1  0.500000  0.559459  0.391606  1
  Te  Te20  1  0.000000  0.850010  0.559481  1
  Te  Te21  1  0.000000  0.153162  0.435527  1
  Te  Te22  1  0.000000  0.349269  0.938051  1
  Te  Te23  1  0.000000  0.650873  0.061957  1
  Te  Te24  1  0.500000  0.344523  0.315435  1
  Te  Te25  1  0.500000  0.670763  0.684923  1
  Te  Te26  1  0.500000  0.830398  0.185447  1
  Te  Te27  1  0.500000  0.168625  0.814456  1
  Te  Te28  1  0.500000  0.811642  0.398615  1
  Te  Te29  1  0.500000  0.175093  0.596934  1
  Te  Te30  1  0.500000  0.324211  0.098150  1
  Te  Te31  1  0.500000  0.675462  0.901720  1
  Te  Te32  1  0.000000  0.607488  0.300792  1
  Te  Te33  1  0.000000  0.392945  0.699910  1
  Te  Te34  1  0.000000  0.108738  0.200655  1
  Te  Te35  1  0.000000  0.891560  0.799722  1
