# generated using pymatgen
data_TbHo3Al18(PdRh2)2
_symmetry_space_group_name_H-M   'P 1'
_cell_length_a   7.58172693
_cell_length_b   7.58265586
_cell_length_c   9.47295520
_cell_angle_alpha   90.03186358
_cell_angle_beta   90.04512531
_cell_angle_gamma   119.56816052
_symmetry_Int_Tables_number   1
_chemical_formula_structural   TbHo3Al18(PdRh2)2
_chemical_formula_sum   'Tb1 Ho3 Al18 Pd2 Rh4'
_cell_volume   473.67301217
_cell_formula_units_Z   1
loop_
 _symmetry_equiv_pos_site_id
 _symmetry_equiv_pos_as_xyz
  1  'x, y, z'
loop_
 _atom_site_type_symbol
 _atom_site_label
 _atom_site_symmetry_multiplicity
 _atom_site_fract_x
 _atom_site_fract_y
 _atom_site_fract_z
 _atom_site_occupancy
  Tb  Tb0  1  0.995291  0.669814  0.249412  1
  Ho  Ho1  1  0.004706  0.330123  0.750639  1
  Ho  Ho2  1  0.669854  0.995354  0.249385  1
  Ho  Ho3  1  0.330142  0.004723  0.750650  1
  Al  Al4  1  0.126128  0.126328  0.248910  1
  Al  Al5  1  0.873993  0.873996  0.751091  1
  Al  Al6  1  0.999237  0.334352  0.074463  1
  Al  Al7  1  0.000754  0.665335  0.925094  1
  Al  Al8  1  0.998873  0.668818  0.578113  1
  Al  Al9  1  0.331483  0.001405  0.422288  1
  Al  Al10  1  0.001115  0.330895  0.422290  1
  Al  Al11  1  0.668820  0.998891  0.577859  1
  Al  Al12  1  0.665343  0.000767  0.925376  1
  Al  Al13  1  0.334960  0.999526  0.074474  1
  Al  Al14  1  0.330707  0.330710  0.557343  1
  Al  Al15  1  0.669035  0.669284  0.442864  1
  Al  Al16  1  0.667894  0.668129  0.049581  1
  Al  Al17  1  0.331849  0.331858  0.950231  1
  Al  Al18  1  0.340461  0.547503  0.246023  1
  Al  Al19  1  0.659712  0.452367  0.753976  1
  Al  Al20  1  0.547253  0.340017  0.246027  1
  Al  Al21  1  0.452384  0.659724  0.753972  1
  Pd  Pd22  1  0.327755  0.672341  0.500081  1
  Pd  Pd23  1  0.672254  0.327583  0.500078  1
  Rh  Rh24  1  0.672114  0.327642  0.999892  1
  Rh  Rh25  1  0.327865  0.672242  0.999891  1
  Rh  Rh26  1  0.000014  0.000143  0.999875  1
  Rh  Rh27  1  0.000009  0.000128  0.500123  1
