# generated using pymatgen
data_Si2Mo12IrRh5N4
_symmetry_space_group_name_H-M   'P 1'
_cell_length_a   6.81882193
_cell_length_b   6.80819678
_cell_length_c   6.81777562
_cell_angle_alpha   89.22036433
_cell_angle_beta   90.03757899
_cell_angle_gamma   89.95389752
_symmetry_Int_Tables_number   1
_chemical_formula_structural   Si2Mo12IrRh5N4
_chemical_formula_sum   'Si2 Mo12 Ir1 Rh5 N4'
_cell_volume   316.47813337
_cell_formula_units_Z   1
loop_
 _symmetry_equiv_pos_site_id
 _symmetry_equiv_pos_as_xyz
  1  'x, y, z'
loop_
 _atom_site_type_symbol
 _atom_site_label
 _atom_site_symmetry_multiplicity
 _atom_site_fract_x
 _atom_site_fract_y
 _atom_site_fract_z
 _atom_site_occupancy
  Si  Si0  1  0.682446  0.174239  0.932902  1
  Si  Si1  1  0.182823  0.825734  0.067565  1
  Mo  Mo2  1  0.621577  0.044961  0.547178  1
  Mo  Mo3  1  0.121073  0.953597  0.453764  1
  Mo  Mo4  1  0.867775  0.537131  0.944453  1
  Mo  Mo5  1  0.368239  0.462488  0.055265  1
  Mo  Mo6  1  0.201536  0.624286  0.698701  1
  Mo  Mo7  1  0.300041  0.123074  0.787188  1
  Mo  Mo8  1  0.800146  0.877647  0.213766  1
  Mo  Mo9  1  0.702709  0.376536  0.301605  1
  Mo  Mo10  1  0.046482  0.209178  0.130148  1
  Mo  Mo11  1  0.961179  0.304797  0.622863  1
  Mo  Mo12  1  0.546876  0.790925  0.869222  1
  Mo  Mo13  1  0.462362  0.695829  0.376925  1
  Ir  Ir14  1  0.813584  0.685782  0.568176  1
  Rh  Rh15  1  0.312354  0.312710  0.432353  1
  Rh  Rh16  1  0.064475  0.576755  0.294889  1
  Rh  Rh17  1  0.434991  0.060832  0.168059  1
  Rh  Rh18  1  0.563583  0.422581  0.704271  1
  Rh  Rh19  1  0.935223  0.939629  0.831920  1
  N  N20  1  0.375108  0.872623  0.617796  1
  N  N21  1  0.875787  0.128474  0.381855  1
  N  N22  1  0.130096  0.374730  0.874702  1
  N  N23  1  0.629537  0.625462  0.124435  1
