# generated using pymatgen
data_Hf4Cu4Si4Mo
_symmetry_space_group_name_H-M   'P 1'
_cell_length_a   7.56350698
_cell_length_b   7.56350573
_cell_length_c   7.56350575
_cell_angle_alpha   93.46806084
_cell_angle_beta   93.46805597
_cell_angle_gamma   151.52387061
_symmetry_Int_Tables_number   1
_chemical_formula_structural   Hf4Cu4Si4Mo
_chemical_formula_sum   'Hf4 Cu4 Si4 Mo1'
_cell_volume   199.96279978
_cell_formula_units_Z   1
loop_
 _symmetry_equiv_pos_site_id
 _symmetry_equiv_pos_as_xyz
  1  'x, y, z'
loop_
 _atom_site_type_symbol
 _atom_site_label
 _atom_site_symmetry_multiplicity
 _atom_site_fract_x
 _atom_site_fract_y
 _atom_site_fract_z
 _atom_site_occupancy
  Hf  Hf0  1  0.126617  0.804931  0.931549  1
  Hf  Hf1  1  0.195069  0.126617  0.321686  1
  Hf  Hf2  1  0.804931  0.873383  0.678314  1
  Hf  Hf3  1  0.873383  0.195069  0.068451  1
  Cu  Cu4  1  0.396207  0.918391  0.314596  1
  Cu  Cu5  1  0.603793  0.081609  0.685404  1
  Cu  Cu6  1  0.918391  0.603793  0.522184  1
  Cu  Cu7  1  0.081609  0.396207  0.477816  1
  Si  Si8  1  0.246327  0.558668  0.804995  1
  Si  Si9  1  0.441332  0.246327  0.687658  1
  Si  Si10  1  0.558668  0.753673  0.312342  1
  Si  Si11  1  0.753673  0.441332  0.195005  1
  Mo  Mo12  1  0.500000  0.500000  0.000000  1
