# generated using pymatgen
data_Hf5Zr5CuAsPb6
_symmetry_space_group_name_H-M   'P 1'
_cell_length_a   8.74415030
_cell_length_b   8.75670460
_cell_length_c   5.95766100
_cell_angle_alpha   89.98438822
_cell_angle_beta   90.03126839
_cell_angle_gamma   119.95258940
_symmetry_Int_Tables_number   1
_chemical_formula_structural   Hf5Zr5CuAsPb6
_chemical_formula_sum   'Hf5 Zr5 Cu1 As1 Pb6'
_cell_volume   395.25006494
_cell_formula_units_Z   1
loop_
 _symmetry_equiv_pos_site_id
 _symmetry_equiv_pos_as_xyz
  1  'x, y, z'
loop_
 _atom_site_type_symbol
 _atom_site_label
 _atom_site_symmetry_multiplicity
 _atom_site_fract_x
 _atom_site_fract_y
 _atom_site_fract_z
 _atom_site_occupancy
  Hf  Hf0  1  0.333130  0.666859  0.000360  1
  Hf  Hf1  1  0.666832  0.333511  0.499853  1
  Hf  Hf2  1  0.666273  0.333141  0.000360  1
  Hf  Hf3  1  0.333320  0.666489  0.499853  1
  Hf  Hf4  1  0.260266  0.000000  0.248973  1
  Zr  Zr5  1  0.259959  0.259632  0.750438  1
  Zr  Zr6  1  0.000326  0.740368  0.750438  1
  Zr  Zr7  1  0.998673  0.260409  0.250485  1
  Zr  Zr8  1  0.738264  0.739591  0.250485  1
  Zr  Zr9  1  0.741018  0.000000  0.749897  1
  Cu  Cu10  1  0.003055  0.000000  0.496467  1
  As  As11  1  0.000640  0.000000  0.002129  1
  Pb  Pb12  1  0.608588  0.000000  0.252396  1
  Pb  Pb13  1  0.609905  0.609865  0.747810  1
  Pb  Pb14  1  0.000041  0.390135  0.747810  1
  Pb  Pb15  1  0.000222  0.611280  0.252759  1
  Pb  Pb16  1  0.388941  0.388720  0.252759  1
  Pb  Pb17  1  0.390545  0.000000  0.746727  1
