# generated using pymatgen
data_Pr14Pd5Rh
_symmetry_space_group_name_H-M   'P 1'
_cell_length_a   6.55349168
_cell_length_b   10.28903740
_cell_length_c   10.28903718
_cell_angle_alpha   119.97793775
_cell_angle_beta   89.92877116
_cell_angle_gamma   90.07123088
_symmetry_Int_Tables_number   1
_chemical_formula_structural   Pr14Pd5Rh
_chemical_formula_sum   'Pr14 Pd5 Rh1'
_cell_volume   600.96464879
_cell_formula_units_Z   1
loop_
 _symmetry_equiv_pos_site_id
 _symmetry_equiv_pos_as_xyz
  1  'x, y, z'
loop_
 _atom_site_type_symbol
 _atom_site_label
 _atom_site_symmetry_multiplicity
 _atom_site_fract_x
 _atom_site_fract_y
 _atom_site_fract_z
 _atom_site_occupancy
  Pr  Pr0  1  0.451608  0.333191  0.666809  1
  Pr  Pr1  1  0.958836  0.668960  0.331040  1
  Pr  Pr2  1  0.240781  0.126365  0.873635  1
  Pr  Pr3  1  0.240091  0.749701  0.880247  1
  Pr  Pr4  1  0.240091  0.119753  0.250299  1
  Pr  Pr5  1  0.746755  0.873205  0.126795  1
  Pr  Pr6  1  0.741433  0.252732  0.125842  1
  Pr  Pr7  1  0.741433  0.874158  0.747268  1
  Pr  Pr8  1  0.446609  0.537699  0.462301  1
  Pr  Pr9  1  0.444232  0.919867  0.455818  1
  Pr  Pr10  1  0.444232  0.544182  0.080133  1
  Pr  Pr11  1  0.946812  0.462164  0.537836  1
  Pr  Pr12  1  0.944999  0.076862  0.537736  1
  Pr  Pr13  1  0.944999  0.462264  0.923138  1
  Pd  Pd14  1  0.191475  0.376742  0.189177  1
  Pd  Pd15  1  0.191475  0.810823  0.623258  1
  Pd  Pd16  1  0.692556  0.188793  0.811207  1
  Pd  Pd17  1  0.691970  0.622401  0.811010  1
  Pd  Pd18  1  0.691970  0.188990  0.377599  1
  Rh  Rh19  1  0.193642  0.811147  0.188853  1
