# generated using pymatgen
data_Hf8NbNi2Rh
_symmetry_space_group_name_H-M   'P 1'
_cell_length_a   8.71131204
_cell_length_b   8.71131123
_cell_length_c   8.63000900
_cell_angle_alpha   60.30826559
_cell_angle_beta   60.30826863
_cell_angle_gamma   60.45332007
_symmetry_Int_Tables_number   1
_chemical_formula_structural   Hf8NbNi2Rh
_chemical_formula_sum   'Hf16 Nb2 Ni4 Rh2'
_cell_volume   466.82158625
_cell_formula_units_Z   2
loop_
 _symmetry_equiv_pos_site_id
 _symmetry_equiv_pos_as_xyz
  1  'x, y, z'
loop_
 _atom_site_type_symbol
 _atom_site_label
 _atom_site_symmetry_multiplicity
 _atom_site_fract_x
 _atom_site_fract_y
 _atom_site_fract_z
 _atom_site_occupancy
  Hf  Hf0  1  0.688601  0.105037  0.103180  1
  Hf  Hf1  1  0.105037  0.688601  0.103180  1
  Hf  Hf2  1  0.100807  0.100807  0.696635  1
  Hf  Hf3  1  0.100807  0.100807  0.101751  1
  Hf  Hf4  1  0.315757  0.315757  0.684243  1
  Hf  Hf5  1  0.685690  0.685690  0.314310  1
  Hf  Hf6  1  0.316620  0.687379  0.314746  1
  Hf  Hf7  1  0.687379  0.316620  0.681254  1
  Hf  Hf8  1  0.687379  0.316620  0.314746  1
  Hf  Hf9  1  0.316620  0.687379  0.681254  1
  Hf  Hf10  1  0.952001  0.952001  0.547999  1
  Hf  Hf11  1  0.548635  0.548635  0.951365  1
  Hf  Hf12  1  0.946364  0.551999  0.947702  1
  Hf  Hf13  1  0.551999  0.946364  0.553935  1
  Hf  Hf14  1  0.551999  0.946364  0.947702  1
  Hf  Hf15  1  0.946364  0.551999  0.553935  1
  Nb  Nb16  1  0.003402  0.333342  0.331627  1
  Nb  Nb17  1  0.333342  0.003402  0.331627  1
  Ni  Ni18  1  0.324286  0.886252  0.894731  1
  Ni  Ni19  1  0.886252  0.324286  0.894731  1
  Ni  Ni20  1  0.890346  0.890346  0.322785  1
  Ni  Ni21  1  0.890346  0.890346  0.896524  1
  Rh  Rh22  1  0.334981  0.334981  0.990741  1
  Rh  Rh23  1  0.334981  0.334981  0.339295  1
