# generated using pymatgen
data_KGdBeF6
_symmetry_space_group_name_H-M   'P 1'
_cell_length_a   5.92943000
_cell_length_b   6.49500581
_cell_length_c   7.18814962
_cell_angle_alpha   67.13129871
_cell_angle_beta   90.00000000
_cell_angle_gamma   90.00000000
_symmetry_Int_Tables_number   1
_chemical_formula_structural   KGdBeF6
_chemical_formula_sum   'K2 Gd2 Be2 F12'
_cell_volume   255.06847483
_cell_formula_units_Z   2
loop_
 _symmetry_equiv_pos_site_id
 _symmetry_equiv_pos_as_xyz
  1  'x, y, z'
loop_
 _atom_site_type_symbol
 _atom_site_label
 _atom_site_symmetry_multiplicity
 _atom_site_fract_x
 _atom_site_fract_y
 _atom_site_fract_z
 _atom_site_occupancy
  K  K0  1  0.250000  0.070711  0.796727  1
  K  K1  1  0.750000  0.929289  0.203273  1
  Gd  Gd2  1  0.250000  0.387556  0.181628  1
  Gd  Gd3  1  0.750000  0.612444  0.818372  1
  Be  Be4  1  0.250000  0.768110  0.463393  1
  Be  Be5  1  0.750000  0.231890  0.536607  1
  F  F6  1  0.462631  0.768943  0.592716  1
  F  F7  1  0.537369  0.231057  0.407284  1
  F  F8  1  0.962631  0.231057  0.407284  1
  F  F9  1  0.037369  0.768943  0.592716  1
  F  F10  1  0.250000  0.559946  0.410124  1
  F  F11  1  0.750000  0.440054  0.589876  1
  F  F12  1  0.498646  0.681949  0.034603  1
  F  F13  1  0.501354  0.318051  0.965397  1
  F  F14  1  0.998646  0.318051  0.965397  1
  F  F15  1  0.001354  0.681949  0.034603  1
  F  F16  1  0.250000  0.985201  0.264437  1
  F  F17  1  0.750000  0.014799  0.735563  1
