# generated using pymatgen
data_YbY7(B6Os)4
_symmetry_space_group_name_H-M   'P 1'
_cell_length_a   3.65880700
_cell_length_b   9.15937725
_cell_length_c   11.53894932
_cell_angle_alpha   90.02683794
_cell_angle_beta   90.00000000
_cell_angle_gamma   90.00000000
_symmetry_Int_Tables_number   1
_chemical_formula_structural   YbY7(B6Os)4
_chemical_formula_sum   'Yb1 Y7 B24 Os4'
_cell_volume   386.69776883
_cell_formula_units_Z   1
loop_
 _symmetry_equiv_pos_site_id
 _symmetry_equiv_pos_as_xyz
  1  'x, y, z'
loop_
 _atom_site_type_symbol
 _atom_site_label
 _atom_site_symmetry_multiplicity
 _atom_site_fract_x
 _atom_site_fract_y
 _atom_site_fract_z
 _atom_site_occupancy
  Yb  Yb0  1  0.000000  0.556318  0.871731  1
  Y  Y1  1  0.000000  0.322994  0.415381  1
  Y  Y2  1  0.000000  0.676555  0.587978  1
  Y  Y3  1  0.000000  0.821668  0.083948  1
  Y  Y4  1  0.000000  0.178425  0.912960  1
  Y  Y5  1  0.000000  0.943727  0.372700  1
  Y  Y6  1  0.000000  0.056028  0.627908  1
  Y  Y7  1  0.000000  0.444569  0.125706  1
  B  B8  1  0.500000  0.553832  0.432924  1
  B  B9  1  0.500000  0.446112  0.568157  1
  B  B10  1  0.500000  0.054261  0.066983  1
  B  B11  1  0.500000  0.945406  0.932343  1
  B  B12  1  0.500000  0.747671  0.419603  1
  B  B13  1  0.500000  0.252389  0.581007  1
  B  B14  1  0.500000  0.248629  0.079905  1
  B  B15  1  0.500000  0.750561  0.918773  1
  B  B16  1  0.500000  0.790853  0.266290  1
  B  B17  1  0.500000  0.209833  0.733613  1
  B  B18  1  0.500000  0.291575  0.233134  1
  B  B19  1  0.500000  0.707799  0.767412  1
  B  B20  1  0.500000  0.632204  0.184827  1
  B  B21  1  0.500000  0.369580  0.814572  1
  B  B22  1  0.500000  0.132390  0.314230  1
  B  B23  1  0.500000  0.867336  0.686629  1
  B  B24  1  0.500000  0.983987  0.212602  1
  B  B25  1  0.500000  0.015950  0.787628  1
  B  B26  1  0.500000  0.483891  0.286912  1
  B  B27  1  0.500000  0.516328  0.713916  1
  B  B28  1  0.500000  0.606903  0.029049  1
  B  B29  1  0.500000  0.393524  0.969987  1
  B  B30  1  0.500000  0.109268  0.469922  1
  B  B31  1  0.500000  0.890379  0.530427  1
  Os  Os32  1  0.000000  0.637456  0.321925  1
  Os  Os33  1  0.000000  0.362114  0.678763  1
  Os  Os34  1  0.000000  0.137940  0.178925  1
  Os  Os35  1  0.000000  0.861548  0.821230  1
