# generated using pymatgen
data_PrDy2RuBr3
_symmetry_space_group_name_H-M   'P 1'
_cell_length_a   4.22466900
_cell_length_b   8.51170736
_cell_length_c   11.98780468
_cell_angle_alpha   84.51593920
_cell_angle_beta   90.00000000
_cell_angle_gamma   90.00000000
_symmetry_Int_Tables_number   1
_chemical_formula_structural   PrDy2RuBr3
_chemical_formula_sum   'Pr2 Dy4 Ru2 Br6'
_cell_volume   429.09813210
_cell_formula_units_Z   2
loop_
 _symmetry_equiv_pos_site_id
 _symmetry_equiv_pos_as_xyz
  1  'x, y, z'
loop_
 _atom_site_type_symbol
 _atom_site_label
 _atom_site_symmetry_multiplicity
 _atom_site_fract_x
 _atom_site_fract_y
 _atom_site_fract_z
 _atom_site_occupancy
  Pr  Pr0  1  0.250000  0.874883  0.827149  1
  Pr  Pr1  1  0.750000  0.125117  0.172851  1
  Dy  Dy2  1  0.250000  0.275068  0.399207  1
  Dy  Dy3  1  0.750000  0.724932  0.600793  1
  Dy  Dy4  1  0.250000  0.864937  0.370786  1
  Dy  Dy5  1  0.750000  0.135063  0.629214  1
  Ru  Ru6  1  0.250000  0.939456  0.591542  1
  Ru  Ru7  1  0.750000  0.060544  0.408458  1
  Br  Br8  1  0.250000  0.418982  0.626746  1
  Br  Br9  1  0.750000  0.581018  0.373254  1
  Br  Br10  1  0.250000  0.877773  0.114028  1
  Br  Br11  1  0.750000  0.122227  0.885972  1
  Br  Br12  1  0.250000  0.379866  0.148687  1
  Br  Br13  1  0.750000  0.620134  0.851313  1
