# generated using pymatgen
data_Hf3Pa2SnRh10
_symmetry_space_group_name_H-M   'P 1'
_cell_length_a   4.24130500
_cell_length_b   5.73836229
_cell_length_c   11.29569340
_cell_angle_alpha   89.18959281
_cell_angle_beta   90.00000000
_cell_angle_gamma   90.00000000
_symmetry_Int_Tables_number   1
_chemical_formula_structural   Hf3Pa2SnRh10
_chemical_formula_sum   'Hf3 Pa2 Sn1 Rh10'
_cell_volume   274.88872078
_cell_formula_units_Z   1
loop_
 _symmetry_equiv_pos_site_id
 _symmetry_equiv_pos_as_xyz
  1  'x, y, z'
loop_
 _atom_site_type_symbol
 _atom_site_label
 _atom_site_symmetry_multiplicity
 _atom_site_fract_x
 _atom_site_fract_y
 _atom_site_fract_z
 _atom_site_occupancy
  Hf  Hf0  1  0.500000  0.664320  0.860632  1
  Hf  Hf1  1  0.500000  0.335680  0.139368  1
  Hf  Hf2  1  0.000000  0.000000  0.000000  1
  Pa  Pa3  1  0.500000  0.172346  0.650114  1
  Pa  Pa4  1  0.500000  0.827654  0.349886  1
  Sn  Sn5  1  0.000000  0.500000  0.500000  1
  Rh  Rh6  1  0.500000  0.187904  0.893307  1
  Rh  Rh7  1  0.500000  0.812096  0.106693  1
  Rh  Rh8  1  0.500000  0.701147  0.614650  1
  Rh  Rh9  1  0.500000  0.298853  0.385350  1
  Rh  Rh10  1  0.000000  0.426435  0.748820  1
  Rh  Rh11  1  0.000000  0.573565  0.251180  1
  Rh  Rh12  1  0.000000  0.000000  0.500000  1
  Rh  Rh13  1  0.000000  0.500000  0.000000  1
  Rh  Rh14  1  0.000000  0.080202  0.241239  1
  Rh  Rh15  1  0.000000  0.919798  0.758761  1
