# generated using pymatgen
data_DyTm5U4O20
_symmetry_space_group_name_H-M   'P 1'
_cell_length_a   6.63232726
_cell_length_b   7.47451532
_cell_length_c   8.38768400
_cell_angle_alpha   100.77712425
_cell_angle_beta   97.66490292
_cell_angle_gamma   107.28238893
_symmetry_Int_Tables_number   1
_chemical_formula_structural   DyTm5U4O20
_chemical_formula_sum   'Dy1 Tm5 U4 O20'
_cell_volume   382.03728903
_cell_formula_units_Z   1
loop_
 _symmetry_equiv_pos_site_id
 _symmetry_equiv_pos_as_xyz
  1  'x, y, z'
loop_
 _atom_site_type_symbol
 _atom_site_label
 _atom_site_symmetry_multiplicity
 _atom_site_fract_x
 _atom_site_fract_y
 _atom_site_fract_z
 _atom_site_occupancy
  Dy  Dy0  1  0.000000  0.500000  0.500000  1
  Tm  Tm1  1  0.616062  0.704626  0.699112  1
  Tm  Tm2  1  0.383938  0.295374  0.300888  1
  Tm  Tm3  1  0.196392  0.896604  0.890919  1
  Tm  Tm4  1  0.803608  0.103396  0.109081  1
  Tm  Tm5  1  0.000000  0.000000  0.500000  1
  U  U6  1  0.402470  0.805167  0.301997  1
  U  U7  1  0.199122  0.399244  0.899000  1
  U  U8  1  0.800878  0.600756  0.101000  1
  U  U9  1  0.597530  0.194833  0.698003  1
  O  O10  1  0.440112  0.531082  0.139154  1
  O  O11  1  0.554367  0.985049  0.842113  1
  O  O12  1  0.265582  0.140201  0.744151  1
  O  O13  1  0.362298  0.593110  0.443419  1
  O  O14  1  0.053647  0.730523  0.335126  1
  O  O15  1  0.445633  0.014951  0.157887  1
  O  O16  1  0.150588  0.181407  0.033282  1
  O  O17  1  0.559888  0.468918  0.860846  1
  O  O18  1  0.854050  0.334111  0.951195  1
  O  O19  1  0.258949  0.609584  0.759678  1
  O  O20  1  0.952823  0.775262  0.654354  1
  O  O21  1  0.352094  0.063941  0.452590  1
  O  O22  1  0.647906  0.936059  0.547410  1
  O  O23  1  0.047177  0.224738  0.345646  1
  O  O24  1  0.741051  0.390416  0.240322  1
  O  O25  1  0.145950  0.665889  0.048805  1
  O  O26  1  0.849412  0.818593  0.966718  1
  O  O27  1  0.946353  0.269477  0.664874  1
  O  O28  1  0.637702  0.406890  0.556581  1
  O  O29  1  0.734418  0.859799  0.255849  1
