# generated using pymatgen
data_Zr8Co4Cu3Si14Ru
_symmetry_space_group_name_H-M   'P 1'
_cell_length_a   9.56587494
_cell_length_b   9.55051602
_cell_length_c   9.58389781
_cell_angle_alpha   94.22652907
_cell_angle_beta   94.31173404
_cell_angle_gamma   148.28970744
_symmetry_Int_Tables_number   1
_chemical_formula_structural   Zr8Co4Cu3Si14Ru
_chemical_formula_sum   'Zr8 Co4 Cu3 Si14 Ru1'
_cell_volume   442.81052996
_cell_formula_units_Z   1
loop_
 _symmetry_equiv_pos_site_id
 _symmetry_equiv_pos_as_xyz
  1  'x, y, z'
loop_
 _atom_site_type_symbol
 _atom_site_label
 _atom_site_symmetry_multiplicity
 _atom_site_fract_x
 _atom_site_fract_y
 _atom_site_fract_z
 _atom_site_occupancy
  Zr  Zr0  1  0.137004  0.137004  0.274010  1
  Zr  Zr1  1  0.863191  0.863191  0.726380  1
  Zr  Zr2  1  0.864829  0.139128  0.001256  1
  Zr  Zr3  1  0.136426  0.862128  0.001256  1
  Zr  Zr4  1  0.493112  0.298088  0.805720  1
  Zr  Zr5  1  0.494791  0.689590  0.195086  1
  Zr  Zr6  1  0.700296  0.505497  0.195086  1
  Zr  Zr7  1  0.312608  0.507631  0.805720  1
  Co  Co8  1  0.599853  0.397317  0.502097  1
  Co  Co9  1  0.902245  0.104781  0.502097  1
  Co  Co10  1  0.904675  0.404675  0.809351  1
  Co  Co11  1  0.599975  0.099975  0.199949  1
  Cu  Cu12  1  0.105914  0.605914  0.211828  1
  Cu  Cu13  1  0.101541  0.892435  0.496205  1
  Cu  Cu14  1  0.394664  0.603771  0.496205  1
  Si  Si15  1  0.547957  0.134943  0.592690  1
  Si  Si16  1  0.545370  0.954638  0.407073  1
  Si  Si17  1  0.861703  0.452435  0.407073  1
  Si  Si18  1  0.044733  0.457746  0.592690  1
  Si  Si19  1  0.749689  0.750081  0.000536  1
  Si  Si20  1  0.250847  0.250455  0.000536  1
  Si  Si21  1  0.291903  0.291903  0.583805  1
  Si  Si22  1  0.708562  0.708562  0.417126  1
  Si  Si23  1  0.700341  0.281317  0.998954  1
  Si  Si24  1  0.298612  0.717637  0.998954  1
  Si  Si25  1  0.973186  0.268926  0.296053  1
  Si  Si26  1  0.974237  0.677663  0.705487  1
  Si  Si27  1  0.731250  0.027824  0.705487  1
  Si  Si28  1  0.322867  0.027128  0.296053  1
  Ru  Ru29  1  0.387619  0.887619  0.775241  1
