# generated using pymatgen
data_V12Ga4CuNi3N4
_symmetry_space_group_name_H-M   'P 1'
_cell_length_a   6.50511800
_cell_length_b   6.50511800
_cell_length_c   6.50511800
_cell_angle_alpha   89.99691723
_cell_angle_beta   90.00308277
_cell_angle_gamma   90.00308277
_symmetry_Int_Tables_number   1
_chemical_formula_structural   V12Ga4CuNi3N4
_chemical_formula_sum   'V12 Ga4 Cu1 Ni3 N4'
_cell_volume   275.27421682
_cell_formula_units_Z   1
loop_
 _symmetry_equiv_pos_site_id
 _symmetry_equiv_pos_as_xyz
  1  'x, y, z'
loop_
 _atom_site_type_symbol
 _atom_site_label
 _atom_site_symmetry_multiplicity
 _atom_site_fract_x
 _atom_site_fract_y
 _atom_site_fract_z
 _atom_site_occupancy
  V  V0  1  0.788583  0.960808  0.375256  1
  V  V1  1  0.709011  0.039703  0.874641  1
  V  V2  1  0.209292  0.458075  0.124101  1
  V  V3  1  0.291703  0.538101  0.627213  1
  V  V4  1  0.960297  0.374641  0.790989  1
  V  V5  1  0.039192  0.875256  0.711417  1
  V  V6  1  0.461899  0.127213  0.208297  1
  V  V7  1  0.541925  0.624101  0.290708  1
  V  V8  1  0.375899  0.790708  0.958075  1
  V  V9  1  0.872787  0.708297  0.038101  1
  V  V10  1  0.124744  0.211417  0.460808  1
  V  V11  1  0.625359  0.290989  0.539703  1
  Ga  Ga12  1  0.573177  0.426823  0.926823  1
  Ga  Ga13  1  0.428082  0.927808  0.574386  1
  Ga  Ga14  1  0.925614  0.571918  0.427808  1
  Ga  Ga15  1  0.072192  0.074386  0.071918  1
  Cu  Cu16  1  0.178294  0.821706  0.321706  1
  Ni  Ni17  1  0.322642  0.177654  0.822709  1
  Ni  Ni18  1  0.822346  0.322709  0.177358  1
  Ni  Ni19  1  0.677291  0.677358  0.677654  1
  N  N20  1  0.875373  0.124627  0.624627  1
  N  N21  1  0.624025  0.875646  0.124081  1
  N  N22  1  0.124354  0.624081  0.875975  1
  N  N23  1  0.375919  0.375975  0.375646  1
