# generated using pymatgen
data_CaYMn3Co9As7
_symmetry_space_group_name_H-M   'P 1'
_cell_length_a   3.72199100
_cell_length_b   9.47226191
_cell_length_c   9.47226200
_cell_angle_alpha   119.99999332
_cell_angle_beta   90.00000000
_cell_angle_gamma   90.00000000
_symmetry_Int_Tables_number   1
_chemical_formula_structural   CaYMn3Co9As7
_chemical_formula_sum   'Ca1 Y1 Mn3 Co9 As7'
_cell_volume   289.21004936
_cell_formula_units_Z   1
loop_
 _symmetry_equiv_pos_site_id
 _symmetry_equiv_pos_as_xyz
  1  'x, y, z'
loop_
 _atom_site_type_symbol
 _atom_site_label
 _atom_site_symmetry_multiplicity
 _atom_site_fract_x
 _atom_site_fract_y
 _atom_site_fract_z
 _atom_site_occupancy
  Ca  Ca0  1  0.500000  0.333333  0.666667  1
  Y  Y1  1  0.000000  0.666667  0.333333  1
  Mn  Mn2  1  0.500000  0.777179  0.894575  1
  Mn  Mn3  1  0.500000  0.117396  0.222821  1
  Mn  Mn4  1  0.500000  0.105425  0.882604  1
  Co  Co5  1  0.000000  0.573766  0.944731  1
  Co  Co6  1  0.000000  0.370965  0.426234  1
  Co  Co7  1  0.000000  0.055269  0.629035  1
  Co  Co8  1  0.000000  0.883401  0.160002  1
  Co  Co9  1  0.000000  0.276602  0.116599  1
  Co  Co10  1  0.000000  0.839998  0.723398  1
  Co  Co11  1  0.500000  0.947936  0.383832  1
  Co  Co12  1  0.500000  0.435896  0.052064  1
  Co  Co13  1  0.500000  0.616168  0.564104  1
  As  As14  1  0.000000  0.000000  0.000000  1
  As  As15  1  0.500000  0.709954  0.118414  1
  As  As16  1  0.500000  0.408461  0.290046  1
  As  As17  1  0.500000  0.881586  0.591539  1
  As  As18  1  0.000000  0.582900  0.698874  1
  As  As19  1  0.000000  0.115974  0.417100  1
  As  As20  1  0.000000  0.301126  0.884026  1
