# generated using pymatgen
data_Tm5Lu7Tc4
_symmetry_space_group_name_H-M   'P 1'
_cell_length_a   6.13536815
_cell_length_b   7.39091710
_cell_length_c   8.91861012
_cell_angle_alpha   90.06436762
_cell_angle_beta   90.12591578
_cell_angle_gamma   89.99593712
_symmetry_Int_Tables_number   1
_chemical_formula_structural   Tm5Lu7Tc4
_chemical_formula_sum   'Tm5 Lu7 Tc4'
_cell_volume   404.42203872
_cell_formula_units_Z   1
loop_
 _symmetry_equiv_pos_site_id
 _symmetry_equiv_pos_as_xyz
  1  'x, y, z'
loop_
 _atom_site_type_symbol
 _atom_site_label
 _atom_site_symmetry_multiplicity
 _atom_site_fract_x
 _atom_site_fract_y
 _atom_site_fract_z
 _atom_site_occupancy
  Tm  Tm0  1  0.652358  0.176575  0.437767  1
  Tm  Tm1  1  0.874630  0.958752  0.750564  1
  Tm  Tm2  1  0.373750  0.541950  0.249840  1
  Tm  Tm3  1  0.624971  0.459362  0.750392  1
  Tm  Tm4  1  0.125337  0.040134  0.249199  1
  Lu  Lu5  1  0.651317  0.175242  0.061956  1
  Lu  Lu6  1  0.150800  0.324497  0.937530  1
  Lu  Lu7  1  0.847942  0.674370  0.438013  1
  Lu  Lu8  1  0.347850  0.824320  0.562520  1
  Lu  Lu9  1  0.348791  0.824698  0.937731  1
  Lu  Lu10  1  0.849011  0.675402  0.062459  1
  Lu  Lu11  1  0.153611  0.325174  0.562133  1
  Tc  Tc12  1  0.044881  0.616657  0.749848  1
  Tc  Tc13  1  0.545315  0.882829  0.249571  1
  Tc  Tc14  1  0.453520  0.116654  0.751705  1
  Tc  Tc15  1  0.955917  0.383384  0.248774  1
