# generated using pymatgen
data_NdSmBi2(IO4)4
_symmetry_space_group_name_H-M   'P 1'
_cell_length_a   5.71468738
_cell_length_b   5.77221928
_cell_length_c   11.18312985
_cell_angle_alpha   90.03380724
_cell_angle_beta   89.45856643
_cell_angle_gamma   89.98940669
_symmetry_Int_Tables_number   1
_chemical_formula_structural   NdSmBi2(IO4)4
_chemical_formula_sum   'Nd1 Sm1 Bi2 I4 O16'
_cell_volume   368.87497319
_cell_formula_units_Z   1
loop_
 _symmetry_equiv_pos_site_id
 _symmetry_equiv_pos_as_xyz
  1  'x, y, z'
loop_
 _atom_site_type_symbol
 _atom_site_label
 _atom_site_symmetry_multiplicity
 _atom_site_fract_x
 _atom_site_fract_y
 _atom_site_fract_z
 _atom_site_occupancy
  Nd  Nd0  1  0.497418  0.313233  0.884723  1
  Sm  Sm1  1  0.507313  0.813710  0.113811  1
  Bi  Bi2  1  0.016204  0.813576  0.901646  1
  Bi  Bi3  1  0.986835  0.313895  0.101129  1
  I  I4  1  0.006055  0.330861  0.635580  1
  I  I5  1  0.991821  0.829667  0.363840  1
  I  I6  1  0.497081  0.824994  0.636541  1
  I  I7  1  0.501387  0.324009  0.361709  1
  O  O8  1  0.244300  0.063235  0.008235  1
  O  O9  1  0.758908  0.566019  0.994843  1
  O  O10  1  0.255573  0.570075  0.005368  1
  O  O11  1  0.746722  0.067735  0.997728  1
  O  O12  1  0.136070  0.417216  0.779601  1
  O  O13  1  0.859360  0.915928  0.220447  1
  O  O14  1  0.380828  0.936105  0.780671  1
  O  O15  1  0.618050  0.440101  0.218784  1
  O  O16  1  0.830479  0.099113  0.709986  1
  O  O17  1  0.165844  0.596629  0.289436  1
  O  O18  1  0.640240  0.573254  0.711242  1
  O  O19  1  0.361036  0.072026  0.285604  1
  O  O20  1  0.245039  0.163264  0.563647  1
  O  O21  1  0.753828  0.663791  0.437072  1
  O  O22  1  0.247474  0.672102  0.568825  1
  O  O23  1  0.752136  0.173104  0.429532  1
