# generated using pymatgen
data_Yb3Sm(Pt2O7)2
_symmetry_space_group_name_H-M   'P 1'
_cell_length_a   7.28579204
_cell_length_b   7.28579098
_cell_length_c   7.27774722
_cell_angle_alpha   59.96342624
_cell_angle_beta   59.96343467
_cell_angle_gamma   59.99999530
_symmetry_Int_Tables_number   1
_chemical_formula_structural   Yb3Sm(Pt2O7)2
_chemical_formula_sum   'Yb3 Sm1 Pt4 O14'
_cell_volume   273.02043569
_cell_formula_units_Z   1
loop_
 _symmetry_equiv_pos_site_id
 _symmetry_equiv_pos_as_xyz
  1  'x, y, z'
loop_
 _atom_site_type_symbol
 _atom_site_label
 _atom_site_symmetry_multiplicity
 _atom_site_fract_x
 _atom_site_fract_y
 _atom_site_fract_z
 _atom_site_occupancy
  Yb  Yb0  1  0.125000  0.125000  0.125000  1
  Yb  Yb1  1  0.625000  0.125000  0.125000  1
  Yb  Yb2  1  0.125000  0.625000  0.125000  1
  Sm  Sm3  1  0.125000  0.125000  0.625000  1
  Pt  Pt4  1  0.625000  0.625000  0.125000  1
  Pt  Pt5  1  0.625000  0.625000  0.625000  1
  Pt  Pt6  1  0.625000  0.125000  0.625000  1
  Pt  Pt7  1  0.125000  0.625000  0.625000  1
  O  O8  1  0.707400  0.292794  0.292405  1
  O  O9  1  0.708249  0.291453  0.708844  1
  O  O10  1  0.000643  0.000643  0.998071  1
  O  O11  1  0.292794  0.707400  0.292405  1
  O  O12  1  0.707400  0.707400  0.292405  1
  O  O13  1  0.958547  0.541751  0.541156  1
  O  O14  1  0.291453  0.708249  0.708844  1
  O  O15  1  0.249357  0.249357  0.251929  1
  O  O16  1  0.957206  0.542600  0.957595  1
  O  O17  1  0.541751  0.958547  0.541156  1
  O  O18  1  0.542600  0.542600  0.957595  1
  O  O19  1  0.958547  0.958547  0.541156  1
  O  O20  1  0.542600  0.957206  0.957595  1
  O  O21  1  0.291453  0.291453  0.708844  1
