# generated using pymatgen
data_PrHo2Pa(ReB6)2
_symmetry_space_group_name_H-M   'P 1'
_cell_length_a   3.73012800
_cell_length_b   9.22536652
_cell_length_c   11.63174901
_cell_angle_alpha   90.34934659
_cell_angle_beta   90.00000000
_cell_angle_gamma   90.00000000
_symmetry_Int_Tables_number   1
_chemical_formula_structural   PrHo2Pa(ReB6)2
_chemical_formula_sum   'Pr2 Ho4 Pa2 Re4 B24'
_cell_volume   400.26195677
_cell_formula_units_Z   2
loop_
 _symmetry_equiv_pos_site_id
 _symmetry_equiv_pos_as_xyz
  1  'x, y, z'
loop_
 _atom_site_type_symbol
 _atom_site_label
 _atom_site_symmetry_multiplicity
 _atom_site_fract_x
 _atom_site_fract_y
 _atom_site_fract_z
 _atom_site_occupancy
  Pr  Pr0  1  0.000000  0.823384  0.086243  1
  Pr  Pr1  1  0.000000  0.176616  0.913757  1
  Ho  Ho2  1  0.000000  0.944824  0.373901  1
  Ho  Ho3  1  0.000000  0.055176  0.626099  1
  Ho  Ho4  1  0.000000  0.444211  0.128290  1
  Ho  Ho5  1  0.000000  0.555789  0.871710  1
  Pa  Pa6  1  0.000000  0.322035  0.413757  1
  Pa  Pa7  1  0.000000  0.677965  0.586243  1
  Re  Re8  1  0.000000  0.634174  0.326425  1
  Re  Re9  1  0.000000  0.365826  0.673575  1
  Re  Re10  1  0.000000  0.143299  0.185518  1
  Re  Re11  1  0.000000  0.856701  0.814482  1
  B  B12  1  0.500000  0.553149  0.433576  1
  B  B13  1  0.500000  0.446851  0.566424  1
  B  B14  1  0.500000  0.056271  0.071356  1
  B  B15  1  0.500000  0.943729  0.928644  1
  B  B16  1  0.500000  0.747341  0.420706  1
  B  B17  1  0.500000  0.252659  0.579294  1
  B  B18  1  0.500000  0.250046  0.084356  1
  B  B19  1  0.500000  0.749954  0.915644  1
  B  B20  1  0.500000  0.789683  0.269260  1
  B  B21  1  0.500000  0.210317  0.730740  1
  B  B22  1  0.500000  0.293241  0.236276  1
  B  B23  1  0.500000  0.706759  0.763724  1
  B  B24  1  0.500000  0.629188  0.188392  1
  B  B25  1  0.500000  0.370812  0.811608  1
  B  B26  1  0.500000  0.133735  0.316249  1
  B  B27  1  0.500000  0.866265  0.683751  1
  B  B28  1  0.500000  0.985466  0.215771  1
  B  B29  1  0.500000  0.014534  0.784229  1
  B  B30  1  0.500000  0.482580  0.288644  1
  B  B31  1  0.500000  0.517420  0.711356  1
  B  B32  1  0.500000  0.598871  0.027746  1
  B  B33  1  0.500000  0.401129  0.972254  1
  B  B34  1  0.500000  0.112603  0.469445  1
  B  B35  1  0.500000  0.887397  0.530555  1
