# generated using pymatgen
data_Sc3Nb3Re5Si6Os
_symmetry_space_group_name_H-M   'P 1'
_cell_length_a   7.65259632
_cell_length_b   7.68163628
_cell_length_c   7.65193026
_cell_angle_alpha   126.04761527
_cell_angle_beta   128.25008846
_cell_angle_gamma   77.92987082
_symmetry_Int_Tables_number   1
_chemical_formula_structural   Sc3Nb3Re5Si6Os
_chemical_formula_sum   'Sc3 Nb3 Re5 Si6 Os1'
_cell_volume   276.94625642
_cell_formula_units_Z   1
loop_
 _symmetry_equiv_pos_site_id
 _symmetry_equiv_pos_as_xyz
  1  'x, y, z'
loop_
 _atom_site_type_symbol
 _atom_site_label
 _atom_site_symmetry_multiplicity
 _atom_site_fract_x
 _atom_site_fract_y
 _atom_site_fract_z
 _atom_site_occupancy
  Sc  Sc0  1  0.550029  0.094165  0.044220  1
  Sc  Sc1  1  0.450119  0.497855  0.545695  1
  Sc  Sc2  1  0.951731  0.496171  0.045537  1
  Nb  Nb3  1  0.043642  0.088443  0.541102  1
  Nb  Nb4  1  0.754044  0.902578  0.651842  1
  Nb  Nb5  1  0.248894  0.895614  0.143967  1
  Re  Re6  1  0.001224  0.235414  0.240055  1
  Re  Re7  1  0.124796  0.757708  0.628082  1
  Re  Re8  1  0.875244  0.500154  0.629263  1
  Re  Re9  1  0.630212  0.756657  0.132894  1
  Re  Re10  1  0.371626  0.499927  0.124118  1
  Si  Si11  1  0.749912  0.495591  0.246829  1
  Si  Si12  1  0.250409  0.495416  0.745610  1
  Si  Si13  1  0.333816  0.831229  0.495367  1
  Si  Si14  1  0.664845  0.164028  0.496439  1
  Si  Si15  1  0.833808  0.829039  0.995154  1
  Si  Si16  1  0.167861  0.164341  0.998276  1
  Os  Os17  1  0.497788  0.237869  0.737750  1
