# generated using pymatgen
data_La2Pr2Y2OsBr10
_symmetry_space_group_name_H-M   'P 1'
_cell_length_a   7.61919797
_cell_length_b   9.48993520
_cell_length_c   9.72636730
_cell_angle_alpha   109.24603754
_cell_angle_beta   95.84874266
_cell_angle_gamma   104.88422354
_symmetry_Int_Tables_number   1
_chemical_formula_structural   La2Pr2Y2OsBr10
_chemical_formula_sum   'La2 Pr2 Y2 Os1 Br10'
_cell_volume   628.13086957
_cell_formula_units_Z   1
loop_
 _symmetry_equiv_pos_site_id
 _symmetry_equiv_pos_as_xyz
  1  'x, y, z'
loop_
 _atom_site_type_symbol
 _atom_site_label
 _atom_site_symmetry_multiplicity
 _atom_site_fract_x
 _atom_site_fract_y
 _atom_site_fract_z
 _atom_site_occupancy
  La  La0  1  0.529818  0.213326  0.409216  1
  La  La1  1  0.470182  0.786674  0.590784  1
  Pr  Pr2  1  0.630190  0.547271  0.244784  1
  Pr  Pr3  1  0.369810  0.452729  0.755216  1
  Y  Y4  1  0.135985  0.364613  0.321692  1
  Y  Y5  1  0.864015  0.635387  0.678308  1
  Os  Os6  1  0.500000  0.500000  0.500000  1
  Br  Br7  1  0.140081  0.056075  0.229008  1
  Br  Br8  1  0.859919  0.943925  0.770992  1
  Br  Br9  1  0.244147  0.414251  0.055754  1
  Br  Br10  1  0.755853  0.585749  0.944246  1
  Br  Br11  1  0.731399  0.249868  0.154919  1
  Br  Br12  1  0.268601  0.750132  0.845081  1
  Br  Br13  1  0.047097  0.668787  0.420679  1
  Br  Br14  1  0.952903  0.331213  0.579321  1
  Br  Br15  1  0.411355  0.134757  0.674900  1
  Br  Br16  1  0.588645  0.865243  0.325100  1
