# generated using pymatgen
data_Ho16Al4IrPd3
_symmetry_space_group_name_H-M   'P 1'
_cell_length_a   9.57757194
_cell_length_b   9.53143175
_cell_length_c   9.53143100
_cell_angle_alpha   59.99999914
_cell_angle_beta   60.15923404
_cell_angle_gamma   60.15923641
_symmetry_Int_Tables_number   1
_chemical_formula_structural   Ho16Al4IrPd3
_chemical_formula_sum   'Ho16 Al4 Ir1 Pd3'
_cell_volume   616.73382468
_cell_formula_units_Z   1
loop_
 _symmetry_equiv_pos_site_id
 _symmetry_equiv_pos_as_xyz
  1  'x, y, z'
loop_
 _atom_site_type_symbol
 _atom_site_label
 _atom_site_symmetry_multiplicity
 _atom_site_fract_x
 _atom_site_fract_y
 _atom_site_fract_z
 _atom_site_occupancy
  Ho  Ho0  1  0.608409  0.602495  0.602495  1
  Ho  Ho1  1  0.608409  0.602495  0.186603  1
  Ho  Ho2  1  0.608409  0.186603  0.602495  1
  Ho  Ho3  1  0.179141  0.606954  0.606954  1
  Ho  Ho4  1  0.054004  0.442346  0.442346  1
  Ho  Ho5  1  0.444293  0.056313  0.056313  1
  Ho  Ho6  1  0.444293  0.056313  0.443081  1
  Ho  Ho7  1  0.054004  0.442346  0.061304  1
  Ho  Ho8  1  0.444293  0.443081  0.056313  1
  Ho  Ho9  1  0.054004  0.061304  0.442346  1
  Ho  Ho10  1  0.185939  0.815307  0.815307  1
  Ho  Ho11  1  0.816965  0.185701  0.185701  1
  Ho  Ho12  1  0.816965  0.185701  0.811633  1
  Ho  Ho13  1  0.185939  0.815307  0.183448  1
  Ho  Ho14  1  0.816965  0.811633  0.185701  1
  Ho  Ho15  1  0.185939  0.183448  0.815307  1
  Al  Al16  1  0.827190  0.828118  0.828118  1
  Al  Al17  1  0.827190  0.828118  0.516572  1
  Al  Al18  1  0.827190  0.516572  0.828118  1
  Al  Al19  1  0.515647  0.828118  0.828118  1
  Ir  Ir20  1  0.819639  0.393454  0.393454  1
  Pd  Pd21  1  0.391724  0.395452  0.395452  1
  Pd  Pd22  1  0.391724  0.395452  0.817372  1
  Pd  Pd23  1  0.391724  0.817372  0.395452  1
