# generated using pymatgen
data_Pr8Dy2Si5Sn
_symmetry_space_group_name_H-M   'P 1'
_cell_length_a   7.74611243
_cell_length_b   7.74611305
_cell_length_c   9.18177876
_cell_angle_alpha   114.94954218
_cell_angle_beta   114.94953969
_cell_angle_gamma   89.99999675
_symmetry_Int_Tables_number   1
_chemical_formula_structural   Pr8Dy2Si5Sn
_chemical_formula_sum   'Pr8 Dy2 Si5 Sn1'
_cell_volume   442.16382245
_cell_formula_units_Z   1
loop_
 _symmetry_equiv_pos_site_id
 _symmetry_equiv_pos_as_xyz
  1  'x, y, z'
loop_
 _atom_site_type_symbol
 _atom_site_label
 _atom_site_symmetry_multiplicity
 _atom_site_fract_x
 _atom_site_fract_y
 _atom_site_fract_z
 _atom_site_occupancy
  Pr  Pr0  1  0.974015  0.827534  0.281751  1
  Pr  Pr1  1  0.307736  0.454217  0.281751  1
  Pr  Pr2  1  0.827534  0.307736  0.281751  1
  Pr  Pr3  1  0.454217  0.974015  0.281751  1
  Pr  Pr4  1  0.045783  0.192264  0.718249  1
  Pr  Pr5  1  0.672466  0.525985  0.718249  1
  Pr  Pr6  1  0.192264  0.672466  0.718249  1
  Pr  Pr7  1  0.525985  0.045783  0.718249  1
  Dy  Dy8  1  0.515916  0.515916  0.031832  1
  Dy  Dy9  1  0.984084  0.984084  0.968168  1
  Si  Si10  1  0.250000  0.250000  0.500000  1
  Si  Si11  1  0.617824  0.882176  0.000000  1
  Si  Si12  1  0.382176  0.117824  0.000000  1
  Si  Si13  1  0.882176  0.382176  0.000000  1
  Si  Si14  1  0.117824  0.617824  0.000000  1
  Sn  Sn15  1  0.750000  0.750000  0.500000  1
