# generated using pymatgen
data_Dy2YEr2CoSb2
_symmetry_space_group_name_H-M   'P 1'
_cell_length_a   7.85863000
_cell_length_b   8.76027300
_cell_length_c   12.21225900
_cell_angle_alpha   90.00000000
_cell_angle_beta   90.00000000
_cell_angle_gamma   90.00000000
_symmetry_Int_Tables_number   1
_chemical_formula_structural   Dy2YEr2CoSb2
_chemical_formula_sum   'Dy8 Y4 Er8 Co4 Sb8'
_cell_volume   840.73763477
_cell_formula_units_Z   4
loop_
 _symmetry_equiv_pos_site_id
 _symmetry_equiv_pos_as_xyz
  1  'x, y, z'
loop_
 _atom_site_type_symbol
 _atom_site_label
 _atom_site_symmetry_multiplicity
 _atom_site_fract_x
 _atom_site_fract_y
 _atom_site_fract_z
 _atom_site_occupancy
  Dy  Dy0  1  0.453632  0.750000  0.998206  1
  Dy  Dy1  1  0.046368  0.750000  0.498206  1
  Dy  Dy2  1  0.546368  0.250000  0.001794  1
  Dy  Dy3  1  0.953632  0.250000  0.501794  1
  Dy  Dy4  1  0.621927  0.750000  0.307497  1
  Dy  Dy5  1  0.878073  0.750000  0.807497  1
  Dy  Dy6  1  0.378073  0.250000  0.692503  1
  Dy  Dy7  1  0.121927  0.250000  0.192503  1
  Y  Y8  1  0.154740  0.750000  0.204151  1
  Y  Y9  1  0.345260  0.750000  0.704151  1
  Y  Y10  1  0.845260  0.250000  0.795849  1
  Y  Y11  1  0.654740  0.250000  0.295849  1
  Er  Er12  1  0.822844  0.535668  0.065004  1
  Er  Er13  1  0.677156  0.964332  0.565004  1
  Er  Er14  1  0.177156  0.035668  0.934996  1
  Er  Er15  1  0.322844  0.464332  0.434996  1
  Er  Er16  1  0.177156  0.464332  0.934996  1
  Er  Er17  1  0.322844  0.035668  0.434996  1
  Er  Er18  1  0.822844  0.964332  0.065004  1
  Er  Er19  1  0.677156  0.535668  0.565004  1
  Co  Co20  1  0.435121  0.750000  0.490269  1
  Co  Co21  1  0.064879  0.750000  0.990269  1
  Co  Co22  1  0.564879  0.250000  0.509731  1
  Co  Co23  1  0.935121  0.250000  0.009731  1
  Sb  Sb24  1  0.929114  0.508299  0.327170  1
  Sb  Sb25  1  0.570886  0.991701  0.827170  1
  Sb  Sb26  1  0.070886  0.008299  0.672830  1
  Sb  Sb27  1  0.429114  0.491701  0.172830  1
  Sb  Sb28  1  0.070886  0.491701  0.672830  1
  Sb  Sb29  1  0.429114  0.008299  0.172830  1
  Sb  Sb30  1  0.929114  0.991701  0.327170  1
  Sb  Sb31  1  0.570886  0.508299  0.827170  1
