# generated using pymatgen
data_CsK3Li2(CrH6)2
_symmetry_space_group_name_H-M   'P 1'
_cell_length_a   9.89837205
_cell_length_b   9.89822617
_cell_length_c   9.89828908
_cell_angle_alpha   34.24141758
_cell_angle_beta   34.24016392
_cell_angle_gamma   34.24009507
_symmetry_Int_Tables_number   1
_chemical_formula_structural   CsK3Li2(CrH6)2
_chemical_formula_sum   'Cs1 K3 Li2 Cr2 H12'
_cell_volume   273.79294212
_cell_formula_units_Z   1
loop_
 _symmetry_equiv_pos_site_id
 _symmetry_equiv_pos_as_xyz
  1  'x, y, z'
loop_
 _atom_site_type_symbol
 _atom_site_label
 _atom_site_symmetry_multiplicity
 _atom_site_fract_x
 _atom_site_fract_y
 _atom_site_fract_z
 _atom_site_occupancy
  Cs  Cs0  1  0.717775  0.717856  0.717773  1
  K  K1  1  0.128180  0.128190  0.128169  1
  K  K2  1  0.873164  0.873206  0.873215  1
  K  K3  1  0.284266  0.284165  0.284212  1
  Li  Li4  1  0.407267  0.407228  0.407150  1
  Li  Li5  1  0.593131  0.593174  0.593196  1
  Cr  Cr6  1  0.998621  0.998598  0.998864  1
  Cr  Cr7  1  0.500901  0.500903  0.500921  1
  H  H8  1  0.180448  0.180453  0.743018  1
  H  H9  1  0.743049  0.180450  0.180419  1
  H  H10  1  0.180441  0.743048  0.180437  1
  H  H11  1  0.818087  0.252459  0.818046  1
  H  H12  1  0.818073  0.818056  0.252459  1
  H  H13  1  0.252520  0.818027  0.818033  1
  H  H14  1  0.401727  0.401733  0.813656  1
  H  H15  1  0.813639  0.401738  0.401704  1
  H  H16  1  0.192988  0.597026  0.597002  1
  H  H17  1  0.596992  0.596988  0.193038  1
  H  H18  1  0.597004  0.193029  0.596992  1
  H  H19  1  0.401728  0.813674  0.401695  1
