# generated using pymatgen
data_TbYbTiSbO7
_symmetry_space_group_name_H-M   'P 1'
_cell_length_a   7.29428700
_cell_length_b   7.29428700
_cell_length_c   10.29255300
_cell_angle_alpha   90.00000000
_cell_angle_beta   90.00000000
_cell_angle_gamma   90.00000000
_symmetry_Int_Tables_number   1
_chemical_formula_structural   TbYbTiSbO7
_chemical_formula_sum   'Tb4 Yb4 Ti4 Sb4 O28'
_cell_volume   547.63198551
_cell_formula_units_Z   4
loop_
 _symmetry_equiv_pos_site_id
 _symmetry_equiv_pos_as_xyz
  1  'x, y, z'
loop_
 _atom_site_type_symbol
 _atom_site_label
 _atom_site_symmetry_multiplicity
 _atom_site_fract_x
 _atom_site_fract_y
 _atom_site_fract_z
 _atom_site_occupancy
  Tb  Tb0  1  0.500000  0.235265  0.500000  1
  Tb  Tb1  1  0.500000  0.764735  0.000000  1
  Tb  Tb2  1  0.764735  0.500000  0.750000  1
  Tb  Tb3  1  0.235265  0.500000  0.250000  1
  Yb  Yb4  1  0.000000  0.754897  0.000000  1
  Yb  Yb5  1  0.754897  0.000000  0.750000  1
  Yb  Yb6  1  0.000000  0.245103  0.500000  1
  Yb  Yb7  1  0.245103  0.000000  0.250000  1
  Ti  Ti8  1  0.760176  0.000000  0.250000  1
  Ti  Ti9  1  0.000000  0.760176  0.500000  1
  Ti  Ti10  1  0.000000  0.239824  0.000000  1
  Ti  Ti11  1  0.239824  0.000000  0.750000  1
  Sb  Sb12  1  0.245081  0.500000  0.750000  1
  Sb  Sb13  1  0.500000  0.754919  0.500000  1
  Sb  Sb14  1  0.500000  0.245081  0.000000  1
  Sb  Sb15  1  0.754919  0.500000  0.250000  1
  O  O16  1  0.253472  0.746528  0.125000  1
  O  O17  1  0.549049  0.955850  0.375528  1
  O  O18  1  0.751230  0.743499  0.576566  1
  O  O19  1  0.746528  0.253472  0.625000  1
  O  O20  1  0.743499  0.751230  0.173434  1
  O  O21  1  0.943626  0.943626  0.375000  1
  O  O22  1  0.056374  0.056374  0.875000  1
  O  O23  1  0.056374  0.943626  0.625000  1
  O  O24  1  0.044150  0.450951  0.874472  1
  O  O25  1  0.248770  0.256501  0.076566  1
  O  O26  1  0.248770  0.743499  0.423434  1
  O  O27  1  0.256501  0.751230  0.826566  1
  O  O28  1  0.256501  0.248770  0.673434  1
  O  O29  1  0.450951  0.044150  0.875528  1
  O  O30  1  0.450951  0.955850  0.624472  1
  O  O31  1  0.455482  0.455482  0.875000  1
  O  O32  1  0.544518  0.544518  0.375000  1
  O  O33  1  0.549049  0.044150  0.124472  1
  O  O34  1  0.544518  0.455482  0.125000  1
  O  O35  1  0.743499  0.248770  0.326566  1
  O  O36  1  0.751230  0.256501  0.923434  1
  O  O37  1  0.943626  0.056374  0.125000  1
  O  O38  1  0.955850  0.549049  0.374472  1
  O  O39  1  0.955850  0.450951  0.125528  1
  O  O40  1  0.044150  0.549049  0.625528  1
  O  O41  1  0.253472  0.253472  0.375000  1
  O  O42  1  0.455482  0.544518  0.625000  1
  O  O43  1  0.746528  0.746528  0.875000  1
