# generated using pymatgen
data_Ca11NdPb4N3
_symmetry_space_group_name_H-M   'P 1'
_cell_length_a   4.91357800
_cell_length_b   4.98403400
_cell_length_c   19.80687400
_cell_angle_alpha   90.00000000
_cell_angle_beta   90.00000000
_cell_angle_gamma   90.00000000
_symmetry_Int_Tables_number   1
_chemical_formula_structural   Ca11NdPb4N3
_chemical_formula_sum   'Ca11 Nd1 Pb4 N3'
_cell_volume   485.05924872
_cell_formula_units_Z   1
loop_
 _symmetry_equiv_pos_site_id
 _symmetry_equiv_pos_as_xyz
  1  'x, y, z'
loop_
 _atom_site_type_symbol
 _atom_site_label
 _atom_site_symmetry_multiplicity
 _atom_site_fract_x
 _atom_site_fract_y
 _atom_site_fract_z
 _atom_site_occupancy
  Ca  Ca0  1  0.500000  0.500000  0.863194  1
  Ca  Ca1  1  0.500000  0.500000  0.136806  1
  Ca  Ca2  1  0.500000  0.500000  0.374075  1
  Ca  Ca3  1  0.500000  0.500000  0.625925  1
  Ca  Ca4  1  0.500000  0.000000  0.000000  1
  Ca  Ca5  1  0.500000  0.000000  0.254223  1
  Ca  Ca6  1  0.500000  0.000000  0.745777  1
  Ca  Ca7  1  0.000000  0.500000  0.000000  1
  Ca  Ca8  1  0.000000  0.500000  0.254281  1
  Ca  Ca9  1  0.000000  0.500000  0.500000  1
  Ca  Ca10  1  0.000000  0.500000  0.745719  1
  Nd  Nd11  1  0.500000  0.000000  0.500000  1
  Pb  Pb12  1  0.000000  0.000000  0.881698  1
  Pb  Pb13  1  0.000000  0.000000  0.118302  1
  Pb  Pb14  1  0.000000  0.000000  0.378016  1
  Pb  Pb15  1  0.000000  0.000000  0.621984  1
  N  N16  1  0.500000  0.500000  0.251562  1
  N  N17  1  0.500000  0.500000  0.500000  1
  N  N18  1  0.500000  0.500000  0.748438  1
