# generated using pymatgen
data_TbSc(NbSe2)6
_symmetry_space_group_name_H-M   'P 1'
_cell_length_a   6.08557200
_cell_length_b   6.08557291
_cell_length_c   14.05962000
_cell_angle_alpha   90.00000000
_cell_angle_beta   90.00000000
_cell_angle_gamma   119.99999505
_symmetry_Int_Tables_number   1
_chemical_formula_structural   TbSc(NbSe2)6
_chemical_formula_sum   'Tb1 Sc1 Nb6 Se12'
_cell_volume   450.92790444
_cell_formula_units_Z   1
loop_
 _symmetry_equiv_pos_site_id
 _symmetry_equiv_pos_as_xyz
  1  'x, y, z'
loop_
 _atom_site_type_symbol
 _atom_site_label
 _atom_site_symmetry_multiplicity
 _atom_site_fract_x
 _atom_site_fract_y
 _atom_site_fract_z
 _atom_site_occupancy
  Tb  Tb0  1  0.333333  0.666667  0.250000  1
  Sc  Sc1  1  0.666667  0.333333  0.750000  1
  Nb  Nb2  1  0.000000  0.000000  0.507345  1
  Nb  Nb3  1  0.000000  0.000000  0.992655  1
  Nb  Nb4  1  0.333333  0.666667  0.994545  1
  Nb  Nb5  1  0.666667  0.333333  0.991879  1
  Nb  Nb6  1  0.666667  0.333333  0.508121  1
  Nb  Nb7  1  0.333333  0.666667  0.505455  1
  Se  Se8  1  0.333951  0.325839  0.387709  1
  Se  Se9  1  0.674161  0.008110  0.387709  1
  Se  Se10  1  0.991890  0.666049  0.387709  1
  Se  Se11  1  0.328563  0.334980  0.626302  1
  Se  Se12  1  0.006416  0.671437  0.626302  1
  Se  Se13  1  0.665020  0.993584  0.626302  1
  Se  Se14  1  0.665020  0.671437  0.873698  1
  Se  Se15  1  0.328563  0.993584  0.873698  1
  Se  Se16  1  0.006416  0.334980  0.873698  1
  Se  Se17  1  0.674161  0.666049  0.112291  1
  Se  Se18  1  0.991890  0.325839  0.112291  1
  Se  Se19  1  0.333951  0.008110  0.112291  1
