# generated using pymatgen
data_Dy4YBi2Sb
_symmetry_space_group_name_H-M   'P 1'
_cell_length_a   8.19585800
_cell_length_b   9.47632800
_cell_length_c   12.02583800
_cell_angle_alpha   90.00000000
_cell_angle_beta   90.00000000
_cell_angle_gamma   90.00000000
_symmetry_Int_Tables_number   1
_chemical_formula_structural   Dy4YBi2Sb
_chemical_formula_sum   'Dy16 Y4 Bi8 Sb4'
_cell_volume   934.00641440
_cell_formula_units_Z   4
loop_
 _symmetry_equiv_pos_site_id
 _symmetry_equiv_pos_as_xyz
  1  'x, y, z'
loop_
 _atom_site_type_symbol
 _atom_site_label
 _atom_site_symmetry_multiplicity
 _atom_site_fract_x
 _atom_site_fract_y
 _atom_site_fract_z
 _atom_site_occupancy
  Dy  Dy0  1  0.029230  0.750000  0.988238  1
  Dy  Dy1  1  0.529230  0.750000  0.511762  1
  Dy  Dy2  1  0.970770  0.250000  0.011762  1
  Dy  Dy3  1  0.470770  0.250000  0.488238  1
  Dy  Dy4  1  0.183486  0.750000  0.718300  1
  Dy  Dy5  1  0.683486  0.750000  0.781700  1
  Dy  Dy6  1  0.816514  0.250000  0.281700  1
  Dy  Dy7  1  0.316514  0.250000  0.218300  1
  Dy  Dy8  1  0.309726  0.438594  0.941356  1
  Dy  Dy9  1  0.809726  0.061406  0.558644  1
  Dy  Dy10  1  0.690274  0.938594  0.058644  1
  Dy  Dy11  1  0.190274  0.561406  0.441356  1
  Dy  Dy12  1  0.690274  0.561406  0.058644  1
  Dy  Dy13  1  0.190274  0.938594  0.441356  1
  Dy  Dy14  1  0.309726  0.061406  0.941356  1
  Dy  Dy15  1  0.809726  0.438594  0.558644  1
  Y  Y16  1  0.354027  0.750000  0.212809  1
  Y  Y17  1  0.854027  0.750000  0.287191  1
  Y  Y18  1  0.645973  0.250000  0.787191  1
  Y  Y19  1  0.145973  0.250000  0.712809  1
  Bi  Bi20  1  0.433513  0.003673  0.673892  1
  Bi  Bi21  1  0.933513  0.496327  0.826108  1
  Bi  Bi22  1  0.566487  0.503673  0.326108  1
  Bi  Bi23  1  0.066487  0.996327  0.173892  1
  Bi  Bi24  1  0.566487  0.996327  0.326108  1
  Bi  Bi25  1  0.066487  0.503673  0.173892  1
  Bi  Bi26  1  0.433513  0.496327  0.673892  1
  Bi  Bi27  1  0.933513  0.003673  0.826108  1
  Sb  Sb28  1  0.410216  0.750000  0.959019  1
  Sb  Sb29  1  0.910216  0.750000  0.540981  1
  Sb  Sb30  1  0.589784  0.250000  0.040981  1
  Sb  Sb31  1  0.089784  0.250000  0.459019  1
