# generated using pymatgen
data_Tb7Dy9Cd3Co3NiHg
_symmetry_space_group_name_H-M   'P 1'
_cell_length_a   9.52410581
_cell_length_b   9.51673575
_cell_length_c   9.52522700
_cell_angle_alpha   60.00420495
_cell_angle_beta   60.03379540
_cell_angle_gamma   60.01181055
_symmetry_Int_Tables_number   1
_chemical_formula_structural   Tb7Dy9Cd3Co3NiHg
_chemical_formula_sum   'Tb7 Dy9 Cd3 Co3 Ni1 Hg1'
_cell_volume   610.71127322
_cell_formula_units_Z   1
loop_
 _symmetry_equiv_pos_site_id
 _symmetry_equiv_pos_as_xyz
  1  'x, y, z'
loop_
 _atom_site_type_symbol
 _atom_site_label
 _atom_site_symmetry_multiplicity
 _atom_site_fract_x
 _atom_site_fract_y
 _atom_site_fract_z
 _atom_site_occupancy
  Tb  Tb0  1  0.152525  0.539332  0.155025  1
  Tb  Tb1  1  0.690931  0.311290  0.686121  1
  Tb  Tb2  1  0.688151  0.311500  0.312431  1
  Tb  Tb3  1  0.937716  0.561874  0.563185  1
  Tb  Tb4  1  0.541507  0.152101  0.154152  1
  Tb  Tb5  1  0.153201  0.153388  0.540117  1
  Tb  Tb6  1  0.937850  0.936756  0.562659  1
  Dy  Dy7  1  0.312975  0.687316  0.312556  1
  Dy  Dy8  1  0.562769  0.934981  0.938543  1
  Dy  Dy9  1  0.562218  0.937072  0.563054  1
  Dy  Dy10  1  0.687349  0.687228  0.312968  1
  Dy  Dy11  1  0.563327  0.562687  0.938463  1
  Dy  Dy12  1  0.935952  0.562049  0.938474  1
  Dy  Dy13  1  0.312811  0.689864  0.685280  1
  Dy  Dy14  1  0.152191  0.152660  0.154391  1
  Dy  Dy15  1  0.311975  0.310814  0.686249  1
  Cd  Cd16  1  0.920040  0.919229  0.920364  1
  Cd  Cd17  1  0.919882  0.919472  0.240977  1
  Cd  Cd18  1  0.241276  0.919405  0.919948  1
  Co  Co19  1  0.358955  0.922490  0.358419  1
  Co  Co20  1  0.922561  0.359083  0.358140  1
  Co  Co21  1  0.359219  0.359187  0.358909  1
  Ni  Ni22  1  0.358287  0.358724  0.923044  1
  Hg  Hg23  1  0.916332  0.251498  0.916531  1
