# generated using pymatgen
data_PrGdEr2(WO6)2
_symmetry_space_group_name_H-M   'P 1'
_cell_length_a   5.47946800
_cell_length_b   7.79052084
_cell_length_c   11.50190240
_cell_angle_alpha   75.84631034
_cell_angle_beta   90.00000000
_cell_angle_gamma   90.00000000
_symmetry_Int_Tables_number   1
_chemical_formula_structural   PrGdEr2(WO6)2
_chemical_formula_sum   'Pr2 Gd2 Er4 W4 O24'
_cell_volume   476.08727187
_cell_formula_units_Z   2
loop_
 _symmetry_equiv_pos_site_id
 _symmetry_equiv_pos_as_xyz
  1  'x, y, z'
loop_
 _atom_site_type_symbol
 _atom_site_label
 _atom_site_symmetry_multiplicity
 _atom_site_fract_x
 _atom_site_fract_y
 _atom_site_fract_z
 _atom_site_occupancy
  Pr  Pr0  1  0.684658  0.500000  0.250000  1
  Pr  Pr1  1  0.315342  0.500000  0.750000  1
  Gd  Gd2  1  0.743266  0.000000  0.250000  1
  Gd  Gd3  1  0.256734  0.000000  0.750000  1
  Er  Er4  1  0.183460  0.205329  0.422297  1
  Er  Er5  1  0.183460  0.794671  0.077703  1
  Er  Er6  1  0.816540  0.794671  0.577703  1
  Er  Er7  1  0.816540  0.205329  0.922297  1
  W  W8  1  0.254695  0.272642  0.115102  1
  W  W9  1  0.254695  0.727358  0.384898  1
  W  W10  1  0.745305  0.727358  0.884898  1
  W  W11  1  0.745305  0.272642  0.615102  1
  O  O12  1  0.450831  0.205909  0.273516  1
  O  O13  1  0.450831  0.794091  0.226484  1
  O  O14  1  0.549169  0.794091  0.726484  1
  O  O15  1  0.549169  0.205909  0.773516  1
  O  O16  1  0.050053  0.058826  0.101932  1
  O  O17  1  0.050053  0.941174  0.398068  1
  O  O18  1  0.949947  0.941174  0.898068  1
  O  O19  1  0.949947  0.058826  0.601932  1
  O  O20  1  0.987084  0.280683  0.230283  1
  O  O21  1  0.987084  0.719317  0.269717  1
  O  O22  1  0.012916  0.719317  0.769717  1
  O  O23  1  0.012916  0.280683  0.730283  1
  O  O24  1  0.856013  0.359016  0.453827  1
  O  O25  1  0.856013  0.640984  0.046173  1
  O  O26  1  0.143987  0.640984  0.546173  1
  O  O27  1  0.143987  0.359016  0.953827  1
  O  O28  1  0.654247  0.507016  0.612626  1
  O  O29  1  0.654247  0.492984  0.887374  1
  O  O30  1  0.345753  0.492984  0.387374  1
  O  O31  1  0.345753  0.507016  0.112626  1
  O  O32  1  0.462833  0.160545  0.567014  1
  O  O33  1  0.462833  0.839455  0.932986  1
  O  O34  1  0.537167  0.839455  0.432986  1
  O  O35  1  0.537167  0.160545  0.067014  1
