# generated using pymatgen
data_La5Zn2Co3
_symmetry_space_group_name_H-M   'P 1'
_cell_length_a   8.42084191
_cell_length_b   8.42084051
_cell_length_c   8.42084100
_cell_angle_alpha   109.47122182
_cell_angle_beta   109.47121844
_cell_angle_gamma   109.47122621
_symmetry_Int_Tables_number   1
_chemical_formula_structural   La5Zn2Co3
_chemical_formula_sum   'La10 Zn4 Co6'
_cell_volume   459.66825051
_cell_formula_units_Z   2
loop_
 _symmetry_equiv_pos_site_id
 _symmetry_equiv_pos_as_xyz
  1  'x, y, z'
loop_
 _atom_site_type_symbol
 _atom_site_label
 _atom_site_symmetry_multiplicity
 _atom_site_fract_x
 _atom_site_fract_y
 _atom_site_fract_z
 _atom_site_occupancy
  La  La0  1  0.250000  0.690982  0.440983  1
  La  La1  1  0.750000  0.809018  0.059018  1
  La  La2  1  0.440983  0.250000  0.690982  1
  La  La3  1  0.690982  0.440983  0.250000  1
  La  La4  1  0.059018  0.750000  0.809018  1
  La  La5  1  0.809018  0.059018  0.750000  1
  La  La6  1  0.214340  0.214340  0.214340  1
  La  La7  1  0.500001  0.000000  0.285660  1
  La  La8  1  0.285660  0.500001  0.000000  1
  La  La9  1  0.000000  0.285660  0.500001  1
  Zn  Zn10  1  0.500001  0.000000  0.912282  1
  Zn  Zn11  1  0.587718  0.587718  0.587718  1
  Zn  Zn12  1  0.912282  0.500001  0.000000  1
  Zn  Zn13  1  0.000000  0.912282  0.500001  1
  Co  Co14  1  0.250001  0.124903  0.874903  1
  Co  Co15  1  0.750000  0.375096  0.625096  1
  Co  Co16  1  0.874903  0.250001  0.124903  1
  Co  Co17  1  0.124903  0.874903  0.250001  1
  Co  Co18  1  0.625096  0.750000  0.375096  1
  Co  Co19  1  0.375096  0.625096  0.750000  1
