# generated using pymatgen
data_Tb2Lu8AlBi5
_symmetry_space_group_name_H-M   'P 1'
_cell_length_a   8.09713000
_cell_length_b   9.33859000
_cell_length_c   11.83120600
_cell_angle_alpha   90.00000000
_cell_angle_beta   90.00000000
_cell_angle_gamma   90.00000000
_symmetry_Int_Tables_number   1
_chemical_formula_structural   Tb2Lu8AlBi5
_chemical_formula_sum   'Tb4 Lu16 Al2 Bi10'
_cell_volume   894.62583746
_cell_formula_units_Z   2
loop_
 _symmetry_equiv_pos_site_id
 _symmetry_equiv_pos_as_xyz
  1  'x, y, z'
loop_
 _atom_site_type_symbol
 _atom_site_label
 _atom_site_symmetry_multiplicity
 _atom_site_fract_x
 _atom_site_fract_y
 _atom_site_fract_z
 _atom_site_occupancy
  Tb  Tb0  1  0.312294  0.250000  0.218327  1
  Tb  Tb1  1  0.812294  0.250000  0.281673  1
  Tb  Tb2  1  0.682485  0.750000  0.783319  1
  Tb  Tb3  1  0.182485  0.750000  0.716681  1
  Lu  Lu4  1  0.353507  0.750000  0.208365  1
  Lu  Lu5  1  0.853507  0.750000  0.291635  1
  Lu  Lu6  1  0.650872  0.250000  0.781021  1
  Lu  Lu7  1  0.150872  0.250000  0.718979  1
  Lu  Lu8  1  0.684626  0.571929  0.058090  1
  Lu  Lu9  1  0.184626  0.928071  0.441910  1
  Lu  Lu10  1  0.308489  0.053855  0.940356  1
  Lu  Lu11  1  0.808489  0.446145  0.559644  1
  Lu  Lu12  1  0.308489  0.446145  0.940356  1
  Lu  Lu13  1  0.808489  0.053855  0.559644  1
  Lu  Lu14  1  0.684626  0.928071  0.058090  1
  Lu  Lu15  1  0.184626  0.571929  0.441910  1
  Lu  Lu16  1  0.479976  0.250000  0.490074  1
  Lu  Lu17  1  0.979976  0.250000  0.009926  1
  Lu  Lu18  1  0.534262  0.750000  0.509972  1
  Lu  Lu19  1  0.034262  0.750000  0.990028  1
  Al  Al20  1  0.406202  0.750000  0.960245  1
  Al  Al21  1  0.906202  0.750000  0.539755  1
  Bi  Bi22  1  0.597633  0.250000  0.039279  1
  Bi  Bi23  1  0.097633  0.250000  0.460721  1
  Bi  Bi24  1  0.561166  0.994807  0.325605  1
  Bi  Bi25  1  0.061166  0.505193  0.174395  1
  Bi  Bi26  1  0.437104  0.495386  0.674891  1
  Bi  Bi27  1  0.937104  0.004614  0.825109  1
  Bi  Bi28  1  0.437104  0.004614  0.674891  1
  Bi  Bi29  1  0.937104  0.495386  0.825109  1
  Bi  Bi30  1  0.561166  0.505193  0.325605  1
  Bi  Bi31  1  0.061166  0.994807  0.174395  1
