# generated using pymatgen
data_TaTi5Mn5Si6Ru
_symmetry_space_group_name_H-M   'P 1'
_cell_length_a   7.30563583
_cell_length_b   7.32611558
_cell_length_c   7.31032948
_cell_angle_alpha   126.64406143
_cell_angle_beta   127.76627455
_cell_angle_gamma   77.81229084
_symmetry_Int_Tables_number   1
_chemical_formula_structural   TaTi5Mn5Si6Ru
_chemical_formula_sum   'Ta1 Ti5 Mn5 Si6 Ru1'
_cell_volume   240.70247800
_cell_formula_units_Z   1
loop_
 _symmetry_equiv_pos_site_id
 _symmetry_equiv_pos_as_xyz
  1  'x, y, z'
loop_
 _atom_site_type_symbol
 _atom_site_label
 _atom_site_symmetry_multiplicity
 _atom_site_fract_x
 _atom_site_fract_y
 _atom_site_fract_z
 _atom_site_occupancy
  Ta  Ta0  1  0.249852  0.902417  0.156069  1
  Ti  Ti1  1  0.950948  0.499220  0.041779  1
  Ti  Ti2  1  0.049323  0.093455  0.539434  1
  Ti  Ti3  1  0.453150  0.487959  0.540534  1
  Ti  Ti4  1  0.748514  0.900883  0.650571  1
  Ti  Ti5  1  0.552978  0.103659  0.054790  1
  Mn  Mn6  1  0.501593  0.239682  0.740979  1
  Mn  Mn7  1  0.998373  0.241794  0.241036  1
  Mn  Mn8  1  0.871802  0.497286  0.623080  1
  Mn  Mn9  1  0.624745  0.751691  0.122411  1
  Mn  Mn10  1  0.373481  0.498443  0.127394  1
  Si  Si11  1  0.743939  0.494529  0.239922  1
  Si  Si12  1  0.163650  0.169819  0.995846  1
  Si  Si13  1  0.673628  0.163257  0.500307  1
  Si  Si14  1  0.340014  0.829184  0.504617  1
  Si  Si15  1  0.252038  0.488906  0.747189  1
  Si  Si16  1  0.823997  0.829204  0.990807  1
  Ru  Ru17  1  0.127974  0.750822  0.625444  1
