# generated using pymatgen
data_Dy12Co5Hg
_symmetry_space_group_name_H-M   'P 1'
_cell_length_a   8.25261378
_cell_length_b   8.25261333
_cell_length_c   8.25261315
_cell_angle_alpha   110.81070652
_cell_angle_beta   110.11450117
_cell_angle_gamma   107.50692090
_symmetry_Int_Tables_number   1
_chemical_formula_structural   Dy12Co5Hg
_chemical_formula_sum   'Dy12 Co5 Hg1'
_cell_volume   432.26950824
_cell_formula_units_Z   1
loop_
 _symmetry_equiv_pos_site_id
 _symmetry_equiv_pos_as_xyz
  1  'x, y, z'
loop_
 _atom_site_type_symbol
 _atom_site_label
 _atom_site_symmetry_multiplicity
 _atom_site_fract_x
 _atom_site_fract_y
 _atom_site_fract_z
 _atom_site_occupancy
  Dy  Dy0  1  0.816644  0.711494  0.528138  1
  Dy  Dy1  1  0.183356  0.288506  0.471862  1
  Dy  Dy2  1  0.183356  0.711494  0.894848  1
  Dy  Dy3  1  0.816644  0.288506  0.105152  1
  Dy  Dy4  1  0.683519  0.379920  0.696401  1
  Dy  Dy5  1  0.316481  0.620080  0.303599  1
  Dy  Dy6  1  0.683519  0.987117  0.303599  1
  Dy  Dy7  1  0.316481  0.012883  0.696401  1
  Dy  Dy8  1  0.595139  0.787827  0.807312  1
  Dy  Dy9  1  0.404861  0.212173  0.192688  1
  Dy  Dy10  1  0.980515  0.787827  0.192688  1
  Dy  Dy11  1  0.019485  0.212173  0.807312  1
  Co  Co12  1  0.624092  0.000000  0.624092  1
  Co  Co13  1  0.375908  0.000000  0.375908  1
  Co  Co14  1  0.113324  0.613324  0.500000  1
  Co  Co15  1  0.886676  0.386676  0.500000  1
  Co  Co16  1  0.000000  0.000000  0.000000  1
  Hg  Hg17  1  0.500000  0.500000  0.000000  1
