# generated using pymatgen
data_Lu20Cd3Hg3Ru2
_symmetry_space_group_name_H-M   'P 1'
_cell_length_a   9.36537800
_cell_length_b   9.36537827
_cell_length_c   9.59645100
_cell_angle_alpha   90.00000000
_cell_angle_beta   90.00000000
_cell_angle_gamma   120.00000611
_symmetry_Int_Tables_number   1
_chemical_formula_structural   Lu20Cd3Hg3Ru2
_chemical_formula_sum   'Lu20 Cd3 Hg3 Ru2'
_cell_volume   728.94017933
_cell_formula_units_Z   1
loop_
 _symmetry_equiv_pos_site_id
 _symmetry_equiv_pos_as_xyz
  1  'x, y, z'
loop_
 _atom_site_type_symbol
 _atom_site_label
 _atom_site_symmetry_multiplicity
 _atom_site_fract_x
 _atom_site_fract_y
 _atom_site_fract_z
 _atom_site_occupancy
  Lu  Lu0  1  0.000000  0.000000  0.491144  1
  Lu  Lu1  1  0.000000  0.000000  0.008856  1
  Lu  Lu2  1  0.209509  0.790491  0.440337  1
  Lu  Lu3  1  0.209509  0.419020  0.440337  1
  Lu  Lu4  1  0.580980  0.790491  0.440337  1
  Lu  Lu5  1  0.790265  0.209735  0.558772  1
  Lu  Lu6  1  0.790265  0.580530  0.558772  1
  Lu  Lu7  1  0.419470  0.209735  0.558772  1
  Lu  Lu8  1  0.790265  0.209735  0.941228  1
  Lu  Lu9  1  0.790265  0.580530  0.941228  1
  Lu  Lu10  1  0.419470  0.209735  0.941228  1
  Lu  Lu11  1  0.209509  0.790491  0.059663  1
  Lu  Lu12  1  0.209509  0.419020  0.059663  1
  Lu  Lu13  1  0.580980  0.790491  0.059663  1
  Lu  Lu14  1  0.541122  0.458878  0.250000  1
  Lu  Lu15  1  0.541122  0.082245  0.250000  1
  Lu  Lu16  1  0.917755  0.458878  0.250000  1
  Lu  Lu17  1  0.458983  0.541017  0.750000  1
  Lu  Lu18  1  0.458983  0.917967  0.750000  1
  Lu  Lu19  1  0.082033  0.541017  0.750000  1
  Cd  Cd20  1  0.112818  0.887182  0.750000  1
  Cd  Cd21  1  0.112818  0.225635  0.750000  1
  Cd  Cd22  1  0.774365  0.887182  0.750000  1
  Hg  Hg23  1  0.880170  0.119830  0.250000  1
  Hg  Hg24  1  0.880170  0.760340  0.250000  1
  Hg  Hg25  1  0.239660  0.119830  0.250000  1
  Ru  Ru26  1  0.333333  0.666667  0.250000  1
  Ru  Ru27  1  0.666667  0.333333  0.750000  1
