# generated using pymatgen
data_CsSb3O5
_symmetry_space_group_name_H-M   'P 1'
_cell_length_a   14.54091700
_cell_length_b   7.79831458
_cell_length_c   9.06712915
_cell_angle_alpha   55.78430270
_cell_angle_beta   90.00000000
_cell_angle_gamma   90.00000000
_symmetry_Int_Tables_number   1
_chemical_formula_structural   CsSb3O5
_chemical_formula_sum   'Cs4 Sb12 O20'
_cell_volume   850.21601886
_cell_formula_units_Z   4
loop_
 _symmetry_equiv_pos_site_id
 _symmetry_equiv_pos_as_xyz
  1  'x, y, z'
loop_
 _atom_site_type_symbol
 _atom_site_label
 _atom_site_symmetry_multiplicity
 _atom_site_fract_x
 _atom_site_fract_y
 _atom_site_fract_z
 _atom_site_occupancy
  Cs  Cs0  1  0.249005  0.931409  0.970758  1
  Cs  Cs1  1  0.749005  0.068591  0.529242  1
  Cs  Cs2  1  0.750995  0.068591  0.029242  1
  Cs  Cs3  1  0.250995  0.931409  0.470758  1
  Sb  Sb4  1  0.603047  0.568259  0.626394  1
  Sb  Sb5  1  0.103047  0.431741  0.873606  1
  Sb  Sb6  1  0.396953  0.431741  0.373606  1
  Sb  Sb7  1  0.896953  0.568259  0.126394  1
  Sb  Sb8  1  0.015913  0.964769  0.196408  1
  Sb  Sb9  1  0.515913  0.035231  0.303592  1
  Sb  Sb10  1  0.984087  0.035231  0.803592  1
  Sb  Sb11  1  0.484087  0.964769  0.696408  1
  Sb  Sb12  1  0.647418  0.530663  0.041890  1
  Sb  Sb13  1  0.147418  0.469337  0.458110  1
  Sb  Sb14  1  0.352582  0.469337  0.958110  1
  Sb  Sb15  1  0.852582  0.530663  0.541890  1
  O  O16  1  0.128702  0.155334  0.100844  1
  O  O17  1  0.628702  0.844666  0.399156  1
  O  O18  1  0.871298  0.844666  0.899156  1
  O  O19  1  0.371298  0.155334  0.600844  1
  O  O20  1  0.160755  0.351324  0.719047  1
  O  O21  1  0.660755  0.648676  0.780953  1
  O  O22  1  0.839245  0.648676  0.280953  1
  O  O23  1  0.339245  0.351324  0.219047  1
  O  O24  1  0.099765  0.734549  0.404458  1
  O  O25  1  0.599765  0.265451  0.095542  1
  O  O26  1  0.900235  0.265451  0.595542  1
  O  O27  1  0.400235  0.734549  0.904458  1
  O  O28  1  0.470135  0.805234  0.585326  1
  O  O29  1  0.970135  0.194766  0.914674  1
  O  O30  1  0.529865  0.194766  0.414674  1
  O  O31  1  0.029865  0.805234  0.085326  1
  O  O32  1  0.277653  0.563135  0.389851  1
  O  O33  1  0.777653  0.436865  0.110149  1
  O  O34  1  0.722347  0.436865  0.610149  1
  O  O35  1  0.222347  0.563135  0.889851  1
