# generated using pymatgen
data_Cs2Pr10Fe2Br17
_symmetry_space_group_name_H-M   'P 1'
_cell_length_a   9.54141132
_cell_length_b   11.21296066
_cell_length_c   11.21318245
_cell_angle_alpha   107.86605735
_cell_angle_beta   93.52855126
_cell_angle_gamma   93.53353961
_symmetry_Int_Tables_number   1
_chemical_formula_structural   Cs2Pr10Fe2Br17
_chemical_formula_sum   'Cs2 Pr10 Fe2 Br17'
_cell_volume   1135.55226516
_cell_formula_units_Z   1
loop_
 _symmetry_equiv_pos_site_id
 _symmetry_equiv_pos_as_xyz
  1  'x, y, z'
loop_
 _atom_site_type_symbol
 _atom_site_label
 _atom_site_symmetry_multiplicity
 _atom_site_fract_x
 _atom_site_fract_y
 _atom_site_fract_z
 _atom_site_occupancy
  Cs  Cs0  1  0.998927  0.820729  0.178020  1
  Cs  Cs1  1  0.998923  0.178018  0.820735  1
  Pr  Pr2  1  0.438089  0.165385  0.165381  1
  Pr  Pr3  1  0.574116  0.505985  0.207063  1
  Pr  Pr4  1  0.826168  0.290824  0.290842  1
  Pr  Pr5  1  0.311624  0.438562  0.438570  1
  Pr  Pr6  1  0.425914  0.801984  0.487915  1
  Pr  Pr7  1  0.574051  0.207029  0.505965  1
  Pr  Pr8  1  0.685912  0.569581  0.569572  1
  Pr  Pr9  1  0.181666  0.706303  0.706333  1
  Pr  Pr10  1  0.425946  0.487917  0.801994  1
  Pr  Pr11  1  0.559562  0.830344  0.830327  1
  Fe  Fe12  1  0.570840  0.357937  0.357942  1
  Fe  Fe13  1  0.430157  0.642953  0.642956  1
  Br  Br14  1  0.580533  0.685546  0.022584  1
  Br  Br15  1  0.712493  0.066438  0.066433  1
  Br  Br16  1  0.857171  0.449761  0.120129  1
  Br  Br17  1  0.132196  0.207463  0.207408  1
  Br  Br18  1  0.283664  0.603741  0.255387  1
  Br  Br19  1  0.419497  0.979943  0.310908  1
  Br  Br20  1  0.716271  0.745100  0.396998  1
  Br  Br21  1  0.857121  0.120110  0.449765  1
  Br  Br22  1  0.999182  0.500465  0.500524  1
  Br  Br23  1  0.142413  0.880132  0.548447  1
  Br  Br24  1  0.283634  0.255392  0.603760  1
  Br  Br25  1  0.580458  0.022587  0.685509  1
  Br  Br26  1  0.716260  0.396987  0.745063  1
  Br  Br27  1  0.868197  0.792127  0.792036  1
  Br  Br28  1  0.142437  0.548425  0.880164  1
  Br  Br29  1  0.287080  0.931263  0.931277  1
  Br  Br30  1  0.419505  0.310968  0.979996  1
