# generated using pymatgen
data_Ca5SbP2
_symmetry_space_group_name_H-M   'P 1'
_cell_length_a   8.86533380
_cell_length_b   8.86510210
_cell_length_c   8.86512732
_cell_angle_alpha   126.62830760
_cell_angle_beta   126.62707894
_cell_angle_gamma   78.85734943
_symmetry_Int_Tables_number   1
_chemical_formula_structural   Ca5SbP2
_chemical_formula_sum   'Ca10 Sb2 P4'
_cell_volume   434.17722237
_cell_formula_units_Z   2
loop_
 _symmetry_equiv_pos_site_id
 _symmetry_equiv_pos_as_xyz
  1  'x, y, z'
loop_
 _atom_site_type_symbol
 _atom_site_label
 _atom_site_symmetry_multiplicity
 _atom_site_fract_x
 _atom_site_fract_y
 _atom_site_fract_z
 _atom_site_occupancy
  Ca  Ca0  1  0.783476  0.283475  0.802788  1
  Ca  Ca1  1  0.216524  0.716525  0.197212  1
  Ca  Ca2  1  0.480681  0.980678  0.197191  1
  Ca  Ca3  1  0.283483  0.480696  0.500004  1
  Ca  Ca4  1  0.019308  0.216515  0.499998  1
  Ca  Ca5  1  0.519319  0.019322  0.802809  1
  Ca  Ca6  1  0.716517  0.519304  0.499996  1
  Ca  Ca7  1  0.980692  0.783485  0.500002  1
  Ca  Ca8  1  0.000000  0.000000  0.000000  1
  Ca  Ca9  1  0.500000  0.500000  0.000000  1
  Sb  Sb10  1  0.250006  0.249999  0.000003  1
  Sb  Sb11  1  0.749994  0.750001  0.999997  1
  P  P12  1  0.157125  0.657127  0.814246  1
  P  P13  1  0.842875  0.342873  0.185754  1
  P  P14  1  0.657110  0.842888  0.499996  1
  P  P15  1  0.342890  0.157112  0.500004  1
