# generated using pymatgen
data_Ho10Cd5Hg3Pd4
_symmetry_space_group_name_H-M   'P 1'
_cell_length_a   3.65597200
_cell_length_b   7.92709806
_cell_length_c   18.25322388
_cell_angle_alpha   90.04916446
_cell_angle_beta   90.00000000
_cell_angle_gamma   90.00000000
_symmetry_Int_Tables_number   1
_chemical_formula_structural   Ho10Cd5Hg3Pd4
_chemical_formula_sum   'Ho10 Cd5 Hg3 Pd4'
_cell_volume   529.00102352
_cell_formula_units_Z   1
loop_
 _symmetry_equiv_pos_site_id
 _symmetry_equiv_pos_as_xyz
  1  'x, y, z'
loop_
 _atom_site_type_symbol
 _atom_site_label
 _atom_site_symmetry_multiplicity
 _atom_site_fract_x
 _atom_site_fract_y
 _atom_site_fract_z
 _atom_site_occupancy
  Ho  Ho0  1  0.000000  0.502383  0.497760  1
  Ho  Ho1  1  0.000000  0.000322  0.000328  1
  Ho  Ho2  1  0.000000  0.741755  0.284687  1
  Ho  Ho3  1  0.000000  0.256793  0.718103  1
  Ho  Ho4  1  0.000000  0.759099  0.784304  1
  Ho  Ho5  1  0.000000  0.241864  0.214606  1
  Ho  Ho6  1  0.000000  0.612016  0.084472  1
  Ho  Ho7  1  0.000000  0.390202  0.916584  1
  Ho  Ho8  1  0.000000  0.883734  0.584301  1
  Ho  Ho9  1  0.000000  0.111540  0.415374  1
  Cd  Cd10  1  0.500000  0.214448  0.566925  1
  Cd  Cd11  1  0.500000  0.574864  0.648549  1
  Cd  Cd12  1  0.500000  0.417907  0.350305  1
  Cd  Cd13  1  0.500000  0.919519  0.149124  1
  Cd  Cd14  1  0.500000  0.080449  0.851682  1
  Hg  Hg15  1  0.500000  0.716888  0.934632  1
  Hg  Hg16  1  0.500000  0.285293  0.065039  1
  Hg  Hg17  1  0.500000  0.786911  0.434240  1
  Pd  Pd18  1  0.500000  0.531517  0.197043  1
  Pd  Pd19  1  0.500000  0.470682  0.803678  1
  Pd  Pd20  1  0.500000  0.970670  0.695834  1
  Pd  Pd21  1  0.500000  0.031144  0.302428  1
