# generated using pymatgen
data_Hf3TiSi3MoN
_symmetry_space_group_name_H-M   'P 1'
_cell_length_a   7.68108000
_cell_length_b   7.68108015
_cell_length_c   5.29885500
_cell_angle_alpha   90.00000000
_cell_angle_beta   90.00000000
_cell_angle_gamma   120.00000798
_symmetry_Int_Tables_number   1
_chemical_formula_structural   Hf3TiSi3MoN
_chemical_formula_sum   'Hf6 Ti2 Si6 Mo2 N2'
_cell_volume   270.74298780
_cell_formula_units_Z   2
loop_
 _symmetry_equiv_pos_site_id
 _symmetry_equiv_pos_as_xyz
  1  'x, y, z'
loop_
 _atom_site_type_symbol
 _atom_site_label
 _atom_site_symmetry_multiplicity
 _atom_site_fract_x
 _atom_site_fract_y
 _atom_site_fract_z
 _atom_site_occupancy
  Hf  Hf0  1  0.237029  0.000000  0.251435  1
  Hf  Hf1  1  0.762971  0.000000  0.748565  1
  Hf  Hf2  1  0.000000  0.237029  0.251435  1
  Hf  Hf3  1  0.000000  0.762971  0.748565  1
  Hf  Hf4  1  0.762971  0.762971  0.251435  1
  Hf  Hf5  1  0.237029  0.237029  0.748565  1
  Ti  Ti6  1  0.333333  0.666667  0.000000  1
  Ti  Ti7  1  0.666667  0.333333  0.000000  1
  Si  Si8  1  0.589795  0.000000  0.256802  1
  Si  Si9  1  0.410205  0.000000  0.743198  1
  Si  Si10  1  0.000000  0.589795  0.256802  1
  Si  Si11  1  0.000000  0.410205  0.743198  1
  Si  Si12  1  0.410205  0.410205  0.256802  1
  Si  Si13  1  0.589795  0.589795  0.743198  1
  Mo  Mo14  1  0.666667  0.333333  0.500000  1
  Mo  Mo15  1  0.333333  0.666667  0.500000  1
  N  N16  1  0.000000  0.000000  0.000000  1
  N  N17  1  0.000000  0.000000  0.500000  1
