# generated using pymatgen
data_Li4Er3ThSi8
_symmetry_space_group_name_H-M   'P 1'
_cell_length_a   3.78141100
_cell_length_b   7.65972765
_cell_length_c   10.21882502
_cell_angle_alpha   89.97134586
_cell_angle_beta   90.00000000
_cell_angle_gamma   90.00000000
_symmetry_Int_Tables_number   1
_chemical_formula_structural   Li4Er3ThSi8
_chemical_formula_sum   'Li4 Er3 Th1 Si8'
_cell_volume   295.98392146
_cell_formula_units_Z   1
loop_
 _symmetry_equiv_pos_site_id
 _symmetry_equiv_pos_as_xyz
  1  'x, y, z'
loop_
 _atom_site_type_symbol
 _atom_site_label
 _atom_site_symmetry_multiplicity
 _atom_site_fract_x
 _atom_site_fract_y
 _atom_site_fract_z
 _atom_site_occupancy
  Li  Li0  1  0.250000  0.991558  0.392869  1
  Li  Li1  1  0.750000  0.010925  0.609879  1
  Li  Li2  1  0.250000  0.489761  0.104825  1
  Li  Li3  1  0.750000  0.510322  0.893869  1
  Er  Er4  1  0.250000  0.133500  0.861835  1
  Er  Er5  1  0.750000  0.865313  0.135825  1
  Er  Er6  1  0.250000  0.635247  0.636940  1
  Th  Th7  1  0.750000  0.359148  0.361583  1
  Si  Si8  1  0.750000  0.260933  0.061957  1
  Si  Si9  1  0.250000  0.732950  0.933841  1
  Si  Si10  1  0.750000  0.773059  0.434285  1
  Si  Si11  1  0.250000  0.234756  0.571622  1
  Si  Si12  1  0.750000  0.842512  0.819628  1
  Si  Si13  1  0.250000  0.153863  0.177209  1
  Si  Si14  1  0.750000  0.342798  0.686173  1
  Si  Si15  1  0.250000  0.663352  0.317661  1
