# generated using pymatgen
data_Tb4CSe3
_symmetry_space_group_name_H-M   'P 1'
_cell_length_a   6.96436055
_cell_length_b   6.96436017
_cell_length_c   7.00617400
_cell_angle_alpha   79.32192012
_cell_angle_beta   79.32192071
_cell_angle_gamma   32.45002580
_symmetry_Int_Tables_number   1
_chemical_formula_structural   Tb4CSe3
_chemical_formula_sum   'Tb4 C1 Se3'
_cell_volume   178.90553385
_cell_formula_units_Z   1
loop_
 _symmetry_equiv_pos_site_id
 _symmetry_equiv_pos_as_xyz
  1  'x, y, z'
loop_
 _atom_site_type_symbol
 _atom_site_label
 _atom_site_symmetry_multiplicity
 _atom_site_fract_x
 _atom_site_fract_y
 _atom_site_fract_z
 _atom_site_occupancy
  Tb  Tb0  1  0.230683  0.230683  0.224971  1
  Tb  Tb1  1  0.511959  0.511959  0.455210  1
  Tb  Tb2  1  0.738048  0.738048  0.794757  1
  Tb  Tb3  1  0.019309  0.019309  0.024985  1
  C  C4  1  0.624998  0.624998  0.125045  1
  Se  Se5  1  0.865580  0.865580  0.379288  1
  Se  Se6  1  0.124992  0.124992  0.625051  1
  Se  Se7  1  0.384430  0.384430  0.870694  1
