# generated using pymatgen
data_ErTmGaCo2
_symmetry_space_group_name_H-M   'P 1'
_cell_length_a   4.00865395
_cell_length_b   5.40895543
_cell_length_c   5.31061721
_cell_angle_alpha   120.61446674
_cell_angle_beta   112.17390367
_cell_angle_gamma   89.99999983
_symmetry_Int_Tables_number   1
_chemical_formula_structural   ErTmGaCo2
_chemical_formula_sum   'Er1 Tm1 Ga1 Co2'
_cell_volume   89.06025862
_cell_formula_units_Z   1
loop_
 _symmetry_equiv_pos_site_id
 _symmetry_equiv_pos_as_xyz
  1  'x, y, z'
loop_
 _atom_site_type_symbol
 _atom_site_label
 _atom_site_symmetry_multiplicity
 _atom_site_fract_x
 _atom_site_fract_y
 _atom_site_fract_z
 _atom_site_occupancy
  Er  Er0  1  0.794389  0.294389  0.588778  1
  Tm  Tm1  1  0.205594  0.705594  0.411188  1
  Ga  Ga2  1  0.999919  0.999919  0.999837  1
  Co  Co3  1  0.500049  0.282499  0.000098  1
  Co  Co4  1  0.500049  0.717599  0.000098  1
