# generated using pymatgen
data_Ca2SmAl3Si2Pd
_symmetry_space_group_name_H-M   'P 1'
_cell_length_a   6.93275300
_cell_length_b   6.97823058
_cell_length_c   4.36116800
_cell_angle_alpha   90.00000000
_cell_angle_beta   90.00000000
_cell_angle_gamma   119.78465512
_symmetry_Int_Tables_number   1
_chemical_formula_structural   Ca2SmAl3Si2Pd
_chemical_formula_sum   'Ca2 Sm1 Al3 Si2 Pd1'
_cell_volume   183.11453066
_cell_formula_units_Z   1
loop_
 _symmetry_equiv_pos_site_id
 _symmetry_equiv_pos_as_xyz
  1  'x, y, z'
loop_
 _atom_site_type_symbol
 _atom_site_label
 _atom_site_symmetry_multiplicity
 _atom_site_fract_x
 _atom_site_fract_y
 _atom_site_fract_z
 _atom_site_occupancy
  Ca  Ca0  1  0.000457  0.423714  0.000000  1
  Ca  Ca1  1  0.576742  0.576286  0.000000  1
  Sm  Sm2  1  0.422859  0.000000  0.000000  1
  Al  Al3  1  0.764499  0.000000  0.500000  1
  Al  Al4  1  0.236886  0.235743  0.500000  1
  Al  Al5  1  0.001142  0.764257  0.500000  1
  Si  Si6  1  0.664475  0.331448  0.500000  1
  Si  Si7  1  0.333027  0.668552  0.500000  1
  Pd  Pd8  1  0.999911  0.000000  0.000000  1
