# generated using pymatgen
data_Ta3Mn6NbIr2
_symmetry_space_group_name_H-M   'P 1'
_cell_length_a   4.81769000
_cell_length_b   4.81768956
_cell_length_c   8.24760200
_cell_angle_alpha   90.00000000
_cell_angle_beta   90.00000000
_cell_angle_gamma   119.99998927
_symmetry_Int_Tables_number   1
_chemical_formula_structural   Ta3Mn6NbIr2
_chemical_formula_sum   'Ta3 Mn6 Nb1 Ir2'
_cell_volume   165.78148946
_cell_formula_units_Z   1
loop_
 _symmetry_equiv_pos_site_id
 _symmetry_equiv_pos_as_xyz
  1  'x, y, z'
loop_
 _atom_site_type_symbol
 _atom_site_label
 _atom_site_symmetry_multiplicity
 _atom_site_fract_x
 _atom_site_fract_y
 _atom_site_fract_z
 _atom_site_occupancy
  Ta  Ta0  1  0.666666  0.333333  0.429800  1
  Ta  Ta1  1  0.333333  0.666666  0.571055  1
  Ta  Ta2  1  0.333333  0.666666  0.928615  1
  Mn  Mn3  1  0.178328  0.356654  0.250018  1
  Mn  Mn4  1  0.178328  0.821673  0.250018  1
  Mn  Mn5  1  0.643347  0.821673  0.250018  1
  Mn  Mn6  1  0.356689  0.178346  0.749800  1
  Mn  Mn7  1  0.821654  0.178346  0.749800  1
  Mn  Mn8  1  0.821654  0.643310  0.749800  1
  Nb  Nb9  1  0.666666  0.333333  0.072381  1
  Ir  Ir10  1  0.000000  0.000000  0.999227  1
  Ir  Ir11  1  0.000000  0.000000  0.499469  1
