# generated using pymatgen
data_TmSn2Rh3
_symmetry_space_group_name_H-M   'P 1'
_cell_length_a   4.54284500
_cell_length_b   4.54284460
_cell_length_c   12.37993900
_cell_angle_alpha   90.00000000
_cell_angle_beta   90.00000000
_cell_angle_gamma   119.99999565
_symmetry_Int_Tables_number   1
_chemical_formula_structural   TmSn2Rh3
_chemical_formula_sum   'Tm2 Sn4 Rh6'
_cell_volume   221.26104303
_cell_formula_units_Z   2
loop_
 _symmetry_equiv_pos_site_id
 _symmetry_equiv_pos_as_xyz
  1  'x, y, z'
loop_
 _atom_site_type_symbol
 _atom_site_label
 _atom_site_symmetry_multiplicity
 _atom_site_fract_x
 _atom_site_fract_y
 _atom_site_fract_z
 _atom_site_occupancy
  Tm  Tm0  1  0.000000  0.000000  0.250000  1
  Tm  Tm1  1  0.000000  0.000000  0.750000  1
  Sn  Sn2  1  0.333334  0.666667  0.091141  1
  Sn  Sn3  1  0.333334  0.666667  0.408859  1
  Sn  Sn4  1  0.666666  0.333334  0.591141  1
  Sn  Sn5  1  0.666666  0.333334  0.908859  1
  Rh  Rh6  1  0.000000  0.000000  0.000000  1
  Rh  Rh7  1  0.666666  0.333334  0.129577  1
  Rh  Rh8  1  0.666666  0.333334  0.370423  1
  Rh  Rh9  1  0.000000  0.000000  0.500000  1
  Rh  Rh10  1  0.333334  0.666667  0.629577  1
  Rh  Rh11  1  0.333334  0.666667  0.870423  1
