# generated using pymatgen
data_Ti5Al16GaPt6Rh
_symmetry_space_group_name_H-M   'P 1'
_cell_length_a   8.62072597
_cell_length_b   8.66983766
_cell_length_c   8.66966862
_cell_angle_alpha   59.64267725
_cell_angle_beta   60.18317337
_cell_angle_gamma   60.18323869
_symmetry_Int_Tables_number   1
_chemical_formula_structural   Ti5Al16GaPt6Rh
_chemical_formula_sum   'Ti5 Al16 Ga1 Pt6 Rh1'
_cell_volume   458.19090377
_cell_formula_units_Z   1
loop_
 _symmetry_equiv_pos_site_id
 _symmetry_equiv_pos_as_xyz
  1  'x, y, z'
loop_
 _atom_site_type_symbol
 _atom_site_label
 _atom_site_symmetry_multiplicity
 _atom_site_fract_x
 _atom_site_fract_y
 _atom_site_fract_z
 _atom_site_occupancy
  Ti  Ti0  1  0.812925  0.187052  0.187068  1
  Ti  Ti1  1  0.790598  0.208083  0.792453  1
  Ti  Ti2  1  0.790634  0.792471  0.208078  1
  Ti  Ti3  1  0.208861  0.792400  0.208133  1
  Ti  Ti4  1  0.208891  0.208137  0.792386  1
  Al  Al5  1  0.879820  0.842486  0.842453  1
  Al  Al6  1  0.854565  0.828917  0.462018  1
  Al  Al7  1  0.435222  0.842480  0.842487  1
  Al  Al8  1  0.854577  0.461964  0.828904  1
  Al  Al9  1  0.167181  0.147879  0.147879  1
  Al  Al10  1  0.155301  0.128516  0.560898  1
  Al  Al11  1  0.155333  0.560889  0.128507  1
  Al  Al12  1  0.536951  0.147954  0.147914  1
  Al  Al13  1  0.628274  0.614132  0.614151  1
  Al  Al14  1  0.630578  0.616737  0.122069  1
  Al  Al15  1  0.143460  0.614091  0.614114  1
  Al  Al16  1  0.630592  0.122062  0.616735  1
  Al  Al17  1  0.376972  0.371974  0.371985  1
  Al  Al18  1  0.381922  0.380990  0.855123  1
  Al  Al19  1  0.381910  0.855117  0.381019  1
  Al  Al20  1  0.879068  0.371943  0.371976  1
  Ga  Ga21  1  0.036806  0.963166  0.963176  1
  Pt  Pt22  1  0.511053  0.988991  0.989005  1
  Pt  Pt23  1  0.509744  0.996063  0.490657  1
  Pt  Pt24  1  0.509750  0.490695  0.996056  1
  Pt  Pt25  1  0.003495  0.490707  0.996145  1
  Pt  Pt26  1  0.003534  0.996145  0.490671  1
  Pt  Pt27  1  0.511723  0.488253  0.488275  1
  Rh  Rh28  1  0.010262  0.489703  0.489661  1
