# generated using pymatgen
data_Ta2BeMoIr4
_symmetry_space_group_name_H-M   'P 1'
_cell_length_a   6.77536100
_cell_length_b   6.77536042
_cell_length_c   2.87470900
_cell_angle_alpha   90.00000000
_cell_angle_beta   90.00000000
_cell_angle_gamma   118.89969736
_symmetry_Int_Tables_number   1
_chemical_formula_structural   Ta2BeMoIr4
_chemical_formula_sum   'Ta2 Be1 Mo1 Ir4'
_cell_volume   115.53100497
_cell_formula_units_Z   1
loop_
 _symmetry_equiv_pos_site_id
 _symmetry_equiv_pos_as_xyz
  1  'x, y, z'
loop_
 _atom_site_type_symbol
 _atom_site_label
 _atom_site_symmetry_multiplicity
 _atom_site_fract_x
 _atom_site_fract_y
 _atom_site_fract_z
 _atom_site_occupancy
  Ta  Ta0  1  0.227339  0.772661  0.500000  1
  Ta  Ta1  1  0.772661  0.227339  0.500000  1
  Be  Be2  1  0.500000  0.500000  0.500000  1
  Mo  Mo3  1  0.000000  0.000000  0.500000  1
  Ir  Ir4  1  0.830471  0.596282  0.000000  1
  Ir  Ir5  1  0.403718  0.169529  0.000000  1
  Ir  Ir6  1  0.169529  0.403718  0.000000  1
  Ir  Ir7  1  0.596282  0.830471  0.000000  1
