# generated using pymatgen
data_DyEr2Al12Ru3Rh
_symmetry_space_group_name_H-M   'P 1'
_cell_length_a   8.79260079
_cell_length_b   8.79260139
_cell_length_c   9.53992300
_cell_angle_alpha   90.00000000
_cell_angle_beta   90.00000000
_cell_angle_gamma   119.56759882
_symmetry_Int_Tables_number   1
_chemical_formula_structural   DyEr2Al12Ru3Rh
_chemical_formula_sum   'Dy2 Er4 Al24 Ru6 Rh2'
_cell_volume   641.48438630
_cell_formula_units_Z   2
loop_
 _symmetry_equiv_pos_site_id
 _symmetry_equiv_pos_as_xyz
  1  'x, y, z'
loop_
 _atom_site_type_symbol
 _atom_site_label
 _atom_site_symmetry_multiplicity
 _atom_site_fract_x
 _atom_site_fract_y
 _atom_site_fract_z
 _atom_site_occupancy
  Dy  Dy0  1  0.810118  0.613630  0.750000  1
  Dy  Dy1  1  0.386370  0.189882  0.750000  1
  Er  Er2  1  0.194777  0.805223  0.250000  1
  Er  Er3  1  0.189999  0.386842  0.250000  1
  Er  Er4  1  0.613158  0.810001  0.250000  1
  Er  Er5  1  0.805277  0.194723  0.750000  1
  Al  Al6  1  0.560816  0.439184  0.250000  1
  Al  Al7  1  0.560287  0.122220  0.250000  1
  Al  Al8  1  0.877780  0.439713  0.250000  1
  Al  Al9  1  0.438840  0.561160  0.750000  1
  Al  Al10  1  0.439798  0.877442  0.750000  1
  Al  Al11  1  0.122558  0.560202  0.750000  1
  Al  Al12  1  0.323719  0.161207  0.421652  1
  Al  Al13  1  0.837090  0.162910  0.422238  1
  Al  Al14  1  0.838793  0.676281  0.421652  1
  Al  Al15  1  0.676182  0.838906  0.578007  1
  Al  Al16  1  0.163000  0.837000  0.577504  1
  Al  Al17  1  0.161094  0.323818  0.578007  1
  Al  Al18  1  0.676182  0.838906  0.921993  1
  Al  Al19  1  0.163000  0.837000  0.922496  1
  Al  Al20  1  0.161094  0.323818  0.921993  1
  Al  Al21  1  0.323719  0.161207  0.078348  1
  Al  Al22  1  0.837090  0.162910  0.077762  1
  Al  Al23  1  0.838793  0.676281  0.078348  1
  Al  Al24  1  0.667965  0.332035  0.518452  1
  Al  Al25  1  0.332149  0.667851  0.481280  1
  Al  Al26  1  0.332149  0.667851  0.018720  1
  Al  Al27  1  0.667965  0.332035  0.981548  1
  Al  Al28  1  0.999419  0.000581  0.250000  1
  Al  Al29  1  0.000440  0.999560  0.750000  1
  Ru  Ru30  1  0.999996  0.000004  0.499948  1
  Ru  Ru31  1  0.999996  0.000004  0.000052  1
  Ru  Ru32  1  0.500054  0.999736  0.499766  1
  Ru  Ru33  1  0.000264  0.499946  0.499766  1
  Ru  Ru34  1  0.500054  0.999736  0.000234  1
  Ru  Ru35  1  0.000264  0.499946  0.000234  1
  Rh  Rh36  1  0.499875  0.500125  0.499718  1
  Rh  Rh37  1  0.499875  0.500125  0.000282  1
