# generated using pymatgen
data_Yb20IrRh3
_symmetry_space_group_name_H-M   'P 1'
_cell_length_a   6.74516349
_cell_length_b   7.36073029
_cell_length_c   15.85378500
_cell_angle_alpha   90.00000000
_cell_angle_beta   90.00000000
_cell_angle_gamma   89.96757894
_symmetry_Int_Tables_number   1
_chemical_formula_structural   Yb20IrRh3
_chemical_formula_sum   'Yb20 Ir1 Rh3'
_cell_volume   787.12966461
_cell_formula_units_Z   1
loop_
 _symmetry_equiv_pos_site_id
 _symmetry_equiv_pos_as_xyz
  1  'x, y, z'
loop_
 _atom_site_type_symbol
 _atom_site_label
 _atom_site_symmetry_multiplicity
 _atom_site_fract_x
 _atom_site_fract_y
 _atom_site_fract_z
 _atom_site_occupancy
  Yb  Yb0  1  0.154477  0.098707  0.250000  1
  Yb  Yb1  1  0.859001  0.190518  0.564989  1
  Yb  Yb2  1  0.844089  0.905674  0.750000  1
  Yb  Yb3  1  0.825086  0.462023  0.146352  1
  Yb  Yb4  1  0.174948  0.537765  0.646171  1
  Yb  Yb5  1  0.359933  0.308144  0.065071  1
  Yb  Yb6  1  0.348088  0.594213  0.250000  1
  Yb  Yb7  1  0.825086  0.462023  0.353648  1
  Yb  Yb8  1  0.323791  0.037268  0.853725  1
  Yb  Yb9  1  0.139731  0.808614  0.068479  1
  Yb  Yb10  1  0.640455  0.691397  0.564872  1
  Yb  Yb11  1  0.676330  0.962164  0.353147  1
  Yb  Yb12  1  0.640455  0.691397  0.935128  1
  Yb  Yb13  1  0.323791  0.037268  0.646275  1
  Yb  Yb14  1  0.139731  0.808614  0.431521  1
  Yb  Yb15  1  0.655245  0.405774  0.750000  1
  Yb  Yb16  1  0.174948  0.537765  0.853829  1
  Yb  Yb17  1  0.359933  0.308144  0.434929  1
  Yb  Yb18  1  0.676330  0.962164  0.146853  1
  Yb  Yb19  1  0.859001  0.190518  0.935011  1
  Ir  Ir20  1  0.964880  0.758085  0.250000  1
  Rh  Rh21  1  0.034411  0.242285  0.750000  1
  Rh  Rh22  1  0.464817  0.742077  0.750000  1
  Rh  Rh23  1  0.535441  0.257403  0.250000  1
