# generated using pymatgen
data_DyAl10TcRh
_symmetry_space_group_name_H-M   'P 1'
_cell_length_a   6.88328519
_cell_length_b   6.88328538
_cell_length_c   9.19123987
_cell_angle_alpha   90.54596221
_cell_angle_beta   90.54596088
_cell_angle_gamma   96.85815534
_symmetry_Int_Tables_number   1
_chemical_formula_structural   DyAl10TcRh
_chemical_formula_sum   'Dy2 Al20 Tc2 Rh2'
_cell_volume   432.31691555
_cell_formula_units_Z   2
loop_
 _symmetry_equiv_pos_site_id
 _symmetry_equiv_pos_as_xyz
  1  'x, y, z'
loop_
 _atom_site_type_symbol
 _atom_site_label
 _atom_site_symmetry_multiplicity
 _atom_site_fract_x
 _atom_site_fract_y
 _atom_site_fract_z
 _atom_site_occupancy
  Dy  Dy0  1  0.873211  0.126789  0.750000  1
  Dy  Dy1  1  0.126789  0.873211  0.250000  1
  Al  Al2  1  0.620633  0.375762  0.548978  1
  Al  Al3  1  0.379367  0.624238  0.451022  1
  Al  Al4  1  0.375762  0.620633  0.048978  1
  Al  Al5  1  0.624238  0.379367  0.951022  1
  Al  Al6  1  0.226496  0.225099  0.498329  1
  Al  Al7  1  0.773504  0.774901  0.501671  1
  Al  Al8  1  0.774901  0.773504  0.001671  1
  Al  Al9  1  0.225099  0.226496  0.998329  1
  Al  Al10  1  0.846402  0.157345  0.099554  1
  Al  Al11  1  0.153598  0.842655  0.900446  1
  Al  Al12  1  0.157345  0.846402  0.599554  1
  Al  Al13  1  0.842655  0.153598  0.400446  1
  Al  Al14  1  0.859517  0.588753  0.750708  1
  Al  Al15  1  0.140483  0.411247  0.249292  1
  Al  Al16  1  0.411247  0.140483  0.749292  1
  Al  Al17  1  0.588753  0.859517  0.250708  1
  Al  Al18  1  0.222137  0.478380  0.754235  1
  Al  Al19  1  0.777863  0.521620  0.245765  1
  Al  Al20  1  0.521620  0.777863  0.745765  1
  Al  Al21  1  0.478380  0.222137  0.254235  1
  Tc  Tc22  1  0.000000  0.500000  0.000000  1
  Tc  Tc23  1  0.500000  0.000000  0.500000  1
  Rh  Rh24  1  0.000000  0.500000  0.500000  1
  Rh  Rh25  1  0.500000  0.000000  0.000000  1
