# generated using pymatgen
data_Ta3Nb3(B2Os5)2
_symmetry_space_group_name_H-M   'P 1'
_cell_length_a   9.56880704
_cell_length_b   9.56880629
_cell_length_c   3.01782500
_cell_angle_alpha   90.00000000
_cell_angle_beta   90.00000000
_cell_angle_gamma   90.05251871
_symmetry_Int_Tables_number   1
_chemical_formula_structural   Ta3Nb3(B2Os5)2
_chemical_formula_sum   'Ta3 Nb3 B4 Os10'
_cell_volume   276.31816062
_cell_formula_units_Z   1
loop_
 _symmetry_equiv_pos_site_id
 _symmetry_equiv_pos_as_xyz
  1  'x, y, z'
loop_
 _atom_site_type_symbol
 _atom_site_label
 _atom_site_symmetry_multiplicity
 _atom_site_fract_x
 _atom_site_fract_y
 _atom_site_fract_z
 _atom_site_occupancy
  Ta  Ta0  1  0.677389  0.177389  0.000000  1
  Ta  Ta1  1  0.499996  0.500052  0.000000  1
  Ta  Ta2  1  0.000052  0.999996  0.000000  1
  Nb  Nb3  1  0.822869  0.677158  0.000000  1
  Nb  Nb4  1  0.177158  0.322869  0.000000  1
  Nb  Nb5  1  0.323021  0.823021  0.000000  1
  B  B6  1  0.620956  0.879173  0.000000  1
  B  B7  1  0.379173  0.120956  0.000000  1
  B  B8  1  0.120841  0.620841  0.000000  1
  B  B9  1  0.878992  0.378992  0.000000  1
  Os  Os10  1  0.571851  0.719068  0.500000  1
  Os  Os11  1  0.428578  0.281137  0.500000  1
  Os  Os12  1  0.071688  0.781029  0.500000  1
  Os  Os13  1  0.927896  0.218433  0.500000  1
  Os  Os14  1  0.281029  0.571688  0.500000  1
  Os  Os15  1  0.718433  0.427896  0.500000  1
  Os  Os16  1  0.219068  0.071851  0.500000  1
  Os  Os17  1  0.781137  0.928578  0.500000  1
  Os  Os18  1  0.500166  0.000166  0.500000  1
  Os  Os19  1  0.999711  0.499711  0.500000  1
