# generated using pymatgen
data_Sr4EuThO8
_symmetry_space_group_name_H-M   'P 1'
_cell_length_a   3.66717700
_cell_length_b   6.19376524
_cell_length_c   10.53095970
_cell_angle_alpha   88.51096839
_cell_angle_beta   90.00000000
_cell_angle_gamma   90.00000000
_symmetry_Int_Tables_number   1
_chemical_formula_structural   Sr4EuThO8
_chemical_formula_sum   'Sr4 Eu1 Th1 O8'
_cell_volume   239.11558594
_cell_formula_units_Z   1
loop_
 _symmetry_equiv_pos_site_id
 _symmetry_equiv_pos_as_xyz
  1  'x, y, z'
loop_
 _atom_site_type_symbol
 _atom_site_label
 _atom_site_symmetry_multiplicity
 _atom_site_fract_x
 _atom_site_fract_y
 _atom_site_fract_z
 _atom_site_occupancy
  Sr  Sr0  1  0.500000  0.436008  0.185652  1
  Sr  Sr1  1  0.500000  0.563992  0.814348  1
  Sr  Sr2  1  0.500000  0.938025  0.326649  1
  Sr  Sr3  1  0.500000  0.061975  0.673351  1
  Eu  Eu4  1  0.000000  0.500000  0.500000  1
  Th  Th5  1  0.000000  0.000000  0.000000  1
  O  O6  1  0.500000  0.273092  0.457282  1
  O  O7  1  0.500000  0.726908  0.542718  1
  O  O8  1  0.500000  0.768140  0.042995  1
  O  O9  1  0.500000  0.231860  0.957005  1
  O  O10  1  0.000000  0.647622  0.305455  1
  O  O11  1  0.000000  0.352378  0.694545  1
  O  O12  1  0.000000  0.856301  0.801938  1
  O  O13  1  0.000000  0.143699  0.198062  1
