# generated using pymatgen
data_Hf16Ni4MoRh2W
_symmetry_space_group_name_H-M   'P 1'
_cell_length_a   8.65138454
_cell_length_b   8.66708209
_cell_length_c   8.62204400
_cell_angle_alpha   60.17175655
_cell_angle_beta   60.11213189
_cell_angle_gamma   60.22849272
_symmetry_Int_Tables_number   1
_chemical_formula_structural   Hf16Ni4MoRh2W
_chemical_formula_sum   'Hf16 Ni4 Mo1 Rh2 W1'
_cell_volume   458.91213175
_cell_formula_units_Z   1
loop_
 _symmetry_equiv_pos_site_id
 _symmetry_equiv_pos_as_xyz
  1  'x, y, z'
loop_
 _atom_site_type_symbol
 _atom_site_label
 _atom_site_symmetry_multiplicity
 _atom_site_fract_x
 _atom_site_fract_y
 _atom_site_fract_z
 _atom_site_occupancy
  Hf  Hf0  1  0.680088  0.108114  0.105898  1
  Hf  Hf1  1  0.106440  0.683814  0.104872  1
  Hf  Hf2  1  0.103020  0.103101  0.690060  1
  Hf  Hf3  1  0.103020  0.103101  0.103818  1
  Hf  Hf4  1  0.316245  0.315788  0.683983  1
  Hf  Hf5  1  0.686352  0.684659  0.314494  1
  Hf  Hf6  1  0.317026  0.689023  0.314870  1
  Hf  Hf7  1  0.690480  0.315836  0.678567  1
  Hf  Hf8  1  0.690480  0.315836  0.315117  1
  Hf  Hf9  1  0.317026  0.689023  0.679080  1
  Hf  Hf10  1  0.953459  0.954224  0.546158  1
  Hf  Hf11  1  0.549635  0.549244  0.950561  1
  Hf  Hf12  1  0.946976  0.550229  0.951289  1
  Hf  Hf13  1  0.550727  0.947618  0.551846  1
  Hf  Hf14  1  0.550727  0.947618  0.949811  1
  Hf  Hf15  1  0.946976  0.550229  0.551506  1
  Ni  Ni16  1  0.323797  0.888320  0.893941  1
  Ni  Ni17  1  0.888352  0.322357  0.894645  1
  Ni  Ni18  1  0.890633  0.892451  0.320362  1
  Ni  Ni19  1  0.890633  0.892451  0.896555  1
  Mo  Mo20  1  0.333070  0.997415  0.334756  1
  Rh  Rh21  1  0.331975  0.333401  0.996398  1
  Rh  Rh22  1  0.331975  0.333401  0.338223  1
  W  W23  1  0.000883  0.332744  0.333185  1
