# generated using pymatgen
data_Y2HoZnSn3Ir2
_symmetry_space_group_name_H-M   'P 1'
_cell_length_a   7.48300117
_cell_length_b   7.49096854
_cell_length_c   4.03597100
_cell_angle_alpha   90.00000000
_cell_angle_beta   90.00000000
_cell_angle_gamma   119.87759695
_symmetry_Int_Tables_number   1
_chemical_formula_structural   Y2HoZnSn3Ir2
_chemical_formula_sum   'Y2 Ho1 Zn1 Sn3 Ir2'
_cell_volume   196.16738355
_cell_formula_units_Z   1
loop_
 _symmetry_equiv_pos_site_id
 _symmetry_equiv_pos_as_xyz
  1  'x, y, z'
loop_
 _atom_site_type_symbol
 _atom_site_label
 _atom_site_symmetry_multiplicity
 _atom_site_fract_x
 _atom_site_fract_y
 _atom_site_fract_z
 _atom_site_occupancy
  Y  Y0  1  0.393220  0.408791  0.500000  1
  Y  Y1  1  0.591060  0.984455  0.500000  1
  Ho  Ho2  1  0.017080  0.607864  0.500000  1
  Zn  Zn3  1  0.667116  0.333828  0.000000  1
  Sn  Sn4  1  0.744770  0.742999  0.000000  1
  Sn  Sn5  1  0.256776  0.001349  0.000000  1
  Sn  Sn6  1  0.998837  0.255768  0.000000  1
  Ir  Ir7  1  0.331316  0.666095  0.000000  1
  Ir  Ir8  1  0.999825  0.998850  0.500000  1
