# generated using pymatgen
data_Hf10Zr6Ir7RhN4
_symmetry_space_group_name_H-M   'P 1'
_cell_length_a   8.77903898
_cell_length_b   8.77904130
_cell_length_c   8.77904149
_cell_angle_alpha   59.68122838
_cell_angle_beta   59.68121468
_cell_angle_gamma   59.68122202
_symmetry_Int_Tables_number   1
_chemical_formula_structural   Hf10Zr6Ir7RhN4
_chemical_formula_sum   'Hf10 Zr6 Ir7 Rh1 N4'
_cell_volume   474.97377674
_cell_formula_units_Z   1
loop_
 _symmetry_equiv_pos_site_id
 _symmetry_equiv_pos_as_xyz
  1  'x, y, z'
loop_
 _atom_site_type_symbol
 _atom_site_label
 _atom_site_symmetry_multiplicity
 _atom_site_fract_x
 _atom_site_fract_y
 _atom_site_fract_z
 _atom_site_occupancy
  Hf  Hf0  1  0.112933  0.631052  0.631052  1
  Hf  Hf1  1  0.631052  0.112933  0.631052  1
  Hf  Hf2  1  0.631052  0.631052  0.112933  1
  Hf  Hf3  1  0.620032  0.620032  0.620032  1
  Hf  Hf4  1  0.818443  0.818443  0.185183  1
  Hf  Hf5  1  0.186065  0.186065  0.816584  1
  Hf  Hf6  1  0.818443  0.185183  0.818443  1
  Hf  Hf7  1  0.186065  0.816584  0.186065  1
  Hf  Hf8  1  0.185183  0.818443  0.818443  1
  Hf  Hf9  1  0.816584  0.186065  0.186065  1
  Zr  Zr10  1  0.437052  0.437052  0.065579  1
  Zr  Zr11  1  0.067637  0.067637  0.434689  1
  Zr  Zr12  1  0.437052  0.065579  0.437052  1
  Zr  Zr13  1  0.067637  0.434689  0.067637  1
  Zr  Zr14  1  0.065579  0.437052  0.437052  1
  Zr  Zr15  1  0.434689  0.067637  0.067637  1
  Ir  Ir16  1  0.763570  0.405683  0.405683  1
  Ir  Ir17  1  0.405683  0.763570  0.405683  1
  Ir  Ir18  1  0.405683  0.405683  0.763570  1
  Ir  Ir19  1  0.415327  0.415327  0.415327  1
  Ir  Ir20  1  0.479531  0.833678  0.833678  1
  Ir  Ir21  1  0.833678  0.479531  0.833678  1
  Ir  Ir22  1  0.833678  0.833678  0.479531  1
  Rh  Rh23  1  0.845576  0.845576  0.845576  1
  N  N24  1  0.630805  0.124231  0.124231  1
  N  N25  1  0.124231  0.630805  0.124231  1
  N  N26  1  0.124231  0.124231  0.630805  1
  N  N27  1  0.122508  0.122508  0.122508  1
