# generated using pymatgen
data_La4YP12Pd2Ru17
_symmetry_space_group_name_H-M   'P 1'
_cell_length_a   12.78830385
_cell_length_b   12.66907524
_cell_length_c   4.03048300
_cell_angle_alpha   90.00000000
_cell_angle_beta   90.00000000
_cell_angle_gamma   120.22286335
_symmetry_Int_Tables_number   1
_chemical_formula_structural   La4YP12Pd2Ru17
_chemical_formula_sum   'La4 Y1 P12 Pd2 Ru17'
_cell_volume   564.24263224
_cell_formula_units_Z   1
loop_
 _symmetry_equiv_pos_site_id
 _symmetry_equiv_pos_as_xyz
  1  'x, y, z'
loop_
 _atom_site_type_symbol
 _atom_site_label
 _atom_site_symmetry_multiplicity
 _atom_site_fract_x
 _atom_site_fract_y
 _atom_site_fract_z
 _atom_site_occupancy
  La  La0  1  0.000526  0.181480  0.500000  1
  La  La1  1  0.820741  0.817456  0.500000  1
  La  La2  1  0.184058  0.001061  0.500000  1
  La  La3  1  0.664131  0.327842  0.000000  1
  Y  Y4  1  0.336739  0.673339  0.000000  1
  P  P5  1  0.001078  0.807922  0.000000  1
  P  P6  1  0.190703  0.195029  0.000000  1
  P  P7  1  0.811323  0.996739  0.000000  1
  P  P8  1  0.693382  0.166744  0.500000  1
  P  P9  1  0.820038  0.520750  0.500000  1
  P  P10  1  0.473451  0.298354  0.500000  1
  P  P11  1  0.182116  0.703390  0.500000  1
  P  P12  1  0.521465  0.826066  0.500000  1
  P  P13  1  0.298037  0.485292  0.500000  1
  P  P14  1  0.998084  0.368348  0.000000  1
  P  P15  1  0.631137  0.629724  0.000000  1
  P  P16  1  0.377933  0.000733  0.000000  1
  Pd  Pd17  1  0.997435  0.551420  0.000000  1
  Pd  Pd18  1  0.447032  0.447788  0.000000  1
  Ru  Ru19  1  0.555607  0.999735  0.000000  1
  Ru  Ru20  1  0.000423  0.708238  0.500000  1
  Ru  Ru21  1  0.289550  0.295081  0.500000  1
  Ru  Ru22  1  0.712835  0.996295  0.500000  1
  Ru  Ru23  1  0.805645  0.182246  0.000000  1
  Ru  Ru24  1  0.814189  0.617775  0.000000  1
  Ru  Ru25  1  0.376937  0.194175  0.000000  1
  Ru  Ru26  1  0.187115  0.805410  0.000000  1
  Ru  Ru27  1  0.618651  0.811834  0.000000  1
  Ru  Ru28  1  0.196280  0.387475  0.000000  1
  Ru  Ru29  1  0.873967  0.365074  0.500000  1
  Ru  Ru30  1  0.629798  0.509992  0.500000  1
  Ru  Ru31  1  0.490011  0.122264  0.500000  1
  Ru  Ru32  1  0.370939  0.876038  0.500000  1
  Ru  Ru33  1  0.502431  0.631593  0.500000  1
  Ru  Ru34  1  0.122629  0.497109  0.500000  1
  Ru  Ru35  1  0.003585  0.000189  0.000000  1
