# generated using pymatgen
data_Zr6MnZn22Si
_symmetry_space_group_name_H-M   'P 1'
_cell_length_a   8.77715990
_cell_length_b   8.77715973
_cell_length_c   8.77716000
_cell_angle_alpha   60.00000651
_cell_angle_beta   60.00000718
_cell_angle_gamma   59.99999759
_symmetry_Int_Tables_number   1
_chemical_formula_structural   Zr6MnZn22Si
_chemical_formula_sum   'Zr6 Mn1 Zn22 Si1'
_cell_volume   478.13118082
_cell_formula_units_Z   1
loop_
 _symmetry_equiv_pos_site_id
 _symmetry_equiv_pos_as_xyz
  1  'x, y, z'
loop_
 _atom_site_type_symbol
 _atom_site_label
 _atom_site_symmetry_multiplicity
 _atom_site_fract_x
 _atom_site_fract_y
 _atom_site_fract_z
 _atom_site_occupancy
  Zr  Zr0  1  0.711469  0.288531  0.288531  1
  Zr  Zr1  1  0.288531  0.711469  0.711469  1
  Zr  Zr2  1  0.288531  0.711469  0.288531  1
  Zr  Zr3  1  0.711469  0.288531  0.711469  1
  Zr  Zr4  1  0.288531  0.288531  0.711469  1
  Zr  Zr5  1  0.711469  0.711469  0.288531  1
  Mn  Mn6  1  0.000000  0.000000  0.000000  1
  Zn  Zn7  1  0.121097  0.121097  0.121097  1
  Zn  Zn8  1  0.878903  0.878903  0.878903  1
  Zn  Zn9  1  0.121097  0.121097  0.636708  1
  Zn  Zn10  1  0.121097  0.636708  0.121097  1
  Zn  Zn11  1  0.878903  0.878903  0.363292  1
  Zn  Zn12  1  0.878903  0.363292  0.878903  1
  Zn  Zn13  1  0.636708  0.121097  0.121097  1
  Zn  Zn14  1  0.363292  0.878903  0.878903  1
  Zn  Zn15  1  0.500000  0.000000  0.000000  1
  Zn  Zn16  1  0.000000  0.500000  0.500000  1
  Zn  Zn17  1  0.000000  0.500000  0.000000  1
  Zn  Zn18  1  0.500000  0.000000  0.500000  1
  Zn  Zn19  1  0.000000  0.000000  0.500000  1
  Zn  Zn20  1  0.500000  0.500000  0.000000  1
  Zn  Zn21  1  0.336341  0.336341  0.336341  1
  Zn  Zn22  1  0.663659  0.663659  0.663659  1
  Zn  Zn23  1  0.336341  0.336341  0.990977  1
  Zn  Zn24  1  0.336341  0.990977  0.336341  1
  Zn  Zn25  1  0.663659  0.663659  0.009023  1
  Zn  Zn26  1  0.663659  0.009023  0.663659  1
  Zn  Zn27  1  0.990977  0.336341  0.336341  1
  Zn  Zn28  1  0.009023  0.663659  0.663659  1
  Si  Si29  1  0.500000  0.500000  0.500000  1
