# generated using pymatgen
data_ZrSc3(Al8Pt3)3
_symmetry_space_group_name_H-M   'P 1'
_cell_length_a   7.46980341
_cell_length_b   7.46422665
_cell_length_c   13.01222078
_cell_angle_alpha   84.51022175
_cell_angle_beta   100.92973170
_cell_angle_gamma   119.88268780
_symmetry_Int_Tables_number   1
_chemical_formula_structural   ZrSc3(Al8Pt3)3
_chemical_formula_sum   'Zr1 Sc3 Al24 Pt9'
_cell_volume   617.64304453
_cell_formula_units_Z   1
loop_
 _symmetry_equiv_pos_site_id
 _symmetry_equiv_pos_as_xyz
  1  'x, y, z'
loop_
 _atom_site_type_symbol
 _atom_site_label
 _atom_site_symmetry_multiplicity
 _atom_site_fract_x
 _atom_site_fract_y
 _atom_site_fract_z
 _atom_site_occupancy
  Zr  Zr0  1  0.231508  0.499281  0.189179  1
  Sc  Sc1  1  0.437444  0.831580  0.807483  1
  Sc  Sc2  1  0.562482  0.168774  0.191904  1
  Sc  Sc3  1  0.766900  0.500531  0.807387  1
  Al  Al4  1  0.484595  0.166478  0.941606  1
  Al  Al5  1  0.516609  0.834686  0.058364  1
  Al  Al6  1  0.021589  0.167123  0.563525  1
  Al  Al7  1  0.978905  0.832872  0.437288  1
  Al  Al8  1  0.353234  0.833163  0.560387  1
  Al  Al9  1  0.646836  0.166697  0.440305  1
  Al  Al10  1  0.613020  0.834585  0.323235  1
  Al  Al11  1  0.387446  0.165290  0.676954  1
  Al  Al12  1  0.058202  0.496021  0.677093  1
  Al  Al13  1  0.941850  0.504238  0.322970  1
  Al  Al14  1  0.729512  0.837043  0.676302  1
  Al  Al15  1  0.270561  0.162448  0.324327  1
  Al  Al16  1  0.146866  0.504613  0.940961  1
  Al  Al17  1  0.852152  0.496447  0.058206  1
  Al  Al18  1  0.811607  0.828894  0.948173  1
  Al  Al19  1  0.187032  0.169851  0.050694  1
  Al  Al20  1  0.313178  0.500009  0.439764  1
  Al  Al21  1  0.686584  0.499872  0.560379  1
  Al  Al22  1  0.105252  0.833290  0.183307  1
  Al  Al23  1  0.894343  0.163791  0.817187  1
  Al  Al24  1  0.311825  0.372759  0.816060  1
  Al  Al25  1  0.686427  0.627786  0.184371  1
  Al  Al26  1  0.103089  0.953471  0.816484  1
  Al  Al27  1  0.899843  0.047962  0.183868  1
  Pt  Pt28  1  0.388391  0.508755  0.639403  1
  Pt  Pt29  1  0.611458  0.490618  0.360848  1
  Pt  Pt30  1  0.171692  0.828819  0.000204  1
  Pt  Pt31  1  0.829395  0.172098  0.000604  1
  Pt  Pt32  1  0.296534  0.833512  0.360840  1
  Pt  Pt33  1  0.704243  0.166827  0.639482  1
  Pt  Pt34  1  0.045801  0.824303  0.637900  1
  Pt  Pt35  1  0.954159  0.175798  0.362464  1
  Pt  Pt36  1  0.499433  0.499712  0.000494  1
