# generated using pymatgen
data_Ho5In2PbCl
_symmetry_space_group_name_H-M   'P 1'
_cell_length_a   9.03037600
_cell_length_b   9.03037590
_cell_length_c   6.67282100
_cell_angle_alpha   90.00000000
_cell_angle_beta   90.00000000
_cell_angle_gamma   119.93530799
_symmetry_Int_Tables_number   1
_chemical_formula_structural   Ho5In2PbCl
_chemical_formula_sum   'Ho10 In4 Pb2 Cl2'
_cell_volume   471.55733850
_cell_formula_units_Z   2
loop_
 _symmetry_equiv_pos_site_id
 _symmetry_equiv_pos_as_xyz
  1  'x, y, z'
loop_
 _atom_site_type_symbol
 _atom_site_label
 _atom_site_symmetry_multiplicity
 _atom_site_fract_x
 _atom_site_fract_y
 _atom_site_fract_z
 _atom_site_occupancy
  Ho  Ho0  1  0.737995  0.742244  0.250000  1
  Ho  Ho1  1  0.997145  0.740901  0.750000  1
  Ho  Ho2  1  0.744398  0.001294  0.750000  1
  Ho  Ho3  1  0.335453  0.664547  0.500000  1
  Ho  Ho4  1  0.257756  0.262005  0.750000  1
  Ho  Ho5  1  0.998706  0.255602  0.250000  1
  Ho  Ho6  1  0.666994  0.333006  0.500000  1
  Ho  Ho7  1  0.259099  0.002855  0.250000  1
  Ho  Ho8  1  0.335453  0.664547  0.000000  1
  Ho  Ho9  1  0.666994  0.333006  0.000000  1
  In  In10  1  0.607529  0.000680  0.250000  1
  In  In11  1  0.999320  0.392471  0.750000  1
  In  In12  1  0.393740  0.394029  0.250000  1
  In  In13  1  0.605971  0.606260  0.750000  1
  Pb  Pb14  1  0.391079  0.999276  0.750000  1
  Pb  Pb15  1  0.000724  0.608921  0.250000  1
  Cl  Cl16  1  0.000821  0.999179  0.500000  1
  Cl  Cl17  1  0.000821  0.999179  0.000000  1
