# generated using pymatgen
data_RbNd2(H6Rh)2
_symmetry_space_group_name_H-M   'P 1'
_cell_length_a   5.11242500
_cell_length_b   5.11242568
_cell_length_c   9.64580500
_cell_angle_alpha   90.00000000
_cell_angle_beta   90.00000000
_cell_angle_gamma   119.99998912
_symmetry_Int_Tables_number   1
_chemical_formula_structural   RbNd2(H6Rh)2
_chemical_formula_sum   'Rb1 Nd2 H12 Rh2'
_cell_volume   218.33487654
_cell_formula_units_Z   1
loop_
 _symmetry_equiv_pos_site_id
 _symmetry_equiv_pos_as_xyz
  1  'x, y, z'
loop_
 _atom_site_type_symbol
 _atom_site_label
 _atom_site_symmetry_multiplicity
 _atom_site_fract_x
 _atom_site_fract_y
 _atom_site_fract_z
 _atom_site_occupancy
  Rb  Rb0  1  0.000000  0.000000  0.000000  1
  Nd  Nd1  1  0.666667  0.333333  0.372068  1
  Nd  Nd2  1  0.333333  0.666667  0.627932  1
  H  H3  1  0.175113  0.824887  0.396883  1
  H  H4  1  0.649773  0.824887  0.396883  1
  H  H5  1  0.175113  0.350227  0.396883  1
  H  H6  1  0.824887  0.175113  0.603117  1
  H  H7  1  0.350227  0.175113  0.603117  1
  H  H8  1  0.824887  0.649773  0.603117  1
  H  H9  1  0.517480  0.034959  0.810962  1
  H  H10  1  0.517480  0.482520  0.810962  1
  H  H11  1  0.965041  0.482520  0.810962  1
  H  H12  1  0.482520  0.965041  0.189038  1
  H  H13  1  0.482520  0.517480  0.189038  1
  H  H14  1  0.034959  0.517480  0.189038  1
  Rh  Rh15  1  0.666667  0.333333  0.704824  1
  Rh  Rh16  1  0.333333  0.666667  0.295176  1
