# generated using pymatgen
data_Er6ZrCo17P12
_symmetry_space_group_name_H-M   'P 1'
_cell_length_a   3.67306800
_cell_length_b   10.53080500
_cell_length_c   12.20914100
_cell_angle_alpha   90.00000000
_cell_angle_beta   90.00000000
_cell_angle_gamma   90.00000000
_symmetry_Int_Tables_number   1
_chemical_formula_structural   Er6ZrCo17P12
_chemical_formula_sum   'Er6 Zr1 Co17 P12'
_cell_volume   472.25400409
_cell_formula_units_Z   1
loop_
 _symmetry_equiv_pos_site_id
 _symmetry_equiv_pos_as_xyz
  1  'x, y, z'
loop_
 _atom_site_type_symbol
 _atom_site_label
 _atom_site_symmetry_multiplicity
 _atom_site_fract_x
 _atom_site_fract_y
 _atom_site_fract_z
 _atom_site_occupancy
  Er  Er0  1  0.750000  0.250000  0.469569  1
  Er  Er1  1  0.250000  0.750000  0.522894  1
  Er  Er2  1  0.250000  0.928383  0.792379  1
  Er  Er3  1  0.250000  0.571617  0.792379  1
  Er  Er4  1  0.750000  0.067102  0.204408  1
  Er  Er5  1  0.750000  0.432898  0.204408  1
  Zr  Zr6  1  0.250000  0.250000  0.844501  1
  Co  Co7  1  0.750000  0.750000  0.164395  1
  Co  Co8  1  0.250000  0.250000  0.297362  1
  Co  Co9  1  0.750000  0.750000  0.703796  1
  Co  Co10  1  0.750000  0.250000  0.017000  1
  Co  Co11  1  0.250000  0.750000  0.986079  1
  Co  Co12  1  0.250000  0.423254  0.012450  1
  Co  Co13  1  0.250000  0.076746  0.012450  1
  Co  Co14  1  0.750000  0.588729  0.999078  1
  Co  Co15  1  0.750000  0.911271  0.999078  1
  Co  Co16  1  0.250000  0.455895  0.564792  1
  Co  Co17  1  0.250000  0.044105  0.564792  1
  Co  Co18  1  0.750000  0.548681  0.429542  1
  Co  Co19  1  0.750000  0.951319  0.429542  1
  Co  Co20  1  0.250000  0.869924  0.292932  1
  Co  Co21  1  0.250000  0.630076  0.292932  1
  Co  Co22  1  0.750000  0.126820  0.701346  1
  Co  Co23  1  0.750000  0.373180  0.701346  1
  P  P24  1  0.250000  0.250000  0.119276  1
  P  P25  1  0.750000  0.750000  0.883144  1
  P  P26  1  0.250000  0.250000  0.636363  1
  P  P27  1  0.750000  0.750000  0.346809  1
  P  P28  1  0.250000  0.440244  0.381481  1
  P  P29  1  0.250000  0.059756  0.381481  1
  P  P30  1  0.750000  0.562843  0.613663  1
  P  P31  1  0.750000  0.937157  0.613663  1
  P  P32  1  0.250000  0.897402  0.112532  1
  P  P33  1  0.250000  0.602598  0.112532  1
  P  P34  1  0.750000  0.084199  0.899805  1
  P  P35  1  0.750000  0.415801  0.899805  1
