# generated using pymatgen
data_Gd5Si3O
_symmetry_space_group_name_H-M   'P 1'
_cell_length_a   8.42340200
_cell_length_b   8.42340153
_cell_length_c   6.23798600
_cell_angle_alpha   90.00000000
_cell_angle_beta   90.00000000
_cell_angle_gamma   120.00000969
_symmetry_Int_Tables_number   1
_chemical_formula_structural   Gd5Si3O
_chemical_formula_sum   'Gd10 Si6 O2'
_cell_volume   383.30988209
_cell_formula_units_Z   2
loop_
 _symmetry_equiv_pos_site_id
 _symmetry_equiv_pos_as_xyz
  1  'x, y, z'
loop_
 _atom_site_type_symbol
 _atom_site_label
 _atom_site_symmetry_multiplicity
 _atom_site_fract_x
 _atom_site_fract_y
 _atom_site_fract_z
 _atom_site_occupancy
  Gd  Gd0  1  0.232528  0.000000  0.750000  1
  Gd  Gd1  1  0.767472  0.000000  0.250000  1
  Gd  Gd2  1  0.000000  0.232528  0.750000  1
  Gd  Gd3  1  0.000000  0.767472  0.250000  1
  Gd  Gd4  1  0.767472  0.767472  0.750000  1
  Gd  Gd5  1  0.232528  0.232528  0.250000  1
  Gd  Gd6  1  0.333333  0.666667  0.500000  1
  Gd  Gd7  1  0.666667  0.333333  0.500000  1
  Gd  Gd8  1  0.666667  0.333333  0.000000  1
  Gd  Gd9  1  0.333333  0.666667  0.000000  1
  Si  Si10  1  0.601011  0.000000  0.750000  1
  Si  Si11  1  0.398989  0.000000  0.250000  1
  Si  Si12  1  0.000000  0.601011  0.750000  1
  Si  Si13  1  0.000000  0.398989  0.250000  1
  Si  Si14  1  0.398989  0.398989  0.750000  1
  Si  Si15  1  0.601011  0.601011  0.250000  1
  O  O16  1  0.000000  0.000000  0.500000  1
  O  O17  1  0.000000  0.000000  0.000000  1
