# generated using pymatgen
data_Y2PaIn3Pt2Rh
_symmetry_space_group_name_H-M   'P 1'
_cell_length_a   7.62313053
_cell_length_b   7.71803058
_cell_length_c   3.91956500
_cell_angle_alpha   90.00000000
_cell_angle_beta   90.00000000
_cell_angle_gamma   120.95317209
_symmetry_Int_Tables_number   1
_chemical_formula_structural   Y2PaIn3Pt2Rh
_chemical_formula_sum   'Y2 Pa1 In3 Pt2 Rh1'
_cell_volume   197.76817015
_cell_formula_units_Z   1
loop_
 _symmetry_equiv_pos_site_id
 _symmetry_equiv_pos_as_xyz
  1  'x, y, z'
loop_
 _atom_site_type_symbol
 _atom_site_label
 _atom_site_symmetry_multiplicity
 _atom_site_fract_x
 _atom_site_fract_y
 _atom_site_fract_z
 _atom_site_occupancy
  Y  Y0  1  0.402568  0.406772  0.500000  1
  Y  Y1  1  0.597738  0.003460  0.500000  1
  Pa  Pa2  1  0.989015  0.580991  0.500000  1
  In  In3  1  0.996415  0.241951  0.000000  1
  In  In4  1  0.274291  0.015192  0.000000  1
  In  In5  1  0.727632  0.740779  0.000000  1
  Pt  Pt6  1  0.307447  0.662420  0.000000  1
  Pt  Pt7  1  0.001906  0.984817  0.500000  1
  Rh  Rh8  1  0.702990  0.363619  0.000000  1
