# generated using pymatgen
data_Mn7Nb4Si
_symmetry_space_group_name_H-M   'P 1'
_cell_length_a   4.85747500
_cell_length_b   4.85747374
_cell_length_c   7.87905600
_cell_angle_alpha   90.00000000
_cell_angle_beta   90.00000000
_cell_angle_gamma   120.00001542
_symmetry_Int_Tables_number   1
_chemical_formula_structural   Mn7Nb4Si
_chemical_formula_sum   'Mn7 Nb4 Si1'
_cell_volume   160.99996685
_cell_formula_units_Z   1
loop_
 _symmetry_equiv_pos_site_id
 _symmetry_equiv_pos_as_xyz
  1  'x, y, z'
loop_
 _atom_site_type_symbol
 _atom_site_label
 _atom_site_symmetry_multiplicity
 _atom_site_fract_x
 _atom_site_fract_y
 _atom_site_fract_z
 _atom_site_occupancy
  Mn  Mn0  1  0.169936  0.339871  0.747924  1
  Mn  Mn1  1  0.830064  0.169936  0.252076  1
  Mn  Mn2  1  0.339871  0.169936  0.252076  1
  Mn  Mn3  1  0.660129  0.830064  0.747924  1
  Mn  Mn4  1  0.000000  0.000000  0.500000  1
  Mn  Mn5  1  0.830064  0.660129  0.252076  1
  Mn  Mn6  1  0.169936  0.830064  0.747924  1
  Nb  Nb7  1  0.333333  0.666667  0.442358  1
  Nb  Nb8  1  0.666667  0.333333  0.931935  1
  Nb  Nb9  1  0.666667  0.333333  0.557642  1
  Nb  Nb10  1  0.333333  0.666667  0.068065  1
  Si  Si11  1  0.000000  0.000000  0.000000  1
