# generated using pymatgen
data_Sm2NbIr3
_symmetry_space_group_name_H-M   'P 1'
_cell_length_a   5.30621237
_cell_length_b   5.30621270
_cell_length_c   5.30621194
_cell_angle_alpha   65.28684815
_cell_angle_beta   65.28685054
_cell_angle_gamma   65.28684597
_symmetry_Int_Tables_number   1
_chemical_formula_structural   Sm2NbIr3
_chemical_formula_sum   'Sm2 Nb1 Ir3'
_cell_volume   117.80796691
_cell_formula_units_Z   1
loop_
 _symmetry_equiv_pos_site_id
 _symmetry_equiv_pos_as_xyz
  1  'x, y, z'
loop_
 _atom_site_type_symbol
 _atom_site_label
 _atom_site_symmetry_multiplicity
 _atom_site_fract_x
 _atom_site_fract_y
 _atom_site_fract_z
 _atom_site_occupancy
  Sm  Sm0  1  0.874535  0.874535  0.874535  1
  Sm  Sm1  1  0.125465  0.125465  0.125465  1
  Nb  Nb2  1  0.500000  0.500000  0.500000  1
  Ir  Ir3  1  0.000000  0.500000  0.500000  1
  Ir  Ir4  1  0.500000  0.500000  0.000000  1
  Ir  Ir5  1  0.500000  0.000000  0.500000  1
