# generated using pymatgen
data_ThNi8(B3Ir2)2
_symmetry_space_group_name_H-M   'P 1'
_cell_length_a   6.27902545
_cell_length_b   6.16401180
_cell_length_c   6.27902591
_cell_angle_alpha   103.71298626
_cell_angle_beta   104.28763612
_cell_angle_gamma   103.71299290
_symmetry_Int_Tables_number   1
_chemical_formula_structural   ThNi8(B3Ir2)2
_chemical_formula_sum   'Th1 Ni8 B6 Ir4'
_cell_volume   217.22586627
_cell_formula_units_Z   1
loop_
 _symmetry_equiv_pos_site_id
 _symmetry_equiv_pos_as_xyz
  1  'x, y, z'
loop_
 _atom_site_type_symbol
 _atom_site_label
 _atom_site_symmetry_multiplicity
 _atom_site_fract_x
 _atom_site_fract_y
 _atom_site_fract_z
 _atom_site_occupancy
  Th  Th0  1  0.002902  0.000000  0.997098  1
  Ni  Ni1  1  0.492012  0.135326  0.858605  1
  Ni  Ni2  1  0.141395  0.864674  0.507988  1
  Ni  Ni3  1  0.800955  0.549713  0.546072  1
  Ni  Ni4  1  0.543362  0.541275  0.800520  1
  Ni  Ni5  1  0.539118  0.808160  0.545081  1
  Ni  Ni6  1  0.199480  0.458725  0.456638  1
  Ni  Ni7  1  0.453928  0.450287  0.199045  1
  Ni  Ni8  1  0.454919  0.191840  0.460882  1
  B  B9  1  0.347625  0.772371  0.763343  1
  B  B10  1  0.768387  0.765966  0.346577  1
  B  B11  1  0.764060  0.345437  0.766358  1
  B  B12  1  0.653423  0.234034  0.231613  1
  B  B13  1  0.236657  0.227629  0.652375  1
  B  B14  1  0.233642  0.654563  0.235940  1
  Ir  Ir15  1  0.869649  0.131867  0.500380  1
  Ir  Ir16  1  0.136458  0.500000  0.863542  1
  Ir  Ir17  1  0.499620  0.868133  0.130351  1
  Ir  Ir18  1  0.862408  0.500000  0.137592  1
