# generated using pymatgen
data_Sc(Ni2P)2
_symmetry_space_group_name_H-M   'P 1'
_cell_length_a   3.56345900
_cell_length_b   6.93712652
_cell_length_c   6.93712601
_cell_angle_alpha   89.95906669
_cell_angle_beta   90.00000000
_cell_angle_gamma   90.00000000
_symmetry_Int_Tables_number   1
_chemical_formula_structural   Sc(Ni2P)2
_chemical_formula_sum   'Sc2 Ni8 P4'
_cell_volume   171.48686236
_cell_formula_units_Z   2
loop_
 _symmetry_equiv_pos_site_id
 _symmetry_equiv_pos_as_xyz
  1  'x, y, z'
loop_
 _atom_site_type_symbol
 _atom_site_label
 _atom_site_symmetry_multiplicity
 _atom_site_fract_x
 _atom_site_fract_y
 _atom_site_fract_z
 _atom_site_occupancy
  Sc  Sc0  1  0.500000  0.000000  0.000000  1
  Sc  Sc1  1  0.000000  0.500000  0.500000  1
  Ni  Ni2  1  0.500000  0.167208  0.582878  1
  Ni  Ni3  1  0.500000  0.832792  0.417122  1
  Ni  Ni4  1  0.000000  0.333149  0.083129  1
  Ni  Ni5  1  0.000000  0.666851  0.916871  1
  Ni  Ni6  1  0.500000  0.582878  0.167208  1
  Ni  Ni7  1  0.500000  0.417122  0.832792  1
  Ni  Ni8  1  0.000000  0.083129  0.333149  1
  Ni  Ni9  1  0.000000  0.916871  0.666851  1
  P  P10  1  0.500000  0.721287  0.721287  1
  P  P11  1  0.500000  0.278713  0.278713  1
  P  P12  1  0.000000  0.779025  0.220975  1
  P  P13  1  0.000000  0.220975  0.779025  1
