# generated using pymatgen
data_Zr8In4Cu7Os
_symmetry_space_group_name_H-M   'P 1'
_cell_length_a   7.31457321
_cell_length_b   7.31457354
_cell_length_c   6.87402193
_cell_angle_alpha   89.81946793
_cell_angle_beta   89.81947605
_cell_angle_gamma   90.11500057
_symmetry_Int_Tables_number   1
_chemical_formula_structural   Zr8In4Cu7Os
_chemical_formula_sum   'Zr8 In4 Cu7 Os1'
_cell_volume   367.77628350
_cell_formula_units_Z   1
loop_
 _symmetry_equiv_pos_site_id
 _symmetry_equiv_pos_as_xyz
  1  'x, y, z'
loop_
 _atom_site_type_symbol
 _atom_site_label
 _atom_site_symmetry_multiplicity
 _atom_site_fract_x
 _atom_site_fract_y
 _atom_site_fract_z
 _atom_site_occupancy
  Zr  Zr0  1  0.648263  0.648263  0.494877  1
  Zr  Zr1  1  0.813811  0.193525  0.503149  1
  Zr  Zr2  1  0.693048  0.693048  0.000971  1
  Zr  Zr3  1  0.852110  0.155573  0.992367  1
  Zr  Zr4  1  0.193525  0.813811  0.503149  1
  Zr  Zr5  1  0.305707  0.305707  0.998258  1
  Zr  Zr6  1  0.155573  0.852110  0.992367  1
  Zr  Zr7  1  0.342969  0.342969  0.505792  1
  In  In8  1  0.999845  0.503293  0.249926  1
  In  In9  1  0.505232  0.997098  0.747838  1
  In  In10  1  0.503293  0.999845  0.249926  1
  In  In11  1  0.997098  0.505232  0.747838  1
  Cu  Cu12  1  0.622220  0.376839  0.203330  1
  Cu  Cu13  1  0.379071  0.621481  0.796576  1
  Cu  Cu14  1  0.868369  0.868369  0.698874  1
  Cu  Cu15  1  0.621481  0.379071  0.796576  1
  Cu  Cu16  1  0.376839  0.622220  0.203330  1
  Cu  Cu17  1  0.122181  0.122181  0.294897  1
  Cu  Cu18  1  0.877525  0.877525  0.293864  1
  Os  Os19  1  0.121839  0.121839  0.726095  1
