# generated using pymatgen
data_Th2(Ga3Ru)3
_symmetry_space_group_name_H-M   'P 1'
_cell_length_a   7.62226585
_cell_length_b   7.62226483
_cell_length_c   9.67929800
_cell_angle_alpha   90.00000000
_cell_angle_beta   90.00000000
_cell_angle_gamma   119.00203237
_symmetry_Int_Tables_number   1
_chemical_formula_structural   Th2(Ga3Ru)3
_chemical_formula_sum   'Th4 Ga18 Ru6'
_cell_volume   491.83870872
_cell_formula_units_Z   2
loop_
 _symmetry_equiv_pos_site_id
 _symmetry_equiv_pos_as_xyz
  1  'x, y, z'
loop_
 _atom_site_type_symbol
 _atom_site_label
 _atom_site_symmetry_multiplicity
 _atom_site_fract_x
 _atom_site_fract_y
 _atom_site_fract_z
 _atom_site_occupancy
  Th  Th0  1  0.998523  0.671827  0.250000  1
  Th  Th1  1  0.001477  0.328173  0.750000  1
  Th  Th2  1  0.671827  0.998523  0.250000  1
  Th  Th3  1  0.328173  0.001477  0.750000  1
  Ga  Ga4  1  0.132235  0.132235  0.250000  1
  Ga  Ga5  1  0.867765  0.867765  0.750000  1
  Ga  Ga6  1  0.009696  0.337370  0.076438  1
  Ga  Ga7  1  0.990304  0.662630  0.923562  1
  Ga  Ga8  1  0.990304  0.662630  0.576439  1
  Ga  Ga9  1  0.337370  0.009696  0.423561  1
  Ga  Ga10  1  0.009696  0.337370  0.423561  1
  Ga  Ga11  1  0.662630  0.990304  0.576439  1
  Ga  Ga12  1  0.662630  0.990304  0.923561  1
  Ga  Ga13  1  0.337370  0.009696  0.076439  1
  Ga  Ga14  1  0.337916  0.337916  0.555964  1
  Ga  Ga15  1  0.662084  0.662084  0.444036  1
  Ga  Ga16  1  0.662084  0.662084  0.055964  1
  Ga  Ga17  1  0.337916  0.337916  0.944036  1
  Ga  Ga18  1  0.337996  0.546427  0.250000  1
  Ga  Ga19  1  0.662004  0.453573  0.750000  1
  Ga  Ga20  1  0.546427  0.337996  0.250000  1
  Ga  Ga21  1  0.453573  0.662004  0.750000  1
  Ru  Ru22  1  0.673791  0.326209  0.000000  1
  Ru  Ru23  1  0.326209  0.673791  0.000000  1
  Ru  Ru24  1  0.326209  0.673791  0.500000  1
  Ru  Ru25  1  0.673791  0.326209  0.500000  1
  Ru  Ru26  1  0.000000  0.000000  0.000000  1
  Ru  Ru27  1  0.000000  0.000000  0.500000  1
