# generated using pymatgen
data_K4In7(GaTe4)5
_symmetry_space_group_name_H-M   'P 1'
_cell_length_a   11.19552659
_cell_length_b   11.17412718
_cell_length_c   11.20784224
_cell_angle_alpha   91.03366885
_cell_angle_beta   90.66837255
_cell_angle_gamma   91.19517231
_symmetry_Int_Tables_number   1
_chemical_formula_structural   K4In7(GaTe4)5
_chemical_formula_sum   'K4 In7 Ga5 Te20'
_cell_volume   1401.46888645
_cell_formula_units_Z   1
loop_
 _symmetry_equiv_pos_site_id
 _symmetry_equiv_pos_as_xyz
  1  'x, y, z'
loop_
 _atom_site_type_symbol
 _atom_site_label
 _atom_site_symmetry_multiplicity
 _atom_site_fract_x
 _atom_site_fract_y
 _atom_site_fract_z
 _atom_site_occupancy
  K  K0  1  0.253016  0.999861  0.746786  1
  K  K1  1  0.745910  0.253349  0.998477  1
  K  K2  1  0.001080  0.745221  0.254011  1
  K  K3  1  0.498985  0.500687  0.501046  1
  In  In4  1  0.835544  0.885882  0.576008  1
  In  In5  1  0.574811  0.835440  0.887018  1
  In  In6  1  0.886735  0.574482  0.836531  1
  In  In7  1  0.163882  0.425008  0.113296  1
  In  In8  1  0.115176  0.165412  0.425889  1
  In  In9  1  0.422712  0.113721  0.162692  1
  In  In10  1  0.739270  0.162072  0.350090  1
  Ga  Ga11  1  0.352582  0.738975  0.161137  1
  Ga  Ga12  1  0.161891  0.352926  0.739521  1
  Ga  Ga13  1  0.260917  0.647070  0.839026  1
  Ga  Ga14  1  0.840072  0.261113  0.650454  1
  Ga  Ga15  1  0.647544  0.836121  0.257616  1
  Te  Te16  1  0.194977  0.805341  0.000770  1
  Te  Te17  1  0.808424  0.990694  0.181245  1
  Te  Te18  1  0.169246  0.171029  0.171895  1
  Te  Te19  1  0.828459  0.827337  0.828585  1
  Te  Te20  1  0.000591  0.194367  0.807197  1
  Te  Te21  1  0.926206  0.499390  0.073881  1
  Te  Te22  1  0.073111  0.926951  0.499750  1
  Te  Te23  1  0.499606  0.073334  0.925719  1
  Te  Te24  1  0.733718  0.702650  0.427454  1
  Te  Te25  1  0.428571  0.735350  0.702351  1
  Te  Te26  1  0.702015  0.428420  0.735665  1
  Te  Te27  1  0.264066  0.571820  0.298092  1
  Te  Te28  1  0.299630  0.264553  0.573103  1
  Te  Te29  1  0.562052  0.306696  0.256443  1
  Te  Te30  1  0.679530  0.084063  0.586552  1
  Te  Te31  1  0.572622  0.677136  0.084280  1
  Te  Te32  1  0.086688  0.574510  0.680615  1
  Te  Te33  1  0.320013  0.425526  0.913894  1
  Te  Te34  1  0.923218  0.328725  0.434348  1
  Te  Te35  1  0.427132  0.914767  0.318564  1
