# generated using pymatgen
data_Eu4TaTi3O14
_symmetry_space_group_name_H-M   'P 1'
_cell_length_a   7.40265792
_cell_length_b   7.35686870
_cell_length_c   7.35687000
_cell_angle_alpha   60.00000315
_cell_angle_beta   60.20440809
_cell_angle_gamma   60.20440232
_symmetry_Int_Tables_number   1
_chemical_formula_structural   Eu4TaTi3O14
_chemical_formula_sum   'Eu4 Ta1 Ti3 O14'
_cell_volume   284.18011322
_cell_formula_units_Z   1
loop_
 _symmetry_equiv_pos_site_id
 _symmetry_equiv_pos_as_xyz
  1  'x, y, z'
loop_
 _atom_site_type_symbol
 _atom_site_label
 _atom_site_symmetry_multiplicity
 _atom_site_fract_x
 _atom_site_fract_y
 _atom_site_fract_z
 _atom_site_occupancy
  Eu  Eu0  1  0.625000  0.125000  0.125000  1
  Eu  Eu1  1  0.125000  0.625000  0.125000  1
  Eu  Eu2  1  0.125000  0.125000  0.625000  1
  Eu  Eu3  1  0.125000  0.125000  0.125000  1
  Ta  Ta4  1  0.125000  0.625000  0.625000  1
  Ti  Ti5  1  0.625000  0.125000  0.625000  1
  Ti  Ti6  1  0.625000  0.625000  0.125000  1
  Ti  Ti7  1  0.625000  0.625000  0.625000  1
  O  O8  1  0.249139  0.250287  0.250287  1
  O  O9  1  0.000861  0.999713  0.999713  1
  O  O10  1  0.695823  0.697679  0.303250  1
  O  O11  1  0.301250  0.300586  0.699082  1
  O  O12  1  0.695823  0.303250  0.697679  1
  O  O13  1  0.301250  0.699082  0.300586  1
  O  O14  1  0.301250  0.699082  0.699082  1
  O  O15  1  0.695823  0.303250  0.303250  1
  O  O16  1  0.554177  0.552321  0.946750  1
  O  O17  1  0.948750  0.949414  0.550918  1
  O  O18  1  0.554177  0.946750  0.552321  1
  O  O19  1  0.948750  0.550918  0.949414  1
  O  O20  1  0.948750  0.550918  0.550918  1
  O  O21  1  0.554177  0.946750  0.946750  1
