# generated using pymatgen
data_KYHo2F10
_symmetry_space_group_name_H-M   'P 1'
_cell_length_a   8.22810392
_cell_length_b   8.23272560
_cell_length_c   8.23272530
_cell_angle_alpha   59.96285555
_cell_angle_beta   60.01857115
_cell_angle_gamma   60.01856878
_symmetry_Int_Tables_number   1
_chemical_formula_structural   KYHo2F10
_chemical_formula_sum   'K2 Y2 Ho4 F20'
_cell_volume   394.34083085
_cell_formula_units_Z   2
loop_
 _symmetry_equiv_pos_site_id
 _symmetry_equiv_pos_as_xyz
  1  'x, y, z'
loop_
 _atom_site_type_symbol
 _atom_site_label
 _atom_site_symmetry_multiplicity
 _atom_site_fract_x
 _atom_site_fract_y
 _atom_site_fract_z
 _atom_site_occupancy
  K  K0  1  0.250000  0.250000  0.250000  1
  K  K1  1  0.750000  0.750000  0.750000  1
  Y  Y2  1  0.759554  0.240446  0.240446  1
  Y  Y3  1  0.240446  0.759554  0.759554  1
  Ho  Ho4  1  0.240551  0.759449  0.240551  1
  Ho  Ho5  1  0.759449  0.240551  0.759449  1
  Ho  Ho6  1  0.240551  0.240551  0.759449  1
  Ho  Ho7  1  0.759449  0.759449  0.240551  1
  F  F8  1  0.829926  0.500000  0.500000  1
  F  F9  1  0.170074  0.500000  0.500000  1
  F  F10  1  0.500000  0.829926  0.170074  1
  F  F11  1  0.500000  0.170074  0.829926  1
  F  F12  1  0.501417  0.830495  0.498583  1
  F  F13  1  0.169505  0.498583  0.830495  1
  F  F14  1  0.498583  0.169505  0.501417  1
  F  F15  1  0.830495  0.501417  0.169505  1
  F  F16  1  0.501417  0.498583  0.830495  1
  F  F17  1  0.498583  0.501417  0.169505  1
  F  F18  1  0.169505  0.830495  0.498583  1
  F  F19  1  0.830495  0.169505  0.501417  1
  F  F20  1  0.112666  0.111154  0.111154  1
  F  F21  1  0.887334  0.888846  0.888846  1
  F  F22  1  0.111154  0.112666  0.665028  1
  F  F23  1  0.111154  0.665028  0.112666  1
  F  F24  1  0.888846  0.887334  0.334972  1
  F  F25  1  0.888846  0.334972  0.887334  1
  F  F26  1  0.665028  0.111154  0.111154  1
  F  F27  1  0.334972  0.888846  0.888846  1
