# generated using pymatgen
data_CaCd3(SiO4)2
_symmetry_space_group_name_H-M   'P 1'
_cell_length_a   5.11208700
_cell_length_b   6.67198100
_cell_length_c   11.35085100
_cell_angle_alpha   90.00000000
_cell_angle_beta   90.00000000
_cell_angle_gamma   90.00000000
_symmetry_Int_Tables_number   1
_chemical_formula_structural   CaCd3(SiO4)2
_chemical_formula_sum   'Ca2 Cd6 Si4 O16'
_cell_volume   387.15195794
_cell_formula_units_Z   2
loop_
 _symmetry_equiv_pos_site_id
 _symmetry_equiv_pos_as_xyz
  1  'x, y, z'
loop_
 _atom_site_type_symbol
 _atom_site_label
 _atom_site_symmetry_multiplicity
 _atom_site_fract_x
 _atom_site_fract_y
 _atom_site_fract_z
 _atom_site_occupancy
  Ca  Ca0  1  0.509525  0.250000  0.220423  1
  Ca  Ca1  1  0.009525  0.750000  0.279577  1
  Cd  Cd2  1  0.485830  0.750000  0.780519  1
  Cd  Cd3  1  0.985830  0.250000  0.719481  1
  Cd  Cd4  1  0.500788  0.499042  0.502952  1
  Cd  Cd5  1  0.000788  0.500958  0.997048  1
  Cd  Cd6  1  0.500788  0.000958  0.502952  1
  Cd  Cd7  1  0.000788  0.999042  0.997048  1
  Si  Si8  1  0.927273  0.750000  0.598561  1
  Si  Si9  1  0.427273  0.250000  0.901439  1
  Si  Si10  1  0.073571  0.250000  0.405582  1
  Si  Si11  1  0.573571  0.750000  0.094418  1
  O  O12  1  0.204070  0.448174  0.339723  1
  O  O13  1  0.704070  0.551826  0.160277  1
  O  O14  1  0.795798  0.949503  0.663979  1
  O  O15  1  0.295798  0.050497  0.836021  1
  O  O16  1  0.795798  0.550497  0.663979  1
  O  O17  1  0.295798  0.449503  0.836021  1
  O  O18  1  0.204070  0.051826  0.339723  1
  O  O19  1  0.704070  0.948174  0.160277  1
  O  O20  1  0.800410  0.750000  0.462085  1
  O  O21  1  0.300410  0.250000  0.037915  1
  O  O22  1  0.200776  0.250000  0.542303  1
  O  O23  1  0.700776  0.750000  0.957697  1
  O  O24  1  0.251842  0.750000  0.094846  1
  O  O25  1  0.751842  0.250000  0.405154  1
  O  O26  1  0.749460  0.250000  0.903055  1
  O  O27  1  0.249460  0.750000  0.596945  1
