# generated using pymatgen
data_Tm6Zr4TlSb5
_symmetry_space_group_name_H-M   'P 1'
_cell_length_a   8.73701100
_cell_length_b   8.74308757
_cell_length_c   5.97760600
_cell_angle_alpha   90.00000000
_cell_angle_beta   90.00000000
_cell_angle_gamma   119.97701555
_symmetry_Int_Tables_number   1
_chemical_formula_structural   Tm6Zr4TlSb5
_chemical_formula_sum   'Tm6 Zr4 Tl1 Sb5'
_cell_volume   395.53613692
_cell_formula_units_Z   1
loop_
 _symmetry_equiv_pos_site_id
 _symmetry_equiv_pos_as_xyz
  1  'x, y, z'
loop_
 _atom_site_type_symbol
 _atom_site_label
 _atom_site_symmetry_multiplicity
 _atom_site_fract_x
 _atom_site_fract_y
 _atom_site_fract_z
 _atom_site_occupancy
  Tm  Tm0  1  0.245834  0.000000  0.250000  1
  Tm  Tm1  1  0.755379  0.000000  0.750000  1
  Tm  Tm2  1  0.998866  0.246365  0.250000  1
  Tm  Tm3  1  0.752501  0.753635  0.250000  1
  Tm  Tm4  1  0.248667  0.246250  0.750000  1
  Tm  Tm5  1  0.002417  0.753750  0.750000  1
  Zr  Zr6  1  0.331358  0.664088  0.000222  1
  Zr  Zr7  1  0.667271  0.335912  0.499778  1
  Zr  Zr8  1  0.667271  0.335912  0.000222  1
  Zr  Zr9  1  0.331358  0.664088  0.499778  1
  Tl  Tl10  1  0.604360  0.000000  0.250000  1
  Sb  Sb11  1  0.396740  0.000000  0.750000  1
  Sb  Sb12  1  0.999362  0.606576  0.250000  1
  Sb  Sb13  1  0.392787  0.393424  0.250000  1
  Sb  Sb14  1  0.606222  0.606615  0.750000  1
  Sb  Sb15  1  0.999606  0.393385  0.750000  1
