# generated using pymatgen
data_PrNd(BIr)8
_symmetry_space_group_name_H-M   'P 1'
_cell_length_a   7.71843000
_cell_length_b   7.71843000
_cell_length_c   3.99123600
_cell_angle_alpha   90.00000000
_cell_angle_beta   90.00000000
_cell_angle_gamma   90.00000000
_symmetry_Int_Tables_number   1
_chemical_formula_structural   PrNd(BIr)8
_chemical_formula_sum   'Pr1 Nd1 B8 Ir8'
_cell_volume   237.77453871
_cell_formula_units_Z   1
loop_
 _symmetry_equiv_pos_site_id
 _symmetry_equiv_pos_as_xyz
  1  'x, y, z'
loop_
 _atom_site_type_symbol
 _atom_site_label
 _atom_site_symmetry_multiplicity
 _atom_site_fract_x
 _atom_site_fract_y
 _atom_site_fract_z
 _atom_site_occupancy
  Pr  Pr0  1  0.500000  0.500000  0.000000  1
  Nd  Nd1  1  0.000000  0.000000  0.500000  1
  B  B2  1  0.658348  0.779463  0.608165  1
  B  B3  1  0.158155  0.279143  0.891493  1
  B  B4  1  0.279143  0.841845  0.108507  1
  B  B5  1  0.720857  0.158155  0.108507  1
  B  B6  1  0.341652  0.220537  0.608165  1
  B  B7  1  0.841845  0.720857  0.891493  1
  B  B8  1  0.220537  0.658348  0.391835  1
  B  B9  1  0.779463  0.341652  0.391835  1
  Ir  Ir10  1  0.340554  0.109200  0.109256  1
  Ir  Ir11  1  0.659446  0.890800  0.109256  1
  Ir  Ir12  1  0.609642  0.158758  0.608930  1
  Ir  Ir13  1  0.109200  0.659446  0.890744  1
  Ir  Ir14  1  0.158758  0.390358  0.391070  1
  Ir  Ir15  1  0.841242  0.609642  0.391070  1
  Ir  Ir16  1  0.890800  0.340554  0.890744  1
  Ir  Ir17  1  0.390358  0.841242  0.608930  1
