# generated using pymatgen
data_Ac3(CdPd)4
_symmetry_space_group_name_H-M   'P 1'
_cell_length_a   8.97752025
_cell_length_b   8.97752165
_cell_length_c   8.97752177
_cell_angle_alpha   152.30488424
_cell_angle_beta   123.80890864
_cell_angle_gamma   63.77750414
_symmetry_Int_Tables_number   1
_chemical_formula_structural   Ac3(CdPd)4
_chemical_formula_sum   'Ac3 Cd4 Pd4'
_cell_volume   276.98643588
_cell_formula_units_Z   1
loop_
 _symmetry_equiv_pos_site_id
 _symmetry_equiv_pos_as_xyz
  1  'x, y, z'
loop_
 _atom_site_type_symbol
 _atom_site_label
 _atom_site_symmetry_multiplicity
 _atom_site_fract_x
 _atom_site_fract_y
 _atom_site_fract_z
 _atom_site_occupancy
  Ac  Ac0  1  0.500000  0.000000  0.500000  1
  Ac  Ac1  1  0.873613  0.873613  0.000000  1
  Ac  Ac2  1  0.126387  0.126387  0.000000  1
  Cd  Cd3  1  0.478707  0.672441  0.806266  1
  Cd  Cd4  1  0.866175  0.672441  0.193734  1
  Cd  Cd5  1  0.133825  0.327559  0.806266  1
  Cd  Cd6  1  0.521293  0.327559  0.193734  1
  Pd  Pd7  1  0.275589  0.775589  0.500000  1
  Pd  Pd8  1  0.724411  0.224411  0.500000  1
  Pd  Pd9  1  0.816591  0.500000  0.316591  1
  Pd  Pd10  1  0.183409  0.500000  0.683409  1
