# generated using pymatgen
data_Dy3Tm17(CoSb2)4
_symmetry_space_group_name_H-M   'P 1'
_cell_length_a   7.79639123
_cell_length_b   8.72064700
_cell_length_c   12.06118636
_cell_angle_alpha   90.00000000
_cell_angle_beta   90.02794192
_cell_angle_gamma   90.00000000
_symmetry_Int_Tables_number   1
_chemical_formula_structural   Dy3Tm17(CoSb2)4
_chemical_formula_sum   'Dy3 Tm17 Co4 Sb8'
_cell_volume   820.03484672
_cell_formula_units_Z   1
loop_
 _symmetry_equiv_pos_site_id
 _symmetry_equiv_pos_as_xyz
  1  'x, y, z'
loop_
 _atom_site_type_symbol
 _atom_site_label
 _atom_site_symmetry_multiplicity
 _atom_site_fract_x
 _atom_site_fract_y
 _atom_site_fract_z
 _atom_site_occupancy
  Dy  Dy0  1  0.879179  0.750000  0.807229  1
  Dy  Dy1  1  0.379300  0.250000  0.692587  1
  Dy  Dy2  1  0.120818  0.250000  0.192651  1
  Tm  Tm3  1  0.155532  0.750000  0.203091  1
  Tm  Tm4  1  0.344675  0.750000  0.702982  1
  Tm  Tm5  1  0.844740  0.250000  0.797066  1
  Tm  Tm6  1  0.655265  0.250000  0.297129  1
  Tm  Tm7  1  0.450900  0.750000  0.998323  1
  Tm  Tm8  1  0.048930  0.750000  0.498220  1
  Tm  Tm9  1  0.549021  0.250000  0.001855  1
  Tm  Tm10  1  0.950333  0.250000  0.501662  1
  Tm  Tm11  1  0.619666  0.750000  0.308382  1
  Tm  Tm12  1  0.823046  0.536358  0.065055  1
  Tm  Tm13  1  0.676942  0.962982  0.564533  1
  Tm  Tm14  1  0.176932  0.036798  0.935027  1
  Tm  Tm15  1  0.323652  0.464432  0.434792  1
  Tm  Tm16  1  0.176932  0.463202  0.935027  1
  Tm  Tm17  1  0.323652  0.035568  0.434792  1
  Tm  Tm18  1  0.823046  0.963642  0.065055  1
  Tm  Tm19  1  0.676942  0.537018  0.564533  1
  Co  Co20  1  0.433154  0.750000  0.490823  1
  Co  Co21  1  0.067374  0.750000  0.991269  1
  Co  Co22  1  0.567274  0.250000  0.508589  1
  Co  Co23  1  0.932535  0.250000  0.008845  1
  Sb  Sb24  1  0.928637  0.509634  0.327791  1
  Sb  Sb25  1  0.570490  0.991020  0.827874  1
  Sb  Sb26  1  0.070438  0.009045  0.672117  1
  Sb  Sb27  1  0.430514  0.491771  0.172459  1
  Sb  Sb28  1  0.070438  0.490955  0.672117  1
  Sb  Sb29  1  0.430514  0.008229  0.172459  1
  Sb  Sb30  1  0.928637  0.990366  0.327791  1
  Sb  Sb31  1  0.570490  0.508980  0.827874  1
