# generated using pymatgen
data_La5Nd(RhBr3)2
_symmetry_space_group_name_H-M   'P 1'
_cell_length_a   10.57874084
_cell_length_b   10.57873996
_cell_length_c   10.60946958
_cell_angle_alpha   110.32250423
_cell_angle_beta   109.12188268
_cell_angle_gamma   108.85394513
_symmetry_Int_Tables_number   1
_chemical_formula_structural   La5Nd(RhBr3)2
_chemical_formula_sum   'La10 Nd2 Rh4 Br12'
_cell_volume   915.15654119
_cell_formula_units_Z   2
loop_
 _symmetry_equiv_pos_site_id
 _symmetry_equiv_pos_as_xyz
  1  'x, y, z'
loop_
 _atom_site_type_symbol
 _atom_site_label
 _atom_site_symmetry_multiplicity
 _atom_site_fract_x
 _atom_site_fract_y
 _atom_site_fract_z
 _atom_site_occupancy
  La  La0  1  0.747436  0.015327  0.481816  1
  La  La1  1  0.236692  0.470029  0.484573  1
  La  La2  1  0.260839  0.741625  0.230917  1
  La  La3  1  0.033513  0.265621  0.018184  1
  La  La4  1  0.010708  0.029923  0.269083  1
  La  La5  1  0.485456  0.752119  0.015427  1
  La  La6  1  0.483577  0.233917  0.467602  1
  La  La7  1  0.009834  0.481565  0.740871  1
  La  La8  1  0.266315  0.015974  0.032398  1
  La  La9  1  0.240694  0.268963  0.759129  1
  Nd  Nd10  1  0.472362  0.485482  0.236191  1
  Nd  Nd11  1  0.749290  0.236172  0.263809  1
  Rh  Rh12  1  0.250390  0.249410  0.251321  1
  Rh  Rh13  1  0.498088  0.999069  0.248679  1
  Rh  Rh14  1  0.001391  0.251254  0.500764  1
  Rh  Rh15  1  0.250490  0.500626  0.999236  1
  Br  Br16  1  0.249468  0.756863  0.742313  1
  Br  Br17  1  0.514549  0.507156  0.757687  1
  Br  Br18  1  0.987782  0.743902  0.994002  1
  Br  Br19  1  0.744159  0.250488  0.756111  1
  Br  Br20  1  0.994376  0.988048  0.743889  1
  Br  Br21  1  0.249900  0.993780  0.505998  1
  Br  Br22  1  0.753198  0.511945  0.499235  1
  Br  Br23  1  0.512710  0.253963  0.000765  1
  Br  Br24  1  0.753511  0.739910  0.249533  1
  Br  Br25  1  0.743931  0.998315  0.989357  1
  Br  Br26  1  0.990377  0.503978  0.250467  1
  Br  Br27  1  0.508959  0.754576  0.510643  1
