# generated using pymatgen
data_Li4Ca8Al4SiGe7
_symmetry_space_group_name_H-M   'P 1'
_cell_length_a   4.36884300
_cell_length_b   7.10582989
_cell_length_c   16.52786169
_cell_angle_alpha   90.10322685
_cell_angle_beta   90.00000000
_cell_angle_gamma   90.00000000
_symmetry_Int_Tables_number   1
_chemical_formula_structural   Li4Ca8Al4SiGe7
_chemical_formula_sum   'Li4 Ca8 Al4 Si1 Ge7'
_cell_volume   513.09432305
_cell_formula_units_Z   1
loop_
 _symmetry_equiv_pos_site_id
 _symmetry_equiv_pos_as_xyz
  1  'x, y, z'
loop_
 _atom_site_type_symbol
 _atom_site_label
 _atom_site_symmetry_multiplicity
 _atom_site_fract_x
 _atom_site_fract_y
 _atom_site_fract_z
 _atom_site_occupancy
  Li  Li0  1  0.250000  0.984302  0.068608  1
  Li  Li1  1  0.750000  0.514920  0.568060  1
  Li  Li2  1  0.250000  0.485040  0.431881  1
  Li  Li3  1  0.750000  0.014954  0.931974  1
  Ca  Ca4  1  0.750000  0.158513  0.438725  1
  Ca  Ca5  1  0.250000  0.001439  0.776806  1
  Ca  Ca6  1  0.250000  0.341503  0.938983  1
  Ca  Ca7  1  0.750000  0.659087  0.061901  1
  Ca  Ca8  1  0.250000  0.841473  0.561011  1
  Ca  Ca9  1  0.750000  0.997494  0.222844  1
  Ca  Ca10  1  0.750000  0.499294  0.276407  1
  Ca  Ca11  1  0.250000  0.501438  0.723227  1
  Al  Al12  1  0.250000  0.340956  0.156501  1
  Al  Al13  1  0.750000  0.163040  0.656246  1
  Al  Al14  1  0.250000  0.835178  0.342091  1
  Al  Al15  1  0.750000  0.662990  0.843822  1
  Si  Si16  1  0.250000  0.707722  0.189818  1
  Ge  Ge17  1  0.250000  0.210054  0.311177  1
  Ge  Ge18  1  0.250000  0.266483  0.571499  1
  Ge  Ge19  1  0.750000  0.733663  0.428283  1
  Ge  Ge20  1  0.750000  0.289972  0.811298  1
  Ge  Ge21  1  0.750000  0.789883  0.688669  1
  Ge  Ge22  1  0.750000  0.234012  0.071644  1
  Ge  Ge23  1  0.250000  0.766589  0.928525  1
