# generated using pymatgen
data_YbZr2(UBi2)5
_symmetry_space_group_name_H-M   'P 1'
_cell_length_a   9.62371900
_cell_length_b   9.55540155
_cell_length_c   6.42247100
_cell_angle_alpha   90.00000000
_cell_angle_beta   90.00000000
_cell_angle_gamma   120.23678709
_symmetry_Int_Tables_number   1
_chemical_formula_structural   YbZr2(UBi2)5
_chemical_formula_sum   'Yb1 Zr2 U5 Bi10'
_cell_volume   510.25053611
_cell_formula_units_Z   1
loop_
 _symmetry_equiv_pos_site_id
 _symmetry_equiv_pos_as_xyz
  1  'x, y, z'
loop_
 _atom_site_type_symbol
 _atom_site_label
 _atom_site_symmetry_multiplicity
 _atom_site_fract_x
 _atom_site_fract_y
 _atom_site_fract_z
 _atom_site_occupancy
  Yb  Yb0  1  0.380477  0.000000  0.750000  1
  Zr  Zr1  1  0.999610  0.000000  0.999461  1
  Zr  Zr2  1  0.999610  0.000000  0.500539  1
  U  U3  1  0.385813  0.381918  0.250000  1
  U  U4  1  0.003895  0.618082  0.250000  1
  U  U5  1  0.999833  0.386374  0.750000  1
  U  U6  1  0.613459  0.613626  0.750000  1
  U  U7  1  0.614134  0.000000  0.250000  1
  Bi  Bi8  1  0.670287  0.336450  0.499279  1
  Bi  Bi9  1  0.333835  0.663550  0.000721  1
  Bi  Bi10  1  0.728005  0.000000  0.750000  1
  Bi  Bi11  1  0.729288  0.727542  0.250000  1
  Bi  Bi12  1  0.333835  0.663550  0.499279  1
  Bi  Bi13  1  0.670287  0.336450  0.000721  1
  Bi  Bi14  1  0.268961  0.000000  0.250000  1
  Bi  Bi15  1  0.269551  0.272178  0.750000  1
  Bi  Bi16  1  0.997373  0.727822  0.750000  1
  Bi  Bi17  1  0.001747  0.272458  0.250000  1
