# generated using pymatgen
data_LaNd3CdPt
_symmetry_space_group_name_H-M   'P 1'
_cell_length_a   10.06912744
_cell_length_b   10.06912727
_cell_length_c   10.06912700
_cell_angle_alpha   59.99999760
_cell_angle_beta   59.99999817
_cell_angle_gamma   60.00000200
_symmetry_Int_Tables_number   1
_chemical_formula_structural   LaNd3CdPt
_chemical_formula_sum   'La4 Nd12 Cd4 Pt4'
_cell_volume   721.87247297
_cell_formula_units_Z   4
loop_
 _symmetry_equiv_pos_site_id
 _symmetry_equiv_pos_as_xyz
  1  'x, y, z'
loop_
 _atom_site_type_symbol
 _atom_site_label
 _atom_site_symmetry_multiplicity
 _atom_site_fract_x
 _atom_site_fract_y
 _atom_site_fract_z
 _atom_site_occupancy
  La  La0  1  0.350123  0.350123  0.350123  1
  La  La1  1  0.350123  0.350123  0.949632  1
  La  La2  1  0.350123  0.949632  0.350123  1
  La  La3  1  0.949632  0.350123  0.350123  1
  Nd  Nd4  1  0.808927  0.191073  0.191073  1
  Nd  Nd5  1  0.191073  0.808927  0.808927  1
  Nd  Nd6  1  0.191073  0.808927  0.191073  1
  Nd  Nd7  1  0.808927  0.191073  0.808927  1
  Nd  Nd8  1  0.191073  0.191073  0.808927  1
  Nd  Nd9  1  0.808927  0.808927  0.191073  1
  Nd  Nd10  1  0.934390  0.565610  0.565610  1
  Nd  Nd11  1  0.565610  0.934390  0.934390  1
  Nd  Nd12  1  0.565610  0.934390  0.565610  1
  Nd  Nd13  1  0.934390  0.565610  0.934390  1
  Nd  Nd14  1  0.565610  0.565610  0.934390  1
  Nd  Nd15  1  0.934390  0.934390  0.565610  1
  Cd  Cd16  1  0.580765  0.580765  0.580765  1
  Cd  Cd17  1  0.580765  0.580765  0.257706  1
  Cd  Cd18  1  0.580765  0.257706  0.580765  1
  Cd  Cd19  1  0.257706  0.580765  0.580765  1
  Pt  Pt20  1  0.142405  0.142405  0.142405  1
  Pt  Pt21  1  0.142405  0.142405  0.572786  1
  Pt  Pt22  1  0.142405  0.572786  0.142405  1
  Pt  Pt23  1  0.572786  0.142405  0.142405  1
