# generated using pymatgen
data_MnNb4Al2Cr5
_symmetry_space_group_name_H-M   'P 1'
_cell_length_a   4.87250019
_cell_length_b   4.87249906
_cell_length_c   8.34161700
_cell_angle_alpha   90.00000000
_cell_angle_beta   90.00000000
_cell_angle_gamma   120.03229723
_symmetry_Int_Tables_number   1
_chemical_formula_structural   MnNb4Al2Cr5
_chemical_formula_sum   'Mn1 Nb4 Al2 Cr5'
_cell_volume   171.45220459
_cell_formula_units_Z   1
loop_
 _symmetry_equiv_pos_site_id
 _symmetry_equiv_pos_as_xyz
  1  'x, y, z'
loop_
 _atom_site_type_symbol
 _atom_site_label
 _atom_site_symmetry_multiplicity
 _atom_site_fract_x
 _atom_site_fract_y
 _atom_site_fract_z
 _atom_site_occupancy
  Mn  Mn0  1  0.828135  0.171865  0.250000  1
  Nb  Nb1  1  0.333164  0.666836  0.433130  1
  Nb  Nb2  1  0.666570  0.333430  0.564817  1
  Nb  Nb3  1  0.666570  0.333430  0.935183  1
  Nb  Nb4  1  0.333164  0.666836  0.066870  1
  Al  Al5  1  0.999073  0.000927  0.499004  1
  Al  Al6  1  0.999073  0.000927  0.000996  1
  Cr  Cr7  1  0.826511  0.652565  0.250000  1
  Cr  Cr8  1  0.347435  0.173489  0.250000  1
  Cr  Cr9  1  0.172895  0.827105  0.750000  1
  Cr  Cr10  1  0.173120  0.345709  0.750000  1
  Cr  Cr11  1  0.654291  0.826880  0.750000  1
