# generated using pymatgen
data_Ta5Be3NbAs
_symmetry_space_group_name_H-M   'P 1'
_cell_length_a   6.59548861
_cell_length_b   6.59104412
_cell_length_c   3.40144200
_cell_angle_alpha   90.00000000
_cell_angle_beta   90.00000000
_cell_angle_gamma   90.04910969
_symmetry_Int_Tables_number   1
_chemical_formula_structural   Ta5Be3NbAs
_chemical_formula_sum   'Ta5 Be3 Nb1 As1'
_cell_volume   147.86456278
_cell_formula_units_Z   1
loop_
 _symmetry_equiv_pos_site_id
 _symmetry_equiv_pos_as_xyz
  1  'x, y, z'
loop_
 _atom_site_type_symbol
 _atom_site_label
 _atom_site_symmetry_multiplicity
 _atom_site_fract_x
 _atom_site_fract_y
 _atom_site_fract_z
 _atom_site_occupancy
  Ta  Ta0  1  0.506614  0.497734  0.000000  1
  Ta  Ta1  1  0.997894  0.006279  0.000000  1
  Ta  Ta2  1  0.677648  0.177364  0.500000  1
  Ta  Ta3  1  0.333648  0.833198  0.500000  1
  Ta  Ta4  1  0.808716  0.680561  0.500000  1
  Be  Be5  1  0.875549  0.376076  0.000000  1
  Be  Be6  1  0.615688  0.886722  0.000000  1
  Be  Be7  1  0.386956  0.115339  0.000000  1
  Nb  Nb8  1  0.180376  0.310071  0.500000  1
  As  As9  1  0.116911  0.616657  0.000000  1
