# generated using pymatgen
data_Pr3Dy2P12Ir10Ru9
_symmetry_space_group_name_H-M   'P 1'
_cell_length_a   12.71500075
_cell_length_b   12.64089551
_cell_length_c   4.00198600
_cell_angle_alpha   90.00000000
_cell_angle_beta   90.00000000
_cell_angle_gamma   119.96672302
_symmetry_Int_Tables_number   1
_chemical_formula_structural   Pr3Dy2P12Ir10Ru9
_chemical_formula_sum   'Pr3 Dy2 P12 Ir10 Ru9'
_cell_volume   557.24471550
_cell_formula_units_Z   1
loop_
 _symmetry_equiv_pos_site_id
 _symmetry_equiv_pos_as_xyz
  1  'x, y, z'
loop_
 _atom_site_type_symbol
 _atom_site_label
 _atom_site_symmetry_multiplicity
 _atom_site_fract_x
 _atom_site_fract_y
 _atom_site_fract_z
 _atom_site_occupancy
  Pr  Pr0  1  0.812231  0.001092  0.500000  1
  Pr  Pr1  1  0.185215  0.187141  0.500000  1
  Pr  Pr2  1  0.999671  0.813878  0.500000  1
  Dy  Dy3  1  0.666850  0.331901  0.000000  1
  Dy  Dy4  1  0.334937  0.667689  0.000000  1
  P  P5  1  0.629571  0.997866  0.000000  1
  P  P6  1  0.366841  0.372503  0.000000  1
  P  P7  1  0.001135  0.633069  0.000000  1
  P  P8  1  0.689994  0.518177  0.500000  1
  P  P9  1  0.827432  0.306131  0.500000  1
  P  P10  1  0.315328  0.831068  0.500000  1
  P  P11  1  0.516833  0.687952  0.500000  1
  P  P12  1  0.183353  0.000647  0.000000  1
  P  P13  1  0.815718  0.816701  0.000000  1
  P  P14  1  0.996481  0.184986  0.000000  1
  P  P15  1  0.480278  0.169435  0.500000  1
  P  P16  1  0.175239  0.482563  0.500000  1
  Ir  Ir17  1  0.620130  0.800209  0.000000  1
  Ir  Ir18  1  0.181338  0.381664  0.000000  1
  Ir  Ir19  1  0.378733  0.183482  0.000000  1
  Ir  Ir20  1  0.197368  0.817986  0.000000  1
  Ir  Ir21  1  0.803363  0.619734  0.000000  1
  Ir  Ir22  1  0.869494  0.505417  0.500000  1
  Ir  Ir23  1  0.495053  0.362186  0.500000  1
  Ir  Ir24  1  0.634685  0.128635  0.500000  1
  Ir  Ir25  1  0.131220  0.637771  0.500000  1
  Ir  Ir26  1  0.999782  0.000724  0.000000  1
  Ru  Ru27  1  0.363905  0.489243  0.500000  1
  Ru  Ru28  1  0.509642  0.870573  0.500000  1
  Ru  Ru29  1  0.710659  0.709454  0.500000  1
  Ru  Ru30  1  0.000876  0.291440  0.500000  1
  Ru  Ru31  1  0.449984  0.999836  0.000000  1
  Ru  Ru32  1  0.550867  0.546886  0.000000  1
  Ru  Ru33  1  0.000140  0.453225  0.000000  1
  Ru  Ru34  1  0.816593  0.198775  0.000000  1
  Ru  Ru35  1  0.289061  0.999960  0.500000  1
