# generated using pymatgen
data_Ho6TcTe2
_symmetry_space_group_name_H-M   'P 1'
_cell_length_a   4.05778200
_cell_length_b   8.27897614
_cell_length_c   8.28011921
_cell_angle_alpha   119.99543072
_cell_angle_beta   90.00000000
_cell_angle_gamma   90.00000000
_symmetry_Int_Tables_number   1
_chemical_formula_structural   Ho6TcTe2
_chemical_formula_sum   'Ho6 Tc1 Te2'
_cell_volume   240.90874112
_cell_formula_units_Z   1
loop_
 _symmetry_equiv_pos_site_id
 _symmetry_equiv_pos_as_xyz
  1  'x, y, z'
loop_
 _atom_site_type_symbol
 _atom_site_label
 _atom_site_symmetry_multiplicity
 _atom_site_fract_x
 _atom_site_fract_y
 _atom_site_fract_z
 _atom_site_occupancy
  Ho  Ho0  1  0.500000  0.607549  0.000000  1
  Ho  Ho1  1  0.500000  0.392422  0.392358  1
  Ho  Ho2  1  0.500000  0.000062  0.607642  1
  Ho  Ho3  1  0.000000  0.238755  0.000000  1
  Ho  Ho4  1  0.000000  0.761282  0.761202  1
  Ho  Ho5  1  0.000000  0.000080  0.238798  1
  Tc  Tc6  1  0.500000  0.999695  0.000000  1
  Te  Te7  1  0.000000  0.333351  0.666646  1
  Te  Te8  1  0.000000  0.666705  0.333354  1
