# generated using pymatgen
data_Th2OsC2
_symmetry_space_group_name_H-M   'P 1'
_cell_length_a   5.34934800
_cell_length_b   6.65104100
_cell_length_c   10.09185800
_cell_angle_alpha   90.00000000
_cell_angle_beta   90.00000000
_cell_angle_gamma   90.00000000
_symmetry_Int_Tables_number   1
_chemical_formula_structural   Th2OsC2
_chemical_formula_sum   'Th8 Os4 C8'
_cell_volume   359.05551996
_cell_formula_units_Z   4
loop_
 _symmetry_equiv_pos_site_id
 _symmetry_equiv_pos_as_xyz
  1  'x, y, z'
loop_
 _atom_site_type_symbol
 _atom_site_label
 _atom_site_symmetry_multiplicity
 _atom_site_fract_x
 _atom_site_fract_y
 _atom_site_fract_z
 _atom_site_occupancy
  Th  Th0  1  0.250000  0.692882  0.547099  1
  Th  Th1  1  0.750000  0.307118  0.452901  1
  Th  Th2  1  0.750000  0.807118  0.047099  1
  Th  Th3  1  0.250000  0.192882  0.952901  1
  Th  Th4  1  0.250000  0.520331  0.225221  1
  Th  Th5  1  0.750000  0.479669  0.774779  1
  Th  Th6  1  0.750000  0.979669  0.725221  1
  Th  Th7  1  0.250000  0.020331  0.274779  1
  Os  Os8  1  0.250000  0.729847  0.859773  1
  Os  Os9  1  0.750000  0.270153  0.140227  1
  Os  Os10  1  0.750000  0.770153  0.359773  1
  Os  Os11  1  0.250000  0.229847  0.640227  1
  C  C12  1  0.250000  0.471218  0.756543  1
  C  C13  1  0.750000  0.528782  0.243457  1
  C  C14  1  0.750000  0.028782  0.256543  1
  C  C15  1  0.250000  0.971218  0.743457  1
  C  C16  1  0.250000  0.836675  0.055966  1
  C  C17  1  0.750000  0.163325  0.944034  1
  C  C18  1  0.750000  0.663325  0.555966  1
  C  C19  1  0.250000  0.336675  0.444034  1
