# generated using pymatgen
data_La2Ho3Rh2
_symmetry_space_group_name_H-M   'P 1'
_cell_length_a   6.51663640
_cell_length_b   7.19876404
_cell_length_c   8.92948378
_cell_angle_alpha   96.76038695
_cell_angle_beta   111.40108188
_cell_angle_gamma   89.99999625
_symmetry_Int_Tables_number   1
_chemical_formula_structural   La2Ho3Rh2
_chemical_formula_sum   'La4 Ho6 Rh4'
_cell_volume   386.88416290
_cell_formula_units_Z   2
loop_
 _symmetry_equiv_pos_site_id
 _symmetry_equiv_pos_as_xyz
  1  'x, y, z'
loop_
 _atom_site_type_symbol
 _atom_site_label
 _atom_site_symmetry_multiplicity
 _atom_site_fract_x
 _atom_site_fract_y
 _atom_site_fract_z
 _atom_site_occupancy
  La  La0  1  0.978271  0.918335  0.195896  1
  La  La1  1  0.782376  0.581665  0.804104  1
  La  La2  1  0.021729  0.081665  0.804104  1
  La  La3  1  0.217624  0.418335  0.195896  1
  Ho  Ho4  1  0.640690  0.814880  0.432796  1
  Ho  Ho5  1  0.207893  0.685120  0.567204  1
  Ho  Ho6  1  0.359310  0.185120  0.567204  1
  Ho  Ho7  1  0.792107  0.314880  0.432796  1
  Ho  Ho8  1  0.426181  0.750000  0.000000  1
  Ho  Ho9  1  0.573819  0.250000  0.000000  1
  Rh  Rh10  1  0.815077  0.576536  0.226591  1
  Rh  Rh11  1  0.588487  0.923464  0.773409  1
  Rh  Rh12  1  0.184923  0.423464  0.773409  1
  Rh  Rh13  1  0.411513  0.076536  0.226591  1
