# generated using pymatgen
data_Lu2Ga2Ag
_symmetry_space_group_name_H-M   'P 1'
_cell_length_a   7.00257200
_cell_length_b   7.00257200
_cell_length_c   4.28368600
_cell_angle_alpha   90.00000000
_cell_angle_beta   90.00000000
_cell_angle_gamma   90.00000000
_symmetry_Int_Tables_number   1
_chemical_formula_structural   Lu2Ga2Ag
_chemical_formula_sum   'Lu4 Ga4 Ag2'
_cell_volume   210.05488930
_cell_formula_units_Z   2
loop_
 _symmetry_equiv_pos_site_id
 _symmetry_equiv_pos_as_xyz
  1  'x, y, z'
loop_
 _atom_site_type_symbol
 _atom_site_label
 _atom_site_symmetry_multiplicity
 _atom_site_fract_x
 _atom_site_fract_y
 _atom_site_fract_z
 _atom_site_occupancy
  Lu  Lu0  1  0.330758  0.169242  0.499999  1
  Lu  Lu1  1  0.830758  0.330758  0.499999  1
  Lu  Lu2  1  0.169242  0.669242  0.499999  1
  Lu  Lu3  1  0.669242  0.830758  0.499999  1
  Ga  Ga4  1  0.630880  0.130880  0.000000  1
  Ga  Ga5  1  0.130880  0.369120  0.000000  1
  Ga  Ga6  1  0.869119  0.630880  0.000000  1
  Ga  Ga7  1  0.369120  0.869119  0.000000  1
  Ag  Ag8  1  0.000000  0.000000  0.000000  1
  Ag  Ag9  1  0.500000  0.500000  0.000000  1
