# generated using pymatgen
data_DyErTm6(WO6)4
_symmetry_space_group_name_H-M   'P 1'
_cell_length_a   5.34851600
_cell_length_b   7.64374590
_cell_length_c   11.38063301
_cell_angle_alpha   75.23945083
_cell_angle_beta   90.00000000
_cell_angle_gamma   90.00000000
_symmetry_Int_Tables_number   1
_chemical_formula_structural   DyErTm6(WO6)4
_chemical_formula_sum   'Dy1 Er1 Tm6 W4 O24'
_cell_volume   449.91658749
_cell_formula_units_Z   1
loop_
 _symmetry_equiv_pos_site_id
 _symmetry_equiv_pos_as_xyz
  1  'x, y, z'
loop_
 _atom_site_type_symbol
 _atom_site_label
 _atom_site_symmetry_multiplicity
 _atom_site_fract_x
 _atom_site_fract_y
 _atom_site_fract_z
 _atom_site_occupancy
  Dy  Dy0  1  0.684663  0.500000  0.750000  1
  Er  Er1  1  0.315538  0.500000  0.250000  1
  Tm  Tm2  1  0.740167  0.000000  0.750000  1
  Tm  Tm3  1  0.260028  0.000000  0.250000  1
  Tm  Tm4  1  0.184428  0.795693  0.578225  1
  Tm  Tm5  1  0.815753  0.795219  0.078555  1
  Tm  Tm6  1  0.184428  0.204307  0.921775  1
  Tm  Tm7  1  0.815753  0.204781  0.421445  1
  W  W8  1  0.255587  0.723961  0.885850  1
  W  W9  1  0.744375  0.723662  0.385201  1
  W  W10  1  0.255587  0.276039  0.614150  1
  W  W11  1  0.744375  0.276338  0.114799  1
  O  O12  1  0.041394  0.941133  0.895779  1
  O  O13  1  0.536659  0.847997  0.930884  1
  O  O14  1  0.958411  0.941356  0.395297  1
  O  O15  1  0.459408  0.792914  0.726028  1
  O  O16  1  0.463866  0.848058  0.430738  1
  O  O17  1  0.981108  0.712931  0.770218  1
  O  O18  1  0.540027  0.792156  0.225934  1
  O  O19  1  0.852234  0.634721  0.548998  1
  O  O20  1  0.359067  0.487957  0.886707  1
  O  O21  1  0.020313  0.711365  0.270377  1
  O  O22  1  0.359067  0.512043  0.613293  1
  O  O23  1  0.852234  0.365279  0.951002  1
  O  O24  1  0.148552  0.634674  0.049966  1
  O  O25  1  0.638620  0.488089  0.385848  1
  O  O26  1  0.981108  0.287069  0.729782  1
  O  O27  1  0.638620  0.511911  0.114152  1
  O  O28  1  0.148552  0.365326  0.450034  1
  O  O29  1  0.459408  0.207086  0.773972  1
  O  O30  1  0.020313  0.288635  0.229623  1
  O  O31  1  0.536659  0.152003  0.569116  1
  O  O32  1  0.540027  0.207844  0.274066  1
  O  O33  1  0.041394  0.058867  0.604221  1
  O  O34  1  0.463866  0.151942  0.069262  1
  O  O35  1  0.958411  0.058644  0.104703  1
