# generated using pymatgen
data_Yb2CdNi7B2
_symmetry_space_group_name_H-M   'P 1'
_cell_length_a   7.50718284
_cell_length_b   7.50718189
_cell_length_c   7.50718071
_cell_angle_alpha   39.03117869
_cell_angle_beta   39.03118782
_cell_angle_gamma   39.03118616
_symmetry_Int_Tables_number   1
_chemical_formula_structural   Yb2CdNi7B2
_chemical_formula_sum   'Yb2 Cd1 Ni7 B2'
_cell_volume   150.90218123
_cell_formula_units_Z   1
loop_
 _symmetry_equiv_pos_site_id
 _symmetry_equiv_pos_as_xyz
  1  'x, y, z'
loop_
 _atom_site_type_symbol
 _atom_site_label
 _atom_site_symmetry_multiplicity
 _atom_site_fract_x
 _atom_site_fract_y
 _atom_site_fract_z
 _atom_site_occupancy
  Yb  Yb0  1  0.497683  0.497683  0.497683  1
  Yb  Yb1  1  0.646368  0.646368  0.646368  1
  Cd  Cd2  1  0.354532  0.354532  0.354532  1
  Ni  Ni3  1  0.999920  0.999920  0.999920  1
  Ni  Ni4  1  0.065687  0.570063  0.065686  1
  Ni  Ni5  1  0.570063  0.065687  0.065686  1
  Ni  Ni6  1  0.935369  0.935369  0.428550  1
  Ni  Ni7  1  0.065687  0.065687  0.570062  1
  Ni  Ni8  1  0.428549  0.935369  0.935370  1
  Ni  Ni9  1  0.935369  0.428549  0.935370  1
  B  B10  1  0.167740  0.167740  0.167740  1
  B  B11  1  0.833036  0.833036  0.833036  1
