# generated using pymatgen
data_K2Cr3FeP6(O4F3)4
_symmetry_space_group_name_H-M   'P 1'
_cell_length_a   7.35114441
_cell_length_b   7.71793402
_cell_length_c   10.58885200
_cell_angle_alpha   101.26612856
_cell_angle_beta   110.28219974
_cell_angle_gamma   90.47303828
_symmetry_Int_Tables_number   1
_chemical_formula_structural   K2Cr3FeP6(O4F3)4
_chemical_formula_sum   'K2 Cr3 Fe1 P6 O16 F12'
_cell_volume   550.76894792
_cell_formula_units_Z   1
loop_
 _symmetry_equiv_pos_site_id
 _symmetry_equiv_pos_as_xyz
  1  'x, y, z'
loop_
 _atom_site_type_symbol
 _atom_site_label
 _atom_site_symmetry_multiplicity
 _atom_site_fract_x
 _atom_site_fract_y
 _atom_site_fract_z
 _atom_site_occupancy
  K  K0  1  0.790204  0.070469  0.802571  1
  K  K1  1  0.209796  0.929531  0.197429  1
  Cr  Cr2  1  0.655558  0.316200  0.329335  1
  Cr  Cr3  1  0.344442  0.683800  0.670665  1
  Cr  Cr4  1  0.500000  0.500000  0.000000  1
  Fe  Fe5  1  0.000000  0.000000  0.500000  1
  P  P6  1  0.656265  0.722978  0.504580  1
  P  P7  1  0.343735  0.277022  0.495420  1
  P  P8  1  0.317709  0.089260  0.820161  1
  P  P9  1  0.682291  0.910740  0.179839  1
  P  P10  1  0.062021  0.581319  0.832217  1
  P  P11  1  0.937979  0.418681  0.167783  1
  O  O12  1  0.732498  0.559132  0.442537  1
  O  O13  1  0.267502  0.440868  0.557463  1
  O  O14  1  0.802613  0.885955  0.555157  1
  O  O15  1  0.197387  0.114045  0.444843  1
  O  O16  1  0.573155  0.071092  0.211149  1
  O  O17  1  0.426845  0.928908  0.788851  1
  O  O18  1  0.463966  0.249627  0.893837  1
  O  O19  1  0.536034  0.750373  0.106163  1
  O  O20  1  0.862043  0.883347  0.298376  1
  O  O21  1  0.137957  0.116653  0.701624  1
  O  O22  1  0.884880  0.333610  0.266124  1
  O  O23  1  0.115120  0.666390  0.733876  1
  O  O24  1  0.789772  0.488328  0.055530  1
  O  O25  1  0.210228  0.511672  0.944470  1
  O  O26  1  0.423702  0.294977  0.383366  1
  O  O27  1  0.576298  0.705023  0.616634  1
  F  F28  1  0.829376  0.205323  0.474653  1
  F  F29  1  0.170624  0.794677  0.525347  1
  F  F30  1  0.499934  0.414966  0.165089  1
  F  F31  1  0.500066  0.585034  0.834911  1
  F  F32  1  0.772857  0.951250  0.069076  1
  F  F33  1  0.227143  0.048750  0.930924  1
  F  F34  1  0.892977  0.433656  0.753951  1
  F  F35  1  0.107023  0.566344  0.246049  1
  F  F36  1  0.522369  0.229054  0.617983  1
  F  F37  1  0.477631  0.770946  0.382017  1
  F  F38  1  0.048181  0.281023  0.096173  1
  F  F39  1  0.951819  0.718977  0.903827  1
