# generated using pymatgen
data_CsRe2OsSe(SCl)3
_symmetry_space_group_name_H-M   'P 1'
_cell_length_a   10.26037017
_cell_length_b   10.26036962
_cell_length_c   15.18447700
_cell_angle_alpha   89.79736075
_cell_angle_beta   89.79736076
_cell_angle_gamma   120.05711857
_symmetry_Int_Tables_number   1
_chemical_formula_structural   CsRe2OsSe(SCl)3
_chemical_formula_sum   'Cs4 Re8 Os4 Se4 S12 Cl12'
_cell_volume   1383.55162638
_cell_formula_units_Z   4
loop_
 _symmetry_equiv_pos_site_id
 _symmetry_equiv_pos_as_xyz
  1  'x, y, z'
loop_
 _atom_site_type_symbol
 _atom_site_label
 _atom_site_symmetry_multiplicity
 _atom_site_fract_x
 _atom_site_fract_y
 _atom_site_fract_z
 _atom_site_occupancy
  Cs  Cs0  1  0.998774  0.999572  0.499760  1
  Cs  Cs1  1  0.999634  0.999283  0.999382  1
  Cs  Cs2  1  0.334058  0.666910  0.251443  1
  Cs  Cs3  1  0.668621  0.335828  0.750414  1
  Re  Re4  1  0.665892  0.479905  0.320632  1
  Re  Re5  1  0.519000  0.185729  0.321290  1
  Re  Re6  1  0.479614  0.665255  0.820038  1
  Re  Re7  1  0.185931  0.518738  0.820694  1
  Re  Re8  1  0.185784  0.665335  0.680051  1
  Re  Re9  1  0.480987  0.813759  0.679445  1
  Re  Re10  1  0.666273  0.185628  0.180161  1
  Re  Re11  1  0.814986  0.480961  0.179568  1
  Os  Os12  1  0.814828  0.333239  0.321724  1
  Os  Os13  1  0.333322  0.814206  0.821433  1
  Os  Os14  1  0.333830  0.518239  0.679208  1
  Os  Os15  1  0.518201  0.334092  0.179018  1
  Se  Se16  1  0.332278  0.951925  0.682974  1
  Se  Se17  1  0.665932  0.617624  0.179721  1
  Se  Se18  1  0.379794  0.051090  0.181047  1
  Se  Se19  1  0.952405  0.332071  0.183409  1
  S  S20  1  0.667647  0.332533  0.444113  1
  S  S21  1  0.332555  0.666848  0.944080  1
  S  S22  1  0.334164  0.664639  0.556229  1
  S  S23  1  0.665641  0.334136  0.056681  1
  S  S24  1  0.937580  0.602175  0.316249  1
  S  S25  1  0.394146  0.332335  0.313957  1
  S  S26  1  0.669205  0.064399  0.317366  1
  S  S27  1  0.332183  0.393090  0.813619  1
  S  S28  1  0.602290  0.936729  0.815866  1
  S  S29  1  0.064419  0.668474  0.817015  1
  S  S30  1  0.064995  0.394015  0.684613  1
  S  S31  1  0.602627  0.664264  0.683406  1
  Cl  Cl32  1  0.010649  0.337781  0.410715  1
  Cl  Cl33  1  0.662022  0.671573  0.409533  1
  Cl  Cl34  1  0.327285  0.989003  0.411537  1
  Cl  Cl35  1  0.672007  0.661815  0.908117  1
  Cl  Cl36  1  0.337757  0.009934  0.910389  1
  Cl  Cl37  1  0.988714  0.326776  0.910040  1
  Cl  Cl38  1  0.989266  0.660285  0.592042  1
  Cl  Cl39  1  0.338923  0.327481  0.589993  1
  Cl  Cl40  1  0.674773  0.010094  0.590885  1
  Cl  Cl41  1  0.326849  0.338798  0.089767  1
  Cl  Cl42  1  0.662665  0.989513  0.091767  1
  Cl  Cl43  1  0.012128  0.674558  0.090620  1
