# generated using pymatgen
data_Hf5AlSn2Sb
_symmetry_space_group_name_H-M   'P 1'
_cell_length_a   8.68809113
_cell_length_b   8.67210913
_cell_length_c   5.80204000
_cell_angle_alpha   90.00000000
_cell_angle_beta   90.00000000
_cell_angle_gamma   119.93916010
_symmetry_Int_Tables_number   1
_chemical_formula_structural   Hf5AlSn2Sb
_chemical_formula_sum   'Hf10 Al2 Sn4 Sb2'
_cell_volume   378.81430967
_cell_formula_units_Z   2
loop_
 _symmetry_equiv_pos_site_id
 _symmetry_equiv_pos_as_xyz
  1  'x, y, z'
loop_
 _atom_site_type_symbol
 _atom_site_label
 _atom_site_symmetry_multiplicity
 _atom_site_fract_x
 _atom_site_fract_y
 _atom_site_fract_z
 _atom_site_occupancy
  Hf  Hf0  1  0.727639  0.728563  0.250000  1
  Hf  Hf1  1  0.727639  0.999076  0.750000  1
  Hf  Hf2  1  0.999331  0.270817  0.250000  1
  Hf  Hf3  1  0.999331  0.728513  0.750000  1
  Hf  Hf4  1  0.272828  0.272370  0.750000  1
  Hf  Hf5  1  0.272828  0.000457  0.250000  1
  Hf  Hf6  1  0.334538  0.667270  0.500000  1
  Hf  Hf7  1  0.666438  0.333219  0.000000  1
  Hf  Hf8  1  0.666438  0.333219  0.500000  1
  Hf  Hf9  1  0.334538  0.667270  0.000000  1
  Al  Al10  1  0.001101  0.000551  0.000000  1
  Al  Al11  1  0.001101  0.000551  0.500000  1
  Sn  Sn12  1  0.385745  0.999990  0.750000  1
  Sn  Sn13  1  0.385745  0.385754  0.250000  1
  Sn  Sn14  1  0.000700  0.613465  0.250000  1
  Sn  Sn15  1  0.000700  0.387235  0.750000  1
  Sb  Sb16  1  0.611682  0.611001  0.750000  1
  Sb  Sb17  1  0.611682  0.000681  0.250000  1
