# generated using pymatgen
data_DyHo5C2Cl7
_symmetry_space_group_name_H-M   'P 1'
_cell_length_a   10.09139212
_cell_length_b   10.09139138
_cell_length_c   11.50194884
_cell_angle_alpha   56.69714100
_cell_angle_beta   56.69714437
_cell_angle_gamma   21.18074301
_symmetry_Int_Tables_number   1
_chemical_formula_structural   DyHo5C2Cl7
_chemical_formula_sum   'Dy1 Ho5 C2 Cl7'
_cell_volume   351.03128183
_cell_formula_units_Z   1
loop_
 _symmetry_equiv_pos_site_id
 _symmetry_equiv_pos_as_xyz
  1  'x, y, z'
loop_
 _atom_site_type_symbol
 _atom_site_label
 _atom_site_symmetry_multiplicity
 _atom_site_fract_x
 _atom_site_fract_y
 _atom_site_fract_z
 _atom_site_occupancy
  Dy  Dy0  1  0.225934  0.225934  0.848092  1
  Ho  Ho1  1  0.317184  0.317184  0.360100  1
  Ho  Ho2  1  0.128249  0.128249  0.442245  1
  Ho  Ho3  1  0.871673  0.871673  0.557789  1
  Ho  Ho4  1  0.682925  0.682925  0.639896  1
  Ho  Ho5  1  0.773971  0.773971  0.152693  1
  C  C6  1  0.279713  0.279713  0.608411  1
  C  C7  1  0.720486  0.720486  0.390536  1
  Cl  Cl8  1  0.168885  0.168885  0.161618  1
  Cl  Cl9  1  0.831715  0.831715  0.838485  1
  Cl  Cl10  1  0.058631  0.058631  0.716207  1
  Cl  Cl11  1  0.941391  0.941391  0.283683  1
  Cl  Cl12  1  0.500039  0.500039  0.499953  1
  Cl  Cl13  1  0.388923  0.388923  0.067728  1
  Cl  Cl14  1  0.610280  0.610280  0.932564  1
