# generated using pymatgen
data_Yb10Ir3Pt
_symmetry_space_group_name_H-M   'P 1'
_cell_length_a   8.45489104
_cell_length_b   8.43517392
_cell_length_c   7.56174152
_cell_angle_alpha   82.87107003
_cell_angle_beta   82.98353257
_cell_angle_gamma   44.17680713
_symmetry_Int_Tables_number   1
_chemical_formula_structural   Yb10Ir3Pt
_chemical_formula_sum   'Yb10 Ir3 Pt1'
_cell_volume   372.48489243
_cell_formula_units_Z   1
loop_
 _symmetry_equiv_pos_site_id
 _symmetry_equiv_pos_as_xyz
  1  'x, y, z'
loop_
 _atom_site_type_symbol
 _atom_site_label
 _atom_site_symmetry_multiplicity
 _atom_site_fract_x
 _atom_site_fract_y
 _atom_site_fract_z
 _atom_site_occupancy
  Yb  Yb0  1  0.038958  0.790060  0.918012  1
  Yb  Yb1  1  0.207486  0.966310  0.579507  1
  Yb  Yb2  1  0.969417  0.208236  0.079751  1
  Yb  Yb3  1  0.795295  0.033795  0.424307  1
  Yb  Yb4  1  0.362796  0.198165  0.818574  1
  Yb  Yb5  1  0.799720  0.635466  0.677690  1
  Yb  Yb6  1  0.635477  0.796817  0.177570  1
  Yb  Yb7  1  0.194284  0.367158  0.326026  1
  Yb  Yb8  1  0.574583  0.428319  0.745612  1
  Yb  Yb9  1  0.424029  0.577564  0.252755  1
  Ir  Ir10  1  0.179059  0.601386  0.580667  1
  Ir  Ir11  1  0.395393  0.822851  0.920402  1
  Ir  Ir12  1  0.822359  0.395820  0.418726  1
  Pt  Pt13  1  0.601145  0.178053  0.080399  1
