# generated using pymatgen
data_NdEu4Sn3F
_symmetry_space_group_name_H-M   'P 1'
_cell_length_a   9.78546314
_cell_length_b   9.78546151
_cell_length_c   9.79148800
_cell_angle_alpha   129.34537421
_cell_angle_beta   129.34536640
_cell_angle_gamma   74.40905352
_symmetry_Int_Tables_number   1
_chemical_formula_structural   NdEu4Sn3F
_chemical_formula_sum   'Nd2 Eu8 Sn6 F2'
_cell_volume   546.64566298
_cell_formula_units_Z   2
loop_
 _symmetry_equiv_pos_site_id
 _symmetry_equiv_pos_as_xyz
  1  'x, y, z'
loop_
 _atom_site_type_symbol
 _atom_site_label
 _atom_site_symmetry_multiplicity
 _atom_site_fract_x
 _atom_site_fract_y
 _atom_site_fract_z
 _atom_site_occupancy
  Nd  Nd0  1  0.520521  0.020521  0.832619  1
  Nd  Nd1  1  0.187902  0.687902  0.167381  1
  Eu  Eu2  1  0.502730  0.502730  0.000000  1
  Eu  Eu3  1  0.002730  0.002730  0.000000  1
  Eu  Eu4  1  0.012155  0.186607  0.500000  1
  Eu  Eu5  1  0.686607  0.512155  0.500000  1
  Eu  Eu6  1  0.485028  0.985028  0.174589  1
  Eu  Eu7  1  0.810440  0.310440  0.825411  1
  Eu  Eu8  1  0.986856  0.812659  0.500000  1
  Eu  Eu9  1  0.312659  0.486856  0.500000  1
  Sn  Sn10  1  0.253125  0.253125  0.000000  1
  Sn  Sn11  1  0.753125  0.753125  0.000000  1
  Sn  Sn12  1  0.871198  0.371198  0.245052  1
  Sn  Sn13  1  0.126147  0.626147  0.754948  1
  Sn  Sn14  1  0.369142  0.120821  0.500000  1
  Sn  Sn15  1  0.620821  0.869142  0.500000  1
  F  F16  1  0.251568  0.751568  0.500000  1
  F  F17  1  0.747250  0.247250  0.500000  1
