# generated using pymatgen
data_Zr6Ta4Si6C
_symmetry_space_group_name_H-M   'P 1'
_cell_length_a   7.84354600
_cell_length_b   7.84354765
_cell_length_c   5.40628300
_cell_angle_alpha   90.00000000
_cell_angle_beta   90.00000000
_cell_angle_gamma   119.99999303
_symmetry_Int_Tables_number   1
_chemical_formula_structural   Zr6Ta4Si6C
_chemical_formula_sum   'Zr6 Ta4 Si6 C1'
_cell_volume   288.04107644
_cell_formula_units_Z   1
loop_
 _symmetry_equiv_pos_site_id
 _symmetry_equiv_pos_as_xyz
  1  'x, y, z'
loop_
 _atom_site_type_symbol
 _atom_site_label
 _atom_site_symmetry_multiplicity
 _atom_site_fract_x
 _atom_site_fract_y
 _atom_site_fract_z
 _atom_site_occupancy
  Zr  Zr0  1  0.000000  0.755601  0.254584  1
  Zr  Zr1  1  0.244399  0.244399  0.254584  1
  Zr  Zr2  1  0.755601  0.000000  0.254584  1
  Zr  Zr3  1  0.000000  0.244399  0.745416  1
  Zr  Zr4  1  0.755601  0.755601  0.745416  1
  Zr  Zr5  1  0.244399  0.000000  0.745416  1
  Ta  Ta6  1  0.333333  0.666667  0.000000  1
  Ta  Ta7  1  0.666667  0.333333  0.000000  1
  Ta  Ta8  1  0.666667  0.333333  0.500000  1
  Ta  Ta9  1  0.333333  0.666667  0.500000  1
  Si  Si10  1  0.000000  0.401485  0.243403  1
  Si  Si11  1  0.598515  0.598515  0.243403  1
  Si  Si12  1  0.401485  0.000000  0.243403  1
  Si  Si13  1  0.000000  0.598515  0.756597  1
  Si  Si14  1  0.401485  0.401485  0.756597  1
  Si  Si15  1  0.598515  0.000000  0.756597  1
  C  C16  1  0.000000  0.000000  0.500000  1
