# generated using pymatgen
data_Ti5Nb7Ga8Fe2(CuC2)2
_symmetry_space_group_name_H-M   'P 1'
_cell_length_a   8.23715085
_cell_length_b   8.26161313
_cell_length_c   8.25212800
_cell_angle_alpha   59.94511011
_cell_angle_beta   60.09533574
_cell_angle_gamma   59.92528220
_symmetry_Int_Tables_number   1
_chemical_formula_structural   Ti5Nb7Ga8Fe2(CuC2)2
_chemical_formula_sum   'Ti5 Nb7 Ga8 Fe2 Cu2 C4'
_cell_volume   396.98859573
_cell_formula_units_Z   1
loop_
 _symmetry_equiv_pos_site_id
 _symmetry_equiv_pos_as_xyz
  1  'x, y, z'
loop_
 _atom_site_type_symbol
 _atom_site_label
 _atom_site_symmetry_multiplicity
 _atom_site_fract_x
 _atom_site_fract_y
 _atom_site_fract_z
 _atom_site_occupancy
  Ti  Ti0  1  0.563912  0.935108  0.935690  1
  Ti  Ti1  1  0.943100  0.558566  0.558095  1
  Ti  Ti2  1  0.938471  0.566671  0.938424  1
  Ti  Ti3  1  0.310493  0.314577  0.682562  1
  Ti  Ti4  1  0.555632  0.567712  0.938810  1
  Nb  Nb5  1  0.941239  0.939739  0.562970  1
  Nb  Nb6  1  0.687918  0.314877  0.312712  1
  Nb  Nb7  1  0.305407  0.691200  0.695760  1
  Nb  Nb8  1  0.696401  0.683378  0.309579  1
  Nb  Nb9  1  0.696147  0.311089  0.683721  1
  Nb  Nb10  1  0.308913  0.685668  0.308410  1
  Nb  Nb11  1  0.553003  0.942495  0.563502  1
  Ga  Ga12  1  0.916986  0.259737  0.908263  1
  Ga  Ga13  1  0.333319  0.338384  0.994122  1
  Ga  Ga14  1  0.002816  0.334340  0.333996  1
  Ga  Ga15  1  0.329225  0.334260  0.339175  1
  Ga  Ga16  1  0.252764  0.912543  0.916303  1
  Ga  Ga17  1  0.917142  0.911306  0.917023  1
  Ga  Ga18  1  0.917115  0.908282  0.256748  1
  Ga  Ga19  1  0.333745  0.993141  0.338882  1
  Fe  Fe20  1  0.126532  0.623351  0.125055  1
  Fe  Fe21  1  0.123605  0.122992  0.627886  1
  Cu  Cu22  1  0.625029  0.126346  0.124669  1
  Cu  Cu23  1  0.124693  0.125186  0.123964  1
  C  C24  1  0.618342  0.126736  0.630283  1
  C  C25  1  0.627809  0.628753  0.114823  1
  C  C26  1  0.122727  0.619288  0.629363  1
  C  C27  1  0.627514  0.624275  0.629209  1
