# generated using pymatgen
data_CaScAlSe4
_symmetry_space_group_name_H-M   'P 1'
_cell_length_a   14.43602700
_cell_length_b   8.12352000
_cell_length_c   6.49311600
_cell_angle_alpha   90.00000000
_cell_angle_beta   90.00000000
_cell_angle_gamma   90.00000000
_symmetry_Int_Tables_number   1
_chemical_formula_structural   CaScAlSe4
_chemical_formula_sum   'Ca4 Sc4 Al4 Se16'
_cell_volume   761.45650536
_cell_formula_units_Z   4
loop_
 _symmetry_equiv_pos_site_id
 _symmetry_equiv_pos_as_xyz
  1  'x, y, z'
loop_
 _atom_site_type_symbol
 _atom_site_label
 _atom_site_symmetry_multiplicity
 _atom_site_fract_x
 _atom_site_fract_y
 _atom_site_fract_z
 _atom_site_occupancy
  Ca  Ca0  1  0.737123  0.750001  0.008087  1
  Ca  Ca1  1  0.237123  0.750001  0.491913  1
  Ca  Ca2  1  0.762877  0.250000  0.508087  1
  Ca  Ca3  1  0.262877  0.250000  0.991912  1
  Sc  Sc4  1  0.000000  0.000000  0.000000  1
  Sc  Sc5  1  0.000000  0.499999  0.000000  1
  Sc  Sc6  1  0.500000  0.000000  0.500000  1
  Sc  Sc7  1  0.500000  0.499999  0.500000  1
  Al  Al8  1  0.580026  0.250000  0.099478  1
  Al  Al9  1  0.080026  0.250000  0.400522  1
  Al  Al10  1  0.919974  0.750001  0.599479  1
  Al  Al11  1  0.419974  0.750001  0.900522  1
  Se  Se12  1  0.918657  0.750001  0.230114  1
  Se  Se13  1  0.152977  0.014669  0.244210  1
  Se  Se14  1  0.152977  0.485331  0.244210  1
  Se  Se15  1  0.929132  0.250000  0.234462  1
  Se  Se16  1  0.429132  0.250000  0.265538  1
  Se  Se17  1  0.652977  0.014669  0.255790  1
  Se  Se18  1  0.652977  0.485331  0.255790  1
  Se  Se19  1  0.418656  0.750001  0.269885  1
  Se  Se20  1  0.581343  0.250000  0.730114  1
  Se  Se21  1  0.347023  0.514670  0.744210  1
  Se  Se22  1  0.347023  0.985330  0.744210  1
  Se  Se23  1  0.570868  0.750001  0.734461  1
  Se  Se24  1  0.070868  0.750001  0.765538  1
  Se  Se25  1  0.847023  0.514670  0.755789  1
  Se  Se26  1  0.847023  0.985330  0.755789  1
  Se  Se27  1  0.081344  0.250000  0.769885  1
