# generated using pymatgen
data_TbDy2Zn2In3Ir
_symmetry_space_group_name_H-M   'P 1'
_cell_length_a   7.77440101
_cell_length_b   7.76666970
_cell_length_c   3.85128100
_cell_angle_alpha   90.00000000
_cell_angle_beta   90.00000000
_cell_angle_gamma   120.02621236
_symmetry_Int_Tables_number   1
_chemical_formula_structural   TbDy2Zn2In3Ir
_chemical_formula_sum   'Tb1 Dy2 Zn2 In3 Ir1'
_cell_volume   201.33665126
_cell_formula_units_Z   1
loop_
 _symmetry_equiv_pos_site_id
 _symmetry_equiv_pos_as_xyz
  1  'x, y, z'
loop_
 _atom_site_type_symbol
 _atom_site_label
 _atom_site_symmetry_multiplicity
 _atom_site_fract_x
 _atom_site_fract_y
 _atom_site_fract_z
 _atom_site_occupancy
  Tb  Tb0  1  0.584551  0.609193  0.000000  1
  Dy  Dy1  1  0.390548  0.974799  0.000000  1
  Dy  Dy2  1  0.025124  0.415786  0.000000  1
  Zn  Zn3  1  0.000077  0.000120  0.000000  1
  Zn  Zn4  1  0.666713  0.333191  0.500000  1
  In  In5  1  0.994038  0.733761  0.500000  1
  In  In6  1  0.266100  0.259863  0.500000  1
  In  In7  1  0.739935  0.006338  0.500000  1
  Ir  Ir8  1  0.332914  0.666949  0.500000  1
