# generated using pymatgen
data_Tm4Al4Pd3Ru
_symmetry_space_group_name_H-M   'P 1'
_cell_length_a   4.30833100
_cell_length_b   6.83406874
_cell_length_c   7.85306039
_cell_angle_alpha   90.24356350
_cell_angle_beta   90.00000000
_cell_angle_gamma   90.00000000
_symmetry_Int_Tables_number   1
_chemical_formula_structural   Tm4Al4Pd3Ru
_chemical_formula_sum   'Tm4 Al4 Pd3 Ru1'
_cell_volume   231.21894647
_cell_formula_units_Z   1
loop_
 _symmetry_equiv_pos_site_id
 _symmetry_equiv_pos_as_xyz
  1  'x, y, z'
loop_
 _atom_site_type_symbol
 _atom_site_label
 _atom_site_symmetry_multiplicity
 _atom_site_fract_x
 _atom_site_fract_y
 _atom_site_fract_z
 _atom_site_occupancy
  Tm  Tm0  1  0.250000  0.034917  0.323948  1
  Tm  Tm1  1  0.250000  0.532447  0.180316  1
  Tm  Tm2  1  0.750000  0.979235  0.677962  1
  Tm  Tm3  1  0.750000  0.463091  0.815037  1
  Al  Al4  1  0.250000  0.142290  0.937455  1
  Al  Al5  1  0.250000  0.636136  0.560934  1
  Al  Al6  1  0.750000  0.859328  0.060562  1
  Al  Al7  1  0.750000  0.356716  0.442393  1
  Pd  Pd8  1  0.250000  0.769810  0.879627  1
  Pd  Pd9  1  0.750000  0.730621  0.376723  1
  Pd  Pd10  1  0.750000  0.231981  0.122622  1
  Ru  Ru11  1  0.250000  0.263429  0.622423  1
