# generated using pymatgen
data_CrFe6TcMo5
_symmetry_space_group_name_H-M   'P 1'
_cell_length_a   8.98569376
_cell_length_b   8.98569359
_cell_length_c   8.98569437
_cell_angle_alpha   30.73940712
_cell_angle_beta   30.73941054
_cell_angle_gamma   30.73941167
_symmetry_Int_Tables_number   1
_chemical_formula_structural   CrFe6TcMo5
_chemical_formula_sum   'Cr1 Fe6 Tc1 Mo5'
_cell_volume   168.08662139
_cell_formula_units_Z   1
loop_
 _symmetry_equiv_pos_site_id
 _symmetry_equiv_pos_as_xyz
  1  'x, y, z'
loop_
 _atom_site_type_symbol
 _atom_site_label
 _atom_site_symmetry_multiplicity
 _atom_site_fract_x
 _atom_site_fract_y
 _atom_site_fract_z
 _atom_site_occupancy
  Cr  Cr0  1  0.000190  0.000190  0.000190  1
  Fe  Fe1  1  0.585448  0.094088  0.094088  1
  Fe  Fe2  1  0.094088  0.094088  0.585448  1
  Fe  Fe3  1  0.906484  0.906484  0.413869  1
  Fe  Fe4  1  0.906484  0.413869  0.906484  1
  Fe  Fe5  1  0.094088  0.585448  0.094088  1
  Fe  Fe6  1  0.413869  0.906484  0.906484  1
  Tc  Tc7  1  0.347256  0.347256  0.347256  1
  Mo  Mo8  1  0.166133  0.166133  0.166133  1
  Mo  Mo9  1  0.549170  0.549170  0.549170  1
  Mo  Mo10  1  0.652386  0.652386  0.652386  1
  Mo  Mo11  1  0.450636  0.450636  0.450636  1
  Mo  Mo12  1  0.833768  0.833768  0.833768  1
