# generated using pymatgen
data_Lu6Si6TcOs3
_symmetry_space_group_name_H-M   'P 1'
_cell_length_a   5.64666443
_cell_length_b   5.64666324
_cell_length_c   13.53426718
_cell_angle_alpha   90.01742114
_cell_angle_beta   89.98258019
_cell_angle_gamma   136.84579074
_symmetry_Int_Tables_number   1
_chemical_formula_structural   Lu6Si6TcOs3
_chemical_formula_sum   'Lu6 Si6 Tc1 Os3'
_cell_volume   295.15627522
_cell_formula_units_Z   1
loop_
 _symmetry_equiv_pos_site_id
 _symmetry_equiv_pos_as_xyz
  1  'x, y, z'
loop_
 _atom_site_type_symbol
 _atom_site_label
 _atom_site_symmetry_multiplicity
 _atom_site_fract_x
 _atom_site_fract_y
 _atom_site_fract_z
 _atom_site_occupancy
  Lu  Lu0  1  0.641327  0.358673  0.250297  1
  Lu  Lu1  1  0.358625  0.641375  0.750856  1
  Lu  Lu2  1  0.923670  0.076330  0.115225  1
  Lu  Lu3  1  0.075928  0.924072  0.884859  1
  Lu  Lu4  1  0.076754  0.923246  0.615033  1
  Lu  Lu5  1  0.923951  0.076049  0.384620  1
  Si  Si6  1  0.328342  0.671658  0.249805  1
  Si  Si7  1  0.671501  0.328499  0.751162  1
  Si  Si8  1  0.614230  0.385770  0.038239  1
  Si  Si9  1  0.385797  0.614203  0.961910  1
  Si  Si10  1  0.386524  0.613476  0.537646  1
  Si  Si11  1  0.613611  0.386389  0.460812  1
  Tc  Tc12  1  0.786492  0.213508  0.582735  1
  Os  Os13  1  0.213192  0.786808  0.415738  1
  Os  Os14  1  0.212376  0.787624  0.083250  1
  Os  Os15  1  0.787681  0.212319  0.917813  1
