# generated using pymatgen
data_HoCo(PRu)2
_symmetry_space_group_name_H-M   'P 1'
_cell_length_a   3.86880100
_cell_length_b   10.77203800
_cell_length_c   12.54767700
_cell_angle_alpha   90.00000000
_cell_angle_beta   90.00000000
_cell_angle_gamma   90.00000000
_symmetry_Int_Tables_number   1
_chemical_formula_structural   HoCo(PRu)2
_chemical_formula_sum   'Ho6 Co6 P12 Ru12'
_cell_volume   522.92282517
_cell_formula_units_Z   6
loop_
 _symmetry_equiv_pos_site_id
 _symmetry_equiv_pos_as_xyz
  1  'x, y, z'
loop_
 _atom_site_type_symbol
 _atom_site_label
 _atom_site_symmetry_multiplicity
 _atom_site_fract_x
 _atom_site_fract_y
 _atom_site_fract_z
 _atom_site_occupancy
  Ho  Ho0  1  0.000000  0.500000  0.528322  1
  Ho  Ho1  1  0.500000  0.000000  0.470751  1
  Ho  Ho2  1  0.500000  0.822955  0.203483  1
  Ho  Ho3  1  0.500000  0.177045  0.203483  1
  Ho  Ho4  1  0.000000  0.680256  0.797680  1
  Ho  Ho5  1  0.000000  0.319744  0.797680  1
  Co  Co6  1  0.000000  0.500000  0.986180  1
  Co  Co7  1  0.500000  0.000000  0.014934  1
  Co  Co8  1  0.000000  0.161361  0.012680  1
  Co  Co9  1  0.000000  0.838639  0.012680  1
  Co  Co10  1  0.500000  0.500000  0.700468  1
  Co  Co11  1  0.000000  0.000000  0.298554  1
  P  P12  1  0.500000  0.314013  0.617815  1
  P  P13  1  0.500000  0.685987  0.617815  1
  P  P14  1  0.000000  0.186609  0.382255  1
  P  P15  1  0.000000  0.813391  0.382255  1
  P  P16  1  0.500000  0.500000  0.879036  1
  P  P17  1  0.000000  0.000000  0.119926  1
  P  P18  1  0.500000  0.852226  0.895781  1
  P  P19  1  0.500000  0.147774  0.895781  1
  P  P20  1  0.000000  0.656118  0.101236  1
  P  P21  1  0.000000  0.343882  0.101236  1
  P  P22  1  0.500000  0.500000  0.339413  1
  P  P23  1  0.000000  0.000000  0.660670  1
  Ru  Ru24  1  0.500000  0.297956  0.428560  1
  Ru  Ru25  1  0.500000  0.702044  0.428560  1
  Ru  Ru26  1  0.000000  0.201694  0.571430  1
  Ru  Ru27  1  0.000000  0.798306  0.571430  1
  Ru  Ru28  1  0.500000  0.876422  0.714492  1
  Ru  Ru29  1  0.500000  0.123578  0.714492  1
  Ru  Ru30  1  0.000000  0.625088  0.283176  1
  Ru  Ru31  1  0.000000  0.374912  0.283176  1
  Ru  Ru32  1  0.500000  0.328015  0.990361  1
  Ru  Ru33  1  0.500000  0.671985  0.990361  1
  Ru  Ru34  1  0.500000  0.500000  0.153274  1
  Ru  Ru35  1  0.000000  0.000000  0.850574  1
