# generated using pymatgen
data_NaHg3(CO3)4
_symmetry_space_group_name_H-M   'P 1'
_cell_length_a   11.76408097
_cell_length_b   11.76408013
_cell_length_c   11.76407856
_cell_angle_alpha   25.01113319
_cell_angle_beta   25.01112989
_cell_angle_gamma   25.01112865
_symmetry_Int_Tables_number   1
_chemical_formula_structural   NaHg3(CO3)4
_chemical_formula_sum   'Na1 Hg3 C4 O12'
_cell_volume   256.03561105
_cell_formula_units_Z   1
loop_
 _symmetry_equiv_pos_site_id
 _symmetry_equiv_pos_as_xyz
  1  'x, y, z'
loop_
 _atom_site_type_symbol
 _atom_site_label
 _atom_site_symmetry_multiplicity
 _atom_site_fract_x
 _atom_site_fract_y
 _atom_site_fract_z
 _atom_site_occupancy
  Na  Na0  1  0.500000  0.500000  0.500000  1
  Hg  Hg1  1  0.000000  0.000000  0.000000  1
  Hg  Hg2  1  0.753251  0.753251  0.753251  1
  Hg  Hg3  1  0.246749  0.246749  0.246749  1
  C  C4  1  0.877174  0.877174  0.877174  1
  C  C5  1  0.374934  0.374934  0.374934  1
  C  C6  1  0.122826  0.122826  0.122826  1
  C  C7  1  0.625066  0.625066  0.625066  1
  O  O8  1  0.859040  0.138908  0.632585  1
  O  O9  1  0.380321  0.627145  0.117170  1
  O  O10  1  0.632585  0.859040  0.138908  1
  O  O11  1  0.117170  0.380321  0.627145  1
  O  O12  1  0.138908  0.632585  0.859040  1
  O  O13  1  0.627145  0.117170  0.380321  1
  O  O14  1  0.367415  0.140960  0.861092  1
  O  O15  1  0.882830  0.619679  0.372855  1
  O  O16  1  0.861092  0.367415  0.140960  1
  O  O17  1  0.372855  0.882830  0.619679  1
  O  O18  1  0.140960  0.861092  0.367415  1
  O  O19  1  0.619679  0.372855  0.882830  1
