# generated using pymatgen
data_Hf3Ga3Cu2Os
_symmetry_space_group_name_H-M   'P 1'
_cell_length_a   7.18837100
_cell_length_b   7.18837047
_cell_length_c   6.64180100
_cell_angle_alpha   90.00000000
_cell_angle_beta   90.00000000
_cell_angle_gamma   120.00000703
_symmetry_Int_Tables_number   1
_chemical_formula_structural   Hf3Ga3Cu2Os
_chemical_formula_sum   'Hf6 Ga6 Cu4 Os2'
_cell_volume   297.21956566
_cell_formula_units_Z   2
loop_
 _symmetry_equiv_pos_site_id
 _symmetry_equiv_pos_as_xyz
  1  'x, y, z'
loop_
 _atom_site_type_symbol
 _atom_site_label
 _atom_site_symmetry_multiplicity
 _atom_site_fract_x
 _atom_site_fract_y
 _atom_site_fract_z
 _atom_site_occupancy
  Hf  Hf0  1  0.391342  0.381859  0.250000  1
  Hf  Hf1  1  0.618250  0.009586  0.750000  1
  Hf  Hf2  1  0.391335  0.381750  0.750000  1
  Hf  Hf3  1  0.990414  0.608665  0.750000  1
  Hf  Hf4  1  0.990517  0.608658  0.250000  1
  Hf  Hf5  1  0.618141  0.009483  0.250000  1
  Ga  Ga6  1  0.264868  0.988408  0.000004  1
  Ga  Ga7  1  0.264868  0.988408  0.499996  1
  Ga  Ga8  1  0.011592  0.276458  0.499996  1
  Ga  Ga9  1  0.011592  0.276458  0.000004  1
  Ga  Ga10  1  0.723542  0.735132  0.000004  1
  Ga  Ga11  1  0.723542  0.735132  0.499996  1
  Cu  Cu12  1  0.000000  0.000000  0.750000  1
  Cu  Cu13  1  0.333333  0.666667  0.001149  1
  Cu  Cu14  1  0.333333  0.666667  0.498851  1
  Cu  Cu15  1  0.000000  0.000000  0.250000  1
  Os  Os16  1  0.666667  0.333333  0.499991  1
  Os  Os17  1  0.666667  0.333333  0.000009  1
