# generated using pymatgen
data_SmDyLu4(Co3P2)6
_symmetry_space_group_name_H-M   'P 1'
_cell_length_a   3.67974200
_cell_length_b   10.48986200
_cell_length_c   12.13651900
_cell_angle_alpha   90.00000000
_cell_angle_beta   90.00000000
_cell_angle_gamma   90.00000000
_symmetry_Int_Tables_number   1
_chemical_formula_structural   SmDyLu4(Co3P2)6
_chemical_formula_sum   'Sm1 Dy1 Lu4 Co18 P12'
_cell_volume   468.46946077
_cell_formula_units_Z   1
loop_
 _symmetry_equiv_pos_site_id
 _symmetry_equiv_pos_as_xyz
  1  'x, y, z'
loop_
 _atom_site_type_symbol
 _atom_site_label
 _atom_site_symmetry_multiplicity
 _atom_site_fract_x
 _atom_site_fract_y
 _atom_site_fract_z
 _atom_site_occupancy
  Sm  Sm0  1  0.000000  0.500000  0.522989  1
  Dy  Dy1  1  0.500000  0.000000  0.477235  1
  Lu  Lu2  1  0.500000  0.818706  0.205594  1
  Lu  Lu3  1  0.500000  0.181294  0.205594  1
  Lu  Lu4  1  0.000000  0.681993  0.794874  1
  Lu  Lu5  1  0.000000  0.318007  0.794874  1
  Co  Co6  1  0.500000  0.500000  0.157893  1
  Co  Co7  1  0.000000  0.000000  0.841010  1
  Co  Co8  1  0.500000  0.500000  0.706644  1
  Co  Co9  1  0.000000  0.000000  0.294614  1
  Co  Co10  1  0.000000  0.500000  0.987018  1
  Co  Co11  1  0.500000  0.000000  0.013449  1
  Co  Co12  1  0.500000  0.332807  0.994728  1
  Co  Co13  1  0.500000  0.667193  0.994728  1
  Co  Co14  1  0.000000  0.166735  0.005213  1
  Co  Co15  1  0.000000  0.833265  0.005213  1
  Co  Co16  1  0.500000  0.295204  0.429664  1
  Co  Co17  1  0.500000  0.704796  0.429664  1
  Co  Co18  1  0.000000  0.201713  0.570110  1
  Co  Co19  1  0.000000  0.798287  0.570110  1
  Co  Co20  1  0.500000  0.878687  0.710969  1
  Co  Co21  1  0.500000  0.121313  0.710969  1
  Co  Co22  1  0.000000  0.622190  0.288681  1
  Co  Co23  1  0.000000  0.377810  0.288681  1
  P  P24  1  0.500000  0.500000  0.883237  1
  P  P25  1  0.000000  0.000000  0.117384  1
  P  P26  1  0.500000  0.500000  0.341843  1
  P  P27  1  0.000000  0.000000  0.655964  1
  P  P28  1  0.500000  0.309104  0.618366  1
  P  P29  1  0.500000  0.690896  0.618366  1
  P  P30  1  0.000000  0.188566  0.382364  1
  P  P31  1  0.000000  0.811434  0.382364  1
  P  P32  1  0.500000  0.846349  0.892279  1
  P  P33  1  0.500000  0.153651  0.892279  1
  P  P34  1  0.000000  0.654374  0.107518  1
  P  P35  1  0.000000  0.345626  0.107518  1
