# generated using pymatgen
data_FeIr2(RhO4)3
_symmetry_space_group_name_H-M   'P 1'
_cell_length_a   4.56459716
_cell_length_b   4.56459716
_cell_length_c   9.42063800
_cell_angle_alpha   90.00000000
_cell_angle_beta   90.00000000
_cell_angle_gamma   89.96969897
_symmetry_Int_Tables_number   1
_chemical_formula_structural   FeIr2(RhO4)3
_chemical_formula_sum   'Fe1 Ir2 Rh3 O12'
_cell_volume   196.28412053
_cell_formula_units_Z   1
loop_
 _symmetry_equiv_pos_site_id
 _symmetry_equiv_pos_as_xyz
  1  'x, y, z'
loop_
 _atom_site_type_symbol
 _atom_site_label
 _atom_site_symmetry_multiplicity
 _atom_site_fract_x
 _atom_site_fract_y
 _atom_site_fract_z
 _atom_site_occupancy
  Fe  Fe0  1  0.000000  0.000000  0.333642  1
  Ir  Ir1  1  0.000000  0.000000  0.001136  1
  Ir  Ir2  1  0.500000  0.500000  0.500156  1
  Rh  Rh3  1  0.000000  0.000000  0.665319  1
  Rh  Rh4  1  0.500000  0.500000  0.833437  1
  Rh  Rh5  1  0.500000  0.500000  0.166302  1
  O  O6  1  0.301626  0.301626  0.999738  1
  O  O7  1  0.698374  0.698374  0.999738  1
  O  O8  1  0.198919  0.801081  0.499158  1
  O  O9  1  0.801081  0.198919  0.499158  1
  O  O10  1  0.309818  0.309818  0.335079  1
  O  O11  1  0.691223  0.691223  0.665767  1
  O  O12  1  0.690182  0.690182  0.335079  1
  O  O13  1  0.191116  0.808884  0.834696  1
  O  O14  1  0.191817  0.808183  0.165566  1
  O  O15  1  0.308777  0.308777  0.665767  1
  O  O16  1  0.808183  0.191817  0.165566  1
  O  O17  1  0.808884  0.191116  0.834696  1
