# generated using pymatgen
data_Sr6LuTc3O14
_symmetry_space_group_name_H-M   'P 1'
_cell_length_a   10.96674350
_cell_length_b   10.96674348
_cell_length_c   5.65128316
_cell_angle_alpha   89.97114810
_cell_angle_beta   89.97115769
_cell_angle_gamma   150.04103858
_symmetry_Int_Tables_number   1
_chemical_formula_structural   Sr6LuTc3O14
_chemical_formula_sum   'Sr6 Lu1 Tc3 O14'
_cell_volume   339.41606161
_cell_formula_units_Z   1
loop_
 _symmetry_equiv_pos_site_id
 _symmetry_equiv_pos_as_xyz
  1  'x, y, z'
loop_
 _atom_site_type_symbol
 _atom_site_label
 _atom_site_symmetry_multiplicity
 _atom_site_fract_x
 _atom_site_fract_y
 _atom_site_fract_z
 _atom_site_occupancy
  Sr  Sr0  1  0.184605  0.815395  0.500000  1
  Sr  Sr1  1  0.810608  0.189392  0.500000  1
  Sr  Sr2  1  0.685751  0.314249  0.000000  1
  Sr  Sr3  1  0.002488  0.997512  0.500000  1
  Sr  Sr4  1  0.502571  0.497429  0.000000  1
  Sr  Sr5  1  0.309916  0.690084  0.000000  1
  Lu  Lu6  1  0.401196  0.598804  0.500000  1
  Tc  Tc7  1  0.097226  0.902774  0.000000  1
  Tc  Tc8  1  0.598589  0.401411  0.500000  1
  Tc  Tc9  1  0.903529  0.096471  0.000000  1
  O  O10  1  0.193483  0.806517  0.000000  1
  O  O11  1  0.613176  0.805459  0.183921  1
  O  O12  1  0.324227  0.129774  0.726424  1
  O  O13  1  0.719188  0.910461  0.708706  1
  O  O14  1  0.372361  0.177162  0.225126  1
  O  O15  1  0.000119  0.999881  0.000000  1
  O  O16  1  0.695505  0.304495  0.500000  1
  O  O17  1  0.805974  0.194026  0.000000  1
  O  O18  1  0.089539  0.280812  0.291294  1
  O  O19  1  0.822838  0.627639  0.774874  1
  O  O20  1  0.870226  0.675773  0.273576  1
  O  O21  1  0.194541  0.386824  0.816079  1
  O  O22  1  0.503941  0.496059  0.500000  1
  O  O23  1  0.298406  0.701594  0.500000  1
