# generated using pymatgen
data_La3Nd(Re2Br)2
_symmetry_space_group_name_H-M   'P 1'
_cell_length_a   4.21454500
_cell_length_b   4.21454422
_cell_length_c   17.87365500
_cell_angle_alpha   90.00000000
_cell_angle_beta   90.00000000
_cell_angle_gamma   119.99998258
_symmetry_Int_Tables_number   1
_chemical_formula_structural   La3Nd(Re2Br)2
_chemical_formula_sum   'La3 Nd1 Re4 Br2'
_cell_volume   274.94472314
_cell_formula_units_Z   1
loop_
 _symmetry_equiv_pos_site_id
 _symmetry_equiv_pos_as_xyz
  1  'x, y, z'
loop_
 _atom_site_type_symbol
 _atom_site_label
 _atom_site_symmetry_multiplicity
 _atom_site_fract_x
 _atom_site_fract_y
 _atom_site_fract_z
 _atom_site_occupancy
  La  La0  1  0.000000  0.000000  0.117842  1
  La  La1  1  0.000000  0.000000  0.381933  1
  La  La2  1  0.000000  0.000000  0.618536  1
  Nd  Nd3  1  0.000000  0.000000  0.882730  1
  Re  Re4  1  0.666666  0.333332  0.015284  1
  Re  Re5  1  0.333334  0.666667  0.982853  1
  Re  Re6  1  0.666666  0.333332  0.483269  1
  Re  Re7  1  0.333334  0.666667  0.516682  1
  Br  Br8  1  0.333334  0.666667  0.249779  1
  Br  Br9  1  0.666666  0.333332  0.751093  1
