# generated using pymatgen
data_La2Pr6Zn8PdRh7
_symmetry_space_group_name_H-M   'P 1'
_cell_length_a   4.05886700
_cell_length_b   7.38175291
_cell_length_c   16.74703731
_cell_angle_alpha   90.12852701
_cell_angle_beta   90.00000000
_cell_angle_gamma   90.00000000
_symmetry_Int_Tables_number   1
_chemical_formula_structural   La2Pr6Zn8PdRh7
_chemical_formula_sum   'La2 Pr6 Zn8 Pd1 Rh7'
_cell_volume   501.76598873
_cell_formula_units_Z   1
loop_
 _symmetry_equiv_pos_site_id
 _symmetry_equiv_pos_as_xyz
  1  'x, y, z'
loop_
 _atom_site_type_symbol
 _atom_site_label
 _atom_site_symmetry_multiplicity
 _atom_site_fract_x
 _atom_site_fract_y
 _atom_site_fract_z
 _atom_site_occupancy
  La  La0  1  0.750000  0.452948  0.215066  1
  La  La1  1  0.750000  0.951598  0.283119  1
  Pr  Pr2  1  0.750000  0.830984  0.059566  1
  Pr  Pr3  1  0.250000  0.043833  0.720029  1
  Pr  Pr4  1  0.250000  0.169012  0.939742  1
  Pr  Pr5  1  0.250000  0.547422  0.784203  1
  Pr  Pr6  1  0.750000  0.333490  0.436155  1
  Pr  Pr7  1  0.250000  0.672559  0.560337  1
  Zn  Zn8  1  0.250000  0.996454  0.438452  1
  Zn  Zn9  1  0.750000  0.501057  0.939923  1
  Zn  Zn10  1  0.750000  0.998801  0.560252  1
  Zn  Zn11  1  0.250000  0.624895  0.350084  1
  Zn  Zn12  1  0.750000  0.377415  0.653467  1
  Zn  Zn13  1  0.750000  0.873861  0.850696  1
  Zn  Zn14  1  0.250000  0.499345  0.058393  1
  Zn  Zn15  1  0.250000  0.124873  0.149014  1
  Pd  Pd16  1  0.250000  0.242963  0.566521  1
  Rh  Rh17  1  0.750000  0.259261  0.066728  1
  Rh  Rh18  1  0.250000  0.243025  0.313923  1
  Rh  Rh19  1  0.750000  0.253745  0.813011  1
  Rh  Rh20  1  0.250000  0.744539  0.934338  1
  Rh  Rh21  1  0.750000  0.754723  0.685542  1
  Rh  Rh22  1  0.750000  0.757994  0.433904  1
  Rh  Rh23  1  0.250000  0.745205  0.187534  1
