# generated using pymatgen
data_Th14Tc2IrRu3
_symmetry_space_group_name_H-M   'P 1'
_cell_length_a   9.95416007
_cell_length_b   10.00184700
_cell_length_c   6.35350227
_cell_angle_alpha   89.99999579
_cell_angle_beta   89.78789031
_cell_angle_gamma   120.15859827
_symmetry_Int_Tables_number   1
_chemical_formula_structural   Th14Tc2IrRu3
_chemical_formula_sum   'Th14 Tc2 Ir1 Ru3'
_cell_volume   546.92576498
_cell_formula_units_Z   1
loop_
 _symmetry_equiv_pos_site_id
 _symmetry_equiv_pos_as_xyz
  1  'x, y, z'
loop_
 _atom_site_type_symbol
 _atom_site_label
 _atom_site_symmetry_multiplicity
 _atom_site_fract_x
 _atom_site_fract_y
 _atom_site_fract_z
 _atom_site_occupancy
  Th  Th0  1  0.459693  0.537933  0.297221  1
  Th  Th1  1  0.079680  0.539840  0.297324  1
  Th  Th2  1  0.918377  0.459188  0.800105  1
  Th  Th3  1  0.252032  0.126017  0.503861  1
  Th  Th4  1  0.540686  0.081846  0.798956  1
  Th  Th5  1  0.751311  0.875654  0.006267  1
  Th  Th6  1  0.665840  0.332919  0.286015  1
  Th  Th7  1  0.124101  0.873723  0.003200  1
  Th  Th8  1  0.459693  0.921760  0.297221  1
  Th  Th9  1  0.540686  0.458839  0.798956  1
  Th  Th10  1  0.876006  0.129755  0.504817  1
  Th  Th11  1  0.124101  0.250378  0.003200  1
  Th  Th12  1  0.876006  0.746252  0.504817  1
  Th  Th13  1  0.332374  0.666188  0.793217  1
  Tc  Tc14  1  0.812860  0.629343  0.047761  1
  Tc  Tc15  1  0.812860  0.183517  0.047761  1
  Ir  Ir16  1  0.624996  0.812498  0.552269  1
  Ru  Ru17  1  0.369412  0.184707  0.046237  1
  Ru  Ru18  1  0.189643  0.375129  0.547394  1
  Ru  Ru19  1  0.189643  0.814513  0.547394  1
