# generated using pymatgen
data_Th14Tc5Au
_symmetry_space_group_name_H-M   'P 1'
_cell_length_a   10.05446987
_cell_length_b   10.05446850
_cell_length_c   6.34853132
_cell_angle_alpha   90.26279956
_cell_angle_beta   89.73720996
_cell_angle_gamma   119.97278324
_symmetry_Int_Tables_number   1
_chemical_formula_structural   Th14Tc5Au
_chemical_formula_sum   'Th14 Tc5 Au1'
_cell_volume   555.94924205
_cell_formula_units_Z   1
loop_
 _symmetry_equiv_pos_site_id
 _symmetry_equiv_pos_as_xyz
  1  'x, y, z'
loop_
 _atom_site_type_symbol
 _atom_site_label
 _atom_site_symmetry_multiplicity
 _atom_site_fract_x
 _atom_site_fract_y
 _atom_site_fract_z
 _atom_site_occupancy
  Th  Th0  1  0.661529  0.338471  0.542106  1
  Th  Th1  1  0.333918  0.666082  0.027859  1
  Th  Th2  1  0.873942  0.751046  0.755743  1
  Th  Th3  1  0.248954  0.126058  0.755743  1
  Th  Th4  1  0.877144  0.122856  0.768941  1
  Th  Th5  1  0.143226  0.259150  0.256710  1
  Th  Th6  1  0.740850  0.856774  0.256710  1
  Th  Th7  1  0.123656  0.876344  0.256484  1
  Th  Th8  1  0.454774  0.918873  0.545844  1
  Th  Th9  1  0.081127  0.545226  0.545844  1
  Th  Th10  1  0.458091  0.541909  0.550378  1
  Th  Th11  1  0.524944  0.069594  0.042107  1
  Th  Th12  1  0.930406  0.475056  0.042107  1
  Th  Th13  1  0.542375  0.457625  0.048262  1
  Tc  Tc14  1  0.180639  0.368700  0.799790  1
  Tc  Tc15  1  0.631300  0.819361  0.799790  1
  Tc  Tc16  1  0.184877  0.815123  0.796160  1
  Tc  Tc17  1  0.816929  0.622523  0.295142  1
  Tc  Tc18  1  0.377477  0.183071  0.295142  1
  Au  Au19  1  0.813841  0.186159  0.307236  1
