# generated using pymatgen
data_Tb2ThZr2Sn3
_symmetry_space_group_name_H-M   'P 1'
_cell_length_a   8.93498448
_cell_length_b   8.99976825
_cell_length_c   6.12300700
_cell_angle_alpha   90.00000000
_cell_angle_beta   90.00000000
_cell_angle_gamma   120.24014231
_symmetry_Int_Tables_number   1
_chemical_formula_structural   Tb2ThZr2Sn3
_chemical_formula_sum   'Tb4 Th2 Zr4 Sn6'
_cell_volume   425.36769275
_cell_formula_units_Z   2
loop_
 _symmetry_equiv_pos_site_id
 _symmetry_equiv_pos_as_xyz
  1  'x, y, z'
loop_
 _atom_site_type_symbol
 _atom_site_label
 _atom_site_symmetry_multiplicity
 _atom_site_fract_x
 _atom_site_fract_y
 _atom_site_fract_z
 _atom_site_occupancy
  Tb  Tb0  1  0.241649  0.999935  0.250000  1
  Tb  Tb1  1  0.241649  0.241714  0.750000  1
  Tb  Tb2  1  0.998315  0.750928  0.750000  1
  Tb  Tb3  1  0.998315  0.247387  0.250000  1
  Th  Th4  1  0.754735  0.756392  0.250000  1
  Th  Th5  1  0.754735  0.998344  0.750000  1
  Zr  Zr6  1  0.340236  0.670119  0.000000  1
  Zr  Zr7  1  0.668481  0.334240  0.500000  1
  Zr  Zr8  1  0.668481  0.334240  0.000000  1
  Zr  Zr9  1  0.340236  0.670119  0.500000  1
  Sn  Sn10  1  0.596568  0.005821  0.250000  1
  Sn  Sn11  1  0.596568  0.590747  0.750000  1
  Sn  Sn12  1  0.005767  0.405046  0.750000  1
  Sn  Sn13  1  0.005767  0.600721  0.250000  1
  Sn  Sn14  1  0.394249  0.393312  0.250000  1
  Sn  Sn15  1  0.394249  0.000937  0.750000  1
