# generated using pymatgen
data_Na4Gd16Sn13Sb3
_symmetry_space_group_name_H-M   'P 1'
_cell_length_a   8.01153576
_cell_length_b   8.09626659
_cell_length_c   15.45684700
_cell_angle_alpha   90.17021180
_cell_angle_beta   89.71406830
_cell_angle_gamma   90.15382721
_symmetry_Int_Tables_number   1
_chemical_formula_structural   Na4Gd16Sn13Sb3
_chemical_formula_sum   'Na4 Gd16 Sn13 Sb3'
_cell_volume   1002.56516588
_cell_formula_units_Z   1
loop_
 _symmetry_equiv_pos_site_id
 _symmetry_equiv_pos_as_xyz
  1  'x, y, z'
loop_
 _atom_site_type_symbol
 _atom_site_label
 _atom_site_symmetry_multiplicity
 _atom_site_fract_x
 _atom_site_fract_y
 _atom_site_fract_z
 _atom_site_occupancy
  Na  Na0  1  0.185984  0.500166  0.750214  1
  Na  Na1  1  0.689650  0.998330  0.750756  1
  Na  Na2  1  0.813005  0.500338  0.249304  1
  Na  Na3  1  0.310901  0.001314  0.251628  1
  Gd  Gd4  1  0.365729  0.833972  0.876882  1
  Gd  Gd5  1  0.870589  0.661705  0.623314  1
  Gd  Gd6  1  0.627644  0.162326  0.376940  1
  Gd  Gd7  1  0.137770  0.329175  0.127427  1
  Gd  Gd8  1  0.638226  0.165867  0.123295  1
  Gd  Gd9  1  0.131726  0.339068  0.376612  1
  Gd  Gd10  1  0.369290  0.838267  0.622524  1
  Gd  Gd11  1  0.859603  0.668760  0.872675  1
  Gd  Gd12  1  0.507154  0.313464  0.906746  1
  Gd  Gd13  1  0.015081  0.184103  0.596247  1
  Gd  Gd14  1  0.485501  0.685443  0.404686  1
  Gd  Gd15  1  0.986824  0.822005  0.096442  1
  Gd  Gd16  1  0.492998  0.686818  0.092879  1
  Gd  Gd17  1  0.990053  0.815800  0.404949  1
  Gd  Gd18  1  0.509130  0.314388  0.592926  1
  Gd  Gd19  1  0.011042  0.178866  0.903698  1
  Sn  Sn20  1  0.187779  0.538366  0.963059  1
  Sn  Sn21  1  0.706612  0.959670  0.962631  1
  Sn  Sn22  1  0.209501  0.541428  0.538287  1
  Sn  Sn23  1  0.288587  0.042718  0.462235  1
  Sn  Sn24  1  0.813305  0.462289  0.037924  1
  Sn  Sn25  1  0.554900  0.598804  0.748903  1
  Sn  Sn26  1  0.061605  0.897043  0.748997  1
  Sn  Sn27  1  0.443777  0.399759  0.247998  1
  Sn  Sn28  1  0.939389  0.101918  0.253225  1
  Sn  Sn29  1  0.317748  0.145291  0.751035  1
  Sn  Sn30  1  0.813229  0.353857  0.750282  1
  Sn  Sn31  1  0.682261  0.854578  0.249188  1
  Sn  Sn32  1  0.185977  0.646186  0.248855  1
  Sb  Sb33  1  0.296120  0.040363  0.037801  1
  Sb  Sb34  1  0.791038  0.459247  0.461773  1
  Sb  Sb35  1  0.710270  0.958305  0.537660  1
