# generated using pymatgen
data_Tb5NdTcSb2
_symmetry_space_group_name_H-M   'P 1'
_cell_length_a   8.25324700
_cell_length_b   8.30553881
_cell_length_c   4.26940800
_cell_angle_alpha   90.00000000
_cell_angle_beta   90.00000000
_cell_angle_gamma   119.79194312
_symmetry_Int_Tables_number   1
_chemical_formula_structural   Tb5NdTcSb2
_chemical_formula_sum   'Tb5 Nd1 Tc1 Sb2'
_cell_volume   253.97890112
_cell_formula_units_Z   1
loop_
 _symmetry_equiv_pos_site_id
 _symmetry_equiv_pos_as_xyz
  1  'x, y, z'
loop_
 _atom_site_type_symbol
 _atom_site_label
 _atom_site_symmetry_multiplicity
 _atom_site_fract_x
 _atom_site_fract_y
 _atom_site_fract_z
 _atom_site_occupancy
  Tb  Tb0  1  0.239343  0.000000  0.000000  1
  Tb  Tb1  1  0.764961  0.765979  0.000000  1
  Tb  Tb2  1  0.998982  0.234021  0.000000  1
  Tb  Tb3  1  0.398349  0.399868  0.500000  1
  Tb  Tb4  1  0.998481  0.600132  0.500000  1
  Nd  Nd5  1  0.596478  0.000000  0.500000  1
  Tc  Tc6  1  0.007111  0.000000  0.500000  1
  Sb  Sb7  1  0.327823  0.659352  0.000000  1
  Sb  Sb8  1  0.668472  0.340648  0.000000  1
