# generated using pymatgen
data_NaTc3Mo3(SeS3)2
_symmetry_space_group_name_H-M   'P 1'
_cell_length_a   6.59556364
_cell_length_b   6.67449429
_cell_length_c   6.66804389
_cell_angle_alpha   91.38174745
_cell_angle_beta   92.12673976
_cell_angle_gamma   90.70572552
_symmetry_Int_Tables_number   1
_chemical_formula_structural   NaTc3Mo3(SeS3)2
_chemical_formula_sum   'Na1 Tc3 Mo3 Se2 S6'
_cell_volume   293.22783644
_cell_formula_units_Z   1
loop_
 _symmetry_equiv_pos_site_id
 _symmetry_equiv_pos_as_xyz
  1  'x, y, z'
loop_
 _atom_site_type_symbol
 _atom_site_label
 _atom_site_symmetry_multiplicity
 _atom_site_fract_x
 _atom_site_fract_y
 _atom_site_fract_z
 _atom_site_occupancy
  Na  Na0  1  0.999324  0.028988  0.969165  1
  Tc  Tc1  1  0.766809  0.440581  0.591630  1
  Tc  Tc2  1  0.585280  0.759327  0.449676  1
  Tc  Tc3  1  0.442966  0.582672  0.764895  1
  Mo  Mo4  1  0.231042  0.554369  0.416642  1
  Mo  Mo5  1  0.413853  0.232311  0.558616  1
  Mo  Mo6  1  0.555179  0.411652  0.237653  1
  Se  Se7  1  0.751953  0.114906  0.378551  1
  Se  Se8  1  0.368112  0.747268  0.121526  1
  S  S9  1  0.867181  0.609543  0.288130  1
  S  S10  1  0.279723  0.868828  0.614368  1
  S  S11  1  0.615029  0.280490  0.874698  1
  S  S12  1  0.129907  0.380140  0.730568  1
  S  S13  1  0.759282  0.752033  0.765650  1
  S  S14  1  0.234358  0.236890  0.238231  1
