# generated using pymatgen
data_Hf7Zr3CuPPb6
_symmetry_space_group_name_H-M   'P 1'
_cell_length_a   8.71952169
_cell_length_b   8.71950072
_cell_length_c   5.91717432
_cell_angle_alpha   89.94937319
_cell_angle_beta   89.94917473
_cell_angle_gamma   120.20412650
_symmetry_Int_Tables_number   1
_chemical_formula_structural   Hf7Zr3CuPPb6
_chemical_formula_sum   'Hf7 Zr3 Cu1 P1 Pb6'
_cell_volume   388.80478769
_cell_formula_units_Z   1
loop_
 _symmetry_equiv_pos_site_id
 _symmetry_equiv_pos_as_xyz
  1  'x, y, z'
loop_
 _atom_site_type_symbol
 _atom_site_label
 _atom_site_symmetry_multiplicity
 _atom_site_fract_x
 _atom_site_fract_y
 _atom_site_fract_z
 _atom_site_occupancy
  Hf  Hf0  1  0.253298  0.253605  0.757496  1
  Hf  Hf1  1  0.333444  0.666556  0.500001  1
  Hf  Hf2  1  0.333236  0.666764  0.999999  1
  Hf  Hf3  1  0.999427  0.745441  0.756748  1
  Hf  Hf4  1  0.666630  0.333369  0.500001  1
  Hf  Hf5  1  0.746395  0.746702  0.242504  1
  Hf  Hf6  1  0.254560  0.000574  0.243252  1
  Zr  Zr7  1  0.666230  0.333771  0.000000  1
  Zr  Zr8  1  0.000809  0.255653  0.243185  1
  Zr  Zr9  1  0.744348  0.999191  0.756814  1
  Cu  Cu10  1  0.002129  0.997869  0.500000  1
  P  P11  1  0.000955  0.999044  0.000001  1
  Pb  Pb12  1  0.607511  0.607721  0.745410  1
  Pb  Pb13  1  0.390145  0.999612  0.745502  1
  Pb  Pb14  1  0.000388  0.609854  0.254498  1
  Pb  Pb15  1  0.392278  0.392488  0.254591  1
  Pb  Pb16  1  0.000522  0.392307  0.745592  1
  Pb  Pb17  1  0.607695  0.999479  0.254408  1
