# generated using pymatgen
data_Nd3Lu3MnSb2
_symmetry_space_group_name_H-M   'P 1'
_cell_length_a   8.19322800
_cell_length_b   8.19322872
_cell_length_c   4.36383400
_cell_angle_alpha   90.00000000
_cell_angle_beta   90.00000000
_cell_angle_gamma   119.99998900
_symmetry_Int_Tables_number   1
_chemical_formula_structural   Nd3Lu3MnSb2
_chemical_formula_sum   'Nd3 Lu3 Mn1 Sb2'
_cell_volume   253.69331354
_cell_formula_units_Z   1
loop_
 _symmetry_equiv_pos_site_id
 _symmetry_equiv_pos_as_xyz
  1  'x, y, z'
loop_
 _atom_site_type_symbol
 _atom_site_label
 _atom_site_symmetry_multiplicity
 _atom_site_fract_x
 _atom_site_fract_y
 _atom_site_fract_z
 _atom_site_occupancy
  Nd  Nd0  1  0.601771  0.000000  0.000000  1
  Nd  Nd1  1  0.000000  0.601771  0.000000  1
  Nd  Nd2  1  0.398229  0.398229  0.000000  1
  Lu  Lu3  1  0.231157  0.000000  0.500000  1
  Lu  Lu4  1  0.000000  0.231157  0.500000  1
  Lu  Lu5  1  0.768843  0.768843  0.500000  1
  Mn  Mn6  1  0.000000  0.000000  0.000000  1
  Sb  Sb7  1  0.333333  0.666667  0.500000  1
  Sb  Sb8  1  0.666667  0.333333  0.500000  1
