# generated using pymatgen
data_Tm3Al2Ga3Pt
_symmetry_space_group_name_H-M   'P 1'
_cell_length_a   6.88732018
_cell_length_b   6.88731962
_cell_length_c   4.26160200
_cell_angle_alpha   90.00000000
_cell_angle_beta   90.00000000
_cell_angle_gamma   119.68472731
_symmetry_Int_Tables_number   1
_chemical_formula_structural   Tm3Al2Ga3Pt
_chemical_formula_sum   'Tm3 Al2 Ga3 Pt1'
_cell_volume   175.62041178
_cell_formula_units_Z   1
loop_
 _symmetry_equiv_pos_site_id
 _symmetry_equiv_pos_as_xyz
  1  'x, y, z'
loop_
 _atom_site_type_symbol
 _atom_site_label
 _atom_site_symmetry_multiplicity
 _atom_site_fract_x
 _atom_site_fract_y
 _atom_site_fract_z
 _atom_site_occupancy
  Tm  Tm0  1  0.583698  0.999185  0.000000  1
  Tm  Tm1  1  0.999185  0.583698  0.000000  1
  Tm  Tm2  1  0.418912  0.418912  0.000000  1
  Al  Al3  1  0.236404  0.001076  0.500000  1
  Al  Al4  1  0.001076  0.236404  0.500000  1
  Ga  Ga5  1  0.755302  0.755302  0.500000  1
  Ga  Ga6  1  0.330534  0.666798  0.500000  1
  Ga  Ga7  1  0.666798  0.330534  0.500000  1
  Pt  Pt8  1  0.008092  0.008092  0.000000  1
