# generated using pymatgen
data_LiSc2(Ni3As2)3
_symmetry_space_group_name_H-M   'P 1'
_cell_length_a   3.80593400
_cell_length_b   10.73701200
_cell_length_c   12.23662600
_cell_angle_alpha   90.00000000
_cell_angle_beta   90.00000000
_cell_angle_gamma   90.00000000
_symmetry_Int_Tables_number   1
_chemical_formula_structural   LiSc2(Ni3As2)3
_chemical_formula_sum   'Li2 Sc4 Ni18 As12'
_cell_volume   500.04187817
_cell_formula_units_Z   2
loop_
 _symmetry_equiv_pos_site_id
 _symmetry_equiv_pos_as_xyz
  1  'x, y, z'
loop_
 _atom_site_type_symbol
 _atom_site_label
 _atom_site_symmetry_multiplicity
 _atom_site_fract_x
 _atom_site_fract_y
 _atom_site_fract_z
 _atom_site_occupancy
  Li  Li0  1  0.250000  0.699904  0.990731  1
  Li  Li1  1  0.250000  0.800096  0.490731  1
  Sc  Sc2  1  0.250000  0.576920  0.702947  1
  Sc  Sc3  1  0.250000  0.923080  0.202947  1
  Sc  Sc4  1  0.750000  0.422082  0.295434  1
  Sc  Sc5  1  0.750000  0.077918  0.795434  1
  Ni  Ni6  1  0.750000  0.292419  0.007127  1
  Ni  Ni7  1  0.750000  0.207581  0.507127  1
  Ni  Ni8  1  0.250000  0.406719  0.487247  1
  Ni  Ni9  1  0.250000  0.093281  0.987247  1
  Ni  Ni10  1  0.750000  0.591769  0.515203  1
  Ni  Ni11  1  0.750000  0.908231  0.015203  1
  Ni  Ni12  1  0.250000  0.219243  0.177011  1
  Ni  Ni13  1  0.250000  0.280758  0.677011  1
  Ni  Ni14  1  0.750000  0.787153  0.827695  1
  Ni  Ni15  1  0.750000  0.712847  0.327695  1
  Ni  Ni16  1  0.250000  0.880104  0.699504  1
  Ni  Ni17  1  0.250000  0.619896  0.199504  1
  Ni  Ni18  1  0.750000  0.122122  0.299820  1
  Ni  Ni19  1  0.750000  0.377878  0.799820  1
  Ni  Ni20  1  0.250000  0.465770  0.928458  1
  Ni  Ni21  1  0.250000  0.034230  0.428458  1
  Ni  Ni22  1  0.750000  0.533273  0.068362  1
  Ni  Ni23  1  0.750000  0.966727  0.568362  1
  As  As24  1  0.250000  0.418513  0.116598  1
  As  As25  1  0.250000  0.081487  0.616598  1
  As  As26  1  0.750000  0.580556  0.878056  1
  As  As27  1  0.750000  0.919444  0.378056  1
  As  As28  1  0.250000  0.261065  0.867887  1
  As  As29  1  0.250000  0.238935  0.367887  1
  As  As30  1  0.750000  0.737831  0.138040  1
  As  As31  1  0.750000  0.762169  0.638040  1
  As  As32  1  0.250000  0.594287  0.391141  1
  As  As33  1  0.250000  0.905713  0.891141  1
  As  As34  1  0.750000  0.397692  0.608740  1
  As  As35  1  0.750000  0.102308  0.108740  1
