# generated using pymatgen
data_Gd12ZnGaCo4
_symmetry_space_group_name_H-M   'P 1'
_cell_length_a   8.41157435
_cell_length_b   8.41157329
_cell_length_c   8.41157300
_cell_angle_alpha   112.07313980
_cell_angle_beta   109.87898703
_cell_angle_gamma   106.50956303
_symmetry_Int_Tables_number   1
_chemical_formula_structural   Gd12ZnGaCo4
_chemical_formula_sum   'Gd12 Zn1 Ga1 Co4'
_cell_volume   457.06295121
_cell_formula_units_Z   1
loop_
 _symmetry_equiv_pos_site_id
 _symmetry_equiv_pos_as_xyz
  1  'x, y, z'
loop_
 _atom_site_type_symbol
 _atom_site_label
 _atom_site_symmetry_multiplicity
 _atom_site_fract_x
 _atom_site_fract_y
 _atom_site_fract_z
 _atom_site_occupancy
  Gd  Gd0  1  0.960148  0.263764  0.696384  1
  Gd  Gd1  1  0.039852  0.736236  0.303616  1
  Gd  Gd2  1  0.673642  0.860976  0.187334  1
  Gd  Gd3  1  0.326358  0.513694  0.187334  1
  Gd  Gd4  1  0.326358  0.139024  0.812666  1
  Gd  Gd5  1  0.673642  0.486306  0.812666  1
  Gd  Gd6  1  0.567380  0.263764  0.303616  1
  Gd  Gd7  1  0.432620  0.736236  0.696384  1
  Gd  Gd8  1  0.179512  0.781222  0.960734  1
  Gd  Gd9  1  0.820488  0.781222  0.601712  1
  Gd  Gd10  1  0.179512  0.218778  0.398288  1
  Gd  Gd11  1  0.820488  0.218778  0.039266  1
  Zn  Zn12  1  0.000000  0.500000  0.500000  1
  Ga  Ga13  1  0.500000  0.000000  0.500000  1
  Co  Co14  1  0.114675  0.114675  0.000000  1
  Co  Co15  1  0.885325  0.885325  0.000000  1
  Co  Co16  1  0.664054  0.500000  0.164054  1
  Co  Co17  1  0.335946  0.500000  0.835946  1
