# generated using pymatgen
data_CeAl10TcRu
_symmetry_space_group_name_H-M   'P 1'
_cell_length_a   6.90758649
_cell_length_b   6.91023457
_cell_length_c   9.20245800
_cell_angle_alpha   90.00000000
_cell_angle_beta   90.00000000
_cell_angle_gamma   97.08562104
_symmetry_Int_Tables_number   1
_chemical_formula_structural   CeAl10TcRu
_chemical_formula_sum   'Ce2 Al20 Tc2 Ru2'
_cell_volume   435.90665204
_cell_formula_units_Z   2
loop_
 _symmetry_equiv_pos_site_id
 _symmetry_equiv_pos_as_xyz
  1  'x, y, z'
loop_
 _atom_site_type_symbol
 _atom_site_label
 _atom_site_symmetry_multiplicity
 _atom_site_fract_x
 _atom_site_fract_y
 _atom_site_fract_z
 _atom_site_occupancy
  Ce  Ce0  1  0.870832  0.120327  0.750000  1
  Ce  Ce1  1  0.129168  0.879673  0.250000  1
  Al  Al2  1  0.590715  0.861822  0.250000  1
  Al  Al3  1  0.781174  0.521929  0.250000  1
  Al  Al4  1  0.158860  0.839852  0.899822  1
  Al  Al5  1  0.409285  0.138178  0.750000  1
  Al  Al6  1  0.622475  0.377269  0.950661  1
  Al  Al7  1  0.841140  0.160148  0.399822  1
  Al  Al8  1  0.773442  0.772793  0.999740  1
  Al  Al9  1  0.862604  0.589963  0.750000  1
  Al  Al10  1  0.841140  0.160148  0.100178  1
  Al  Al11  1  0.218826  0.478071  0.750000  1
  Al  Al12  1  0.158860  0.839852  0.600178  1
  Al  Al13  1  0.773442  0.772793  0.500260  1
  Al  Al14  1  0.479297  0.220303  0.250000  1
  Al  Al15  1  0.622475  0.377269  0.549339  1
  Al  Al16  1  0.226558  0.227207  0.499740  1
  Al  Al17  1  0.377525  0.622731  0.450661  1
  Al  Al18  1  0.137396  0.410037  0.250000  1
  Al  Al19  1  0.520703  0.779697  0.750000  1
  Al  Al20  1  0.377525  0.622731  0.049339  1
  Al  Al21  1  0.226558  0.227207  0.000260  1
  Tc  Tc22  1  0.500000  0.000000  0.000000  1
  Tc  Tc23  1  0.500000  0.000000  0.500000  1
  Ru  Ru24  1  0.000000  0.500000  0.000000  1
  Ru  Ru25  1  0.000000  0.500000  0.500000  1
