# generated using pymatgen
data_Ho5Ta3Co16(SiP2)4
_symmetry_space_group_name_H-M   'P 1'
_cell_length_a   12.27069451
_cell_length_b   12.25294713
_cell_length_c   3.71768400
_cell_angle_alpha   90.00000000
_cell_angle_beta   90.00000000
_cell_angle_gamma   119.93918123
_symmetry_Int_Tables_number   1
_chemical_formula_structural   Ho5Ta3Co16(SiP2)4
_chemical_formula_sum   'Ho5 Ta3 Co16 Si4 P8'
_cell_volume   484.37156390
_cell_formula_units_Z   1
loop_
 _symmetry_equiv_pos_site_id
 _symmetry_equiv_pos_as_xyz
  1  'x, y, z'
loop_
 _atom_site_type_symbol
 _atom_site_label
 _atom_site_symmetry_multiplicity
 _atom_site_fract_x
 _atom_site_fract_y
 _atom_site_fract_z
 _atom_site_occupancy
  Ho  Ho0  1  0.666548  0.333521  0.000000  1
  Ho  Ho1  1  0.335407  0.666238  0.000000  1
  Ho  Ho2  1  0.816894  0.816022  0.500000  1
  Ho  Ho3  1  0.184277  0.000490  0.500000  1
  Ho  Ho4  1  0.998780  0.182176  0.500000  1
  Ta  Ta5  1  0.439893  0.442224  0.000000  1
  Ta  Ta6  1  0.558714  0.998561  0.000000  1
  Ta  Ta7  1  0.000332  0.559308  0.000000  1
  Co  Co8  1  0.881048  0.356613  0.500000  1
  Co  Co9  1  0.642538  0.524992  0.500000  1
  Co  Co10  1  0.476924  0.120201  0.500000  1
  Co  Co11  1  0.359335  0.877096  0.500000  1
  Co  Co12  1  0.516372  0.644605  0.500000  1
  Co  Co13  1  0.125531  0.478097  0.500000  1
  Co  Co14  1  0.805515  0.175615  0.000000  1
  Co  Co15  1  0.822719  0.628845  0.000000  1
  Co  Co16  1  0.370802  0.195173  0.000000  1
  Co  Co17  1  0.179186  0.806737  0.000000  1
  Co  Co18  1  0.625014  0.820885  0.000000  1
  Co  Co19  1  0.195761  0.373426  0.000000  1
  Co  Co20  1  0.277465  0.280720  0.500000  1
  Co  Co21  1  0.719141  0.995996  0.500000  1
  Co  Co22  1  0.000652  0.722727  0.500000  1
  Co  Co23  1  0.999902  0.000035  0.000000  1
  Si  Si24  1  0.691106  0.170230  0.500000  1
  Si  Si25  1  0.830243  0.521002  0.500000  1
  Si  Si26  1  0.479338  0.310193  0.500000  1
  Si  Si27  1  0.170243  0.690312  0.500000  1
  P  P28  1  0.520393  0.831130  0.500000  1
  P  P29  1  0.309255  0.478649  0.500000  1
  P  P30  1  0.178452  0.178747  0.000000  1
  P  P31  1  0.820614  0.998683  0.000000  1
  P  P32  1  0.000644  0.821009  0.000000  1
  P  P33  1  0.644613  0.644050  0.000000  1
  P  P34  1  0.356602  0.000694  0.000000  1
  P  P35  1  0.999749  0.354999  0.000000  1
