# generated using pymatgen
data_Sc4FeSi12Ni19
_symmetry_space_group_name_H-M   'P 1'
_cell_length_a   3.70931400
_cell_length_b   6.60356412
_cell_length_c   18.42950200
_cell_angle_alpha   90.27869006
_cell_angle_beta   90.00000000
_cell_angle_gamma   90.00000000
_symmetry_Int_Tables_number   1
_chemical_formula_structural   Sc4FeSi12Ni19
_chemical_formula_sum   'Sc4 Fe1 Si12 Ni19'
_cell_volume   451.41965034
_cell_formula_units_Z   1
loop_
 _symmetry_equiv_pos_site_id
 _symmetry_equiv_pos_as_xyz
  1  'x, y, z'
loop_
 _atom_site_type_symbol
 _atom_site_label
 _atom_site_symmetry_multiplicity
 _atom_site_fract_x
 _atom_site_fract_y
 _atom_site_fract_z
 _atom_site_occupancy
  Sc  Sc0  1  0.250000  0.875819  0.356265  1
  Sc  Sc1  1  0.750000  0.123300  0.643640  1
  Sc  Sc2  1  0.750000  0.375550  0.144411  1
  Sc  Sc3  1  0.250000  0.622683  0.856396  1
  Fe  Fe4  1  0.250000  0.059321  0.205658  1
  Si  Si5  1  0.250000  0.093232  0.086716  1
  Si  Si6  1  0.750000  0.910025  0.913895  1
  Si  Si7  1  0.750000  0.590032  0.413452  1
  Si  Si8  1  0.250000  0.409350  0.586288  1
  Si  Si9  1  0.250000  0.651303  0.077659  1
  Si  Si10  1  0.750000  0.352212  0.923471  1
  Si  Si11  1  0.750000  0.148784  0.422984  1
  Si  Si12  1  0.250000  0.851287  0.576543  1
  Si  Si13  1  0.250000  0.369921  0.257774  1
  Si  Si14  1  0.750000  0.624518  0.740987  1
  Si  Si15  1  0.750000  0.875503  0.240821  1
  Si  Si16  1  0.250000  0.124953  0.759255  1
  Ni  Ni17  1  0.750000  0.933367  0.794059  1
  Ni  Ni18  1  0.750000  0.565609  0.293675  1
  Ni  Ni19  1  0.250000  0.433052  0.706406  1
  Ni  Ni20  1  0.250000  0.619034  0.485704  1
  Ni  Ni21  1  0.750000  0.380916  0.513854  1
  Ni  Ni22  1  0.750000  0.121029  0.013570  1
  Ni  Ni23  1  0.250000  0.881309  0.986250  1
  Ni  Ni24  1  0.250000  0.679133  0.201103  1
  Ni  Ni25  1  0.750000  0.319700  0.799956  1
  Ni  Ni26  1  0.750000  0.181786  0.299371  1
  Ni  Ni27  1  0.250000  0.819473  0.699822  1
  Ni  Ni28  1  0.250000  0.355719  0.383073  1
  Ni  Ni29  1  0.750000  0.642724  0.616145  1
  Ni  Ni30  1  0.750000  0.862873  0.116538  1
  Ni  Ni31  1  0.250000  0.143165  0.883810  1
  Ni  Ni32  1  0.250000  0.370374  0.005210  1
  Ni  Ni33  1  0.750000  0.633140  0.995591  1
  Ni  Ni34  1  0.750000  0.868884  0.494987  1
  Ni  Ni35  1  0.250000  0.130919  0.504664  1
