# generated using pymatgen
data_Tm12InFe4Pd
_symmetry_space_group_name_H-M   'P 1'
_cell_length_a   8.22281686
_cell_length_b   8.22273125
_cell_length_c   8.22281700
_cell_angle_alpha   110.75861404
_cell_angle_beta   111.17422090
_cell_angle_gamma   106.52119939
_symmetry_Int_Tables_number   1
_chemical_formula_structural   Tm12InFe4Pd
_chemical_formula_sum   'Tm12 In1 Fe4 Pd1'
_cell_volume   427.13822529
_cell_formula_units_Z   1
loop_
 _symmetry_equiv_pos_site_id
 _symmetry_equiv_pos_as_xyz
  1  'x, y, z'
loop_
 _atom_site_type_symbol
 _atom_site_label
 _atom_site_symmetry_multiplicity
 _atom_site_fract_x
 _atom_site_fract_y
 _atom_site_fract_z
 _atom_site_occupancy
  Tm  Tm0  1  0.420374  0.219809  0.200624  1
  Tm  Tm1  1  0.579626  0.780191  0.799376  1
  Tm  Tm2  1  0.019186  0.219809  0.799435  1
  Tm  Tm3  1  0.980814  0.780191  0.200565  1
  Tm  Tm4  1  0.187153  0.288164  0.475368  1
  Tm  Tm5  1  0.812847  0.711836  0.524632  1
  Tm  Tm6  1  0.187204  0.711836  0.898989  1
  Tm  Tm7  1  0.812796  0.288164  0.101011  1
  Tm  Tm8  1  0.313468  0.614387  0.300920  1
  Tm  Tm9  1  0.686532  0.385613  0.699080  1
  Tm  Tm10  1  0.313452  0.012528  0.699076  1
  Tm  Tm11  1  0.686548  0.987472  0.300924  1
  In  In12  1  0.500000  0.500000  0.000000  1
  Fe  Fe13  1  0.382779  0.000000  0.382779  1
  Fe  Fe14  1  0.617221  0.000000  0.617221  1
  Fe  Fe15  1  0.108975  0.608970  0.499995  1
  Fe  Fe16  1  0.891025  0.391030  0.500005  1
  Pd  Pd17  1  0.000000  0.000000  0.000000  1
