# generated using pymatgen
data_Pr3NdRe15Si8Rh
_symmetry_space_group_name_H-M   'P 1'
_cell_length_a   4.15540500
_cell_length_b   7.41812249
_cell_length_c   15.45454316
_cell_angle_alpha   89.98760392
_cell_angle_beta   90.00000000
_cell_angle_gamma   90.00000000
_symmetry_Int_Tables_number   1
_chemical_formula_structural   Pr3NdRe15Si8Rh
_chemical_formula_sum   'Pr3 Nd1 Re15 Si8 Rh1'
_cell_volume   476.39096869
_cell_formula_units_Z   1
loop_
 _symmetry_equiv_pos_site_id
 _symmetry_equiv_pos_as_xyz
  1  'x, y, z'
loop_
 _atom_site_type_symbol
 _atom_site_label
 _atom_site_symmetry_multiplicity
 _atom_site_fract_x
 _atom_site_fract_y
 _atom_site_fract_z
 _atom_site_occupancy
  Pr  Pr0  1  0.000000  0.576569  0.118847  1
  Pr  Pr1  1  0.000000  0.424945  0.880600  1
  Pr  Pr2  1  0.500000  0.075551  0.381363  1
  Nd  Nd3  1  0.500000  0.921666  0.618392  1
  Re  Re4  1  0.000000  0.865766  0.951340  1
  Re  Re5  1  0.500000  0.636069  0.446586  1
  Re  Re6  1  0.500000  0.364151  0.552108  1
  Re  Re7  1  0.000000  0.735813  0.320521  1
  Re  Re8  1  0.000000  0.267216  0.679308  1
  Re  Re9  1  0.500000  0.230690  0.177768  1
  Re  Re10  1  0.500000  0.768845  0.821911  1
  Re  Re11  1  0.000000  0.432786  0.416313  1
  Re  Re12  1  0.000000  0.565507  0.581821  1
  Re  Re13  1  0.500000  0.933293  0.085127  1
  Re  Re14  1  0.500000  0.063913  0.921399  1
  Re  Re15  1  0.000000  0.985812  0.202549  1
  Re  Re16  1  0.000000  0.008812  0.793630  1
  Re  Re17  1  0.500000  0.485091  0.292803  1
  Re  Re18  1  0.500000  0.508938  0.707609  1
  Si  Si19  1  0.000000  0.826074  0.476335  1
  Si  Si20  1  0.000000  0.173453  0.524168  1
  Si  Si21  1  0.500000  0.327761  0.024178  1
  Si  Si22  1  0.500000  0.676125  0.976920  1
  Si  Si23  1  0.000000  0.287039  0.271223  1
  Si  Si24  1  0.000000  0.709276  0.726388  1
  Si  Si25  1  0.500000  0.784210  0.227971  1
  Si  Si26  1  0.500000  0.204744  0.773870  1
  Rh  Rh27  1  0.000000  0.159883  0.048952  1
