# generated using pymatgen
data_Tb11In9(CoCu)2
_symmetry_space_group_name_H-M   'P 1'
_cell_length_a   3.64204800
_cell_length_b   13.06345324
_cell_length_c   13.08001674
_cell_angle_alpha   110.62852568
_cell_angle_beta   90.00000000
_cell_angle_gamma   90.00000000
_symmetry_Int_Tables_number   1
_chemical_formula_structural   Tb11In9(CoCu)2
_chemical_formula_sum   'Tb11 In9 Co2 Cu2'
_cell_volume   582.41707425
_cell_formula_units_Z   1
loop_
 _symmetry_equiv_pos_site_id
 _symmetry_equiv_pos_as_xyz
  1  'x, y, z'
loop_
 _atom_site_type_symbol
 _atom_site_label
 _atom_site_symmetry_multiplicity
 _atom_site_fract_x
 _atom_site_fract_y
 _atom_site_fract_z
 _atom_site_occupancy
  Tb  Tb0  1  0.000000  0.926106  0.580096  1
  Tb  Tb1  1  0.000000  0.073894  0.419904  1
  Tb  Tb2  1  0.000000  0.579567  0.919679  1
  Tb  Tb3  1  0.000000  0.420433  0.080321  1
  Tb  Tb4  1  0.000000  0.159231  0.841921  1
  Tb  Tb5  1  0.000000  0.840769  0.158079  1
  Tb  Tb6  1  0.000000  0.383292  0.636781  1
  Tb  Tb7  1  0.000000  0.616708  0.363219  1
  Tb  Tb8  1  0.000000  0.681798  0.693250  1
  Tb  Tb9  1  0.000000  0.318202  0.306750  1
  Tb  Tb10  1  0.000000  0.000000  0.000000  1
  In  In11  1  0.500000  0.159786  0.633355  1
  In  In12  1  0.500000  0.840214  0.366645  1
  In  In13  1  0.500000  0.632788  0.158206  1
  In  In14  1  0.500000  0.367212  0.841794  1
  In  In15  1  0.500000  0.924559  0.780036  1
  In  In16  1  0.500000  0.075441  0.219964  1
  In  In17  1  0.500000  0.778974  0.922222  1
  In  In18  1  0.500000  0.221026  0.077778  1
  In  In19  1  0.500000  0.500000  0.500000  1
  Co  Co20  1  0.500000  0.549138  0.754200  1
  Co  Co21  1  0.500000  0.450862  0.245800  1
  Cu  Cu22  1  0.500000  0.748082  0.545987  1
  Cu  Cu23  1  0.500000  0.251918  0.454013  1
