# generated using pymatgen
data_TbUSn5
_symmetry_space_group_name_H-M   'P 1'
_cell_length_a   17.18896364
_cell_length_b   17.18896153
_cell_length_c   4.51321900
_cell_angle_alpha   90.00000000
_cell_angle_beta   90.00000000
_cell_angle_gamma   164.30297750
_symmetry_Int_Tables_number   1
_chemical_formula_structural   TbUSn5
_chemical_formula_sum   'Tb2 U2 Sn10'
_cell_volume   360.77293386
_cell_formula_units_Z   2
loop_
 _symmetry_equiv_pos_site_id
 _symmetry_equiv_pos_as_xyz
  1  'x, y, z'
loop_
 _atom_site_type_symbol
 _atom_site_label
 _atom_site_symmetry_multiplicity
 _atom_site_fract_x
 _atom_site_fract_y
 _atom_site_fract_z
 _atom_site_occupancy
  Tb  Tb0  1  0.797976  0.202024  0.500000  1
  Tb  Tb1  1  0.202024  0.797976  0.500000  1
  U  U2  1  0.931915  0.068085  0.500000  1
  U  U3  1  0.068085  0.931915  0.500000  1
  Sn  Sn4  1  0.637208  0.362792  0.500000  1
  Sn  Sn5  1  0.362792  0.637208  0.500000  1
  Sn  Sn6  1  0.720442  0.279558  0.000000  1
  Sn  Sn7  1  0.279558  0.720442  0.000000  1
  Sn  Sn8  1  0.500000  0.500000  0.500000  1
  Sn  Sn9  1  0.568959  0.431041  0.000000  1
  Sn  Sn10  1  0.431041  0.568959  0.000000  1
  Sn  Sn11  1  0.863366  0.136634  0.000000  1
  Sn  Sn12  1  0.136634  0.863366  0.000000  1
  Sn  Sn13  1  0.000000  0.000000  0.000000  1
