# generated using pymatgen
data_ThP2OsPd
_symmetry_space_group_name_H-M   'P 1'
_cell_length_a   4.28634500
_cell_length_b   4.28634500
_cell_length_c   9.52679900
_cell_angle_alpha   90.00000000
_cell_angle_beta   90.00000000
_cell_angle_gamma   90.00000000
_symmetry_Int_Tables_number   1
_chemical_formula_structural   ThP2OsPd
_chemical_formula_sum   'Th2 P4 Os2 Pd2'
_cell_volume   175.03352928
_cell_formula_units_Z   2
loop_
 _symmetry_equiv_pos_site_id
 _symmetry_equiv_pos_as_xyz
  1  'x, y, z'
loop_
 _atom_site_type_symbol
 _atom_site_label
 _atom_site_symmetry_multiplicity
 _atom_site_fract_x
 _atom_site_fract_y
 _atom_site_fract_z
 _atom_site_occupancy
  Th  Th0  1  0.000000  0.500000  0.259746  1
  Th  Th1  1  0.500000  0.000000  0.740254  1
  P  P2  1  0.000000  0.000000  0.500000  1
  P  P3  1  0.500000  0.500000  0.500000  1
  P  P4  1  0.000000  0.500000  0.855014  1
  P  P5  1  0.500000  0.000000  0.144986  1
  Os  Os6  1  0.000000  0.500000  0.610486  1
  Os  Os7  1  0.500000  0.000000  0.389514  1
  Pd  Pd8  1  0.000000  0.000000  0.000000  1
  Pd  Pd9  1  0.500000  0.500000  0.000000  1
