# generated using pymatgen
data_CsFeSn3O8
_symmetry_space_group_name_H-M   'P 1'
_cell_length_a   7.68203007
_cell_length_b   7.68202991
_cell_length_c   10.68063822
_cell_angle_alpha   46.66356980
_cell_angle_beta   46.66357135
_cell_angle_gamma   24.35752996
_symmetry_Int_Tables_number   1
_chemical_formula_structural   CsFeSn3O8
_chemical_formula_sum   'Cs1 Fe1 Sn3 O8'
_cell_volume   185.11319060
_cell_formula_units_Z   1
loop_
 _symmetry_equiv_pos_site_id
 _symmetry_equiv_pos_as_xyz
  1  'x, y, z'
loop_
 _atom_site_type_symbol
 _atom_site_label
 _atom_site_symmetry_multiplicity
 _atom_site_fract_x
 _atom_site_fract_y
 _atom_site_fract_z
 _atom_site_occupancy
  Cs  Cs0  1  0.497543  0.497543  0.998877  1
  Fe  Fe1  1  0.349297  0.349297  0.814141  1
  Sn  Sn2  1  0.657190  0.657190  0.171667  1
  Sn  Sn3  1  0.158905  0.158905  0.493077  1
  Sn  Sn4  1  0.837397  0.837397  0.519140  1
  O  O5  1  0.154451  0.154451  0.048394  1
  O  O6  1  0.846228  0.846228  0.944635  1
  O  O7  1  0.205158  0.205158  0.642154  1
  O  O8  1  0.792551  0.792551  0.366142  1
  O  O9  1  0.538271  0.538271  0.627523  1
  O  O10  1  0.460950  0.460950  0.372719  1
  O  O11  1  0.165814  0.165814  0.292429  1
  O  O12  1  0.836246  0.836246  0.709101  1
