# generated using pymatgen
data_Tm12Th4MgCd3Ir4
_symmetry_space_group_name_H-M   'P 1'
_cell_length_a   9.68835638
_cell_length_b   9.68834901
_cell_length_c   9.68999355
_cell_angle_alpha   59.86955283
_cell_angle_beta   59.86997226
_cell_angle_gamma   59.86763230
_symmetry_Int_Tables_number   1
_chemical_formula_structural   Tm12Th4MgCd3Ir4
_chemical_formula_sum   'Tm12 Th4 Mg1 Cd3 Ir4'
_cell_volume   641.23321641
_cell_formula_units_Z   1
loop_
 _symmetry_equiv_pos_site_id
 _symmetry_equiv_pos_as_xyz
  1  'x, y, z'
loop_
 _atom_site_type_symbol
 _atom_site_label
 _atom_site_symmetry_multiplicity
 _atom_site_fract_x
 _atom_site_fract_y
 _atom_site_fract_z
 _atom_site_occupancy
  Tm  Tm0  1  0.062273  0.437903  0.437738  1
  Tm  Tm1  1  0.436542  0.063795  0.063761  1
  Tm  Tm2  1  0.437909  0.062267  0.437736  1
  Tm  Tm3  1  0.063801  0.436539  0.063756  1
  Tm  Tm4  1  0.437906  0.437901  0.062171  1
  Tm  Tm5  1  0.063779  0.063772  0.436453  1
  Tm  Tm6  1  0.187402  0.816172  0.815910  1
  Tm  Tm7  1  0.815505  0.185270  0.185019  1
  Tm  Tm8  1  0.816173  0.187401  0.815913  1
  Tm  Tm9  1  0.185265  0.815509  0.185018  1
  Tm  Tm10  1  0.816229  0.816228  0.187136  1
  Tm  Tm11  1  0.185297  0.185299  0.815198  1
  Th  Th12  1  0.599760  0.599764  0.599716  1
  Th  Th13  1  0.601116  0.601125  0.198119  1
  Th  Th14  1  0.601316  0.197581  0.601261  1
  Th  Th15  1  0.197580  0.601321  0.601259  1
  Mg  Mg16  1  0.829504  0.829504  0.830070  1
  Cd  Cd17  1  0.832567  0.832565  0.499105  1
  Cd  Cd18  1  0.832342  0.499249  0.832894  1
  Cd  Cd19  1  0.499247  0.832338  0.832899  1
  Ir  Ir20  1  0.392736  0.392733  0.392936  1
  Ir  Ir21  1  0.391613  0.391613  0.822492  1
  Ir  Ir22  1  0.391518  0.822626  0.391719  1
  Ir  Ir23  1  0.822620  0.391522  0.391718  1
