# generated using pymatgen
data_Sr6Ta2NiO12
_symmetry_space_group_name_H-M   'P 1'
_cell_length_a   8.83842101
_cell_length_b   8.83842027
_cell_length_c   6.96900700
_cell_angle_alpha   67.65364368
_cell_angle_beta   67.65364565
_cell_angle_gamma   36.82084233
_symmetry_Int_Tables_number   1
_chemical_formula_structural   Sr6Ta2NiO12
_chemical_formula_sum   'Sr6 Ta2 Ni1 O12'
_cell_volume   298.92836996
_cell_formula_units_Z   1
loop_
 _symmetry_equiv_pos_site_id
 _symmetry_equiv_pos_as_xyz
  1  'x, y, z'
loop_
 _atom_site_type_symbol
 _atom_site_label
 _atom_site_symmetry_multiplicity
 _atom_site_fract_x
 _atom_site_fract_y
 _atom_site_fract_z
 _atom_site_occupancy
  Sr  Sr0  1  0.204324  0.204324  0.703326  1
  Sr  Sr1  1  0.891346  0.891346  0.706163  1
  Sr  Sr2  1  0.549703  0.549703  0.707112  1
  Sr  Sr3  1  0.795676  0.795676  0.296674  1
  Sr  Sr4  1  0.450297  0.450297  0.292888  1
  Sr  Sr5  1  0.108654  0.108654  0.293837  1
  Ta  Ta6  1  0.663719  0.663719  0.001773  1
  Ta  Ta7  1  0.336281  0.336281  0.998227  1
  Ni  Ni8  1  0.000000  0.000000  0.000000  1
  O  O9  1  0.279948  0.279948  0.317969  1
  O  O10  1  0.942867  0.942867  0.338091  1
  O  O11  1  0.614145  0.614145  0.318172  1
  O  O12  1  0.720052  0.720052  0.682031  1
  O  O13  1  0.385855  0.385855  0.681828  1
  O  O14  1  0.057133  0.057133  0.661909  1
  O  O15  1  0.000000  0.500000  0.000000  1
  O  O16  1  0.662186  0.168536  0.000899  1
  O  O17  1  0.337814  0.831464  0.999101  1
  O  O18  1  0.500000  0.000000  0.000000  1
  O  O19  1  0.168536  0.662186  0.000899  1
  O  O20  1  0.831464  0.337814  0.999101  1
