# generated using pymatgen
data_ErLu2(BO3)3
_symmetry_space_group_name_H-M   'P 1'
_cell_length_a   6.47968382
_cell_length_b   6.47968372
_cell_length_c   9.51350104
_cell_angle_alpha   70.38134865
_cell_angle_beta   70.38134667
_cell_angle_gamma   59.98092060
_symmetry_Int_Tables_number   1
_chemical_formula_structural   ErLu2(BO3)3
_chemical_formula_sum   'Er2 Lu4 B6 O18'
_cell_volume   318.81031235
_cell_formula_units_Z   2
loop_
 _symmetry_equiv_pos_site_id
 _symmetry_equiv_pos_as_xyz
  1  'x, y, z'
loop_
 _atom_site_type_symbol
 _atom_site_label
 _atom_site_symmetry_multiplicity
 _atom_site_fract_x
 _atom_site_fract_y
 _atom_site_fract_z
 _atom_site_occupancy
  Er  Er0  1  0.000000  0.500000  0.500000  1
  Er  Er1  1  0.500000  0.000000  0.000000  1
  Lu  Lu2  1  0.170733  0.657874  0.999329  1
  Lu  Lu3  1  0.342126  0.829267  0.500671  1
  Lu  Lu4  1  0.829267  0.342126  0.000671  1
  Lu  Lu5  1  0.657874  0.170733  0.499329  1
  B  B6  1  0.918368  0.840119  0.746601  1
  B  B7  1  0.159881  0.081632  0.753399  1
  B  B8  1  0.081632  0.159881  0.253399  1
  B  B9  1  0.840119  0.918368  0.246601  1
  B  B10  1  0.672882  0.327118  0.750000  1
  B  B11  1  0.327118  0.672882  0.250000  1
  O  O12  1  0.967083  0.783154  0.600022  1
  O  O13  1  0.216846  0.032917  0.899978  1
  O  O14  1  0.032917  0.216846  0.399978  1
  O  O15  1  0.783154  0.967083  0.100022  1
  O  O16  1  0.870981  0.680305  0.890074  1
  O  O17  1  0.319695  0.129019  0.609926  1
  O  O18  1  0.129019  0.319695  0.109926  1
  O  O19  1  0.680305  0.870981  0.390074  1
  O  O20  1  0.514543  0.388672  0.893881  1
  O  O21  1  0.611328  0.485457  0.606119  1
  O  O22  1  0.485457  0.611328  0.106119  1
  O  O23  1  0.388672  0.514543  0.393881  1
  O  O24  1  0.916066  0.303177  0.752892  1
  O  O25  1  0.696823  0.083934  0.747108  1
  O  O26  1  0.083934  0.696823  0.247108  1
  O  O27  1  0.303177  0.916066  0.252892  1
  O  O28  1  0.138953  0.861047  0.750000  1
  O  O29  1  0.861047  0.138953  0.250000  1
