# generated using pymatgen
data_LaCo(PRu)2
_symmetry_space_group_name_H-M   'P 1'
_cell_length_a   3.96756700
_cell_length_b   11.00797400
_cell_length_c   12.82708800
_cell_angle_alpha   90.00000000
_cell_angle_beta   90.00000000
_cell_angle_gamma   90.00000000
_symmetry_Int_Tables_number   1
_chemical_formula_structural   LaCo(PRu)2
_chemical_formula_sum   'La6 Co6 P12 Ru12'
_cell_volume   560.22145705
_cell_formula_units_Z   6
loop_
 _symmetry_equiv_pos_site_id
 _symmetry_equiv_pos_as_xyz
  1  'x, y, z'
loop_
 _atom_site_type_symbol
 _atom_site_label
 _atom_site_symmetry_multiplicity
 _atom_site_fract_x
 _atom_site_fract_y
 _atom_site_fract_z
 _atom_site_occupancy
  La  La0  1  0.000000  0.500000  0.528881  1
  La  La1  1  0.500000  0.000000  0.470477  1
  La  La2  1  0.500000  0.822172  0.204490  1
  La  La3  1  0.500000  0.177828  0.204490  1
  La  La4  1  0.000000  0.680960  0.796975  1
  La  La5  1  0.000000  0.319040  0.796975  1
  Co  Co6  1  0.000000  0.500000  0.988392  1
  Co  Co7  1  0.500000  0.000000  0.012793  1
  Co  Co8  1  0.000000  0.161866  0.009386  1
  Co  Co9  1  0.000000  0.838134  0.009386  1
  Co  Co10  1  0.500000  0.500000  0.700847  1
  Co  Co11  1  0.000000  0.000000  0.299382  1
  P  P12  1  0.500000  0.304638  0.615396  1
  P  P13  1  0.500000  0.695362  0.615396  1
  P  P14  1  0.000000  0.196472  0.385143  1
  P  P15  1  0.000000  0.803528  0.385143  1
  P  P16  1  0.500000  0.500000  0.887017  1
  P  P17  1  0.000000  0.000000  0.112249  1
  P  P18  1  0.500000  0.853597  0.898304  1
  P  P19  1  0.500000  0.146403  0.898304  1
  P  P20  1  0.000000  0.653900  0.098418  1
  P  P21  1  0.000000  0.346100  0.098418  1
  P  P22  1  0.500000  0.500000  0.333886  1
  P  P23  1  0.000000  0.000000  0.665499  1
  Ru  Ru24  1  0.500000  0.300581  0.427960  1
  Ru  Ru25  1  0.500000  0.699419  0.427960  1
  Ru  Ru26  1  0.000000  0.200211  0.571744  1
  Ru  Ru27  1  0.000000  0.799789  0.571744  1
  Ru  Ru28  1  0.500000  0.878950  0.716104  1
  Ru  Ru29  1  0.500000  0.121050  0.716104  1
  Ru  Ru30  1  0.000000  0.622284  0.281688  1
  Ru  Ru31  1  0.000000  0.377716  0.281688  1
  Ru  Ru32  1  0.500000  0.327586  0.992989  1
  Ru  Ru33  1  0.500000  0.672414  0.992989  1
  Ru  Ru34  1  0.500000  0.500000  0.152137  1
  Ru  Ru35  1  0.000000  0.000000  0.851243  1
