# generated using pymatgen
data_YHo2In3BiIr2
_symmetry_space_group_name_H-M   'P 1'
_cell_length_a   7.73677140
_cell_length_b   7.70730271
_cell_length_c   4.09613100
_cell_angle_alpha   90.00000000
_cell_angle_beta   90.00000000
_cell_angle_gamma   120.03580032
_symmetry_Int_Tables_number   1
_chemical_formula_structural   YHo2In3BiIr2
_chemical_formula_sum   'Y1 Ho2 In3 Bi1 Ir2'
_cell_volume   211.45106011
_cell_formula_units_Z   1
loop_
 _symmetry_equiv_pos_site_id
 _symmetry_equiv_pos_as_xyz
  1  'x, y, z'
loop_
 _atom_site_type_symbol
 _atom_site_label
 _atom_site_symmetry_multiplicity
 _atom_site_fract_x
 _atom_site_fract_y
 _atom_site_fract_z
 _atom_site_occupancy
  Y  Y0  1  0.584026  0.613434  0.000000  1
  Ho  Ho1  1  0.383720  0.967363  0.000000  1
  Ho  Ho2  1  0.032324  0.416813  0.000000  1
  In  In3  1  0.021692  0.766965  0.500000  1
  In  In4  1  0.233634  0.255046  0.500000  1
  In  In5  1  0.745339  0.978579  0.500000  1
  Bi  Bi6  1  0.666704  0.332651  0.500000  1
  Ir  Ir7  1  0.001707  0.001939  0.000000  1
  Ir  Ir8  1  0.330855  0.667210  0.500000  1
