# generated using pymatgen
data_PaV2(Ni10B3)2
_symmetry_space_group_name_H-M   'P 1'
_cell_length_a   7.47671973
_cell_length_b   7.47672030
_cell_length_c   7.47773402
_cell_angle_alpha   60.00193557
_cell_angle_beta   60.00193503
_cell_angle_gamma   59.99957122
_symmetry_Int_Tables_number   1
_chemical_formula_structural   PaV2(Ni10B3)2
_chemical_formula_sum   'Pa1 V2 Ni20 B6'
_cell_volume   295.58918941
_cell_formula_units_Z   1
loop_
 _symmetry_equiv_pos_site_id
 _symmetry_equiv_pos_as_xyz
  1  'x, y, z'
loop_
 _atom_site_type_symbol
 _atom_site_label
 _atom_site_symmetry_multiplicity
 _atom_site_fract_x
 _atom_site_fract_y
 _atom_site_fract_z
 _atom_site_occupancy
  Pa  Pa0  1  0.749967  0.749967  0.750036  1
  V  V1  1  0.999987  0.999987  0.999995  1
  V  V2  1  0.250005  0.250005  0.249968  1
  Ni  Ni3  1  0.608729  0.608729  0.173823  1
  Ni  Ni4  1  0.608717  0.173870  0.608728  1
  Ni  Ni5  1  0.173870  0.608717  0.608728  1
  Ni  Ni6  1  0.608683  0.608683  0.608719  1
  Ni  Ni7  1  0.377657  0.377657  0.867042  1
  Ni  Ni8  1  0.377671  0.867034  0.377642  1
  Ni  Ni9  1  0.867034  0.377671  0.377642  1
  Ni  Ni10  1  0.377679  0.377679  0.377648  1
  Ni  Ni11  1  0.001373  0.001373  0.338768  1
  Ni  Ni12  1  0.658498  0.001354  0.338804  1
  Ni  Ni13  1  0.001354  0.658498  0.338804  1
  Ni  Ni14  1  0.658470  0.338839  0.001345  1
  Ni  Ni15  1  0.001381  0.338778  0.001375  1
  Ni  Ni16  1  0.001344  0.338826  0.658498  1
  Ni  Ni17  1  0.338839  0.658470  0.001345  1
  Ni  Ni18  1  0.338826  0.001344  0.658498  1
  Ni  Ni19  1  0.338778  0.001381  0.001375  1
  Ni  Ni20  1  0.001312  0.001312  0.658518  1
  Ni  Ni21  1  0.001323  0.658487  0.001319  1
  Ni  Ni22  1  0.658487  0.001323  0.001319  1
  B  B23  1  0.733960  0.733960  0.266036  1
  B  B24  1  0.266071  0.733935  0.266040  1
  B  B25  1  0.733935  0.266071  0.266040  1
  B  B26  1  0.266062  0.266062  0.733952  1
  B  B27  1  0.733952  0.266038  0.733997  1
  B  B28  1  0.266038  0.733952  0.733997  1
