# generated using pymatgen
data_Ti8Al10Fe3Si5Os4
_symmetry_space_group_name_H-M   'P 1'
_cell_length_a   8.47154101
_cell_length_b   8.49250615
_cell_length_c   8.49817634
_cell_angle_alpha   120.43478597
_cell_angle_beta   119.64062189
_cell_angle_gamma   89.88953030
_symmetry_Int_Tables_number   1
_chemical_formula_structural   Ti8Al10Fe3Si5Os4
_chemical_formula_sum   'Ti8 Al10 Fe3 Si5 Os4'
_cell_volume   432.22604703
_cell_formula_units_Z   1
loop_
 _symmetry_equiv_pos_site_id
 _symmetry_equiv_pos_as_xyz
  1  'x, y, z'
loop_
 _atom_site_type_symbol
 _atom_site_label
 _atom_site_symmetry_multiplicity
 _atom_site_fract_x
 _atom_site_fract_y
 _atom_site_fract_z
 _atom_site_occupancy
  Ti  Ti0  1  0.801133  0.295545  0.089458  1
  Ti  Ti1  1  0.206836  0.297496  0.495435  1
  Ti  Ti2  1  0.202906  0.702134  0.500191  1
  Ti  Ti3  1  0.207100  0.710803  0.910542  1
  Ti  Ti4  1  0.800449  0.712485  0.504223  1
  Ti  Ti5  1  0.790374  0.290585  0.498327  1
  Ti  Ti6  1  0.376084  0.119250  0.740991  1
  Ti  Ti7  1  0.370085  0.632932  0.253782  1
  Al  Al8  1  0.848088  0.663263  0.826376  1
  Al  Al9  1  0.845355  0.020470  0.176188  1
  Al  Al10  1  0.844780  0.655441  0.175234  1
  Al  Al11  1  0.481875  0.660542  0.820853  1
  Al  Al12  1  0.374422  0.114942  0.260856  1
  Al  Al13  1  0.857167  0.122779  0.744158  1
  Al  Al14  1  0.617885  0.879664  0.263368  1
  Al  Al15  1  0.622078  0.354893  0.738662  1
  Al  Al16  1  0.621271  0.881044  0.736950  1
  Al  Al17  1  0.143892  0.879474  0.260525  1
  Fe  Fe18  1  0.010290  0.494062  0.002176  1
  Fe  Fe19  1  0.007460  0.009276  0.999299  1
  Fe  Fe20  1  0.494856  0.994900  0.500666  1
  Si  Si21  1  0.996818  0.497801  0.500176  1
  Si  Si22  1  0.147756  0.339650  0.177844  1
  Si  Si23  1  0.151334  0.968554  0.816727  1
  Si  Si24  1  0.148263  0.352958  0.809267  1
  Si  Si25  1  0.546261  0.350726  0.196459  1
  Os  Os26  1  0.003267  0.006487  0.512457  1
  Os  Os27  1  0.494436  0.007041  0.003413  1
  Os  Os28  1  0.494244  0.494039  0.998478  1
  Os  Os29  1  0.493232  0.490763  0.486918  1
