# generated using pymatgen
data_Y4Er2Al24Ru3Rh5
_symmetry_space_group_name_H-M   'P 1'
_cell_length_a   8.78852079
_cell_length_b   8.80665048
_cell_length_c   9.55009902
_cell_angle_alpha   90.16833702
_cell_angle_beta   89.96907776
_cell_angle_gamma   119.61048525
_symmetry_Int_Tables_number   1
_chemical_formula_structural   Y4Er2Al24Ru3Rh5
_chemical_formula_sum   'Y4 Er2 Al24 Ru3 Rh5'
_cell_volume   642.61994570
_cell_formula_units_Z   1
loop_
 _symmetry_equiv_pos_site_id
 _symmetry_equiv_pos_as_xyz
  1  'x, y, z'
loop_
 _atom_site_type_symbol
 _atom_site_label
 _atom_site_symmetry_multiplicity
 _atom_site_fract_x
 _atom_site_fract_y
 _atom_site_fract_z
 _atom_site_occupancy
  Y  Y0  1  0.191562  0.384687  0.250185  1
  Y  Y1  1  0.808438  0.615313  0.749815  1
  Y  Y2  1  0.614600  0.809991  0.250728  1
  Y  Y3  1  0.385400  0.190009  0.749272  1
  Er  Er4  1  0.195033  0.808475  0.250628  1
  Er  Er5  1  0.804967  0.191525  0.749372  1
  Al  Al6  1  0.332548  0.667141  0.027626  1
  Al  Al7  1  0.667452  0.332859  0.972374  1
  Al  Al8  1  0.666428  0.331052  0.526681  1
  Al  Al9  1  0.333572  0.668948  0.473319  1
  Al  Al10  1  0.163243  0.325804  0.577164  1
  Al  Al11  1  0.836757  0.674196  0.422836  1
  Al  Al12  1  0.673273  0.837641  0.577110  1
  Al  Al13  1  0.836784  0.674551  0.077635  1
  Al  Al14  1  0.326727  0.162359  0.422890  1
  Al  Al15  1  0.163216  0.325449  0.922365  1
  Al  Al16  1  0.164971  0.837500  0.577024  1
  Al  Al17  1  0.326335  0.164263  0.077522  1
  Al  Al18  1  0.835029  0.162500  0.422976  1
  Al  Al19  1  0.673665  0.835737  0.922478  1
  Al  Al20  1  0.837068  0.164395  0.077208  1
  Al  Al21  1  0.162932  0.835605  0.922792  1
  Al  Al22  1  0.561579  0.124823  0.250687  1
  Al  Al23  1  0.438421  0.875177  0.749313  1
  Al  Al24  1  0.876649  0.439637  0.249659  1
  Al  Al25  1  0.123351  0.560363  0.750341  1
  Al  Al26  1  0.562444  0.438783  0.249629  1
  Al  Al27  1  0.437556  0.561217  0.750371  1
  Al  Al28  1  0.000677  0.001113  0.250043  1
  Al  Al29  1  0.999323  0.998887  0.749957  1
  Ru  Ru30  1  0.500000  0.000000  0.500000  1
  Ru  Ru31  1  0.000000  0.000000  0.000000  1
  Ru  Ru32  1  0.000000  0.000000  0.500000  1
  Rh  Rh33  1  0.500000  0.000000  0.000000  1
  Rh  Rh34  1  0.000000  0.500000  0.000000  1
  Rh  Rh35  1  0.500000  0.500000  0.000000  1
  Rh  Rh36  1  0.000000  0.500000  0.500000  1
  Rh  Rh37  1  0.500000  0.500000  0.500000  1
