# generated using pymatgen
data_Cs4P21Cl
_symmetry_space_group_name_H-M   'P 1'
_cell_length_a   13.07609500
_cell_length_b   13.07609461
_cell_length_c   9.94946600
_cell_angle_alpha   90.00000000
_cell_angle_beta   90.00000000
_cell_angle_gamma   115.42298248
_symmetry_Int_Tables_number   1
_chemical_formula_structural   Cs4P21Cl
_chemical_formula_sum   'Cs8 P42 Cl2'
_cell_volume   1536.46301516
_cell_formula_units_Z   2
loop_
 _symmetry_equiv_pos_site_id
 _symmetry_equiv_pos_as_xyz
  1  'x, y, z'
loop_
 _atom_site_type_symbol
 _atom_site_label
 _atom_site_symmetry_multiplicity
 _atom_site_fract_x
 _atom_site_fract_y
 _atom_site_fract_z
 _atom_site_occupancy
  Cs  Cs0  1  0.245380  0.077876  0.250000  1
  Cs  Cs1  1  0.754620  0.922124  0.750000  1
  Cs  Cs2  1  0.077876  0.245380  0.250000  1
  Cs  Cs3  1  0.922124  0.754620  0.750000  1
  Cs  Cs4  1  0.388454  0.611546  0.500000  1
  Cs  Cs5  1  0.611546  0.388454  0.000000  1
  Cs  Cs6  1  0.611546  0.388454  0.500000  1
  Cs  Cs7  1  0.388454  0.611546  0.000000  1
  P  P8  1  0.949184  0.949184  0.250000  1
  P  P9  1  0.050816  0.050816  0.750000  1
  P  P10  1  0.661436  0.199584  0.250000  1
  P  P11  1  0.338564  0.800416  0.750000  1
  P  P12  1  0.199584  0.661436  0.250000  1
  P  P13  1  0.800416  0.338564  0.750000  1
  P  P14  1  0.316155  0.014617  0.922565  1
  P  P15  1  0.683845  0.985383  0.422565  1
  P  P16  1  0.014617  0.316155  0.577435  1
  P  P17  1  0.985383  0.683845  0.077435  1
  P  P18  1  0.058070  0.501026  0.915364  1
  P  P19  1  0.941930  0.498974  0.415364  1
  P  P20  1  0.501026  0.058070  0.584636  1
  P  P21  1  0.498974  0.941930  0.084636  1
  P  P22  1  0.941930  0.498974  0.084636  1
  P  P23  1  0.058070  0.501026  0.584636  1
  P  P24  1  0.498974  0.941930  0.415364  1
  P  P25  1  0.501026  0.058070  0.915364  1
  P  P26  1  0.151892  0.151892  0.911365  1
  P  P27  1  0.848108  0.848108  0.411365  1
  P  P28  1  0.151892  0.151892  0.588635  1
  P  P29  1  0.848108  0.848108  0.088635  1
  P  P30  1  0.943459  0.502505  0.750000  1
  P  P31  1  0.056541  0.497495  0.250000  1
  P  P32  1  0.502505  0.943459  0.750000  1
  P  P33  1  0.497495  0.056541  0.250000  1
  P  P34  1  0.894591  0.238881  0.750000  1
  P  P35  1  0.105409  0.761119  0.250000  1
  P  P36  1  0.238881  0.894591  0.750000  1
  P  P37  1  0.761119  0.105409  0.250000  1
  P  P38  1  0.181945  0.329878  0.863871  1
  P  P39  1  0.818055  0.670122  0.363871  1
  P  P40  1  0.329878  0.181945  0.636129  1
  P  P41  1  0.670122  0.818055  0.136129  1
  P  P42  1  0.818055  0.670122  0.136129  1
  P  P43  1  0.181945  0.329878  0.636129  1
  P  P44  1  0.670122  0.818055  0.363871  1
  P  P45  1  0.329878  0.181945  0.863871  1
  P  P46  1  0.014617  0.316155  0.922565  1
  P  P47  1  0.985383  0.683845  0.422565  1
  P  P48  1  0.316155  0.014617  0.577435  1
  P  P49  1  0.683845  0.985383  0.077435  1
  Cl  Cl50  1  0.396548  0.396548  0.250000  1
  Cl  Cl51  1  0.603452  0.603452  0.750000  1
