# generated using pymatgen
data_BeCl30
_symmetry_space_group_name_H-M   'P 1'
_cell_length_a   14.02170690
_cell_length_b   14.02170750
_cell_length_c   14.77195000
_cell_angle_alpha   82.26057598
_cell_angle_beta   82.26057280
_cell_angle_gamma   120.62030170
_symmetry_Int_Tables_number   1
_chemical_formula_structural   BeCl30
_chemical_formula_sum   'Be1 Cl30'
_cell_volume   2405.16540434
_cell_formula_units_Z   1
loop_
 _symmetry_equiv_pos_site_id
 _symmetry_equiv_pos_as_xyz
  1  'x, y, z'
loop_
 _atom_site_type_symbol
 _atom_site_label
 _atom_site_symmetry_multiplicity
 _atom_site_fract_x
 _atom_site_fract_y
 _atom_site_fract_z
 _atom_site_occupancy
  Be  Be0  1  0.000000  0.000000  0.000000  1
  Cl  Cl1  1  0.960464  0.960464  0.127837  1
  Cl  Cl2  1  0.039536  0.039536  0.872163  1
  Cl  Cl3  1  0.182357  0.264244  0.005209  1
  Cl  Cl4  1  0.817643  0.735756  0.994791  1
  Cl  Cl5  1  0.264244  0.182357  0.005209  1
  Cl  Cl6  1  0.735756  0.817643  0.994791  1
  Cl  Cl7  1  0.208948  0.729038  0.069856  1
  Cl  Cl8  1  0.791052  0.270962  0.930144  1
  Cl  Cl9  1  0.684863  0.069216  0.281613  1
  Cl  Cl10  1  0.270962  0.791052  0.930144  1
  Cl  Cl11  1  0.315137  0.930784  0.718387  1
  Cl  Cl12  1  0.729038  0.208948  0.069856  1
  Cl  Cl13  1  0.976330  0.210583  0.773926  1
  Cl  Cl14  1  0.930784  0.315137  0.718387  1
  Cl  Cl15  1  0.023670  0.789417  0.226074  1
  Cl  Cl16  1  0.069216  0.684863  0.281613  1
  Cl  Cl17  1  0.789417  0.023670  0.226074  1
  Cl  Cl18  1  0.210583  0.976330  0.773926  1
  Cl  Cl19  1  0.468487  0.550398  0.262888  1
  Cl  Cl20  1  0.531513  0.449602  0.737112  1
  Cl  Cl21  1  0.509335  0.203686  0.450002  1
  Cl  Cl22  1  0.449602  0.531513  0.737112  1
  Cl  Cl23  1  0.490665  0.796314  0.549998  1
  Cl  Cl24  1  0.550398  0.468487  0.262888  1
  Cl  Cl25  1  0.241039  0.429672  0.547816  1
  Cl  Cl26  1  0.796314  0.490665  0.549998  1
  Cl  Cl27  1  0.758961  0.570328  0.452184  1
  Cl  Cl28  1  0.203686  0.509335  0.450002  1
  Cl  Cl29  1  0.570328  0.758961  0.452184  1
  Cl  Cl30  1  0.429672  0.241039  0.547816  1
