# generated using pymatgen
data_PrAuI6
_symmetry_space_group_name_H-M   'P 1'
_cell_length_a   8.94466600
_cell_length_b   11.43960898
_cell_length_c   16.41610792
_cell_angle_alpha   103.22369143
_cell_angle_beta   95.84067106
_cell_angle_gamma   112.37005806
_symmetry_Int_Tables_number   1
_chemical_formula_structural   PrAuI6
_chemical_formula_sum   'Pr4 Au4 I24'
_cell_volume   1478.51755885
_cell_formula_units_Z   4
loop_
 _symmetry_equiv_pos_site_id
 _symmetry_equiv_pos_as_xyz
  1  'x, y, z'
loop_
 _atom_site_type_symbol
 _atom_site_label
 _atom_site_symmetry_multiplicity
 _atom_site_fract_x
 _atom_site_fract_y
 _atom_site_fract_z
 _atom_site_occupancy
  Pr  Pr0  1  0.577452  0.917291  0.621984  1
  Pr  Pr1  1  0.422548  0.082709  0.378016  1
  Pr  Pr2  1  0.977992  0.311452  0.870781  1
  Pr  Pr3  1  0.022008  0.688548  0.129219  1
  Au  Au4  1  0.295262  0.631101  0.762733  1
  Au  Au5  1  0.704738  0.368899  0.237267  1
  Au  Au6  1  0.500000  0.500000  0.500000  1
  Au  Au7  1  0.000000  0.000000  0.000000  1
  I  I8  1  0.610696  0.733019  0.747436  1
  I  I9  1  0.389304  0.266981  0.252564  1
  I  I10  1  0.275997  0.846402  0.735016  1
  I  I11  1  0.724003  0.153598  0.264984  1
  I  I12  1  0.977867  0.532787  0.773969  1
  I  I13  1  0.022133  0.467213  0.226031  1
  I  I14  1  0.314784  0.412683  0.785896  1
  I  I15  1  0.685216  0.587317  0.214104  1
  I  I16  1  0.690243  0.367442  0.506555  1
  I  I17  1  0.309757  0.632558  0.493445  1
  I  I18  1  0.763415  0.727693  0.524987  1
  I  I19  1  0.236585  0.272307  0.475013  1
  I  I20  1  0.785860  0.107071  0.975829  1
  I  I21  1  0.214140  0.892929  0.024171  1
  I  I22  1  0.766547  0.794226  0.030870  1
  I  I23  1  0.233453  0.205774  0.969130  1
  I  I24  1  0.614307  0.193021  0.745980  1
  I  I25  1  0.385693  0.806979  0.254020  1
  I  I26  1  0.954676  0.053233  0.726755  1
  I  I27  1  0.045324  0.946767  0.273245  1
  I  I28  1  0.732313  0.050900  0.480460  1
  I  I29  1  0.267687  0.949100  0.519540  1
  I  I30  1  0.757766  0.434104  0.977533  1
  I  I31  1  0.242234  0.565896  0.022467  1
