# generated using pymatgen
data_CaEr5Mn2(Si4Ru)6
_symmetry_space_group_name_H-M   'P 1'
_cell_length_a   10.09487272
_cell_length_b   10.09487227
_cell_length_c   8.07374233
_cell_angle_alpha   89.96430285
_cell_angle_beta   90.03570337
_cell_angle_gamma   132.81424170
_symmetry_Int_Tables_number   1
_chemical_formula_structural   CaEr5Mn2(Si4Ru)6
_chemical_formula_sum   'Ca1 Er5 Mn2 Si24 Ru6'
_cell_volume   603.54918605
_cell_formula_units_Z   1
loop_
 _symmetry_equiv_pos_site_id
 _symmetry_equiv_pos_as_xyz
  1  'x, y, z'
loop_
 _atom_site_type_symbol
 _atom_site_label
 _atom_site_symmetry_multiplicity
 _atom_site_fract_x
 _atom_site_fract_y
 _atom_site_fract_z
 _atom_site_occupancy
  Ca  Ca0  1  0.497785  0.997785  0.250000  1
  Er  Er1  1  0.000623  0.500623  0.750000  1
  Er  Er2  1  0.502496  0.002496  0.750000  1
  Er  Er3  1  0.997557  0.497557  0.250000  1
  Er  Er4  1  0.502358  0.502223  0.501627  1
  Er  Er5  1  0.002223  0.002358  0.998373  1
  Mn  Mn6  1  0.624094  0.624644  0.873441  1
  Mn  Mn7  1  0.124644  0.124094  0.626559  1
  Si  Si8  1  0.387619  0.153806  0.002942  1
  Si  Si9  1  0.653806  0.887619  0.497058  1
  Si  Si10  1  0.114822  0.342319  0.512829  1
  Si  Si11  1  0.842319  0.614822  0.987171  1
  Si  Si12  1  0.615708  0.843577  0.985733  1
  Si  Si13  1  0.343577  0.115708  0.514267  1
  Si  Si14  1  0.886753  0.654202  0.492714  1
  Si  Si15  1  0.154202  0.386753  0.007286  1
  Si  Si16  1  0.610994  0.377453  0.228955  1
  Si  Si17  1  0.877453  0.110994  0.271045  1
  Si  Si18  1  0.897406  0.124796  0.728595  1
  Si  Si19  1  0.624796  0.397406  0.771405  1
  Si  Si20  1  0.398923  0.625564  0.770781  1
  Si  Si21  1  0.125564  0.898923  0.729219  1
  Si  Si22  1  0.704273  0.294480  0.000386  1
  Si  Si23  1  0.794480  0.204273  0.499614  1
  Si  Si24  1  0.295799  0.704288  0.999051  1
  Si  Si25  1  0.204288  0.795799  0.500949  1
  Si  Si26  1  0.165116  0.166843  0.339750  1
  Si  Si27  1  0.666843  0.665116  0.160250  1
  Si  Si28  1  0.334081  0.330848  0.825879  1
  Si  Si29  1  0.830848  0.834081  0.674121  1
  Si  Si30  1  0.373532  0.606812  0.230193  1
  Si  Si31  1  0.106812  0.873532  0.269807  1
  Ru  Ru32  1  0.870818  0.870879  0.374917  1
  Ru  Ru33  1  0.370879  0.370818  0.125083  1
  Ru  Ru34  1  0.326696  0.667848  0.503210  1
  Ru  Ru35  1  0.167848  0.826696  0.996790  1
  Ru  Ru36  1  0.670777  0.331187  0.503002  1
  Ru  Ru37  1  0.831187  0.170777  0.996998  1
