# generated using pymatgen
data_CeLu15(ZnCo)4
_symmetry_space_group_name_H-M   'P 1'
_cell_length_a   9.16618233
_cell_length_b   9.16618299
_cell_length_c   9.16618334
_cell_angle_alpha   59.86077514
_cell_angle_beta   59.86077056
_cell_angle_gamma   59.86077929
_symmetry_Int_Tables_number   1
_chemical_formula_structural   CeLu15(ZnCo)4
_chemical_formula_sum   'Ce1 Lu15 Zn4 Co4'
_cell_volume   542.84557785
_cell_formula_units_Z   1
loop_
 _symmetry_equiv_pos_site_id
 _symmetry_equiv_pos_as_xyz
  1  'x, y, z'
loop_
 _atom_site_type_symbol
 _atom_site_label
 _atom_site_symmetry_multiplicity
 _atom_site_fract_x
 _atom_site_fract_y
 _atom_site_fract_z
 _atom_site_occupancy
  Ce  Ce0  1  0.342868  0.342868  0.342868  1
  Lu  Lu1  1  0.351763  0.351763  0.944035  1
  Lu  Lu2  1  0.351763  0.944035  0.351763  1
  Lu  Lu3  1  0.944035  0.351763  0.351763  1
  Lu  Lu4  1  0.812033  0.189986  0.189986  1
  Lu  Lu5  1  0.190819  0.810956  0.810956  1
  Lu  Lu6  1  0.189986  0.812033  0.189986  1
  Lu  Lu7  1  0.810956  0.190819  0.810956  1
  Lu  Lu8  1  0.189986  0.189986  0.812033  1
  Lu  Lu9  1  0.810956  0.810956  0.190819  1
  Lu  Lu10  1  0.937229  0.563581  0.563581  1
  Lu  Lu11  1  0.562843  0.937638  0.937638  1
  Lu  Lu12  1  0.563581  0.937229  0.563581  1
  Lu  Lu13  1  0.937638  0.562843  0.937638  1
  Lu  Lu14  1  0.563581  0.563581  0.937229  1
  Lu  Lu15  1  0.937638  0.937638  0.562843  1
  Zn  Zn16  1  0.576133  0.576133  0.576133  1
  Zn  Zn17  1  0.577414  0.577414  0.265691  1
  Zn  Zn18  1  0.577414  0.265691  0.577414  1
  Zn  Zn19  1  0.265691  0.577414  0.577414  1
  Co  Co20  1  0.143336  0.143336  0.143336  1
  Co  Co21  1  0.146291  0.146291  0.569754  1
  Co  Co22  1  0.146291  0.569754  0.146291  1
  Co  Co23  1  0.569754  0.146291  0.146291  1
