# generated using pymatgen
data_Li2MnSiS4
_symmetry_space_group_name_H-M   'P 1'
_cell_length_a   6.28882100
_cell_length_b   6.78892600
_cell_length_c   7.54933400
_cell_angle_alpha   90.00000000
_cell_angle_beta   90.00000000
_cell_angle_gamma   90.00000000
_symmetry_Int_Tables_number   1
_chemical_formula_structural   Li2MnSiS4
_chemical_formula_sum   'Li4 Mn2 Si2 S8'
_cell_volume   322.31383556
_cell_formula_units_Z   2
loop_
 _symmetry_equiv_pos_site_id
 _symmetry_equiv_pos_as_xyz
  1  'x, y, z'
loop_
 _atom_site_type_symbol
 _atom_site_label
 _atom_site_symmetry_multiplicity
 _atom_site_fract_x
 _atom_site_fract_y
 _atom_site_fract_z
 _atom_site_occupancy
  Li  Li0  1  0.508350  0.826272  0.746902  1
  Li  Li1  1  0.008350  0.173728  0.753098  1
  Li  Li2  1  0.008350  0.173728  0.246902  1
  Li  Li3  1  0.508350  0.826272  0.253098  1
  Mn  Mn4  1  0.503181  0.351927  0.000000  1
  Mn  Mn5  1  0.003181  0.648073  0.500000  1
  Si  Si6  1  0.005338  0.669788  0.000000  1
  Si  Si7  1  0.505338  0.330212  0.500000  1
  S  S8  1  0.888151  0.373950  0.000000  1
  S  S9  1  0.388151  0.626050  0.500000  1
  S  S10  1  0.896247  0.825102  0.768287  1
  S  S11  1  0.396247  0.174898  0.731713  1
  S  S12  1  0.396247  0.174898  0.268287  1
  S  S13  1  0.896247  0.825102  0.231713  1
  S  S14  1  0.346634  0.673556  0.000000  1
  S  S15  1  0.846634  0.326444  0.500000  1
