# generated using pymatgen
data_TbYb4Y5(CuPb3)2
_symmetry_space_group_name_H-M   'P 1'
_cell_length_a   9.24229603
_cell_length_b   9.24229687
_cell_length_c   6.80110800
_cell_angle_alpha   90.00000000
_cell_angle_beta   90.00000000
_cell_angle_gamma   119.99020325
_symmetry_Int_Tables_number   1
_chemical_formula_structural   TbYb4Y5(CuPb3)2
_chemical_formula_sum   'Tb1 Yb4 Y5 Cu2 Pb6'
_cell_volume   503.16793446
_cell_formula_units_Z   1
loop_
 _symmetry_equiv_pos_site_id
 _symmetry_equiv_pos_as_xyz
  1  'x, y, z'
loop_
 _atom_site_type_symbol
 _atom_site_label
 _atom_site_symmetry_multiplicity
 _atom_site_fract_x
 _atom_site_fract_y
 _atom_site_fract_z
 _atom_site_occupancy
  Tb  Tb0  1  0.258556  0.258556  0.750000  1
  Yb  Yb1  1  0.333416  0.666637  0.000042  1
  Yb  Yb2  1  0.666637  0.333416  0.000042  1
  Yb  Yb3  1  0.666637  0.333416  0.499958  1
  Yb  Yb4  1  0.333416  0.666637  0.499958  1
  Y  Y5  1  0.259090  0.999952  0.250000  1
  Y  Y6  1  0.740725  0.999990  0.750000  1
  Y  Y7  1  0.999952  0.259090  0.250000  1
  Y  Y8  1  0.999990  0.740725  0.750000  1
  Y  Y9  1  0.740906  0.740906  0.250000  1
  Cu  Cu10  1  0.000532  0.000532  0.998618  1
  Cu  Cu11  1  0.000532  0.000532  0.501382  1
  Pb  Pb12  1  0.613737  0.999872  0.250000  1
  Pb  Pb13  1  0.386165  0.999693  0.750000  1
  Pb  Pb14  1  0.999872  0.613737  0.250000  1
  Pb  Pb15  1  0.999693  0.386165  0.750000  1
  Pb  Pb16  1  0.386182  0.386182  0.250000  1
  Pb  Pb17  1  0.613963  0.613963  0.750000  1
