# generated using pymatgen
data_TbYAl7Ga2Ir3
_symmetry_space_group_name_H-M   'P 1'
_cell_length_a   7.53911315
_cell_length_b   7.53917565
_cell_length_c   9.57241400
_cell_angle_alpha   90.00000000
_cell_angle_beta   90.00000000
_cell_angle_gamma   119.51555613
_symmetry_Int_Tables_number   1
_chemical_formula_structural   TbYAl7Ga2Ir3
_chemical_formula_sum   'Tb2 Y2 Al14 Ga4 Ir6'
_cell_volume   473.47345821
_cell_formula_units_Z   2
loop_
 _symmetry_equiv_pos_site_id
 _symmetry_equiv_pos_as_xyz
  1  'x, y, z'
loop_
 _atom_site_type_symbol
 _atom_site_label
 _atom_site_symmetry_multiplicity
 _atom_site_fract_x
 _atom_site_fract_y
 _atom_site_fract_z
 _atom_site_occupancy
  Tb  Tb0  1  0.669916  0.993283  0.250000  1
  Tb  Tb1  1  0.330084  0.006717  0.750000  1
  Y  Y2  1  0.997629  0.673527  0.250000  1
  Y  Y3  1  0.002371  0.326473  0.750000  1
  Al  Al4  1  0.001585  0.335208  0.072831  1
  Al  Al5  1  0.998415  0.664792  0.927169  1
  Al  Al6  1  0.998415  0.664792  0.572831  1
  Al  Al7  1  0.335537  0.002176  0.426908  1
  Al  Al8  1  0.001585  0.335208  0.427169  1
  Al  Al9  1  0.664463  0.997824  0.573092  1
  Al  Al10  1  0.664463  0.997824  0.926908  1
  Al  Al11  1  0.335537  0.002176  0.073092  1
  Al  Al12  1  0.333609  0.334163  0.553903  1
  Al  Al13  1  0.666391  0.665837  0.446097  1
  Al  Al14  1  0.666391  0.665837  0.053903  1
  Al  Al15  1  0.333609  0.334163  0.946097  1
  Al  Al16  1  0.548979  0.338677  0.250000  1
  Al  Al17  1  0.451021  0.661323  0.750000  1
  Ga  Ga18  1  0.130042  0.131040  0.250000  1
  Ga  Ga19  1  0.869958  0.868960  0.750000  1
  Ga  Ga20  1  0.338031  0.545711  0.250000  1
  Ga  Ga21  1  0.661969  0.454289  0.750000  1
  Ir  Ir22  1  0.671072  0.328326  0.002480  1
  Ir  Ir23  1  0.328928  0.671674  0.997520  1
  Ir  Ir24  1  0.328928  0.671674  0.502480  1
  Ir  Ir25  1  0.671072  0.328326  0.497520  1
  Ir  Ir26  1  0.000000  0.000000  0.000000  1
  Ir  Ir27  1  0.000000  0.000000  0.500000  1
