# generated using pymatgen
data_HoFe4ReTc7
_symmetry_space_group_name_H-M   'P 1'
_cell_length_a   6.71664666
_cell_length_b   6.71860347
_cell_length_c   6.71664522
_cell_angle_alpha   97.26714542
_cell_angle_beta   97.26015781
_cell_angle_gamma   138.32039950
_symmetry_Int_Tables_number   1
_chemical_formula_structural   HoFe4ReTc7
_chemical_formula_sum   'Ho1 Fe4 Re1 Tc7'
_cell_volume   188.39157657
_cell_formula_units_Z   1
loop_
 _symmetry_equiv_pos_site_id
 _symmetry_equiv_pos_as_xyz
  1  'x, y, z'
loop_
 _atom_site_type_symbol
 _atom_site_label
 _atom_site_symmetry_multiplicity
 _atom_site_fract_x
 _atom_site_fract_y
 _atom_site_fract_z
 _atom_site_occupancy
  Ho  Ho0  1  0.000362  0.000000  0.000362  1
  Fe  Fe1  1  0.999501  0.999457  0.500111  1
  Fe  Fe2  1  0.500654  0.000543  0.000044  1
  Fe  Fe3  1  0.999227  0.499073  0.999934  1
  Fe  Fe4  1  0.500861  0.500927  0.500154  1
  Re  Re5  1  0.642522  0.000000  0.642522  1
  Tc  Tc6  1  0.000157  0.643076  0.643348  1
  Tc  Tc7  1  0.000272  0.356924  0.357081  1
  Tc  Tc8  1  0.356456  0.000000  0.356456  1
  Tc  Tc9  1  0.715569  0.500000  0.215569  1
  Tc  Tc10  1  0.499736  0.716084  0.215800  1
  Tc  Tc11  1  0.499715  0.283916  0.783651  1
  Tc  Tc12  1  0.284969  0.500000  0.784969  1
