# generated using pymatgen
data_Pr6YScO12
_symmetry_space_group_name_H-M   'P 1'
_cell_length_a   6.95329597
_cell_length_b   6.95329694
_cell_length_c   6.95329620
_cell_angle_alpha   92.92176448
_cell_angle_beta   92.92176966
_cell_angle_gamma   92.92176059
_symmetry_Int_Tables_number   1
_chemical_formula_structural   Pr6YScO12
_chemical_formula_sum   'Pr6 Y1 Sc1 O12'
_cell_volume   334.82282398
_cell_formula_units_Z   1
loop_
 _symmetry_equiv_pos_site_id
 _symmetry_equiv_pos_as_xyz
  1  'x, y, z'
loop_
 _atom_site_type_symbol
 _atom_site_label
 _atom_site_symmetry_multiplicity
 _atom_site_fract_x
 _atom_site_fract_y
 _atom_site_fract_z
 _atom_site_occupancy
  Pr  Pr0  1  0.741487  0.929319  0.438579  1
  Pr  Pr1  1  0.438579  0.741487  0.929319  1
  Pr  Pr2  1  0.070681  0.561421  0.258513  1
  Pr  Pr3  1  0.929319  0.438579  0.741487  1
  Pr  Pr4  1  0.561421  0.258513  0.070681  1
  Pr  Pr5  1  0.258513  0.070681  0.561421  1
  Y  Y6  1  0.000000  0.000000  0.000000  1
  Sc  Sc7  1  0.500000  0.500000  0.500000  1
  O  O8  1  0.064635  0.911075  0.310345  1
  O  O9  1  0.689655  0.935365  0.088925  1
  O  O10  1  0.461767  0.796839  0.587887  1
  O  O11  1  0.088925  0.689655  0.935365  1
  O  O12  1  0.796839  0.587887  0.461767  1
  O  O13  1  0.412113  0.538233  0.203161  1
  O  O14  1  0.587887  0.461767  0.796839  1
  O  O15  1  0.203161  0.412113  0.538233  1
  O  O16  1  0.911075  0.310345  0.064635  1
  O  O17  1  0.538233  0.203161  0.412113  1
  O  O18  1  0.310345  0.064635  0.911075  1
  O  O19  1  0.935365  0.088925  0.689655  1
