# generated using pymatgen
data_Ca6PrHo(Si3Pd)4
_symmetry_space_group_name_H-M   'P 1'
_cell_length_a   8.27775300
_cell_length_b   8.27775378
_cell_length_c   8.34087200
_cell_angle_alpha   90.00000000
_cell_angle_beta   90.00000000
_cell_angle_gamma   120.00000087
_symmetry_Int_Tables_number   1
_chemical_formula_structural   Ca6PrHo(Si3Pd)4
_chemical_formula_sum   'Ca6 Pr1 Ho1 Si12 Pd4'
_cell_volume   494.95652303
_cell_formula_units_Z   1
loop_
 _symmetry_equiv_pos_site_id
 _symmetry_equiv_pos_as_xyz
  1  'x, y, z'
loop_
 _atom_site_type_symbol
 _atom_site_label
 _atom_site_symmetry_multiplicity
 _atom_site_fract_x
 _atom_site_fract_y
 _atom_site_fract_z
 _atom_site_occupancy
  Ca  Ca0  1  0.501279  0.002555  0.250000  1
  Ca  Ca1  1  0.498723  0.997448  0.750000  1
  Ca  Ca2  1  0.997445  0.498721  0.250000  1
  Ca  Ca3  1  0.002552  0.501277  0.750000  1
  Ca  Ca4  1  0.501279  0.498721  0.250000  1
  Ca  Ca5  1  0.498723  0.501277  0.750000  1
  Pr  Pr6  1  0.000000  0.000000  0.250000  1
  Ho  Ho7  1  0.000000  0.000000  0.750000  1
  Si  Si8  1  0.165050  0.330098  0.997291  1
  Si  Si9  1  0.835017  0.670036  0.994692  1
  Si  Si10  1  0.669902  0.834950  0.997291  1
  Si  Si11  1  0.835017  0.670036  0.505308  1
  Si  Si12  1  0.329964  0.164983  0.994692  1
  Si  Si13  1  0.165050  0.330098  0.502709  1
  Si  Si14  1  0.165050  0.834950  0.997291  1
  Si  Si15  1  0.329964  0.164983  0.505308  1
  Si  Si16  1  0.835017  0.164983  0.994692  1
  Si  Si17  1  0.669902  0.834950  0.502709  1
  Si  Si18  1  0.835017  0.164983  0.505308  1
  Si  Si19  1  0.165050  0.834950  0.502709  1
  Pd  Pd20  1  0.333333  0.666667  0.000400  1
  Pd  Pd21  1  0.666667  0.333333  0.996044  1
  Pd  Pd22  1  0.666667  0.333333  0.503956  1
  Pd  Pd23  1  0.333333  0.666667  0.499600  1
