# generated using pymatgen
data_CsSm8Dy2(C2I9)2
_symmetry_space_group_name_H-M   'P 1'
_cell_length_a   11.57904248
_cell_length_b   11.61610248
_cell_length_c   11.67772905
_cell_angle_alpha   113.21480739
_cell_angle_beta   87.00365800
_cell_angle_gamma   119.75404255
_symmetry_Int_Tables_number   1
_chemical_formula_structural   CsSm8Dy2(C2I9)2
_chemical_formula_sum   'Cs1 Sm8 Dy2 C4 I18'
_cell_volume   1232.81920400
_cell_formula_units_Z   1
loop_
 _symmetry_equiv_pos_site_id
 _symmetry_equiv_pos_as_xyz
  1  'x, y, z'
loop_
 _atom_site_type_symbol
 _atom_site_label
 _atom_site_symmetry_multiplicity
 _atom_site_fract_x
 _atom_site_fract_y
 _atom_site_fract_z
 _atom_site_occupancy
  Cs  Cs0  1  0.499875  0.999392  0.499674  1
  Sm  Sm1  1  0.094073  0.396520  0.295263  1
  Sm  Sm2  1  0.965124  0.038533  0.324365  1
  Sm  Sm3  1  0.906933  0.603760  0.704661  1
  Sm  Sm4  1  0.106379  0.944047  0.000298  1
  Sm  Sm5  1  0.034519  0.961721  0.674871  1
  Sm  Sm6  1  0.327291  0.278229  0.292254  1
  Sm  Sm7  1  0.721471  0.645143  0.983342  1
  Sm  Sm8  1  0.893374  0.056279  0.999978  1
  Dy  Dy9  1  0.676746  0.723395  0.711254  1
  Dy  Dy10  1  0.274948  0.350856  0.017619  1
  C  C11  1  0.152743  0.222042  0.123436  1
  C  C12  1  0.846137  0.777444  0.875119  1
  C  C13  1  0.920232  0.852278  0.800994  1
  C  C14  1  0.078545  0.147440  0.197538  1
  I  I15  1  0.448714  0.530426  0.829317  1
  I  I16  1  0.385670  0.038443  0.158265  1
  I  I17  1  0.772437  0.852637  0.502768  1
  I  I18  1  0.835107  0.310990  0.153506  1
  I  I19  1  0.547334  0.469485  0.166279  1
  I  I20  1  0.224939  0.145198  0.499853  1
  I  I21  1  0.317661  0.100360  0.834112  1
  I  I22  1  0.682053  0.904870  0.169119  1
  I  I23  1  0.977318  0.756780  0.168629  1
  I  I24  1  0.931751  0.299426  0.503128  1
  I  I25  1  0.027868  0.246480  0.834287  1
  I  I26  1  0.068919  0.701325  0.496955  1
  I  I27  1  0.263857  0.620358  0.179429  1
  I  I28  1  0.737738  0.374177  0.815236  1
  I  I29  1  0.639104  0.436910  0.500621  1
  I  I30  1  0.165059  0.689103  0.845916  1
  I  I31  1  0.615091  0.955964  0.838443  1
  I  I32  1  0.360989  0.569988  0.503469  1
