# generated using pymatgen
data_Th14Tc4OsRh
_symmetry_space_group_name_H-M   'P 1'
_cell_length_a   9.94241599
_cell_length_b   9.96705763
_cell_length_c   6.34778972
_cell_angle_alpha   89.83834006
_cell_angle_beta   90.11783584
_cell_angle_gamma   119.67356038
_symmetry_Int_Tables_number   1
_chemical_formula_structural   Th14Tc4OsRh
_chemical_formula_sum   'Th14 Tc4 Os1 Rh1'
_cell_volume   546.54938336
_cell_formula_units_Z   1
loop_
 _symmetry_equiv_pos_site_id
 _symmetry_equiv_pos_as_xyz
  1  'x, y, z'
loop_
 _atom_site_type_symbol
 _atom_site_label
 _atom_site_symmetry_multiplicity
 _atom_site_fract_x
 _atom_site_fract_y
 _atom_site_fract_z
 _atom_site_occupancy
  Th  Th0  1  0.664981  0.333481  0.542135  1
  Th  Th1  1  0.333635  0.666756  0.033277  1
  Th  Th2  1  0.875082  0.752376  0.755303  1
  Th  Th3  1  0.249974  0.125851  0.754907  1
  Th  Th4  1  0.876227  0.125326  0.754418  1
  Th  Th5  1  0.130004  0.255385  0.255028  1
  Th  Th6  1  0.747701  0.869791  0.255371  1
  Th  Th7  1  0.125395  0.873375  0.254005  1
  Th  Th8  1  0.457477  0.919503  0.549430  1
  Th  Th9  1  0.079796  0.543313  0.549406  1
  Th  Th10  1  0.460276  0.540840  0.548766  1
  Th  Th11  1  0.537870  0.076487  0.045072  1
  Th  Th12  1  0.920985  0.461120  0.046723  1
  Th  Th13  1  0.540072  0.460539  0.048278  1
  Tc  Tc14  1  0.183955  0.369022  0.795015  1
  Tc  Tc15  1  0.632299  0.817970  0.796412  1
  Tc  Tc16  1  0.184813  0.815781  0.797388  1
  Tc  Tc17  1  0.812911  0.623693  0.300882  1
  Os  Os18  1  0.374648  0.184600  0.300744  1
  Rh  Rh19  1  0.811899  0.184791  0.299945  1
