# generated using pymatgen
data_Ca12Sc7Ti12CrO48
_symmetry_space_group_name_H-M   'P 1'
_cell_length_a   11.05918664
_cell_length_b   11.06443065
_cell_length_c   11.06443116
_cell_angle_alpha   109.48082439
_cell_angle_beta   109.46162241
_cell_angle_gamma   109.46161731
_symmetry_Int_Tables_number   1
_chemical_formula_structural   Ca12Sc7Ti12CrO48
_chemical_formula_sum   'Ca12 Sc7 Ti12 Cr1 O48'
_cell_volume   1042.34353758
_cell_formula_units_Z   1
loop_
 _symmetry_equiv_pos_site_id
 _symmetry_equiv_pos_as_xyz
  1  'x, y, z'
loop_
 _atom_site_type_symbol
 _atom_site_label
 _atom_site_symmetry_multiplicity
 _atom_site_fract_x
 _atom_site_fract_y
 _atom_site_fract_z
 _atom_site_occupancy
  Ca  Ca0  1  0.252242  0.376595  0.124717  1
  Ca  Ca1  1  0.747758  0.623405  0.875283  1
  Ca  Ca2  1  0.750504  0.125107  0.374854  1
  Ca  Ca3  1  0.125397  0.249747  0.374893  1
  Ca  Ca4  1  0.375647  0.748122  0.123405  1
  Ca  Ca5  1  0.249496  0.874893  0.625146  1
  Ca  Ca6  1  0.874603  0.750253  0.625107  1
  Ca  Ca7  1  0.624353  0.251878  0.876595  1
  Ca  Ca8  1  0.375650  0.125146  0.250253  1
  Ca  Ca9  1  0.624350  0.874854  0.749747  1
  Ca  Ca10  1  0.127525  0.375283  0.751878  1
  Ca  Ca11  1  0.872475  0.624717  0.248122  1
  Sc  Sc12  1  0.000000  0.000000  0.000000  1
  Sc  Sc13  1  0.500000  0.000000  0.500000  1
  Sc  Sc14  1  0.000000  0.500000  0.500000  1
  Sc  Sc15  1  0.500000  0.000000  0.000000  1
  Sc  Sc16  1  0.500000  0.500000  0.500000  1
  Sc  Sc17  1  0.000000  0.000000  0.500000  1
  Sc  Sc18  1  0.000000  0.500000  0.000000  1
  Ti  Ti19  1  0.250124  0.625086  0.375072  1
  Ti  Ti20  1  0.749876  0.374914  0.624928  1
  Ti  Ti21  1  0.747033  0.871580  0.124153  1
  Ti  Ti22  1  0.375452  0.252573  0.628420  1
  Ti  Ti23  1  0.624548  0.747427  0.371580  1
  Ti  Ti24  1  0.252967  0.128420  0.875847  1
  Ti  Ti25  1  0.125038  0.749986  0.874914  1
  Ti  Ti26  1  0.874962  0.250014  0.125086  1
  Ti  Ti27  1  0.622880  0.375847  0.247427  1
  Ti  Ti28  1  0.377120  0.624153  0.752573  1
  Ti  Ti29  1  0.875052  0.124928  0.750014  1
  Ti  Ti30  1  0.124948  0.875072  0.249986  1
  Cr  Cr31  1  0.500000  0.500000  0.000000  1
  O  O32  1  0.479121  0.378992  0.293595  1
  O  O33  1  0.520879  0.621008  0.706405  1
  O  O34  1  0.585224  0.187459  0.204944  1
  O  O35  1  0.914614  0.121341  0.600791  1
  O  O36  1  0.293273  0.479450  0.378659  1
  O  O37  1  0.313645  0.914325  0.293628  1
  O  O38  1  0.414776  0.812541  0.795056  1
  O  O39  1  0.085386  0.878659  0.399209  1
  O  O40  1  0.706727  0.520550  0.621341  1
  O  O41  1  0.686355  0.085675  0.706372  1
  O  O42  1  0.021198  0.313758  0.899600  1
  O  O43  1  0.207440  0.585842  0.186242  1
  O  O44  1  0.121682  0.020925  0.206736  1
  O  O45  1  0.978802  0.686242  0.100400  1
  O  O46  1  0.792560  0.414158  0.813758  1
  O  O47  1  0.878318  0.979075  0.793264  1
  O  O48  1  0.600129  0.914602  0.121008  1
  O  O49  1  0.187516  0.480805  0.603220  1
  O  O50  1  0.399871  0.085398  0.878992  1
  O  O51  1  0.812484  0.519195  0.396780  1
  O  O52  1  0.897765  0.017486  0.312541  1
  O  O53  1  0.383511  0.582296  0.901678  1
  O  O54  1  0.102235  0.982514  0.687459  1
  O  O55  1  0.616489  0.417704  0.098322  1
  O  O56  1  0.380279  0.295056  0.482514  1
  O  O57  1  0.584297  0.896780  0.377586  1
  O  O58  1  0.619721  0.704944  0.517486  1
  O  O59  1  0.415703  0.103220  0.622414  1
  O  O60  1  0.121598  0.600400  0.914158  1
  O  O61  1  0.020017  0.206372  0.120697  1
  O  O62  1  0.878402  0.399600  0.085842  1
  O  O63  1  0.979983  0.793628  0.879303  1
  O  O64  1  0.313823  0.899209  0.020550  1
  O  O65  1  0.914946  0.293264  0.314189  1
  O  O66  1  0.686177  0.100791  0.979450  1
  O  O67  1  0.085054  0.706736  0.685811  1
  O  O68  1  0.185526  0.206405  0.585398  1
  O  O69  1  0.481833  0.598322  0.180617  1
  O  O70  1  0.814474  0.793595  0.414602  1
  O  O71  1  0.518167  0.401678  0.819383  1
  O  O72  1  0.301216  0.319383  0.917704  1
  O  O73  1  0.698784  0.680617  0.082296  1
  O  O74  1  0.206711  0.122414  0.019195  1
  O  O75  1  0.793289  0.877586  0.980805  1
  O  O76  1  0.899320  0.379303  0.585675  1
  O  O77  1  0.100680  0.620697  0.414325  1
  O  O78  1  0.600756  0.185811  0.479075  1
  O  O79  1  0.399244  0.814189  0.520925  1
