# generated using pymatgen
data_AcY(BIr)8
_symmetry_space_group_name_H-M   'P 1'
_cell_length_a   7.73872200
_cell_length_b   7.73872200
_cell_length_c   3.99529500
_cell_angle_alpha   90.00000000
_cell_angle_beta   90.00000000
_cell_angle_gamma   90.00000000
_symmetry_Int_Tables_number   1
_chemical_formula_structural   AcY(BIr)8
_chemical_formula_sum   'Ac1 Y1 B8 Ir8'
_cell_volume   239.26950059
_cell_formula_units_Z   1
loop_
 _symmetry_equiv_pos_site_id
 _symmetry_equiv_pos_as_xyz
  1  'x, y, z'
loop_
 _atom_site_type_symbol
 _atom_site_label
 _atom_site_symmetry_multiplicity
 _atom_site_fract_x
 _atom_site_fract_y
 _atom_site_fract_z
 _atom_site_occupancy
  Ac  Ac0  1  0.000000  0.000000  0.000000  1
  Y  Y1  1  0.500000  0.500000  0.500000  1
  B  B2  1  0.343576  0.774786  0.887569  1
  B  B3  1  0.656424  0.225214  0.887569  1
  B  B4  1  0.774786  0.656424  0.112431  1
  B  B5  1  0.225214  0.343576  0.112431  1
  B  B6  1  0.284193  0.159980  0.396518  1
  B  B7  1  0.715807  0.840020  0.396518  1
  B  B8  1  0.840020  0.284193  0.603482  1
  B  B9  1  0.159980  0.715807  0.603482  1
  Ir  Ir10  1  0.392349  0.164615  0.891889  1
  Ir  Ir11  1  0.607651  0.835385  0.891889  1
  Ir  Ir12  1  0.835385  0.392349  0.108111  1
  Ir  Ir13  1  0.164615  0.607651  0.108111  1
  Ir  Ir14  1  0.345760  0.889093  0.391207  1
  Ir  Ir15  1  0.654240  0.110907  0.391207  1
  Ir  Ir16  1  0.889093  0.654240  0.608793  1
  Ir  Ir17  1  0.110907  0.345760  0.608793  1
