# generated using pymatgen
data_Yb8TlAg6Pt2Pb3
_symmetry_space_group_name_H-M   'P 1'
_cell_length_a   8.08425027
_cell_length_b   8.07083324
_cell_length_c   7.50308601
_cell_angle_alpha   89.99541624
_cell_angle_beta   89.82532476
_cell_angle_gamma   89.97244266
_symmetry_Int_Tables_number   1
_chemical_formula_structural   Yb8TlAg6Pt2Pb3
_chemical_formula_sum   'Yb8 Tl1 Ag6 Pt2 Pb3'
_cell_volume   489.54878693
_cell_formula_units_Z   1
loop_
 _symmetry_equiv_pos_site_id
 _symmetry_equiv_pos_as_xyz
  1  'x, y, z'
loop_
 _atom_site_type_symbol
 _atom_site_label
 _atom_site_symmetry_multiplicity
 _atom_site_fract_x
 _atom_site_fract_y
 _atom_site_fract_z
 _atom_site_occupancy
  Yb  Yb0  1  0.677014  0.698225  0.000141  1
  Yb  Yb1  1  0.334631  0.348539  0.511388  1
  Yb  Yb2  1  0.810877  0.163582  0.493452  1
  Yb  Yb3  1  0.662009  0.684390  0.500131  1
  Yb  Yb4  1  0.316603  0.331222  0.990648  1
  Yb  Yb5  1  0.182247  0.806688  0.503033  1
  Yb  Yb6  1  0.829373  0.147426  0.008707  1
  Yb  Yb7  1  0.166537  0.820447  0.997091  1
  Tl  Tl8  1  0.492374  0.000696  0.751207  1
  Ag  Ag9  1  0.881311  0.874940  0.732658  1
  Ag  Ag10  1  0.124339  0.120970  0.732461  1
  Ag  Ag11  1  0.631976  0.378557  0.769397  1
  Ag  Ag12  1  0.623734  0.378642  0.232178  1
  Ag  Ag13  1  0.381293  0.624279  0.232392  1
  Ag  Ag14  1  0.131122  0.121736  0.269305  1
  Pt  Pt15  1  0.886995  0.875367  0.262164  1
  Pt  Pt16  1  0.385125  0.624417  0.762252  1
  Pb  Pb17  1  0.494445  0.005737  0.250177  1
  Pb  Pb18  1  0.996532  0.494915  0.750102  1
  Pb  Pb19  1  0.991465  0.499224  0.251115  1
