# generated using pymatgen
data_Yb15DySb12
_symmetry_space_group_name_H-M   'P 1'
_cell_length_a   9.43079035
_cell_length_b   9.43079059
_cell_length_c   9.43079000
_cell_angle_alpha   89.73833790
_cell_angle_beta   89.73833789
_cell_angle_gamma   90.26165517
_symmetry_Int_Tables_number   1
_chemical_formula_structural   Yb15DySb12
_chemical_formula_sum   'Yb15 Dy1 Sb12'
_cell_volume   838.74633961
_cell_formula_units_Z   1
loop_
 _symmetry_equiv_pos_site_id
 _symmetry_equiv_pos_as_xyz
  1  'x, y, z'
loop_
 _atom_site_type_symbol
 _atom_site_label
 _atom_site_symmetry_multiplicity
 _atom_site_fract_x
 _atom_site_fract_y
 _atom_site_fract_z
 _atom_site_occupancy
  Yb  Yb0  1  0.821686  0.321686  0.178314  1
  Yb  Yb1  1  0.924809  0.931702  0.926621  1
  Yb  Yb2  1  0.824399  0.674791  0.324956  1
  Yb  Yb3  1  0.175199  0.825402  0.325880  1
  Yb  Yb4  1  0.174791  0.175044  0.175601  1
  Yb  Yb5  1  0.327935  0.827935  0.672065  1
  Yb  Yb6  1  0.073379  0.424809  0.568298  1
  Yb  Yb7  1  0.325402  0.174120  0.824801  1
  Yb  Yb8  1  0.675044  0.324399  0.825209  1
  Yb  Yb9  1  0.674120  0.675199  0.674598  1
  Yb  Yb10  1  0.574262  0.074262  0.425738  1
  Yb  Yb11  1  0.431702  0.573379  0.075191  1
  Yb  Yb12  1  0.923960  0.073685  0.574006  1
  Yb  Yb13  1  0.425994  0.423960  0.426315  1
  Yb  Yb14  1  0.573685  0.925994  0.076040  1
  Dy  Dy15  1  0.073839  0.573839  0.926161  1
  Sb  Sb16  1  0.748643  0.375281  0.501492  1
  Sb  Sb17  1  0.875281  0.998508  0.251357  1
  Sb  Sb18  1  0.002240  0.746914  0.630915  1
  Sb  Sb19  1  0.248746  0.126333  0.500929  1
  Sb  Sb20  1  0.125473  0.502096  0.242593  1
  Sb  Sb21  1  0.002096  0.257407  0.874527  1
  Sb  Sb22  1  0.246914  0.869085  0.997760  1
  Sb  Sb23  1  0.369085  0.502240  0.753086  1
  Sb  Sb24  1  0.498508  0.248643  0.124719  1
  Sb  Sb25  1  0.757407  0.625473  0.997904  1
  Sb  Sb26  1  0.626333  0.999071  0.751254  1
  Sb  Sb27  1  0.499071  0.748746  0.373667  1
