# generated using pymatgen
data_Cs8Ce(MoO4)6
_symmetry_space_group_name_H-M   'P 1'
_cell_length_a   11.40102669
_cell_length_b   11.40102673
_cell_length_c   8.53961516
_cell_angle_alpha   80.88217916
_cell_angle_beta   80.88217350
_cell_angle_gamma   123.75840989
_symmetry_Int_Tables_number   1
_chemical_formula_structural   Cs8Ce(MoO4)6
_chemical_formula_sum   'Cs8 Ce1 Mo6 O24'
_cell_volume   869.12686831
_cell_formula_units_Z   1
loop_
 _symmetry_equiv_pos_site_id
 _symmetry_equiv_pos_as_xyz
  1  'x, y, z'
loop_
 _atom_site_type_symbol
 _atom_site_label
 _atom_site_symmetry_multiplicity
 _atom_site_fract_x
 _atom_site_fract_y
 _atom_site_fract_z
 _atom_site_occupancy
  Cs  Cs0  1  0.217031  0.217031  0.362913  1
  Cs  Cs1  1  0.782969  0.782969  0.637087  1
  Cs  Cs2  1  0.663264  0.336736  0.500000  1
  Cs  Cs3  1  0.336736  0.663264  0.500000  1
  Cs  Cs4  1  0.868777  0.523064  0.889506  1
  Cs  Cs5  1  0.523064  0.868777  0.889506  1
  Cs  Cs6  1  0.131223  0.476936  0.110494  1
  Cs  Cs7  1  0.476936  0.131223  0.110494  1
  Ce  Ce8  1  0.000000  0.000000  0.000000  1
  Mo  Mo9  1  0.947899  0.260603  0.712442  1
  Mo  Mo10  1  0.260603  0.947899  0.712442  1
  Mo  Mo11  1  0.052101  0.739397  0.287558  1
  Mo  Mo12  1  0.739397  0.052101  0.287558  1
  Mo  Mo13  1  0.384129  0.384129  0.798415  1
  Mo  Mo14  1  0.615871  0.615871  0.201585  1
  O  O15  1  0.936602  0.092861  0.804213  1
  O  O16  1  0.092861  0.936602  0.804213  1
  O  O17  1  0.063398  0.907139  0.195787  1
  O  O18  1  0.907139  0.063398  0.195787  1
  O  O19  1  0.769023  0.220371  0.763643  1
  O  O20  1  0.220371  0.769023  0.763643  1
  O  O21  1  0.230977  0.779629  0.236357  1
  O  O22  1  0.779629  0.230977  0.236357  1
  O  O23  1  0.057983  0.404127  0.797017  1
  O  O24  1  0.404127  0.057983  0.797017  1
  O  O25  1  0.942017  0.595873  0.202983  1
  O  O26  1  0.595873  0.942017  0.202983  1
  O  O27  1  0.030719  0.325585  0.492654  1
  O  O28  1  0.325585  0.030719  0.492654  1
  O  O29  1  0.969281  0.674415  0.507346  1
  O  O30  1  0.674415  0.969281  0.507346  1
  O  O31  1  0.407836  0.551167  0.807885  1
  O  O32  1  0.551167  0.407836  0.807885  1
  O  O33  1  0.592164  0.448833  0.192115  1
  O  O34  1  0.448833  0.592164  0.192115  1
  O  O35  1  0.220194  0.220194  0.971416  1
  O  O36  1  0.779806  0.779806  0.028584  1
  O  O37  1  0.351196  0.351196  0.608601  1
  O  O38  1  0.648804  0.648804  0.391399  1
