# generated using pymatgen
data_Li4CaEu2DySi8
_symmetry_space_group_name_H-M   'P 1'
_cell_length_a   3.82923900
_cell_length_b   7.86940303
_cell_length_c   10.51512607
_cell_angle_alpha   89.88317398
_cell_angle_beta   90.00000000
_cell_angle_gamma   90.00000000
_symmetry_Int_Tables_number   1
_chemical_formula_structural   Li4CaEu2DySi8
_chemical_formula_sum   'Li4 Ca1 Eu2 Dy1 Si8'
_cell_volume   316.86031011
_cell_formula_units_Z   1
loop_
 _symmetry_equiv_pos_site_id
 _symmetry_equiv_pos_as_xyz
  1  'x, y, z'
loop_
 _atom_site_type_symbol
 _atom_site_label
 _atom_site_symmetry_multiplicity
 _atom_site_fract_x
 _atom_site_fract_y
 _atom_site_fract_z
 _atom_site_occupancy
  Li  Li0  1  0.250000  0.000628  0.390941  1
  Li  Li1  1  0.750000  0.006693  0.610383  1
  Li  Li2  1  0.250000  0.489762  0.110721  1
  Li  Li3  1  0.750000  0.504066  0.892110  1
  Ca  Ca4  1  0.750000  0.366997  0.363697  1
  Eu  Eu5  1  0.250000  0.132537  0.865259  1
  Eu  Eu6  1  0.250000  0.637090  0.633562  1
  Dy  Dy7  1  0.750000  0.869823  0.133473  1
  Si  Si8  1  0.750000  0.257439  0.069140  1
  Si  Si9  1  0.250000  0.730641  0.938283  1
  Si  Si10  1  0.750000  0.773803  0.424488  1
  Si  Si11  1  0.250000  0.234805  0.568629  1
  Si  Si12  1  0.750000  0.833534  0.828686  1
  Si  Si13  1  0.250000  0.155015  0.177865  1
  Si  Si14  1  0.750000  0.337224  0.676718  1
  Si  Si15  1  0.250000  0.669945  0.316046  1
