# generated using pymatgen
data_RbGd3Te8
_symmetry_space_group_name_H-M   'P 1'
_cell_length_a   13.08134800
_cell_length_b   9.13438389
_cell_length_c   14.17555000
_cell_angle_alpha   80.65778885
_cell_angle_beta   90.00000000
_cell_angle_gamma   90.00000000
_symmetry_Int_Tables_number   1
_chemical_formula_structural   RbGd3Te8
_chemical_formula_sum   'Rb4 Gd12 Te32'
_cell_volume   1671.37084739
_cell_formula_units_Z   4
loop_
 _symmetry_equiv_pos_site_id
 _symmetry_equiv_pos_as_xyz
  1  'x, y, z'
loop_
 _atom_site_type_symbol
 _atom_site_label
 _atom_site_symmetry_multiplicity
 _atom_site_fract_x
 _atom_site_fract_y
 _atom_site_fract_z
 _atom_site_occupancy
  Rb  Rb0  1  0.091911  0.242498  0.036919  1
  Rb  Rb1  1  0.908089  0.757502  0.963081  1
  Rb  Rb2  1  0.591911  0.257502  0.963081  1
  Rb  Rb3  1  0.408089  0.742498  0.036919  1
  Gd  Gd4  1  0.415696  0.401658  0.358199  1
  Gd  Gd5  1  0.584304  0.598342  0.641801  1
  Gd  Gd6  1  0.915696  0.098342  0.641801  1
  Gd  Gd7  1  0.084304  0.901658  0.358199  1
  Gd  Gd8  1  0.085358  0.420705  0.356584  1
  Gd  Gd9  1  0.914642  0.579295  0.643416  1
  Gd  Gd10  1  0.585358  0.079295  0.643416  1
  Gd  Gd11  1  0.414642  0.920705  0.356584  1
  Gd  Gd12  1  0.249513  0.087979  0.648378  1
  Gd  Gd13  1  0.750487  0.912021  0.351622  1
  Gd  Gd14  1  0.749513  0.412021  0.351622  1
  Gd  Gd15  1  0.250487  0.587979  0.648378  1
  Te  Te16  1  0.770298  0.206852  0.173957  1
  Te  Te17  1  0.229702  0.793148  0.826043  1
  Te  Te18  1  0.270298  0.293148  0.826043  1
  Te  Te19  1  0.729702  0.706852  0.173957  1
  Te  Te20  1  0.398992  0.205575  0.181261  1
  Te  Te21  1  0.601008  0.794425  0.818739  1
  Te  Te22  1  0.898992  0.294425  0.818739  1
  Te  Te23  1  0.101008  0.705575  0.181261  1
  Te  Te24  1  0.250374  0.454565  0.186257  1
  Te  Te25  1  0.749626  0.545435  0.813743  1
  Te  Te26  1  0.750374  0.045435  0.813743  1
  Te  Te27  1  0.249626  0.954565  0.186257  1
  Te  Te28  1  0.244453  0.145159  0.420649  1
  Te  Te29  1  0.755547  0.854841  0.579351  1
  Te  Te30  1  0.744453  0.354841  0.579351  1
  Te  Te31  1  0.255547  0.645159  0.420649  1
  Te  Te32  1  0.422270  0.350697  0.586094  1
  Te  Te33  1  0.577730  0.649303  0.413906  1
  Te  Te34  1  0.922270  0.149303  0.413906  1
  Te  Te35  1  0.077730  0.850697  0.586094  1
  Te  Te36  1  0.916295  0.963605  0.181652  1
  Te  Te37  1  0.083705  0.036395  0.818348  1
  Te  Te38  1  0.416295  0.536395  0.818348  1
  Te  Te39  1  0.583705  0.463605  0.181652  1
  Te  Te40  1  0.915904  0.446669  0.181485  1
  Te  Te41  1  0.084096  0.553331  0.818515  1
  Te  Te42  1  0.415904  0.053331  0.818515  1
  Te  Te43  1  0.584096  0.946669  0.181485  1
  Te  Te44  1  0.084856  0.356399  0.585219  1
  Te  Te45  1  0.915144  0.643601  0.414781  1
  Te  Te46  1  0.584856  0.143601  0.414781  1
  Te  Te47  1  0.415144  0.856399  0.585219  1
