# generated using pymatgen
data_Eu3HoSe4
_symmetry_space_group_name_H-M   'P 1'
_cell_length_a   7.38046635
_cell_length_b   7.38046683
_cell_length_c   7.39425150
_cell_angle_alpha   80.44003009
_cell_angle_beta   80.44002792
_cell_angle_gamma   33.39680741
_symmetry_Int_Tables_number   1
_chemical_formula_structural   Eu3HoSe4
_chemical_formula_sum   'Eu3 Ho1 Se4'
_cell_volume   218.34269628
_cell_formula_units_Z   1
loop_
 _symmetry_equiv_pos_site_id
 _symmetry_equiv_pos_as_xyz
  1  'x, y, z'
loop_
 _atom_site_type_symbol
 _atom_site_label
 _atom_site_symmetry_multiplicity
 _atom_site_fract_x
 _atom_site_fract_y
 _atom_site_fract_z
 _atom_site_occupancy
  Eu  Eu0  1  0.246187  0.246187  0.250601  1
  Eu  Eu1  1  0.500000  0.500000  0.500000  1
  Eu  Eu2  1  0.753813  0.753813  0.749399  1
  Ho  Ho3  1  0.000000  0.000000  0.000000  1
  Se  Se4  1  0.618062  0.618062  0.116405  1
  Se  Se5  1  0.877171  0.877171  0.362538  1
  Se  Se6  1  0.122829  0.122829  0.637462  1
  Se  Se7  1  0.381938  0.381938  0.883595  1
