# generated using pymatgen
data_La2Pr2Nd2OsBr10
_symmetry_space_group_name_H-M   'P 1'
_cell_length_a   7.76472303
_cell_length_b   9.47527581
_cell_length_c   9.82216114
_cell_angle_alpha   108.62199210
_cell_angle_beta   97.18801251
_cell_angle_gamma   105.12781661
_symmetry_Int_Tables_number   1
_chemical_formula_structural   La2Pr2Nd2OsBr10
_chemical_formula_sum   'La2 Pr2 Nd2 Os1 Br10'
_cell_volume   643.68739514
_cell_formula_units_Z   1
loop_
 _symmetry_equiv_pos_site_id
 _symmetry_equiv_pos_as_xyz
  1  'x, y, z'
loop_
 _atom_site_type_symbol
 _atom_site_label
 _atom_site_symmetry_multiplicity
 _atom_site_fract_x
 _atom_site_fract_y
 _atom_site_fract_z
 _atom_site_occupancy
  La  La0  1  0.533904  0.215818  0.414023  1
  La  La1  1  0.466096  0.784182  0.585977  1
  Pr  Pr2  1  0.629520  0.550450  0.248494  1
  Pr  Pr3  1  0.370480  0.449550  0.751506  1
  Nd  Nd4  1  0.130406  0.357126  0.313129  1
  Nd  Nd5  1  0.869594  0.642874  0.686871  1
  Os  Os6  1  0.500000  0.500000  0.500000  1
  Br  Br7  1  0.148973  0.045617  0.228324  1
  Br  Br8  1  0.851027  0.954383  0.771676  1
  Br  Br9  1  0.249974  0.415744  0.050615  1
  Br  Br10  1  0.750026  0.584256  0.949385  1
  Br  Br11  1  0.707802  0.246584  0.154111  1
  Br  Br12  1  0.292198  0.753416  0.845889  1
  Br  Br13  1  0.044980  0.672186  0.419694  1
  Br  Br14  1  0.955020  0.327814  0.580306  1
  Br  Br15  1  0.413396  0.132241  0.673091  1
  Br  Br16  1  0.586604  0.867759  0.326909  1
