# generated using pymatgen
data_Dy4Ho4Ti9Si16Mo3
_symmetry_space_group_name_H-M   'P 1'
_cell_length_a   7.00223334
_cell_length_b   7.00229662
_cell_length_c   12.86762590
_cell_angle_alpha   90.04270548
_cell_angle_beta   89.97309118
_cell_angle_gamma   90.00556274
_symmetry_Int_Tables_number   1
_chemical_formula_structural   Dy4Ho4Ti9Si16Mo3
_chemical_formula_sum   'Dy4 Ho4 Ti9 Si16 Mo3'
_cell_volume   630.92151654
_cell_formula_units_Z   1
loop_
 _symmetry_equiv_pos_site_id
 _symmetry_equiv_pos_as_xyz
  1  'x, y, z'
loop_
 _atom_site_type_symbol
 _atom_site_label
 _atom_site_symmetry_multiplicity
 _atom_site_fract_x
 _atom_site_fract_y
 _atom_site_fract_z
 _atom_site_occupancy
  Dy  Dy0  1  0.340233  0.002190  0.466589  1
  Dy  Dy1  1  0.498668  0.841838  0.718256  1
  Dy  Dy2  1  0.500426  0.158485  0.216599  1
  Dy  Dy3  1  0.841920  0.498664  0.281792  1
  Ho  Ho4  1  0.158160  0.499764  0.783445  1
  Ho  Ho5  1  0.659165  0.999960  0.966852  1
  Ho  Ho6  1  0.001739  0.340569  0.533593  1
  Ho  Ho7  1  0.000024  0.659151  0.033024  1
  Ti  Ti8  1  0.673259  0.673028  0.500073  1
  Ti  Ti9  1  0.152168  0.008832  0.876137  1
  Ti  Ti10  1  0.491278  0.652878  0.124961  1
  Ti  Ti11  1  0.507807  0.346624  0.627218  1
  Ti  Ti12  1  0.652751  0.491419  0.874909  1
  Ti  Ti13  1  0.346380  0.507726  0.372974  1
  Ti  Ti14  1  0.848452  0.991515  0.374779  1
  Ti  Ti15  1  0.008803  0.152168  0.123751  1
  Ti  Ti16  1  0.991729  0.848402  0.625383  1
  Si  Si17  1  0.201599  0.130395  0.684203  1
  Si  Si18  1  0.369436  0.700989  0.934227  1
  Si  Si19  1  0.630967  0.297577  0.434578  1
  Si  Si20  1  0.701264  0.369925  0.065523  1
  Si  Si21  1  0.297079  0.630143  0.565711  1
  Si  Si22  1  0.798445  0.869652  0.184291  1
  Si  Si23  1  0.129533  0.202119  0.315843  1
  Si  Si24  1  0.870068  0.798190  0.815722  1
  Si  Si25  1  0.291588  0.952196  0.064708  1
  Si  Si26  1  0.546877  0.790417  0.314907  1
  Si  Si27  1  0.452350  0.209300  0.815531  1
  Si  Si28  1  0.791188  0.546514  0.685048  1
  Si  Si29  1  0.209095  0.452816  0.184444  1
  Si  Si30  1  0.708819  0.048427  0.565785  1
  Si  Si31  1  0.952601  0.291828  0.935057  1
  Si  Si32  1  0.048047  0.708088  0.434338  1
  Mo  Mo33  1  0.327027  0.327244  0.999824  1
  Mo  Mo34  1  0.173908  0.826843  0.249119  1
  Mo  Mo35  1  0.827144  0.174121  0.750808  1
