# generated using pymatgen
data_Yb3Y5(ReC2)4
_symmetry_space_group_name_H-M   'P 1'
_cell_length_a   5.13627800
_cell_length_b   6.56084011
_cell_length_c   10.07329949
_cell_angle_alpha   89.37185087
_cell_angle_beta   90.00000000
_cell_angle_gamma   90.00000000
_symmetry_Int_Tables_number   1
_chemical_formula_structural   Yb3Y5(ReC2)4
_chemical_formula_sum   'Yb3 Y5 Re4 C8'
_cell_volume   339.43265563
_cell_formula_units_Z   1
loop_
 _symmetry_equiv_pos_site_id
 _symmetry_equiv_pos_as_xyz
  1  'x, y, z'
loop_
 _atom_site_type_symbol
 _atom_site_label
 _atom_site_symmetry_multiplicity
 _atom_site_fract_x
 _atom_site_fract_y
 _atom_site_fract_z
 _atom_site_occupancy
  Yb  Yb0  1  0.750000  0.465762  0.775815  1
  Yb  Yb1  1  0.750000  0.965600  0.724638  1
  Yb  Yb2  1  0.250000  0.033713  0.276744  1
  Y  Y3  1  0.250000  0.691391  0.554135  1
  Y  Y4  1  0.750000  0.310703  0.446899  1
  Y  Y5  1  0.750000  0.814630  0.053121  1
  Y  Y6  1  0.250000  0.186324  0.945679  1
  Y  Y7  1  0.250000  0.533084  0.223285  1
  Re  Re8  1  0.250000  0.725126  0.860207  1
  Re  Re9  1  0.750000  0.273248  0.140122  1
  Re  Re10  1  0.750000  0.772103  0.359431  1
  Re  Re11  1  0.250000  0.229498  0.638722  1
  C  C12  1  0.250000  0.460285  0.758936  1
  C  C13  1  0.750000  0.539646  0.239475  1
  C  C14  1  0.750000  0.039810  0.260505  1
  C  C15  1  0.250000  0.961039  0.740538  1
  C  C16  1  0.250000  0.806520  0.041938  1
  C  C17  1  0.750000  0.180754  0.961675  1
  C  C18  1  0.750000  0.688403  0.539998  1
  C  C19  1  0.250000  0.322361  0.458137  1
