# generated using pymatgen
data_Er4Al18Co5Cu
_symmetry_space_group_name_H-M   'P 1'
_cell_length_a   7.38640159
_cell_length_b   7.38640117
_cell_length_c   9.25432191
_cell_angle_alpha   89.93114085
_cell_angle_beta   89.93113542
_cell_angle_gamma   119.28917480
_symmetry_Int_Tables_number   1
_chemical_formula_structural   Er4Al18Co5Cu
_chemical_formula_sum   'Er4 Al18 Co5 Cu1'
_cell_volume   440.35831637
_cell_formula_units_Z   1
loop_
 _symmetry_equiv_pos_site_id
 _symmetry_equiv_pos_as_xyz
  1  'x, y, z'
loop_
 _atom_site_type_symbol
 _atom_site_label
 _atom_site_symmetry_multiplicity
 _atom_site_fract_x
 _atom_site_fract_y
 _atom_site_fract_z
 _atom_site_occupancy
  Er  Er0  1  0.994400  0.674712  0.250599  1
  Er  Er1  1  0.005600  0.325288  0.749401  1
  Er  Er2  1  0.674712  0.994400  0.250599  1
  Er  Er3  1  0.325288  0.005600  0.749401  1
  Al  Al4  1  0.130069  0.130069  0.257036  1
  Al  Al5  1  0.869931  0.869931  0.742964  1
  Al  Al6  1  0.331540  0.331540  0.542718  1
  Al  Al7  1  0.661935  0.661935  0.046979  1
  Al  Al8  1  0.338065  0.338065  0.953021  1
  Al  Al9  1  0.668460  0.668460  0.457282  1
  Al  Al10  1  0.339711  0.556376  0.251243  1
  Al  Al11  1  0.660289  0.443624  0.748757  1
  Al  Al12  1  0.556376  0.339711  0.251243  1
  Al  Al13  1  0.443624  0.660289  0.748757  1
  Al  Al14  1  0.998924  0.342775  0.074496  1
  Al  Al15  1  0.003607  0.664550  0.570187  1
  Al  Al16  1  0.335450  0.996393  0.429813  1
  Al  Al17  1  0.657225  0.001076  0.925504  1
  Al  Al18  1  0.001076  0.657225  0.925504  1
  Al  Al19  1  0.996393  0.335450  0.429813  1
  Al  Al20  1  0.664550  0.003607  0.570187  1
  Al  Al21  1  0.342775  0.998924  0.074496  1
  Co  Co22  1  0.000000  0.000000  0.500000  1
  Co  Co23  1  0.671258  0.328742  0.000000  1
  Co  Co24  1  0.328770  0.671230  0.500000  1
  Co  Co25  1  0.328742  0.671258  0.000000  1
  Co  Co26  1  0.671230  0.328770  0.500000  1
  Cu  Cu27  1  0.000000  0.000000  0.000000  1
