# generated using pymatgen
data_CaLa6RuI12
_symmetry_space_group_name_H-M   'P 1'
_cell_length_a   10.18905642
_cell_length_b   10.18905649
_cell_length_c   10.18905630
_cell_angle_alpha   107.13634591
_cell_angle_beta   107.13634417
_cell_angle_gamma   107.13634250
_symmetry_Int_Tables_number   1
_chemical_formula_structural   CaLa6RuI12
_chemical_formula_sum   'Ca1 La6 Ru1 I12'
_cell_volume   877.64547236
_cell_formula_units_Z   1
loop_
 _symmetry_equiv_pos_site_id
 _symmetry_equiv_pos_as_xyz
  1  'x, y, z'
loop_
 _atom_site_type_symbol
 _atom_site_label
 _atom_site_symmetry_multiplicity
 _atom_site_fract_x
 _atom_site_fract_y
 _atom_site_fract_z
 _atom_site_occupancy
  Ca  Ca0  1  0.500000  0.500000  0.500000  1
  La  La1  1  0.306590  0.096038  0.031188  1
  La  La2  1  0.031188  0.306590  0.096038  1
  La  La3  1  0.096038  0.031187  0.306590  1
  La  La4  1  0.903962  0.968813  0.693411  1
  La  La5  1  0.968812  0.693411  0.903963  1
  La  La6  1  0.693411  0.903962  0.968813  1
  Ru  Ru7  1  0.000000  0.000000  0.000000  1
  I  I8  1  0.686167  0.232608  0.075276  1
  I  I9  1  0.391914  0.460105  0.162080  1
  I  I10  1  0.075276  0.686166  0.232609  1
  I  I11  1  0.767392  0.924725  0.313833  1
  I  I12  1  0.460105  0.162080  0.391914  1
  I  I13  1  0.162080  0.391914  0.460105  1
  I  I14  1  0.837920  0.608087  0.539895  1
  I  I15  1  0.539895  0.837921  0.608086  1
  I  I16  1  0.232609  0.075276  0.686167  1
  I  I17  1  0.924724  0.313834  0.767392  1
  I  I18  1  0.608087  0.539895  0.837920  1
  I  I19  1  0.313834  0.767392  0.924724  1
