# generated using pymatgen
data_Na(YbCo)2
_symmetry_space_group_name_H-M   'P 1'
_cell_length_a   3.92133600
_cell_length_b   3.92133585
_cell_length_c   19.57960300
_cell_angle_alpha   90.00000000
_cell_angle_beta   90.00000000
_cell_angle_gamma   119.99998437
_symmetry_Int_Tables_number   1
_chemical_formula_structural   Na(YbCo)2
_chemical_formula_sum   'Na2 Yb4 Co4'
_cell_volume   260.73700847
_cell_formula_units_Z   2
loop_
 _symmetry_equiv_pos_site_id
 _symmetry_equiv_pos_as_xyz
  1  'x, y, z'
loop_
 _atom_site_type_symbol
 _atom_site_label
 _atom_site_symmetry_multiplicity
 _atom_site_fract_x
 _atom_site_fract_y
 _atom_site_fract_z
 _atom_site_occupancy
  Na  Na0  1  0.333333  0.666667  0.249984  1
  Na  Na1  1  0.666667  0.333333  0.750016  1
  Yb  Yb2  1  0.000000  0.000000  0.092981  1
  Yb  Yb3  1  0.000000  0.000000  0.907019  1
  Yb  Yb4  1  0.000000  0.000000  0.593178  1
  Yb  Yb5  1  0.000000  0.000000  0.406822  1
  Co  Co6  1  0.333333  0.666667  0.499774  1
  Co  Co7  1  0.666667  0.333333  0.500226  1
  Co  Co8  1  0.666667  0.333333  0.999775  1
  Co  Co9  1  0.333333  0.666667  0.000225  1
