# generated using pymatgen
data_Ho2Co4B4Ru
_symmetry_space_group_name_H-M   'P 1'
_cell_length_a   7.17339946
_cell_length_b   5.89523778
_cell_length_c   5.46041400
_cell_angle_alpha   78.24848658
_cell_angle_beta   53.57107514
_cell_angle_gamma   48.18042956
_symmetry_Int_Tables_number   1
_chemical_formula_structural   Ho2Co4B4Ru
_chemical_formula_sum   'Ho2 Co4 B4 Ru1'
_cell_volume   131.14920133
_cell_formula_units_Z   1
loop_
 _symmetry_equiv_pos_site_id
 _symmetry_equiv_pos_as_xyz
  1  'x, y, z'
loop_
 _atom_site_type_symbol
 _atom_site_label
 _atom_site_symmetry_multiplicity
 _atom_site_fract_x
 _atom_site_fract_y
 _atom_site_fract_z
 _atom_site_occupancy
  Ho  Ho0  1  0.851814  0.851812  0.148187  1
  Ho  Ho1  1  0.148187  0.148186  0.851814  1
  Co  Co2  1  0.499999  0.500001  0.000000  1
  Co  Co3  1  0.249999  0.250001  0.250000  1
  Co  Co4  1  0.000000  0.000000  0.500001  1
  Co  Co5  1  0.750000  0.750001  0.750000  1
  B  B6  1  0.467803  0.796910  0.203089  1
  B  B7  1  0.203089  0.532197  0.467802  1
  B  B8  1  0.796912  0.467801  0.532198  1
  B  B9  1  0.532198  0.203088  0.796912  1
  Ru  Ru10  1  0.500001  0.499999  0.500000  1
