# generated using pymatgen
data_TbHo2Pa(InNi2)2
_symmetry_space_group_name_H-M   'P 1'
_cell_length_a   7.43448026
_cell_length_b   7.43448057
_cell_length_c   3.58464000
_cell_angle_alpha   90.00000000
_cell_angle_beta   90.00000000
_cell_angle_gamma   92.26484854
_symmetry_Int_Tables_number   1
_chemical_formula_structural   TbHo2Pa(InNi2)2
_chemical_formula_sum   'Tb1 Ho2 Pa1 In2 Ni4'
_cell_volume   197.97365405
_cell_formula_units_Z   1
loop_
 _symmetry_equiv_pos_site_id
 _symmetry_equiv_pos_as_xyz
  1  'x, y, z'
loop_
 _atom_site_type_symbol
 _atom_site_label
 _atom_site_symmetry_multiplicity
 _atom_site_fract_x
 _atom_site_fract_y
 _atom_site_fract_z
 _atom_site_occupancy
  Tb  Tb0  1  0.323867  0.823867  0.500000  1
  Ho  Ho1  1  0.174837  0.329355  0.500000  1
  Ho  Ho2  1  0.829355  0.674837  0.500000  1
  Pa  Pa3  1  0.671107  0.171107  0.500000  1
  In  In4  1  0.500126  0.505101  0.000000  1
  In  In5  1  0.005101  0.000126  0.000000  1
  Ni  Ni6  1  0.109993  0.609993  0.000000  1
  Ni  Ni7  1  0.859521  0.359521  0.000000  1
  Ni  Ni8  1  0.630873  0.895221  0.000000  1
  Ni  Ni9  1  0.395221  0.130873  0.000000  1
