# generated using pymatgen
data_Dy4MgFe10(P4Rh3)3
_symmetry_space_group_name_H-M   'P 1'
_cell_length_a   3.78915900
_cell_length_b   10.45871249
_cell_length_c   12.31238057
_cell_angle_alpha   90.14446074
_cell_angle_beta   90.00000000
_cell_angle_gamma   90.00000000
_symmetry_Int_Tables_number   1
_chemical_formula_structural   Dy4MgFe10(P4Rh3)3
_chemical_formula_sum   'Dy4 Mg1 Fe10 P12 Rh9'
_cell_volume   487.93469996
_cell_formula_units_Z   1
loop_
 _symmetry_equiv_pos_site_id
 _symmetry_equiv_pos_as_xyz
  1  'x, y, z'
loop_
 _atom_site_type_symbol
 _atom_site_label
 _atom_site_symmetry_multiplicity
 _atom_site_fract_x
 _atom_site_fract_y
 _atom_site_fract_z
 _atom_site_occupancy
  Dy  Dy0  1  0.250000  0.584113  0.710424  1
  Dy  Dy1  1  0.250000  0.917601  0.212877  1
  Dy  Dy2  1  0.750000  0.423968  0.288838  1
  Dy  Dy3  1  0.750000  0.075860  0.789792  1
  Mg  Mg4  1  0.750000  0.296081  0.011083  1
  Fe  Fe5  1  0.750000  0.775218  0.829524  1
  Fe  Fe6  1  0.750000  0.725680  0.329577  1
  Fe  Fe7  1  0.250000  0.873406  0.696940  1
  Fe  Fe8  1  0.250000  0.627382  0.196919  1
  Fe  Fe9  1  0.750000  0.117884  0.306003  1
  Fe  Fe10  1  0.750000  0.377123  0.799990  1
  Fe  Fe11  1  0.250000  0.464997  0.930248  1
  Fe  Fe12  1  0.250000  0.039830  0.437557  1
  Fe  Fe13  1  0.750000  0.544663  0.064701  1
  Fe  Fe14  1  0.750000  0.957859  0.565062  1
  P  P15  1  0.250000  0.440429  0.110577  1
  P  P16  1  0.250000  0.059780  0.612792  1
  P  P17  1  0.750000  0.568902  0.886870  1
  P  P18  1  0.750000  0.929400  0.388468  1
  P  P19  1  0.250000  0.272352  0.858377  1
  P  P20  1  0.250000  0.226780  0.362981  1
  P  P21  1  0.750000  0.726863  0.147620  1
  P  P22  1  0.750000  0.773944  0.647876  1
  P  P23  1  0.250000  0.609977  0.376216  1
  P  P24  1  0.250000  0.889248  0.877645  1
  P  P25  1  0.750000  0.402331  0.616664  1
  P  P26  1  0.750000  0.092828  0.123154  1
  Rh  Rh27  1  0.250000  0.707977  0.986283  1
  Rh  Rh28  1  0.250000  0.792728  0.484669  1
  Rh  Rh29  1  0.750000  0.211773  0.509012  1
  Rh  Rh30  1  0.250000  0.412534  0.476510  1
  Rh  Rh31  1  0.250000  0.087174  0.976147  1
  Rh  Rh32  1  0.750000  0.599823  0.520578  1
  Rh  Rh33  1  0.750000  0.897869  0.023474  1
  Rh  Rh34  1  0.250000  0.224010  0.174971  1
  Rh  Rh35  1  0.250000  0.271614  0.669582  1
