# generated using pymatgen
data_TbFe3P12Rh
_symmetry_space_group_name_H-M   'P 1'
_cell_length_a   6.81641468
_cell_length_b   6.81641324
_cell_length_c   6.80224900
_cell_angle_alpha   109.42912962
_cell_angle_beta   109.42912536
_cell_angle_gamma   109.51328317
_symmetry_Int_Tables_number   1
_chemical_formula_structural   TbFe3P12Rh
_chemical_formula_sum   'Tb1 Fe3 P12 Rh1'
_cell_volume   243.42651621
_cell_formula_units_Z   1
loop_
 _symmetry_equiv_pos_site_id
 _symmetry_equiv_pos_as_xyz
  1  'x, y, z'
loop_
 _atom_site_type_symbol
 _atom_site_label
 _atom_site_symmetry_multiplicity
 _atom_site_fract_x
 _atom_site_fract_y
 _atom_site_fract_z
 _atom_site_occupancy
  Tb  Tb0  1  0.000000  0.000000  0.000000  1
  Fe  Fe1  1  0.500000  0.000000  0.000000  1
  Fe  Fe2  1  0.500000  0.500000  0.500000  1
  Fe  Fe3  1  0.000000  0.500000  0.000000  1
  P  P4  1  0.155693  0.790977  0.655937  1
  P  P5  1  0.149818  0.499126  0.348538  1
  P  P6  1  0.850182  0.500874  0.651462  1
  P  P7  1  0.364715  0.155693  0.499757  1
  P  P8  1  0.790977  0.635285  0.135041  1
  P  P9  1  0.844307  0.209023  0.344063  1
  P  P10  1  0.650692  0.149818  0.801279  1
  P  P11  1  0.500874  0.650692  0.849412  1
  P  P12  1  0.635285  0.844307  0.500243  1
  P  P13  1  0.499126  0.349308  0.150588  1
  P  P14  1  0.349308  0.850182  0.198721  1
  P  P15  1  0.209023  0.364715  0.864959  1
  Rh  Rh16  1  0.000000  0.000000  0.500000  1
