# generated using pymatgen
data_Y7Sn23Os5Pt
_symmetry_space_group_name_H-M   'P 1'
_cell_length_a   9.88695746
_cell_length_b   9.88695787
_cell_length_c   10.15433887
_cell_angle_alpha   89.86886249
_cell_angle_beta   90.13113603
_cell_angle_gamma   120.05147717
_symmetry_Int_Tables_number   1
_chemical_formula_structural   Y7Sn23Os5Pt
_chemical_formula_sum   'Y7 Sn23 Os5 Pt1'
_cell_volume   859.17297366
_cell_formula_units_Z   1
loop_
 _symmetry_equiv_pos_site_id
 _symmetry_equiv_pos_as_xyz
  1  'x, y, z'
loop_
 _atom_site_type_symbol
 _atom_site_label
 _atom_site_symmetry_multiplicity
 _atom_site_fract_x
 _atom_site_fract_y
 _atom_site_fract_z
 _atom_site_occupancy
  Y  Y0  1  0.997165  0.002835  0.003575  1
  Y  Y1  1  0.031877  0.514698  0.303937  1
  Y  Y2  1  0.485302  0.968123  0.303937  1
  Y  Y3  1  0.483339  0.516661  0.303601  1
  Y  Y4  1  0.965257  0.480204  0.694762  1
  Y  Y5  1  0.519796  0.034743  0.694762  1
  Y  Y6  1  0.516865  0.483135  0.696207  1
  Sn  Sn7  1  0.000442  0.999558  0.501375  1
  Sn  Sn8  1  0.116707  0.883293  0.275940  1
  Sn  Sn9  1  0.765904  0.883435  0.275838  1
  Sn  Sn10  1  0.116565  0.234096  0.275838  1
  Sn  Sn11  1  0.882586  0.117414  0.724477  1
  Sn  Sn12  1  0.235773  0.120736  0.720870  1
  Sn  Sn13  1  0.879264  0.764227  0.720870  1
  Sn  Sn14  1  0.354979  0.004432  0.002071  1
  Sn  Sn15  1  0.649827  0.650356  0.000402  1
  Sn  Sn16  1  0.999990  0.349435  0.000183  1
  Sn  Sn17  1  0.349644  0.350173  0.000402  1
  Sn  Sn18  1  0.995568  0.645021  0.002071  1
  Sn  Sn19  1  0.650565  0.000010  0.000183  1
  Sn  Sn20  1  0.780142  0.559780  0.459629  1
  Sn  Sn21  1  0.780208  0.219792  0.459649  1
  Sn  Sn22  1  0.440220  0.219858  0.459629  1
  Sn  Sn23  1  0.219953  0.439940  0.539642  1
  Sn  Sn24  1  0.221343  0.778657  0.536902  1
  Sn  Sn25  1  0.560060  0.780047  0.539642  1
  Sn  Sn26  1  0.666387  0.333613  0.176170  1
  Sn  Sn27  1  0.336664  0.663336  0.825211  1
  Sn  Sn28  1  0.666430  0.333570  0.874071  1
  Sn  Sn29  1  0.333046  0.666954  0.124845  1
  Os  Os30  1  0.659986  0.831273  0.799912  1
  Os  Os31  1  0.168727  0.340014  0.799912  1
  Os  Os32  1  0.830505  0.169495  0.199888  1
  Os  Os33  1  0.338241  0.170024  0.201413  1
  Os  Os34  1  0.829976  0.661759  0.201413  1
  Pt  Pt35  1  0.170698  0.829302  0.800770  1
