# generated using pymatgen
data_Sr7Ca3Al3InSb12
_symmetry_space_group_name_H-M   'P 1'
_cell_length_a   4.64193400
_cell_length_b   12.56868463
_cell_length_c   14.48963100
_cell_angle_alpha   90.24625963
_cell_angle_beta   90.00000000
_cell_angle_gamma   90.00000000
_symmetry_Int_Tables_number   1
_chemical_formula_structural   Sr7Ca3Al3InSb12
_chemical_formula_sum   'Sr7 Ca3 Al3 In1 Sb12'
_cell_volume   845.36079862
_cell_formula_units_Z   1
loop_
 _symmetry_equiv_pos_site_id
 _symmetry_equiv_pos_as_xyz
  1  'x, y, z'
loop_
 _atom_site_type_symbol
 _atom_site_label
 _atom_site_symmetry_multiplicity
 _atom_site_fract_x
 _atom_site_fract_y
 _atom_site_fract_z
 _atom_site_occupancy
  Sr  Sr0  1  0.500000  0.092143  0.747524  1
  Sr  Sr1  1  0.500000  0.409565  0.248655  1
  Sr  Sr2  1  0.500000  0.331131  0.521195  1
  Sr  Sr3  1  0.500000  0.910966  0.251289  1
  Sr  Sr4  1  0.500000  0.174630  0.013143  1
  Sr  Sr5  1  0.500000  0.823716  0.978909  1
  Sr  Sr6  1  0.500000  0.672867  0.485588  1
  Ca  Ca7  1  0.500000  0.502026  0.997172  1
  Ca  Ca8  1  0.500000  0.996391  0.502601  1
  Ca  Ca9  1  0.500000  0.591970  0.750754  1
  Al  Al10  1  0.000000  0.823154  0.788319  1
  Al  Al11  1  0.000000  0.674717  0.290541  1
  Al  Al12  1  0.000000  0.325342  0.709595  1
  In  In13  1  0.000000  0.173380  0.214066  1
  Sb  Sb14  1  0.000000  0.847038  0.407993  1
  Sb  Sb15  1  0.000000  0.153087  0.591482  1
  Sb  Sb16  1  0.000000  0.647730  0.898761  1
  Sb  Sb17  1  0.000000  0.353170  0.086708  1
  Sb  Sb18  1  0.500000  0.344889  0.814109  1
  Sb  Sb19  1  0.500000  0.660231  0.183277  1
  Sb  Sb20  1  0.500000  0.835135  0.683594  1
  Sb  Sb21  1  0.500000  0.161766  0.331458  1
  Sb  Sb22  1  0.000000  0.518245  0.605424  1
  Sb  Sb23  1  0.000000  0.487184  0.404309  1
  Sb  Sb24  1  0.000000  0.013798  0.898583  1
  Sb  Sb25  1  0.000000  0.975729  0.094951  1
