# generated using pymatgen
data_La7Ce(DyRu2)2
_symmetry_space_group_name_H-M   'P 1'
_cell_length_a   9.08322681
_cell_length_b   9.08951466
_cell_length_c   7.22228921
_cell_angle_alpha   84.74085262
_cell_angle_beta   85.77770914
_cell_angle_gamma   42.60657972
_symmetry_Int_Tables_number   1
_chemical_formula_structural   La7Ce(DyRu2)2
_chemical_formula_sum   'La7 Ce1 Dy2 Ru4'
_cell_volume   401.94701126
_cell_formula_units_Z   1
loop_
 _symmetry_equiv_pos_site_id
 _symmetry_equiv_pos_as_xyz
  1  'x, y, z'
loop_
 _atom_site_type_symbol
 _atom_site_label
 _atom_site_symmetry_multiplicity
 _atom_site_fract_x
 _atom_site_fract_y
 _atom_site_fract_z
 _atom_site_occupancy
  La  La0  1  0.019226  0.798139  0.911309  1
  La  La1  1  0.215631  0.357277  0.313923  1
  La  La2  1  0.638744  0.789732  0.187834  1
  La  La3  1  0.793222  0.634818  0.682689  1
  La  La4  1  0.363613  0.211726  0.813517  1
  La  La5  1  0.974394  0.204680  0.093059  1
  La  La6  1  0.799803  0.021694  0.411232  1
  Ce  Ce7  1  0.193290  0.990977  0.603472  1
  Dy  Dy8  1  0.566615  0.432163  0.748779  1
  Dy  Dy9  1  0.426904  0.574517  0.254283  1
  Ru  Ru10  1  0.179349  0.600707  0.575243  1
  Ru  Ru11  1  0.378222  0.835965  0.893580  1
  Ru  Ru12  1  0.849598  0.367353  0.431970  1
  Ru  Ru13  1  0.601388  0.180254  0.079110  1
