# generated using pymatgen
data_Sc8Ti7Ge16W5
_symmetry_space_group_name_H-M   'P 1'
_cell_length_a   6.76419692
_cell_length_b   6.92104225
_cell_length_c   13.11062917
_cell_angle_alpha   89.94573221
_cell_angle_beta   90.08984708
_cell_angle_gamma   89.95824715
_symmetry_Int_Tables_number   1
_chemical_formula_structural   Sc8Ti7Ge16W5
_chemical_formula_sum   'Sc8 Ti7 Ge16 W5'
_cell_volume   613.77674848
_cell_formula_units_Z   1
loop_
 _symmetry_equiv_pos_site_id
 _symmetry_equiv_pos_as_xyz
  1  'x, y, z'
loop_
 _atom_site_type_symbol
 _atom_site_label
 _atom_site_symmetry_multiplicity
 _atom_site_fract_x
 _atom_site_fract_y
 _atom_site_fract_z
 _atom_site_occupancy
  Sc  Sc0  1  0.489833  0.672377  0.594092  1
  Sc  Sc1  1  0.993616  0.824054  0.905344  1
  Sc  Sc2  1  0.506542  0.323444  0.094957  1
  Sc  Sc3  1  0.007583  0.177125  0.408327  1
  Sc  Sc4  1  0.507112  0.323982  0.405523  1
  Sc  Sc5  1  0.005893  0.175427  0.094256  1
  Sc  Sc6  1  0.493290  0.675666  0.906354  1
  Sc  Sc7  1  0.993112  0.821925  0.593963  1
  Ti  Ti8  1  0.658331  0.168913  0.626263  1
  Ti  Ti9  1  0.163345  0.332970  0.872463  1
  Ti  Ti10  1  0.338486  0.832689  0.126853  1
  Ti  Ti11  1  0.839487  0.667900  0.372936  1
  Ti  Ti12  1  0.339163  0.832896  0.373855  1
  Ti  Ti13  1  0.839362  0.666808  0.127079  1
  Ti  Ti14  1  0.661228  0.167215  0.871983  1
  Ge  Ge15  1  0.680594  0.962485  0.458739  1
  Ge  Ge16  1  0.179881  0.537768  0.041411  1
  Ge  Ge17  1  0.319778  0.038705  0.958516  1
  Ge  Ge18  1  0.821502  0.462706  0.540833  1
  Ge  Ge19  1  0.317951  0.037158  0.540933  1
  Ge  Ge20  1  0.821326  0.461958  0.957933  1
  Ge  Ge21  1  0.678871  0.961762  0.041794  1
  Ge  Ge22  1  0.181657  0.539968  0.458748  1
  Ge  Ge23  1  0.464547  0.385410  0.751254  1
  Ge  Ge24  1  0.962197  0.115541  0.750166  1
  Ge  Ge25  1  0.536675  0.616669  0.250193  1
  Ge  Ge26  1  0.037308  0.883371  0.250084  1
  Ge  Ge27  1  0.692567  0.851467  0.749054  1
  Ge  Ge28  1  0.193649  0.649703  0.751195  1
  Ge  Ge29  1  0.305254  0.147682  0.250565  1
  Ge  Ge30  1  0.806444  0.351287  0.250006  1
  W  W31  1  0.162792  0.334149  0.627275  1
  W  W32  1  0.837088  0.487475  0.748104  1
  W  W33  1  0.335423  0.013435  0.748594  1
  W  W34  1  0.164362  0.509453  0.250177  1
  W  W35  1  0.663750  0.988457  0.250183  1
