# generated using pymatgen
data_Ta5Be4Os
_symmetry_space_group_name_H-M   'P 1'
_cell_length_a   6.43562800
_cell_length_b   6.43562800
_cell_length_c   3.28385200
_cell_angle_alpha   90.00000000
_cell_angle_beta   90.00000000
_cell_angle_gamma   90.00000000
_symmetry_Int_Tables_number   1
_chemical_formula_structural   Ta5Be4Os
_chemical_formula_sum   'Ta5 Be4 Os1'
_cell_volume   136.00830890
_cell_formula_units_Z   1
loop_
 _symmetry_equiv_pos_site_id
 _symmetry_equiv_pos_as_xyz
  1  'x, y, z'
loop_
 _atom_site_type_symbol
 _atom_site_label
 _atom_site_symmetry_multiplicity
 _atom_site_fract_x
 _atom_site_fract_y
 _atom_site_fract_z
 _atom_site_occupancy
  Ta  Ta0  1  0.000000  0.000000  0.000000  1
  Ta  Ta1  1  0.672943  0.182022  0.500000  1
  Ta  Ta2  1  0.327057  0.817978  0.500000  1
  Ta  Ta3  1  0.182022  0.327057  0.500000  1
  Ta  Ta4  1  0.817978  0.672943  0.500000  1
  Be  Be5  1  0.119342  0.615659  0.000000  1
  Be  Be6  1  0.880658  0.384341  0.000000  1
  Be  Be7  1  0.615659  0.880658  0.000000  1
  Be  Be8  1  0.384341  0.119342  0.000000  1
  Os  Os9  1  0.500000  0.500000  0.000000  1
