# generated using pymatgen
data_Er2Sc8(SiAs)3
_symmetry_space_group_name_H-M   'P 1'
_cell_length_a   8.06269743
_cell_length_b   7.97066396
_cell_length_c   5.84061500
_cell_angle_alpha   90.00000000
_cell_angle_beta   90.00000000
_cell_angle_gamma   119.65884098
_symmetry_Int_Tables_number   1
_chemical_formula_structural   Er2Sc8(SiAs)3
_chemical_formula_sum   'Er2 Sc8 Si3 As3'
_cell_volume   326.17211163
_cell_formula_units_Z   1
loop_
 _symmetry_equiv_pos_site_id
 _symmetry_equiv_pos_as_xyz
  1  'x, y, z'
loop_
 _atom_site_type_symbol
 _atom_site_label
 _atom_site_symmetry_multiplicity
 _atom_site_fract_x
 _atom_site_fract_y
 _atom_site_fract_z
 _atom_site_occupancy
  Er  Er0  1  0.997245  0.757585  0.750000  1
  Er  Er1  1  0.997355  0.238057  0.250000  1
  Sc  Sc2  1  0.750347  0.755045  0.250000  1
  Sc  Sc3  1  0.753395  0.998576  0.750000  1
  Sc  Sc4  1  0.247532  0.249506  0.750000  1
  Sc  Sc5  1  0.250889  0.001416  0.250000  1
  Sc  Sc6  1  0.335286  0.666853  0.501020  1
  Sc  Sc7  1  0.667236  0.333063  0.998963  1
  Sc  Sc8  1  0.667236  0.333063  0.501037  1
  Sc  Sc9  1  0.335286  0.666853  0.998980  1
  Si  Si10  1  0.000649  0.387963  0.750000  1
  Si  Si11  1  0.601729  0.605228  0.750000  1
  Si  Si12  1  0.600723  0.995791  0.250000  1
  As  As13  1  0.396731  0.004113  0.750000  1
  As  As14  1  0.397636  0.392677  0.250000  1
  As  As15  1  0.000720  0.614210  0.250000  1
