# generated using pymatgen
data_Tb2Y6Cd2NiIr
_symmetry_space_group_name_H-M   'P 1'
_cell_length_a   9.62874894
_cell_length_b   9.62874909
_cell_length_c   9.67675100
_cell_angle_alpha   59.83495457
_cell_angle_beta   59.83495406
_cell_angle_gamma   59.62619602
_symmetry_Int_Tables_number   1
_chemical_formula_structural   Tb2Y6Cd2NiIr
_chemical_formula_sum   'Tb4 Y12 Cd4 Ni2 Ir2'
_cell_volume   631.00173405
_cell_formula_units_Z   2
loop_
 _symmetry_equiv_pos_site_id
 _symmetry_equiv_pos_as_xyz
  1  'x, y, z'
loop_
 _atom_site_type_symbol
 _atom_site_label
 _atom_site_symmetry_multiplicity
 _atom_site_fract_x
 _atom_site_fract_y
 _atom_site_fract_z
 _atom_site_occupancy
  Tb  Tb0  1  0.600366  0.600366  0.595070  1
  Tb  Tb1  1  0.600366  0.600366  0.204198  1
  Tb  Tb2  1  0.602960  0.202119  0.597461  1
  Tb  Tb3  1  0.202119  0.602960  0.597461  1
  Y  Y4  1  0.059067  0.437751  0.440854  1
  Y  Y5  1  0.437751  0.059067  0.062328  1
  Y  Y6  1  0.437751  0.059067  0.440854  1
  Y  Y7  1  0.059067  0.437751  0.062328  1
  Y  Y8  1  0.439433  0.439433  0.060567  1
  Y  Y9  1  0.060793  0.060793  0.439207  1
  Y  Y10  1  0.187540  0.810905  0.815721  1
  Y  Y11  1  0.810905  0.187540  0.185833  1
  Y  Y12  1  0.810905  0.187540  0.815721  1
  Y  Y13  1  0.187540  0.810905  0.185833  1
  Y  Y14  1  0.815452  0.815452  0.184548  1
  Y  Y15  1  0.189008  0.189008  0.810992  1
  Cd  Cd16  1  0.829870  0.829870  0.832640  1
  Cd  Cd17  1  0.829870  0.829870  0.507617  1
  Cd  Cd18  1  0.830072  0.506174  0.831877  1
  Cd  Cd19  1  0.506174  0.830072  0.831877  1
  Ni  Ni20  1  0.392346  0.823970  0.391842  1
  Ni  Ni21  1  0.823970  0.392346  0.391842  1
  Ir  Ir22  1  0.393337  0.393337  0.391543  1
  Ir  Ir23  1  0.393337  0.393337  0.821784  1
