# generated using pymatgen
data_Na3AuSe13
_symmetry_space_group_name_H-M   'P 1'
_cell_length_a   4.55245100
_cell_length_b   13.86626531
_cell_length_c   15.02614199
_cell_angle_alpha   87.42107582
_cell_angle_beta   90.00000000
_cell_angle_gamma   90.00000000
_symmetry_Int_Tables_number   1
_chemical_formula_structural   Na3AuSe13
_chemical_formula_sum   'Na6 Au2 Se26'
_cell_volume   947.57194165
_cell_formula_units_Z   2
loop_
 _symmetry_equiv_pos_site_id
 _symmetry_equiv_pos_as_xyz
  1  'x, y, z'
loop_
 _atom_site_type_symbol
 _atom_site_label
 _atom_site_symmetry_multiplicity
 _atom_site_fract_x
 _atom_site_fract_y
 _atom_site_fract_z
 _atom_site_occupancy
  Na  Na0  1  0.127321  0.173088  0.737114  1
  Na  Na1  1  0.127321  0.326912  0.262886  1
  Na  Na2  1  0.098336  0.250000  0.000000  1
  Na  Na3  1  0.901664  0.750000  0.000000  1
  Na  Na4  1  0.872679  0.826912  0.262886  1
  Na  Na5  1  0.872679  0.673088  0.737114  1
  Au  Au6  1  0.000000  0.500000  0.500000  1
  Au  Au7  1  0.000000  0.000000  0.500000  1
  Se  Se8  1  0.315554  0.566061  0.622879  1
  Se  Se9  1  0.636776  0.564407  0.267235  1
  Se  Se10  1  0.363224  0.064407  0.267235  1
  Se  Se11  1  0.363224  0.435593  0.732765  1
  Se  Se12  1  0.956575  0.517213  0.150024  1
  Se  Se13  1  0.956575  0.982787  0.849976  1
  Se  Se14  1  0.043425  0.482787  0.849976  1
  Se  Se15  1  0.043425  0.017213  0.150024  1
  Se  Se16  1  0.661976  0.415823  0.061046  1
  Se  Se17  1  0.636776  0.935593  0.732765  1
  Se  Se18  1  0.338024  0.584177  0.938954  1
  Se  Se19  1  0.338024  0.915823  0.061046  1
  Se  Se20  1  0.608680  0.265456  0.143072  1
  Se  Se21  1  0.608680  0.234544  0.856928  1
  Se  Se22  1  0.391320  0.734544  0.856928  1
  Se  Se23  1  0.391320  0.765456  0.143072  1
  Se  Se24  1  0.077017  0.656388  0.409003  1
  Se  Se25  1  0.077017  0.843612  0.590997  1
  Se  Se26  1  0.922983  0.343612  0.590997  1
  Se  Se27  1  0.922983  0.156388  0.409003  1
  Se  Se28  1  0.609742  0.250000  0.500000  1
  Se  Se29  1  0.390258  0.750000  0.500000  1
  Se  Se30  1  0.684446  0.433939  0.377121  1
  Se  Se31  1  0.684446  0.066061  0.622879  1
  Se  Se32  1  0.661976  0.084177  0.938954  1
  Se  Se33  1  0.315554  0.933939  0.377121  1
