# generated using pymatgen
data_Er15Tm(AlRh)4
_symmetry_space_group_name_H-M   'P 1'
_cell_length_a   9.46051157
_cell_length_b   9.46804337
_cell_length_c   9.46051100
_cell_angle_alpha   59.97365783
_cell_angle_beta   59.93970559
_cell_angle_gamma   59.97365835
_symmetry_Int_Tables_number   1
_chemical_formula_structural   Er15Tm(AlRh)4
_chemical_formula_sum   'Er15 Tm1 Al4 Rh4'
_cell_volume   598.69177867
_cell_formula_units_Z   1
loop_
 _symmetry_equiv_pos_site_id
 _symmetry_equiv_pos_as_xyz
  1  'x, y, z'
loop_
 _atom_site_type_symbol
 _atom_site_label
 _atom_site_symmetry_multiplicity
 _atom_site_fract_x
 _atom_site_fract_y
 _atom_site_fract_z
 _atom_site_occupancy
  Er  Er0  1  0.563336  0.563098  0.936657  1
  Er  Er1  1  0.146997  0.557267  0.146997  1
  Er  Er2  1  0.692566  0.307572  0.308021  1
  Er  Er3  1  0.936657  0.563098  0.563336  1
  Er  Er4  1  0.936289  0.563711  0.936289  1
  Er  Er5  1  0.692566  0.691841  0.308021  1
  Er  Er6  1  0.563336  0.936908  0.936657  1
  Er  Er7  1  0.146997  0.148740  0.146997  1
  Er  Er8  1  0.307579  0.692421  0.307579  1
  Er  Er9  1  0.558777  0.147333  0.146555  1
  Er  Er10  1  0.308021  0.307572  0.692566  1
  Er  Er11  1  0.308021  0.691841  0.692566  1
  Er  Er12  1  0.146555  0.147333  0.558777  1
  Er  Er13  1  0.692131  0.307869  0.692131  1
  Er  Er14  1  0.936657  0.936908  0.563336  1
  Tm  Tm15  1  0.563815  0.936185  0.563815  1
  Al  Al16  1  0.921868  0.921711  0.921868  1
  Al  Al17  1  0.233665  0.921989  0.922354  1
  Al  Al18  1  0.922354  0.921989  0.233665  1
  Al  Al19  1  0.921868  0.234553  0.921868  1
  Rh  Rh20  1  0.357522  0.357105  0.928268  1
  Rh  Rh21  1  0.357077  0.357406  0.357077  1
  Rh  Rh22  1  0.928268  0.357105  0.357522  1
  Rh  Rh23  1  0.357077  0.928439  0.357077  1
