# generated using pymatgen
data_Tb5Si6P6Ir19
_symmetry_space_group_name_H-M   'P 1'
_cell_length_a   12.80586200
_cell_length_b   12.80586043
_cell_length_c   3.95815700
_cell_angle_alpha   90.00000000
_cell_angle_beta   90.00000000
_cell_angle_gamma   120.00000405
_symmetry_Int_Tables_number   1
_chemical_formula_structural   Tb5Si6P6Ir19
_chemical_formula_sum   'Tb5 Si6 P6 Ir19'
_cell_volume   562.13575811
_cell_formula_units_Z   1
loop_
 _symmetry_equiv_pos_site_id
 _symmetry_equiv_pos_as_xyz
  1  'x, y, z'
loop_
 _atom_site_type_symbol
 _atom_site_label
 _atom_site_symmetry_multiplicity
 _atom_site_fract_x
 _atom_site_fract_y
 _atom_site_fract_z
 _atom_site_occupancy
  Tb  Tb0  1  0.666667  0.333333  0.000000  1
  Tb  Tb1  1  0.333333  0.666667  0.000000  1
  Tb  Tb2  1  0.816545  0.814871  0.500000  1
  Tb  Tb3  1  0.185129  0.001674  0.500000  1
  Tb  Tb4  1  0.998326  0.183455  0.500000  1
  Si  Si5  1  0.682110  0.162404  0.500000  1
  Si  Si6  1  0.837596  0.519707  0.500000  1
  Si  Si7  1  0.480293  0.317890  0.500000  1
  Si  Si8  1  0.636050  0.635207  0.000000  1
  Si  Si9  1  0.364793  0.000844  0.000000  1
  Si  Si10  1  0.999156  0.363950  0.000000  1
  P  P11  1  0.177550  0.694095  0.500000  1
  P  P12  1  0.516545  0.822450  0.500000  1
  P  P13  1  0.305905  0.483455  0.500000  1
  P  P14  1  0.176631  0.180528  0.000000  1
  P  P15  1  0.819472  0.996101  0.000000  1
  P  P16  1  0.003899  0.823369  0.000000  1
  Ir  Ir17  1  0.808392  0.175754  0.000000  1
  Ir  Ir18  1  0.824246  0.632638  0.000000  1
  Ir  Ir19  1  0.367362  0.191608  0.000000  1
  Ir  Ir20  1  0.182571  0.800745  0.000000  1
  Ir  Ir21  1  0.618173  0.817429  0.000000  1
  Ir  Ir22  1  0.199255  0.381827  0.000000  1
  Ir  Ir23  1  0.457976  0.443205  0.000000  1
  Ir  Ir24  1  0.556795  0.014771  0.000000  1
  Ir  Ir25  1  0.985229  0.542024  0.000000  1
  Ir  Ir26  1  0.278290  0.284698  0.500000  1
  Ir  Ir27  1  0.715302  0.993592  0.500000  1
  Ir  Ir28  1  0.006408  0.721710  0.500000  1
  Ir  Ir29  1  0.869294  0.353458  0.500000  1
  Ir  Ir30  1  0.646542  0.515837  0.500000  1
  Ir  Ir31  1  0.484163  0.130706  0.500000  1
  Ir  Ir32  1  0.368316  0.874204  0.500000  1
  Ir  Ir33  1  0.505888  0.631684  0.500000  1
  Ir  Ir34  1  0.125796  0.494112  0.500000  1
  Ir  Ir35  1  0.000000  0.000000  0.000000  1
