# generated using pymatgen
data_Ho5Tm5Sn5Bi
_symmetry_space_group_name_H-M   'P 1'
_cell_length_a   8.92540317
_cell_length_b   8.92481302
_cell_length_c   6.44780200
_cell_angle_alpha   90.00000000
_cell_angle_beta   90.00000000
_cell_angle_gamma   120.06072498
_symmetry_Int_Tables_number   1
_chemical_formula_structural   Ho5Tm5Sn5Bi
_chemical_formula_sum   'Ho5 Tm5 Sn5 Bi1'
_cell_volume   444.53219570
_cell_formula_units_Z   1
loop_
 _symmetry_equiv_pos_site_id
 _symmetry_equiv_pos_as_xyz
  1  'x, y, z'
loop_
 _atom_site_type_symbol
 _atom_site_label
 _atom_site_symmetry_multiplicity
 _atom_site_fract_x
 _atom_site_fract_y
 _atom_site_fract_z
 _atom_site_occupancy
  Ho  Ho0  1  0.994493  0.757368  0.750000  1
  Ho  Ho1  1  0.761277  0.760961  0.250000  1
  Ho  Ho2  1  0.764888  0.000092  0.750000  1
  Ho  Ho3  1  0.236897  0.242459  0.750000  1
  Ho  Ho4  1  0.237709  0.000138  0.250000  1
  Tm  Tm5  1  0.000488  0.239332  0.250000  1
  Tm  Tm6  1  0.332474  0.662442  0.498247  1
  Tm  Tm7  1  0.670045  0.337469  0.001742  1
  Tm  Tm8  1  0.670045  0.337469  0.498258  1
  Tm  Tm9  1  0.332474  0.662442  0.001753  1
  Sn  Sn10  1  0.395522  0.394408  0.250000  1
  Sn  Sn11  1  0.001365  0.605101  0.250000  1
  Sn  Sn12  1  0.999549  0.396343  0.750000  1
  Sn  Sn13  1  0.603207  0.603682  0.750000  1
  Sn  Sn14  1  0.605235  0.000273  0.250000  1
  Bi  Bi15  1  0.394332  0.000021  0.750000  1
