# generated using pymatgen
data_Tb5FeOsO12
_symmetry_space_group_name_H-M   'P 1'
_cell_length_a   6.87012024
_cell_length_b   6.87012055
_cell_length_c   7.33792621
_cell_angle_alpha   74.44243687
_cell_angle_beta   74.44244431
_cell_angle_gamma   51.12072742
_symmetry_Int_Tables_number   1
_chemical_formula_structural   Tb5FeOsO12
_chemical_formula_sum   'Tb5 Fe1 Os1 O12'
_cell_volume   257.42387924
_cell_formula_units_Z   1
loop_
 _symmetry_equiv_pos_site_id
 _symmetry_equiv_pos_as_xyz
  1  'x, y, z'
loop_
 _atom_site_type_symbol
 _atom_site_label
 _atom_site_symmetry_multiplicity
 _atom_site_fract_x
 _atom_site_fract_y
 _atom_site_fract_z
 _atom_site_occupancy
  Tb  Tb0  1  0.313921  0.291555  0.359877  1
  Tb  Tb1  1  0.708445  0.686079  0.640123  1
  Tb  Tb2  1  0.308162  0.308541  0.830341  1
  Tb  Tb3  1  0.691459  0.691838  0.169659  1
  Tb  Tb4  1  0.008123  0.991877  0.500000  1
  Fe  Fe5  1  0.751935  0.248065  0.000000  1
  Os  Os6  1  0.237078  0.762922  0.000000  1
  O  O7  1  0.899404  0.431475  0.918061  1
  O  O8  1  0.417582  0.904075  0.917156  1
  O  O9  1  0.095925  0.582418  0.082844  1
  O  O10  1  0.568525  0.100596  0.081939  1
  O  O11  1  0.102388  0.593237  0.572035  1
  O  O12  1  0.600640  0.090486  0.577576  1
  O  O13  1  0.909514  0.399360  0.422424  1
  O  O14  1  0.406763  0.897612  0.427965  1
  O  O15  1  0.006782  0.993285  0.814869  1
  O  O16  1  0.006715  0.993218  0.185131  1
  O  O17  1  0.482786  0.516147  0.814921  1
  O  O18  1  0.483853  0.517214  0.185079  1
