# generated using pymatgen
data_Nd8Dy12Si15Sb
_symmetry_space_group_name_H-M   'P 1'
_cell_length_a   7.55990764
_cell_length_b   7.82967932
_cell_length_c   14.82358400
_cell_angle_alpha   90.00000000
_cell_angle_beta   90.00000000
_cell_angle_gamma   89.75227312
_symmetry_Int_Tables_number   1
_chemical_formula_structural   Nd8Dy12Si15Sb
_chemical_formula_sum   'Nd8 Dy12 Si15 Sb1'
_cell_volume   877.42423203
_cell_formula_units_Z   1
loop_
 _symmetry_equiv_pos_site_id
 _symmetry_equiv_pos_as_xyz
  1  'x, y, z'
loop_
 _atom_site_type_symbol
 _atom_site_label
 _atom_site_symmetry_multiplicity
 _atom_site_fract_x
 _atom_site_fract_y
 _atom_site_fract_z
 _atom_site_occupancy
  Nd  Nd0  1  0.982862  0.828889  0.092105  1
  Nd  Nd1  1  0.468432  0.681227  0.403177  1
  Nd  Nd2  1  0.526947  0.318876  0.901044  1
  Nd  Nd3  1  0.026551  0.181558  0.599592  1
  Nd  Nd4  1  0.026551  0.181558  0.900408  1
  Nd  Nd5  1  0.526947  0.318876  0.598956  1
  Nd  Nd6  1  0.468432  0.681227  0.096823  1
  Nd  Nd7  1  0.982862  0.828889  0.407895  1
  Dy  Dy8  1  0.642968  0.004614  0.250000  1
  Dy  Dy9  1  0.159006  0.506328  0.250000  1
  Dy  Dy10  1  0.851529  0.488512  0.750000  1
  Dy  Dy11  1  0.350839  0.011493  0.750000  1
  Dy  Dy12  1  0.681781  0.820920  0.876655  1
  Dy  Dy13  1  0.182117  0.677941  0.623448  1
  Dy  Dy14  1  0.819027  0.316073  0.120904  1
  Dy  Dy15  1  0.313489  0.176147  0.378868  1
  Dy  Dy16  1  0.313489  0.176147  0.121132  1
  Dy  Dy17  1  0.819027  0.316073  0.379096  1
  Dy  Dy18  1  0.182117  0.677941  0.876552  1
  Dy  Dy19  1  0.681781  0.820920  0.623345  1
  Si  Si20  1  0.267932  0.875487  0.250000  1
  Si  Si21  1  0.733615  0.121045  0.750000  1
  Si  Si22  1  0.234279  0.378868  0.750000  1
  Si  Si23  1  0.021313  0.111339  0.250000  1
  Si  Si24  1  0.515148  0.369151  0.250000  1
  Si  Si25  1  0.476764  0.610119  0.750000  1
  Si  Si26  1  0.975920  0.890152  0.750000  1
  Si  Si27  1  0.856789  0.530303  0.959761  1
  Si  Si28  1  0.356203  0.969032  0.541422  1
  Si  Si29  1  0.641618  0.027211  0.039987  1
  Si  Si30  1  0.141539  0.470770  0.459728  1
  Si  Si31  1  0.141539  0.470770  0.040272  1
  Si  Si32  1  0.641618  0.027211  0.460013  1
  Si  Si33  1  0.356203  0.969032  0.958578  1
  Si  Si34  1  0.856789  0.530303  0.540239  1
  Sb  Sb35  1  0.775981  0.635001  0.250000  1
