# generated using pymatgen
data_Sc2Be8CoOs
_symmetry_space_group_name_H-M   'P 1'
_cell_length_a   4.45701800
_cell_length_b   4.45701816
_cell_length_c   7.29337700
_cell_angle_alpha   90.00000000
_cell_angle_beta   90.00000000
_cell_angle_gamma   119.99999880
_symmetry_Int_Tables_number   1
_chemical_formula_structural   Sc2Be8CoOs
_chemical_formula_sum   'Sc2 Be8 Co1 Os1'
_cell_volume   125.47236729
_cell_formula_units_Z   1
loop_
 _symmetry_equiv_pos_site_id
 _symmetry_equiv_pos_as_xyz
  1  'x, y, z'
loop_
 _atom_site_type_symbol
 _atom_site_label
 _atom_site_symmetry_multiplicity
 _atom_site_fract_x
 _atom_site_fract_y
 _atom_site_fract_z
 _atom_site_occupancy
  Sc  Sc0  1  0.666667  0.333333  0.940648  1
  Sc  Sc1  1  0.333333  0.666667  0.428749  1
  Be  Be2  1  0.000000  0.000000  0.009772  1
  Be  Be3  1  0.000000  0.000000  0.503898  1
  Be  Be4  1  0.832114  0.664225  0.250484  1
  Be  Be5  1  0.168462  0.831538  0.746905  1
  Be  Be6  1  0.663074  0.831538  0.746905  1
  Be  Be7  1  0.335775  0.167886  0.250484  1
  Be  Be8  1  0.832114  0.167886  0.250484  1
  Be  Be9  1  0.168462  0.336926  0.746905  1
  Co  Co10  1  0.333333  0.666667  0.064173  1
  Os  Os11  1  0.666667  0.333333  0.560594  1
