# generated using pymatgen
data_Ru5PtW2
_symmetry_space_group_name_H-M   'P 1'
_cell_length_a   5.55102600
_cell_length_b   5.52222928
_cell_length_c   4.40241300
_cell_angle_alpha   90.00000000
_cell_angle_beta   90.00000000
_cell_angle_gamma   120.17265101
_symmetry_Int_Tables_number   1
_chemical_formula_structural   Ru5PtW2
_chemical_formula_sum   'Ru5 Pt1 W2'
_cell_volume   116.66777515
_cell_formula_units_Z   1
loop_
 _symmetry_equiv_pos_site_id
 _symmetry_equiv_pos_as_xyz
  1  'x, y, z'
loop_
 _atom_site_type_symbol
 _atom_site_label
 _atom_site_symmetry_multiplicity
 _atom_site_fract_x
 _atom_site_fract_y
 _atom_site_fract_z
 _atom_site_occupancy
  Ru  Ru0  1  0.665749  0.835335  0.250000  1
  Ru  Ru1  1  0.169586  0.835335  0.250000  1
  Ru  Ru2  1  0.833275  0.666550  0.750000  1
  Ru  Ru3  1  0.331909  0.163157  0.750000  1
  Ru  Ru4  1  0.831247  0.163157  0.750000  1
  Pt  Pt5  1  0.164787  0.329574  0.250000  1
  W  W6  1  0.338199  0.676398  0.750000  1
  W  W7  1  0.665247  0.330493  0.250000  1
