# generated using pymatgen
data_Ta12Tc10B12IrRu
_symmetry_space_group_name_H-M   'P 1'
_cell_length_a   3.16584300
_cell_length_b   9.07054792
_cell_length_c   15.70271693
_cell_angle_alpha   89.76201286
_cell_angle_beta   90.00000000
_cell_angle_gamma   90.00000000
_symmetry_Int_Tables_number   1
_chemical_formula_structural   Ta12Tc10B12IrRu
_chemical_formula_sum   'Ta12 Tc10 B12 Ir1 Ru1'
_cell_volume   450.91424043
_cell_formula_units_Z   1
loop_
 _symmetry_equiv_pos_site_id
 _symmetry_equiv_pos_as_xyz
  1  'x, y, z'
loop_
 _atom_site_type_symbol
 _atom_site_label
 _atom_site_symmetry_multiplicity
 _atom_site_fract_x
 _atom_site_fract_y
 _atom_site_fract_z
 _atom_site_occupancy
  Ta  Ta0  1  0.000000  0.804670  0.493626  1
  Ta  Ta1  1  0.000000  0.195459  0.505452  1
  Ta  Ta2  1  0.000000  0.305023  0.007108  1
  Ta  Ta3  1  0.000000  0.695207  0.993598  1
  Ta  Ta4  1  0.000000  0.515339  0.595565  1
  Ta  Ta5  1  0.000000  0.484274  0.404219  1
  Ta  Ta6  1  0.000000  0.015446  0.905574  1
  Ta  Ta7  1  0.000000  0.984143  0.096060  1
  Ta  Ta8  1  0.000000  0.678897  0.207201  1
  Ta  Ta9  1  0.000000  0.323797  0.793392  1
  Ta  Ta10  1  0.000000  0.182842  0.293823  1
  Ta  Ta11  1  0.000000  0.813785  0.705174  1
  Tc  Tc12  1  0.500000  0.718700  0.357980  1
  Tc  Tc13  1  0.500000  0.280783  0.642455  1
  Tc  Tc14  1  0.500000  0.216230  0.141938  1
  Tc  Tc15  1  0.500000  0.785046  0.857650  1
  Tc  Tc16  1  0.500000  0.518769  0.094467  1
  Tc  Tc17  1  0.500000  0.481284  0.904661  1
  Tc  Tc18  1  0.500000  0.018468  0.404794  1
  Tc  Tc19  1  0.500000  0.980961  0.596544  1
  Tc  Tc20  1  0.500000  0.568265  0.732445  1
  Tc  Tc21  1  0.500000  0.431833  0.267500  1
  B  B22  1  0.500000  0.604428  0.494150  1
  B  B23  1  0.500000  0.395207  0.505880  1
  B  B24  1  0.500000  0.104340  0.005172  1
  B  B25  1  0.500000  0.895561  0.995531  1
  B  B26  1  0.000000  0.610146  0.832900  1
  B  B27  1  0.000000  0.390414  0.167457  1
  B  B28  1  0.000000  0.111182  0.663073  1
  B  B29  1  0.000000  0.890208  0.334280  1
  B  B30  1  0.500000  0.716154  0.602107  1
  B  B31  1  0.500000  0.283127  0.397005  1
  B  B32  1  0.500000  0.218957  0.899251  1
  B  B33  1  0.500000  0.781976  0.101818  1
  Ir  Ir34  1  0.500000  0.068474  0.767464  1
  Ru  Ru35  1  0.500000  0.930605  0.232688  1
