# generated using pymatgen
data_Ho4Ga18CoNiRu4
_symmetry_space_group_name_H-M   'P 1'
_cell_length_a   7.47844208
_cell_length_b   7.47844242
_cell_length_c   9.59664375
_cell_angle_alpha   89.96545080
_cell_angle_beta   89.96545384
_cell_angle_gamma   120.15341357
_symmetry_Int_Tables_number   1
_chemical_formula_structural   Ho4Ga18CoNiRu4
_chemical_formula_sum   'Ho4 Ga18 Co1 Ni1 Ru4'
_cell_volume   464.08606028
_cell_formula_units_Z   1
loop_
 _symmetry_equiv_pos_site_id
 _symmetry_equiv_pos_as_xyz
  1  'x, y, z'
loop_
 _atom_site_type_symbol
 _atom_site_label
 _atom_site_symmetry_multiplicity
 _atom_site_fract_x
 _atom_site_fract_y
 _atom_site_fract_z
 _atom_site_occupancy
  Ho  Ho0  1  0.996095  0.661856  0.249726  1
  Ho  Ho1  1  0.003905  0.338144  0.750274  1
  Ho  Ho2  1  0.661856  0.996095  0.249726  1
  Ho  Ho3  1  0.338144  0.003905  0.750274  1
  Ga  Ga4  1  0.116759  0.116759  0.248377  1
  Ga  Ga5  1  0.883241  0.883241  0.751623  1
  Ga  Ga6  1  0.002978  0.326626  0.075350  1
  Ga  Ga7  1  0.997022  0.673374  0.924650  1
  Ga  Ga8  1  0.997033  0.671529  0.576602  1
  Ga  Ga9  1  0.328471  0.002967  0.423398  1
  Ga  Ga10  1  0.002967  0.328471  0.423398  1
  Ga  Ga11  1  0.671529  0.997033  0.576602  1
  Ga  Ga12  1  0.673374  0.997022  0.924650  1
  Ga  Ga13  1  0.326626  0.002978  0.075350  1
  Ga  Ga14  1  0.333969  0.333969  0.562154  1
  Ga  Ga15  1  0.666031  0.666031  0.437846  1
  Ga  Ga16  1  0.668825  0.668825  0.061114  1
  Ga  Ga17  1  0.331175  0.331175  0.938886  1
  Ga  Ga18  1  0.335457  0.545477  0.250020  1
  Ga  Ga19  1  0.664543  0.454523  0.749980  1
  Ga  Ga20  1  0.545477  0.335457  0.250020  1
  Ga  Ga21  1  0.454523  0.664543  0.749980  1
  Co  Co22  1  0.000000  0.000000  0.000000  1
  Ni  Ni23  1  0.000000  0.000000  0.500000  1
  Ru  Ru24  1  0.674018  0.325982  0.000000  1
  Ru  Ru25  1  0.325982  0.674018  0.000000  1
  Ru  Ru26  1  0.325981  0.674019  0.500000  1
  Ru  Ru27  1  0.674019  0.325981  0.500000  1
