# generated using pymatgen
data_Th(FeSb3)4
_symmetry_space_group_name_H-M   'P 1'
_cell_length_a   7.93854557
_cell_length_b   7.93844660
_cell_length_c   7.93842301
_cell_angle_alpha   109.47170673
_cell_angle_beta   109.47182409
_cell_angle_gamma   109.47097045
_symmetry_Int_Tables_number   1
_chemical_formula_structural   Th(FeSb3)4
_chemical_formula_sum   'Th1 Fe4 Sb12'
_cell_volume   385.10957536
_cell_formula_units_Z   1
loop_
 _symmetry_equiv_pos_site_id
 _symmetry_equiv_pos_as_xyz
  1  'x, y, z'
loop_
 _atom_site_type_symbol
 _atom_site_label
 _atom_site_symmetry_multiplicity
 _atom_site_fract_x
 _atom_site_fract_y
 _atom_site_fract_z
 _atom_site_occupancy
  Th  Th0  1  0.000000  0.000000  0.000000  1
  Fe  Fe1  1  0.500000  0.000000  0.000000  1
  Fe  Fe2  1  0.000000  0.500000  0.000000  1
  Fe  Fe3  1  0.000000  0.000000  0.500000  1
  Fe  Fe4  1  0.500000  0.500000  0.500000  1
  Sb  Sb5  1  0.496394  0.333827  0.162578  1
  Sb  Sb6  1  0.828748  0.666174  0.162568  1
  Sb  Sb7  1  0.333817  0.837425  0.171254  1
  Sb  Sb8  1  0.837430  0.171255  0.333825  1
  Sb  Sb9  1  0.162574  0.496390  0.333821  1
  Sb  Sb10  1  0.333826  0.162577  0.496392  1
  Sb  Sb11  1  0.666173  0.837423  0.503607  1
  Sb  Sb12  1  0.837426  0.503609  0.666178  1
  Sb  Sb13  1  0.162570  0.828745  0.666174  1
  Sb  Sb14  1  0.666182  0.162575  0.828746  1
  Sb  Sb15  1  0.171252  0.333825  0.837432  1
  Sb  Sb16  1  0.503605  0.666172  0.837422  1
