# generated using pymatgen
data_LaPaHgPt2
_symmetry_space_group_name_H-M   'P 1'
_cell_length_a   8.05020600
_cell_length_b   7.98590900
_cell_length_c   3.69904400
_cell_angle_alpha   90.00000000
_cell_angle_beta   90.00000000
_cell_angle_gamma   90.00000000
_symmetry_Int_Tables_number   1
_chemical_formula_structural   LaPaHgPt2
_chemical_formula_sum   'La2 Pa2 Hg2 Pt4'
_cell_volume   237.80492689
_cell_formula_units_Z   2
loop_
 _symmetry_equiv_pos_site_id
 _symmetry_equiv_pos_as_xyz
  1  'x, y, z'
loop_
 _atom_site_type_symbol
 _atom_site_label
 _atom_site_symmetry_multiplicity
 _atom_site_fract_x
 _atom_site_fract_y
 _atom_site_fract_z
 _atom_site_occupancy
  La  La0  1  0.827072  0.674333  0.500000  1
  La  La1  1  0.672928  0.174333  0.500000  1
  Pa  Pa2  1  0.171994  0.330284  0.500000  1
  Pa  Pa3  1  0.328006  0.830284  0.500000  1
  Hg  Hg4  1  0.499759  0.494885  0.000000  1
  Hg  Hg5  1  0.000241  0.994885  0.000000  1
  Pt  Pt6  1  0.597921  0.869942  0.000000  1
  Pt  Pt7  1  0.152919  0.630556  0.000000  1
  Pt  Pt8  1  0.902079  0.369942  0.000000  1
  Pt  Pt9  1  0.347081  0.130556  0.000000  1
