# generated using pymatgen
data_AcCe(AgPb)2
_symmetry_space_group_name_H-M   'P 1'
_cell_length_a   4.94930300
_cell_length_b   4.94930264
_cell_length_c   8.03603000
_cell_angle_alpha   90.00000000
_cell_angle_beta   90.00000000
_cell_angle_gamma   119.99999573
_symmetry_Int_Tables_number   1
_chemical_formula_structural   AcCe(AgPb)2
_chemical_formula_sum   'Ac1 Ce1 Ag2 Pb2'
_cell_volume   170.47482485
_cell_formula_units_Z   1
loop_
 _symmetry_equiv_pos_site_id
 _symmetry_equiv_pos_as_xyz
  1  'x, y, z'
loop_
 _atom_site_type_symbol
 _atom_site_label
 _atom_site_symmetry_multiplicity
 _atom_site_fract_x
 _atom_site_fract_y
 _atom_site_fract_z
 _atom_site_occupancy
  Ac  Ac0  1  0.000000  0.000000  0.006526  1
  Ce  Ce1  1  0.000000  0.000000  0.504964  1
  Ag  Ag2  1  0.333333  0.666667  0.780619  1
  Ag  Ag3  1  0.666667  0.333333  0.320241  1
  Pb  Pb4  1  0.666667  0.333333  0.711802  1
  Pb  Pb5  1  0.333333  0.666667  0.241848  1
