# generated using pymatgen
data_Er2Tm(ThSn2)2
_symmetry_space_group_name_H-M   'P 1'
_cell_length_a   8.09584700
_cell_length_b   8.18572900
_cell_length_c   15.46353200
_cell_angle_alpha   90.00000000
_cell_angle_beta   90.00000000
_cell_angle_gamma   90.00000000
_symmetry_Int_Tables_number   1
_chemical_formula_structural   Er2Tm(ThSn2)2
_chemical_formula_sum   'Er8 Tm4 Th8 Sn16'
_cell_volume   1024.77459900
_cell_formula_units_Z   4
loop_
 _symmetry_equiv_pos_site_id
 _symmetry_equiv_pos_as_xyz
  1  'x, y, z'
loop_
 _atom_site_type_symbol
 _atom_site_label
 _atom_site_symmetry_multiplicity
 _atom_site_fract_x
 _atom_site_fract_y
 _atom_site_fract_z
 _atom_site_occupancy
  Er  Er0  1  0.361182  0.837458  0.875858  1
  Er  Er1  1  0.861182  0.662542  0.624142  1
  Er  Er2  1  0.638818  0.162542  0.375858  1
  Er  Er3  1  0.138818  0.337458  0.124142  1
  Er  Er4  1  0.638818  0.162542  0.124142  1
  Er  Er5  1  0.138818  0.337458  0.375858  1
  Er  Er6  1  0.361182  0.837458  0.624142  1
  Er  Er7  1  0.861182  0.662542  0.875858  1
  Tm  Tm8  1  0.191137  0.498377  0.750000  1
  Tm  Tm9  1  0.691137  0.001623  0.750000  1
  Tm  Tm10  1  0.808863  0.501623  0.250000  1
  Tm  Tm11  1  0.308863  0.998377  0.250000  1
  Th  Th12  1  0.518840  0.321461  0.904006  1
  Th  Th13  1  0.018840  0.178539  0.595994  1
  Th  Th14  1  0.481160  0.678539  0.404006  1
  Th  Th15  1  0.981160  0.821461  0.095994  1
  Th  Th16  1  0.481160  0.678539  0.095994  1
  Th  Th17  1  0.981160  0.821461  0.404006  1
  Th  Th18  1  0.518840  0.321461  0.595994  1
  Th  Th19  1  0.018840  0.178539  0.904006  1
  Sn  Sn20  1  0.299406  0.040123  0.042499  1
  Sn  Sn21  1  0.799406  0.459877  0.457501  1
  Sn  Sn22  1  0.700594  0.959877  0.542499  1
  Sn  Sn23  1  0.200594  0.540123  0.957501  1
  Sn  Sn24  1  0.700594  0.959877  0.957501  1
  Sn  Sn25  1  0.200594  0.540123  0.542499  1
  Sn  Sn26  1  0.299406  0.040123  0.457501  1
  Sn  Sn27  1  0.799406  0.459877  0.042499  1
  Sn  Sn28  1  0.556741  0.623270  0.750000  1
  Sn  Sn29  1  0.056741  0.876730  0.750000  1
  Sn  Sn30  1  0.443259  0.376730  0.250000  1
  Sn  Sn31  1  0.943259  0.123270  0.250000  1
  Sn  Sn32  1  0.326128  0.143438  0.750000  1
  Sn  Sn33  1  0.826128  0.356562  0.750000  1
  Sn  Sn34  1  0.673872  0.856562  0.250000  1
  Sn  Sn35  1  0.173872  0.643438  0.250000  1
