# generated using pymatgen
data_TbDy7Re(B8Ru)3
_symmetry_space_group_name_H-M   'P 1'
_cell_length_a   3.67771400
_cell_length_b   9.16472354
_cell_length_c   11.55225000
_cell_angle_alpha   90.13706832
_cell_angle_beta   90.00000000
_cell_angle_gamma   90.00000000
_symmetry_Int_Tables_number   1
_chemical_formula_structural   TbDy7Re(B8Ru)3
_chemical_formula_sum   'Tb1 Dy7 Re1 B24 Ru3'
_cell_volume   389.37015282
_cell_formula_units_Z   1
loop_
 _symmetry_equiv_pos_site_id
 _symmetry_equiv_pos_as_xyz
  1  'x, y, z'
loop_
 _atom_site_type_symbol
 _atom_site_label
 _atom_site_symmetry_multiplicity
 _atom_site_fract_x
 _atom_site_fract_y
 _atom_site_fract_z
 _atom_site_occupancy
  Tb  Tb0  1  0.000000  0.323372  0.415033  1
  Dy  Dy1  1  0.000000  0.679553  0.588067  1
  Dy  Dy2  1  0.000000  0.823166  0.083552  1
  Dy  Dy3  1  0.000000  0.175751  0.913451  1
  Dy  Dy4  1  0.000000  0.943077  0.370885  1
  Dy  Dy5  1  0.000000  0.056294  0.627789  1
  Dy  Dy6  1  0.000000  0.442713  0.128705  1
  Dy  Dy7  1  0.000000  0.555877  0.872451  1
  Re  Re8  1  0.000000  0.862233  0.821324  1
  B  B9  1  0.500000  0.554436  0.433020  1
  B  B10  1  0.500000  0.446112  0.567396  1
  B  B11  1  0.500000  0.053936  0.067582  1
  B  B12  1  0.500000  0.946965  0.933114  1
  B  B13  1  0.500000  0.748193  0.419355  1
  B  B14  1  0.500000  0.252158  0.580644  1
  B  B15  1  0.500000  0.247927  0.080804  1
  B  B16  1  0.500000  0.751594  0.919267  1
  B  B17  1  0.500000  0.790116  0.265986  1
  B  B18  1  0.500000  0.209317  0.733098  1
  B  B19  1  0.500000  0.290410  0.233892  1
  B  B20  1  0.500000  0.708522  0.766067  1
  B  B21  1  0.500000  0.631361  0.185481  1
  B  B22  1  0.500000  0.368067  0.814169  1
  B  B23  1  0.500000  0.131943  0.314499  1
  B  B24  1  0.500000  0.868433  0.685641  1
  B  B25  1  0.500000  0.984067  0.212298  1
  B  B26  1  0.500000  0.017269  0.787476  1
  B  B27  1  0.500000  0.484098  0.288025  1
  B  B28  1  0.500000  0.516168  0.712526  1
  B  B29  1  0.500000  0.606242  0.030192  1
  B  B30  1  0.500000  0.391821  0.970706  1
  B  B31  1  0.500000  0.107718  0.469691  1
  B  B32  1  0.500000  0.892811  0.528932  1
  Ru  Ru33  1  0.000000  0.638056  0.321199  1
  Ru  Ru34  1  0.000000  0.362211  0.678512  1
  Ru  Ru35  1  0.000000  0.138012  0.179171  1
