# generated using pymatgen
data_Ag2BiRh4PbO14
_symmetry_space_group_name_H-M   'P 1'
_cell_length_a   7.24813754
_cell_length_b   7.13966643
_cell_length_c   7.21364454
_cell_angle_alpha   60.33865165
_cell_angle_beta   61.14281311
_cell_angle_gamma   60.49382831
_symmetry_Int_Tables_number   1
_chemical_formula_structural   Ag2BiRh4PbO14
_chemical_formula_sum   'Ag2 Bi1 Rh4 Pb1 O14'
_cell_volume   267.85820158
_cell_formula_units_Z   1
loop_
 _symmetry_equiv_pos_site_id
 _symmetry_equiv_pos_as_xyz
  1  'x, y, z'
loop_
 _atom_site_type_symbol
 _atom_site_label
 _atom_site_symmetry_multiplicity
 _atom_site_fract_x
 _atom_site_fract_y
 _atom_site_fract_z
 _atom_site_occupancy
  Ag  Ag0  1  0.125000  0.125000  0.125000  1
  Ag  Ag1  1  0.125000  0.625000  0.125000  1
  Bi  Bi2  1  0.625000  0.125000  0.125000  1
  Rh  Rh3  1  0.625000  0.625000  0.625000  1
  Rh  Rh4  1  0.625000  0.625000  0.125000  1
  Rh  Rh5  1  0.125000  0.625000  0.625000  1
  Rh  Rh6  1  0.625000  0.125000  0.625000  1
  Pb  Pb7  1  0.125000  0.125000  0.625000  1
  O  O8  1  0.242112  0.263348  0.231193  1
  O  O9  1  0.305712  0.694525  0.305238  1
  O  O10  1  0.951432  0.956600  0.552664  1
  O  O11  1  0.541433  0.960228  0.538111  1
  O  O12  1  0.697859  0.712427  0.296824  1
  O  O13  1  0.951432  0.539304  0.552664  1
  O  O14  1  0.708567  0.289772  0.711889  1
  O  O15  1  0.298568  0.293400  0.697336  1
  O  O16  1  0.697859  0.292890  0.296824  1
  O  O17  1  0.298568  0.710696  0.697336  1
  O  O18  1  0.944288  0.555475  0.944762  1
  O  O19  1  0.552141  0.537573  0.953176  1
  O  O20  1  0.007888  0.986652  0.018807  1
  O  O21  1  0.552141  0.957110  0.953176  1
