# generated using pymatgen
data_Ho2Si5NiRh2
_symmetry_space_group_name_H-M   'P 1'
_cell_length_a   8.06206639
_cell_length_b   8.02936850
_cell_length_c   8.02936765
_cell_angle_alpha   138.29385481
_cell_angle_beta   104.59437156
_cell_angle_gamma   90.02469703
_symmetry_Int_Tables_number   1
_chemical_formula_structural   Ho2Si5NiRh2
_chemical_formula_sum   'Ho4 Si10 Ni2 Rh4'
_cell_volume   319.97781330
_cell_formula_units_Z   2
loop_
 _symmetry_equiv_pos_site_id
 _symmetry_equiv_pos_as_xyz
  1  'x, y, z'
loop_
 _atom_site_type_symbol
 _atom_site_label
 _atom_site_symmetry_multiplicity
 _atom_site_fract_x
 _atom_site_fract_y
 _atom_site_fract_z
 _atom_site_occupancy
  Ho  Ho0  1  0.635443  0.867897  0.767547  1
  Ho  Ho1  1  0.364557  0.132103  0.232453  1
  Ho  Ho2  1  0.102388  0.368246  0.734142  1
  Ho  Ho3  1  0.897612  0.631754  0.265858  1
  Si  Si4  1  0.276169  0.013381  0.744806  1
  Si  Si5  1  0.723831  0.986619  0.255194  1
  Si  Si6  1  0.723831  0.468637  0.737212  1
  Si  Si7  1  0.276169  0.531363  0.262788  1
  Si  Si8  1  0.447168  0.607343  0.839825  1
  Si  Si9  1  0.552832  0.392657  0.160175  1
  Si  Si10  1  0.764477  0.106083  0.658392  1
  Si  Si11  1  0.235523  0.893917  0.341608  1
  Si  Si12  1  0.000000  0.726929  0.726929  1
  Si  Si13  1  0.000000  0.273071  0.273071  1
  Ni  Ni14  1  0.253019  0.639344  0.613674  1
  Ni  Ni15  1  0.746981  0.360656  0.386326  1
  Rh  Rh16  1  0.029773  0.135896  0.893878  1
  Rh  Rh17  1  0.970227  0.864104  0.106122  1
  Rh  Rh18  1  0.500000  0.751041  0.251041  1
  Rh  Rh19  1  0.500000  0.248959  0.748959  1
