# generated using pymatgen
data_Ca5Tb2Yb(Si3Pd)4
_symmetry_space_group_name_H-M   'P 1'
_cell_length_a   8.24712700
_cell_length_b   8.24482763
_cell_length_c   8.27757200
_cell_angle_alpha   90.00000000
_cell_angle_beta   90.00000000
_cell_angle_gamma   120.00922991
_symmetry_Int_Tables_number   1
_chemical_formula_structural   Ca5Tb2Yb(Si3Pd)4
_chemical_formula_sum   'Ca5 Tb2 Yb1 Si12 Pd4'
_cell_volume   487.39095148
_cell_formula_units_Z   1
loop_
 _symmetry_equiv_pos_site_id
 _symmetry_equiv_pos_as_xyz
  1  'x, y, z'
loop_
 _atom_site_type_symbol
 _atom_site_label
 _atom_site_symmetry_multiplicity
 _atom_site_fract_x
 _atom_site_fract_y
 _atom_site_fract_z
 _atom_site_occupancy
  Ca  Ca0  1  0.497970  0.995942  0.750000  1
  Ca  Ca1  1  0.995795  0.497927  0.250000  1
  Ca  Ca2  1  0.004093  0.502013  0.750000  1
  Ca  Ca3  1  0.502133  0.497927  0.250000  1
  Ca  Ca4  1  0.497919  0.502013  0.750000  1
  Tb  Tb5  1  0.999951  0.999902  0.250000  1
  Tb  Tb6  1  0.000099  0.000199  0.750000  1
  Yb  Yb7  1  0.501904  0.003809  0.250000  1
  Si  Si8  1  0.164692  0.329384  0.001746  1
  Si  Si9  1  0.835363  0.670726  0.997882  1
  Si  Si10  1  0.671440  0.835420  0.002923  1
  Si  Si11  1  0.835363  0.670726  0.502118  1
  Si  Si12  1  0.328584  0.164592  0.999034  1
  Si  Si13  1  0.164692  0.329384  0.498254  1
  Si  Si14  1  0.163980  0.835420  0.002923  1
  Si  Si15  1  0.328584  0.164592  0.500966  1
  Si  Si16  1  0.836008  0.164592  0.999034  1
  Si  Si17  1  0.671440  0.835420  0.497077  1
  Si  Si18  1  0.836008  0.164592  0.500966  1
  Si  Si19  1  0.163980  0.835420  0.497077  1
  Pd  Pd20  1  0.334209  0.668420  0.005680  1
  Pd  Pd21  1  0.665791  0.331581  0.999011  1
  Pd  Pd22  1  0.665791  0.331581  0.500989  1
  Pd  Pd23  1  0.334209  0.668420  0.494320  1
