# generated using pymatgen
data_Sc10Cd2HgRu
_symmetry_space_group_name_H-M   'P 1'
_cell_length_a   8.99962131
_cell_length_b   8.96902878
_cell_length_c   9.13173500
_cell_angle_alpha   90.00000000
_cell_angle_beta   90.00000000
_cell_angle_gamma   119.88761619
_symmetry_Int_Tables_number   1
_chemical_formula_structural   Sc10Cd2HgRu
_chemical_formula_sum   'Sc20 Cd4 Hg2 Ru2'
_cell_volume   639.06390701
_cell_formula_units_Z   2
loop_
 _symmetry_equiv_pos_site_id
 _symmetry_equiv_pos_as_xyz
  1  'x, y, z'
loop_
 _atom_site_type_symbol
 _atom_site_label
 _atom_site_symmetry_multiplicity
 _atom_site_fract_x
 _atom_site_fract_y
 _atom_site_fract_z
 _atom_site_occupancy
  Sc  Sc0  1  0.997414  0.998707  0.496058  1
  Sc  Sc1  1  0.997414  0.998707  0.003942  1
  Sc  Sc2  1  0.210120  0.789997  0.442203  1
  Sc  Sc3  1  0.210120  0.420126  0.442203  1
  Sc  Sc4  1  0.580429  0.790215  0.441644  1
  Sc  Sc5  1  0.790109  0.210196  0.557166  1
  Sc  Sc6  1  0.790109  0.579911  0.557166  1
  Sc  Sc7  1  0.420463  0.210231  0.557355  1
  Sc  Sc8  1  0.790109  0.210196  0.942834  1
  Sc  Sc9  1  0.790109  0.579911  0.942834  1
  Sc  Sc10  1  0.420463  0.210231  0.942645  1
  Sc  Sc11  1  0.210120  0.789997  0.057797  1
  Sc  Sc12  1  0.210120  0.420126  0.057797  1
  Sc  Sc13  1  0.580429  0.790215  0.058356  1
  Sc  Sc14  1  0.543041  0.462173  0.250000  1
  Sc  Sc15  1  0.543041  0.080867  0.250000  1
  Sc  Sc16  1  0.918448  0.459224  0.250000  1
  Sc  Sc17  1  0.459562  0.540454  0.750000  1
  Sc  Sc18  1  0.459562  0.919108  0.750000  1
  Sc  Sc19  1  0.080616  0.540308  0.750000  1
  Cd  Cd20  1  0.234017  0.117009  0.250000  1
  Cd  Cd21  1  0.115240  0.884553  0.750000  1
  Cd  Cd22  1  0.115240  0.230686  0.750000  1
  Cd  Cd23  1  0.769012  0.884505  0.750000  1
  Hg  Hg24  1  0.882065  0.120100  0.250000  1
  Hg  Hg25  1  0.882065  0.761966  0.250000  1
  Ru  Ru26  1  0.333889  0.666945  0.250000  1
  Ru  Ru27  1  0.666675  0.333337  0.750000  1
