# generated using pymatgen
data_TbY3RuPt3F28
_symmetry_space_group_name_H-M   'P 1'
_cell_length_a   5.56121407
_cell_length_b   8.93109105
_cell_length_c   12.02257507
_cell_angle_alpha   62.60397873
_cell_angle_beta   90.05013270
_cell_angle_gamma   90.08579986
_symmetry_Int_Tables_number   1
_chemical_formula_structural   TbY3RuPt3F28
_chemical_formula_sum   'Tb1 Y3 Ru1 Pt3 F28'
_cell_volume   530.16301696
_cell_formula_units_Z   1
loop_
 _symmetry_equiv_pos_site_id
 _symmetry_equiv_pos_as_xyz
  1  'x, y, z'
loop_
 _atom_site_type_symbol
 _atom_site_label
 _atom_site_symmetry_multiplicity
 _atom_site_fract_x
 _atom_site_fract_y
 _atom_site_fract_z
 _atom_site_occupancy
  Tb  Tb0  1  0.259444  0.811283  0.264827  1
  Y  Y1  1  0.739248  0.188141  0.733621  1
  Y  Y2  1  0.761575  0.182847  0.236905  1
  Y  Y3  1  0.239845  0.812973  0.766394  1
  Ru  Ru4  1  0.756292  0.725800  0.043679  1
  Pt  Pt5  1  0.241874  0.272330  0.957532  1
  Pt  Pt6  1  0.258957  0.272592  0.456141  1
  Pt  Pt7  1  0.741322  0.726777  0.544083  1
  F  F8  1  0.935165  0.703139  0.416352  1
  F  F9  1  0.064501  0.297507  0.583114  1
  F  F10  1  0.439051  0.297084  0.084017  1
  F  F11  1  0.556676  0.709280  0.915024  1
  F  F12  1  0.468636  0.728632  0.137340  1
  F  F13  1  0.534188  0.269701  0.866356  1
  F  F14  1  0.966116  0.274598  0.363142  1
  F  F15  1  0.034314  0.726445  0.636182  1
  F  F16  1  0.951416  0.745230  0.173691  1
  F  F17  1  0.049619  0.252579  0.826801  1
  F  F18  1  0.449342  0.255881  0.323844  1
  F  F19  1  0.552739  0.744816  0.676104  1
  F  F20  1  0.768869  0.484736  0.138739  1
  F  F21  1  0.229936  0.519512  0.858036  1
  F  F22  1  0.271847  0.519943  0.358091  1
  F  F23  1  0.727630  0.478948  0.642623  1
  F  F24  1  0.943761  0.281999  0.043254  1
  F  F25  1  0.052414  0.721512  0.954099  1
  F  F26  1  0.441870  0.719546  0.458503  1
  F  F27  1  0.559102  0.280355  0.540964  1
  F  F28  1  0.744061  0.974224  0.450620  1
  F  F29  1  0.256831  0.025330  0.549515  1
  F  F30  1  0.242544  0.024914  0.050873  1
  F  F31  1  0.756350  0.965736  0.951093  1
  F  F32  1  0.586065  0.969554  0.232178  1
  F  F33  1  0.415691  0.032552  0.766991  1
  F  F34  1  0.086242  0.030306  0.268120  1
  F  F35  1  0.916467  0.973196  0.731150  1
