# generated using pymatgen
data_Ho7Er9Cd2AgHgIr4
_symmetry_space_group_name_H-M   'P 1'
_cell_length_a   9.55521541
_cell_length_b   9.55521573
_cell_length_c   9.56194300
_cell_angle_alpha   59.97670430
_cell_angle_beta   59.97670320
_cell_angle_gamma   59.99169173
_symmetry_Int_Tables_number   1
_chemical_formula_structural   Ho7Er9Cd2AgHgIr4
_chemical_formula_sum   'Ho7 Er9 Cd2 Ag1 Hg1 Ir4'
_cell_volume   617.06634356
_cell_formula_units_Z   1
loop_
 _symmetry_equiv_pos_site_id
 _symmetry_equiv_pos_as_xyz
  1  'x, y, z'
loop_
 _atom_site_type_symbol
 _atom_site_label
 _atom_site_symmetry_multiplicity
 _atom_site_fract_x
 _atom_site_fract_y
 _atom_site_fract_z
 _atom_site_occupancy
  Ho  Ho0  1  0.059858  0.059858  0.440411  1
  Ho  Ho1  1  0.186775  0.811471  0.812424  1
  Ho  Ho2  1  0.811534  0.187301  0.188362  1
  Ho  Ho3  1  0.811471  0.186775  0.812424  1
  Ho  Ho4  1  0.187301  0.811534  0.188362  1
  Ho  Ho5  1  0.811807  0.811807  0.187395  1
  Ho  Ho6  1  0.187765  0.187765  0.812053  1
  Er  Er7  1  0.599887  0.599887  0.598338  1
  Er  Er8  1  0.599692  0.599692  0.202144  1
  Er  Er9  1  0.600749  0.199578  0.599505  1
  Er  Er10  1  0.199578  0.600749  0.599505  1
  Er  Er11  1  0.060247  0.438732  0.440405  1
  Er  Er12  1  0.438640  0.060235  0.061048  1
  Er  Er13  1  0.438732  0.060247  0.440405  1
  Er  Er14  1  0.060235  0.438640  0.061048  1
  Er  Er15  1  0.438852  0.438852  0.061316  1
  Cd  Cd16  1  0.830371  0.508490  0.831147  1
  Cd  Cd17  1  0.508490  0.830371  0.831147  1
  Ag  Ag18  1  0.833317  0.833317  0.835299  1
  Hg  Hg19  1  0.833750  0.833750  0.498039  1
  Ir  Ir20  1  0.392132  0.392132  0.391755  1
  Ir  Ir21  1  0.392072  0.392072  0.824178  1
  Ir  Ir22  1  0.392424  0.824319  0.391646  1
  Ir  Ir23  1  0.824319  0.392424  0.391646  1
