# generated using pymatgen
data_Pr3Pa(Ga3Ir)6
_symmetry_space_group_name_H-M   'P 1'
_cell_length_a   7.67811318
_cell_length_b   7.66846982
_cell_length_c   9.56158800
_cell_angle_alpha   90.00000000
_cell_angle_beta   90.00000000
_cell_angle_gamma   119.68871123
_symmetry_Int_Tables_number   1
_chemical_formula_structural   Pr3Pa(Ga3Ir)6
_chemical_formula_sum   'Pr3 Pa1 Ga18 Ir6'
_cell_volume   489.07743550
_cell_formula_units_Z   1
loop_
 _symmetry_equiv_pos_site_id
 _symmetry_equiv_pos_as_xyz
  1  'x, y, z'
loop_
 _atom_site_type_symbol
 _atom_site_label
 _atom_site_symmetry_multiplicity
 _atom_site_fract_x
 _atom_site_fract_y
 _atom_site_fract_z
 _atom_site_occupancy
  Pr  Pr0  1  0.003768  0.330517  0.750000  1
  Pr  Pr1  1  0.670343  0.996350  0.250000  1
  Pr  Pr2  1  0.330507  0.003092  0.750000  1
  Pa  Pa3  1  0.998240  0.670483  0.250000  1
  Ga  Ga4  1  0.132383  0.130366  0.250000  1
  Ga  Ga5  1  0.869953  0.870092  0.750000  1
  Ga  Ga6  1  0.000962  0.334326  0.080332  1
  Ga  Ga7  1  0.998426  0.665036  0.922165  1
  Ga  Ga8  1  0.998426  0.665036  0.577835  1
  Ga  Ga9  1  0.336067  0.002180  0.419466  1
  Ga  Ga10  1  0.000962  0.334326  0.419668  1
  Ga  Ga11  1  0.665252  0.998781  0.578197  1
  Ga  Ga12  1  0.665252  0.998781  0.921803  1
  Ga  Ga13  1  0.336067  0.002180  0.080534  1
  Ga  Ga14  1  0.333338  0.333287  0.560304  1
  Ga  Ga15  1  0.664859  0.665892  0.437376  1
  Ga  Ga16  1  0.664859  0.665892  0.062624  1
  Ga  Ga17  1  0.333338  0.333287  0.939696  1
  Ga  Ga18  1  0.338427  0.543929  0.250000  1
  Ga  Ga19  1  0.659937  0.454728  0.750000  1
  Ga  Ga20  1  0.546765  0.343945  0.250000  1
  Ga  Ga21  1  0.454285  0.660017  0.750000  1
  Ir  Ir22  1  0.673285  0.331996  0.002976  1
  Ir  Ir23  1  0.326393  0.670800  0.003286  1
  Ir  Ir24  1  0.326393  0.670800  0.496714  1
  Ir  Ir25  1  0.673285  0.331996  0.497024  1
  Ir  Ir26  1  0.999115  0.995943  0.003861  1
  Ir  Ir27  1  0.999115  0.995943  0.496139  1
