# generated using pymatgen
data_Ca5Si3H
_symmetry_space_group_name_H-M   'P 1'
_cell_length_a   9.04376764
_cell_length_b   9.04376755
_cell_length_c   9.04376695
_cell_angle_alpha   129.96509734
_cell_angle_beta   129.96509989
_cell_angle_gamma   73.46256942
_symmetry_Int_Tables_number   1
_chemical_formula_structural   Ca5Si3H
_chemical_formula_sum   'Ca10 Si6 H2'
_cell_volume   424.07997259
_cell_formula_units_Z   2
loop_
 _symmetry_equiv_pos_site_id
 _symmetry_equiv_pos_as_xyz
  1  'x, y, z'
loop_
 _atom_site_type_symbol
 _atom_site_label
 _atom_site_symmetry_multiplicity
 _atom_site_fract_x
 _atom_site_fract_y
 _atom_site_fract_z
 _atom_site_occupancy
  Ca  Ca0  1  0.500000  0.500000  0.000000  1
  Ca  Ca1  1  0.000000  0.000000  0.000000  1
  Ca  Ca2  1  0.519726  0.019726  0.838101  1
  Ca  Ca3  1  0.181625  0.681625  0.161899  1
  Ca  Ca4  1  0.019726  0.181625  0.500000  1
  Ca  Ca5  1  0.681625  0.519726  0.500000  1
  Ca  Ca6  1  0.480274  0.980274  0.161899  1
  Ca  Ca7  1  0.818375  0.318375  0.838101  1
  Ca  Ca8  1  0.980274  0.818375  0.500000  1
  Ca  Ca9  1  0.318375  0.480274  0.500000  1
  Si  Si10  1  0.250000  0.250000  0.000000  1
  Si  Si11  1  0.750000  0.750000  0.000000  1
  Si  Si12  1  0.889202  0.389202  0.278404  1
  Si  Si13  1  0.110798  0.610798  0.721596  1
  Si  Si14  1  0.389202  0.110798  0.500000  1
  Si  Si15  1  0.610798  0.889202  0.500000  1
  H  H16  1  0.250000  0.750000  0.500000  1
  H  H17  1  0.750000  0.250000  0.500000  1
