# generated using pymatgen
data_Ce4PdRh3PbAu
_symmetry_space_group_name_H-M   'P 1'
_cell_length_a   7.72315638
_cell_length_b   7.73703786
_cell_length_c   3.70963400
_cell_angle_alpha   90.00000000
_cell_angle_beta   90.00000000
_cell_angle_gamma   89.38867852
_symmetry_Int_Tables_number   1
_chemical_formula_structural   Ce4PdRh3PbAu
_chemical_formula_sum   'Ce4 Pd1 Rh3 Pb1 Au1'
_cell_volume   221.65416364
_cell_formula_units_Z   1
loop_
 _symmetry_equiv_pos_site_id
 _symmetry_equiv_pos_as_xyz
  1  'x, y, z'
loop_
 _atom_site_type_symbol
 _atom_site_label
 _atom_site_symmetry_multiplicity
 _atom_site_fract_x
 _atom_site_fract_y
 _atom_site_fract_z
 _atom_site_occupancy
  Ce  Ce0  1  0.671452  0.158096  0.500000  1
  Ce  Ce1  1  0.174983  0.319508  0.500000  1
  Ce  Ce2  1  0.836279  0.690452  0.500000  1
  Ce  Ce3  1  0.315186  0.830761  0.500000  1
  Pd  Pd4  1  0.872437  0.367830  0.000000  1
  Rh  Rh5  1  0.364205  0.129512  0.000000  1
  Rh  Rh6  1  0.129959  0.633004  0.000000  1
  Rh  Rh7  1  0.634816  0.867409  0.000000  1
  Pb  Pb8  1  0.502189  0.500386  0.000000  1
  Au  Au9  1  0.998494  0.003042  0.000000  1
