# generated using pymatgen
data_SrYHo5PtI12
_symmetry_space_group_name_H-M   'P 1'
_cell_length_a   9.80418033
_cell_length_b   9.80232930
_cell_length_c   9.81047932
_cell_angle_alpha   106.44353451
_cell_angle_beta   106.42991386
_cell_angle_gamma   106.42487161
_symmetry_Int_Tables_number   1
_chemical_formula_structural   SrYHo5PtI12
_chemical_formula_sum   'Sr1 Y1 Ho5 Pt1 I12'
_cell_volume   797.03067163
_cell_formula_units_Z   1
loop_
 _symmetry_equiv_pos_site_id
 _symmetry_equiv_pos_as_xyz
  1  'x, y, z'
loop_
 _atom_site_type_symbol
 _atom_site_label
 _atom_site_symmetry_multiplicity
 _atom_site_fract_x
 _atom_site_fract_y
 _atom_site_fract_z
 _atom_site_occupancy
  Sr  Sr0  1  0.000004  0.000026  0.999990  1
  Y  Y1  1  0.403939  0.476751  0.200537  1
  Ho  Ho2  1  0.202309  0.404519  0.476831  1
  Ho  Ho3  1  0.476803  0.202192  0.404719  1
  Ho  Ho4  1  0.595578  0.523254  0.797842  1
  Ho  Ho5  1  0.797763  0.595471  0.523410  1
  Ho  Ho6  1  0.523341  0.797868  0.595743  1
  Pt  Pt7  1  0.500197  0.500033  0.500718  1
  I  I8  1  0.048150  0.363466  0.128315  1
  I  I9  1  0.128121  0.048598  0.363492  1
  I  I10  1  0.363631  0.127727  0.048703  1
  I  I11  1  0.951405  0.636393  0.871799  1
  I  I12  1  0.871838  0.951389  0.636407  1
  I  I13  1  0.636376  0.871852  0.951346  1
  I  I14  1  0.722703  0.574016  0.176338  1
  I  I15  1  0.176134  0.721986  0.573745  1
  I  I16  1  0.573755  0.176066  0.721929  1
  I  I17  1  0.277845  0.426132  0.823643  1
  I  I18  1  0.823818  0.277966  0.426147  1
  I  I19  1  0.426292  0.824298  0.278346  1
