# generated using pymatgen
data_Ti2Al2Ru3Rh
_symmetry_space_group_name_H-M   'P 1'
_cell_length_a   4.31813403
_cell_length_b   6.10896337
_cell_length_c   12.89047970
_cell_angle_alpha   90.03751160
_cell_angle_beta   89.99958105
_cell_angle_gamma   89.98628415
_symmetry_Int_Tables_number   1
_chemical_formula_structural   Ti2Al2Ru3Rh
_chemical_formula_sum   'Ti6 Al6 Ru9 Rh3'
_cell_volume   340.04203994
_cell_formula_units_Z   3
loop_
 _symmetry_equiv_pos_site_id
 _symmetry_equiv_pos_as_xyz
  1  'x, y, z'
loop_
 _atom_site_type_symbol
 _atom_site_label
 _atom_site_symmetry_multiplicity
 _atom_site_fract_x
 _atom_site_fract_y
 _atom_site_fract_z
 _atom_site_occupancy
  Ti  Ti0  1  0.999984  0.999682  0.004729  1
  Ti  Ti1  1  0.499966  0.500913  0.166922  1
  Ti  Ti2  1  0.000021  0.999287  0.333119  1
  Ti  Ti3  1  0.499967  0.496737  0.497488  1
  Ti  Ti4  1  0.000046  0.004939  0.661811  1
  Ti  Ti5  1  0.499999  0.497381  0.835921  1
  Al  Al6  1  0.999996  0.500051  0.001349  1
  Al  Al7  1  0.500002  0.999586  0.166390  1
  Al  Al8  1  0.000041  0.500344  0.333548  1
  Al  Al9  1  0.499974  0.000689  0.499632  1
  Al  Al10  1  0.999962  0.498922  0.665266  1
  Al  Al11  1  0.499974  0.000618  0.833811  1
  Ru  Ru12  1  0.500061  0.249558  0.998201  1
  Ru  Ru13  1  0.499932  0.750863  0.997653  1
  Ru  Ru14  1  0.999825  0.251212  0.166107  1
  Ru  Ru15  1  0.000173  0.749538  0.166001  1
  Ru  Ru16  1  0.500230  0.249157  0.333339  1
  Ru  Ru17  1  0.499810  0.751367  0.334036  1
  Ru  Ru18  1  0.999915  0.250509  0.501424  1
  Ru  Ru19  1  0.000062  0.749612  0.501512  1
  Ru  Ru20  1  0.500109  0.249028  0.668385  1
  Rh  Rh21  1  0.499960  0.750359  0.668254  1
  Rh  Rh22  1  0.999917  0.251036  0.832873  1
  Rh  Rh23  1  0.000069  0.748613  0.832229  1
