# generated using pymatgen
data_YbSm3(Si3Ni5)4
_symmetry_space_group_name_H-M   'P 1'
_cell_length_a   18.85552879
_cell_length_b   3.82291700
_cell_length_c   6.61326907
_cell_angle_alpha   90.00000000
_cell_angle_beta   90.14025058
_cell_angle_gamma   90.00000000
_symmetry_Int_Tables_number   1
_chemical_formula_structural   YbSm3(Si3Ni5)4
_chemical_formula_sum   'Yb1 Sm3 Si12 Ni20'
_cell_volume   476.70365016
_cell_formula_units_Z   1
loop_
 _symmetry_equiv_pos_site_id
 _symmetry_equiv_pos_as_xyz
  1  'x, y, z'
loop_
 _atom_site_type_symbol
 _atom_site_label
 _atom_site_symmetry_multiplicity
 _atom_site_fract_x
 _atom_site_fract_y
 _atom_site_fract_z
 _atom_site_occupancy
  Yb  Yb0  1  0.856267  0.750000  0.121594  1
  Sm  Sm1  1  0.643704  0.250000  0.624328  1
  Sm  Sm2  1  0.143336  0.250000  0.875472  1
  Sm  Sm3  1  0.356311  0.750000  0.375878  1
  Si  Si4  1  0.913136  0.250000  0.419868  1
  Si  Si5  1  0.413447  0.250000  0.074365  1
  Si  Si6  1  0.085227  0.750000  0.573959  1
  Si  Si7  1  0.586996  0.750000  0.926357  1
  Si  Si8  1  0.737882  0.250000  0.119795  1
  Si  Si9  1  0.235941  0.250000  0.382674  1
  Si  Si10  1  0.263867  0.750000  0.882330  1
  Si  Si11  1  0.763899  0.750000  0.620450  1
  Si  Si12  1  0.926025  0.250000  0.843005  1
  Si  Si13  1  0.427544  0.250000  0.658234  1
  Si  Si14  1  0.072604  0.750000  0.157744  1
  Si  Si15  1  0.573520  0.750000  0.340992  1
  Ni  Ni16  1  0.801473  0.250000  0.814268  1
  Ni  Ni17  1  0.301183  0.250000  0.689204  1
  Ni  Ni18  1  0.198433  0.750000  0.189176  1
  Ni  Ni19  1  0.700284  0.750000  0.312122  1
  Ni  Ni20  1  0.994226  0.250000  0.134694  1
  Ni  Ni21  1  0.495065  0.250000  0.363566  1
  Ni  Ni22  1  0.004041  0.750000  0.864515  1
  Ni  Ni23  1  0.506075  0.750000  0.635855  1
  Ni  Ni24  1  0.516494  0.250000  0.888843  1
  Ni  Ni25  1  0.014682  0.250000  0.610703  1
  Ni  Ni26  1  0.484002  0.750000  0.111938  1
  Ni  Ni27  1  0.982259  0.750000  0.383343  1
  Ni  Ni28  1  0.616424  0.250000  0.144798  1
  Ni  Ni29  1  0.114706  0.250000  0.355334  1
  Ni  Ni30  1  0.385024  0.750000  0.853358  1
  Ni  Ni31  1  0.884432  0.750000  0.644643  1
  Ni  Ni32  1  0.793736  0.250000  0.428892  1
  Ni  Ni33  1  0.291976  0.250000  0.073135  1
  Ni  Ni34  1  0.206982  0.750000  0.572890  1
  Ni  Ni35  1  0.708796  0.750000  0.931680  1
