# generated using pymatgen
data_Dy5Er9Au20
_symmetry_space_group_name_H-M   'P 1'
_cell_length_a   8.69383580
_cell_length_b   8.69383661
_cell_length_c   10.35966702
_cell_angle_alpha   89.99612130
_cell_angle_beta   89.99611907
_cell_angle_gamma   107.20473121
_symmetry_Int_Tables_number   1
_chemical_formula_structural   Dy5Er9Au20
_chemical_formula_sum   'Dy5 Er9 Au20'
_cell_volume   747.97578684
_cell_formula_units_Z   1
loop_
 _symmetry_equiv_pos_site_id
 _symmetry_equiv_pos_as_xyz
  1  'x, y, z'
loop_
 _atom_site_type_symbol
 _atom_site_label
 _atom_site_symmetry_multiplicity
 _atom_site_fract_x
 _atom_site_fract_y
 _atom_site_fract_z
 _atom_site_occupancy
  Dy  Dy0  1  0.500000  0.500000  0.500000  1
  Dy  Dy1  1  0.312523  0.312523  0.187919  1
  Dy  Dy2  1  0.687477  0.687477  0.812081  1
  Dy  Dy3  1  0.187217  0.187217  0.688520  1
  Dy  Dy4  1  0.812783  0.812783  0.311480  1
  Er  Er5  1  0.693736  0.306264  0.000000  1
  Er  Er6  1  0.306264  0.693736  0.000000  1
  Er  Er7  1  0.806338  0.193662  0.500000  1
  Er  Er8  1  0.193662  0.806338  0.500000  1
  Er  Er9  1  0.000000  0.000000  0.000000  1
  Er  Er10  1  0.002742  0.502736  0.249903  1
  Er  Er11  1  0.997258  0.497264  0.750097  1
  Er  Er12  1  0.497264  0.997258  0.750097  1
  Er  Er13  1  0.502736  0.002742  0.249903  1
  Au  Au14  1  0.859785  0.149572  0.209097  1
  Au  Au15  1  0.140215  0.850428  0.790903  1
  Au  Au16  1  0.640854  0.350003  0.709621  1
  Au  Au17  1  0.649997  0.359146  0.290379  1
  Au  Au18  1  0.359146  0.649997  0.290379  1
  Au  Au19  1  0.350003  0.640854  0.709621  1
  Au  Au20  1  0.850428  0.140215  0.790903  1
  Au  Au21  1  0.149572  0.859785  0.209097  1
  Au  Au22  1  0.937928  0.645066  0.002515  1
  Au  Au23  1  0.062072  0.354934  0.997485  1
  Au  Au24  1  0.562343  0.855833  0.502444  1
  Au  Au25  1  0.144167  0.437657  0.497556  1
  Au  Au26  1  0.437657  0.144167  0.497556  1
  Au  Au27  1  0.855833  0.562343  0.502444  1
  Au  Au28  1  0.354934  0.062072  0.997485  1
  Au  Au29  1  0.645066  0.937928  0.002515  1
  Au  Au30  1  0.105196  0.105196  0.397382  1
  Au  Au31  1  0.894804  0.894804  0.602618  1
  Au  Au32  1  0.395018  0.395018  0.897409  1
  Au  Au33  1  0.604982  0.604982  0.102591  1
