# generated using pymatgen
data_Tb8Si13Au3
_symmetry_space_group_name_H-M   'P 1'
_cell_length_a   8.21774500
_cell_length_b   8.21774494
_cell_length_c   8.13501200
_cell_angle_alpha   90.00000000
_cell_angle_beta   90.00000000
_cell_angle_gamma   120.00001231
_symmetry_Int_Tables_number   1
_chemical_formula_structural   Tb8Si13Au3
_chemical_formula_sum   'Tb8 Si13 Au3'
_cell_volume   475.76675788
_cell_formula_units_Z   1
loop_
 _symmetry_equiv_pos_site_id
 _symmetry_equiv_pos_as_xyz
  1  'x, y, z'
loop_
 _atom_site_type_symbol
 _atom_site_label
 _atom_site_symmetry_multiplicity
 _atom_site_fract_x
 _atom_site_fract_y
 _atom_site_fract_z
 _atom_site_occupancy
  Tb  Tb0  1  0.495631  0.991261  0.258653  1
  Tb  Tb1  1  0.494980  0.989963  0.741753  1
  Tb  Tb2  1  0.008739  0.504369  0.258653  1
  Tb  Tb3  1  0.010037  0.505020  0.741753  1
  Tb  Tb4  1  0.495631  0.504369  0.258653  1
  Tb  Tb5  1  0.494980  0.505020  0.741753  1
  Tb  Tb6  1  0.000000  0.000000  0.254687  1
  Tb  Tb7  1  0.000000  0.000000  0.744438  1
  Si  Si8  1  0.163547  0.327095  0.995845  1
  Si  Si9  1  0.835853  0.671706  0.003229  1
  Si  Si10  1  0.672905  0.836453  0.995845  1
  Si  Si11  1  0.836848  0.673695  0.502169  1
  Si  Si12  1  0.328294  0.164147  0.003229  1
  Si  Si13  1  0.166765  0.333529  0.497378  1
  Si  Si14  1  0.163547  0.836453  0.995845  1
  Si  Si15  1  0.326305  0.163152  0.502169  1
  Si  Si16  1  0.835853  0.164147  0.003229  1
  Si  Si17  1  0.666471  0.833235  0.497378  1
  Si  Si18  1  0.836848  0.163152  0.502169  1
  Si  Si19  1  0.166765  0.833235  0.497378  1
  Si  Si20  1  0.333333  0.666667  0.501738  1
  Au  Au21  1  0.333333  0.666667  0.004219  1
  Au  Au22  1  0.666667  0.333333  0.997910  1
  Au  Au23  1  0.666667  0.333333  0.499928  1
