# generated using pymatgen
data_Dy3HoLuPb3
_symmetry_space_group_name_H-M   'P 1'
_cell_length_a   6.56627800
_cell_length_b   9.03710650
_cell_length_c   9.03670400
_cell_angle_alpha   120.00147462
_cell_angle_beta   90.00070013
_cell_angle_gamma   89.99859084
_symmetry_Int_Tables_number   1
_chemical_formula_structural   Dy3HoLuPb3
_chemical_formula_sum   'Dy6 Ho2 Lu2 Pb6'
_cell_volume   464.39004484
_cell_formula_units_Z   2
loop_
 _symmetry_equiv_pos_site_id
 _symmetry_equiv_pos_as_xyz
  1  'x, y, z'
loop_
 _atom_site_type_symbol
 _atom_site_label
 _atom_site_symmetry_multiplicity
 _atom_site_fract_x
 _atom_site_fract_y
 _atom_site_fract_z
 _atom_site_occupancy
  Dy  Dy0  1  0.750275  0.237721  0.000000  1
  Dy  Dy1  1  0.750281  0.762316  0.762295  1
  Dy  Dy2  1  0.750281  0.000022  0.237705  1
  Dy  Dy3  1  0.249726  0.762291  0.000000  1
  Dy  Dy4  1  0.249728  0.237676  0.237705  1
  Dy  Dy5  1  0.249728  0.999970  0.762295  1
  Ho  Ho6  1  0.500000  0.333325  0.666683  1
  Ho  Ho7  1  0.500000  0.666642  0.333317  1
  Lu  Lu8  1  0.000003  0.666675  0.333315  1
  Lu  Lu9  1  0.000003  0.333359  0.666685  1
  Pb  Pb10  1  0.751652  0.604541  0.000000  1
  Pb  Pb11  1  0.751707  0.395534  0.395554  1
  Pb  Pb12  1  0.751707  0.999981  0.604446  1
  Pb  Pb13  1  0.248310  0.395456  0.000000  1
  Pb  Pb14  1  0.248299  0.604475  0.604453  1
  Pb  Pb15  1  0.248299  0.000021  0.395547  1
