# generated using pymatgen
data_Dy11Ho5ZnIn3Rh4
_symmetry_space_group_name_H-M   'P 1'
_cell_length_a   9.60594382
_cell_length_b   9.60383069
_cell_length_c   9.60658855
_cell_angle_alpha   60.03255935
_cell_angle_beta   60.09445246
_cell_angle_gamma   60.04199512
_symmetry_Int_Tables_number   1
_chemical_formula_structural   Dy11Ho5ZnIn3Rh4
_chemical_formula_sum   'Dy11 Ho5 Zn1 In3 Rh4'
_cell_volume   627.46946516
_cell_formula_units_Z   1
loop_
 _symmetry_equiv_pos_site_id
 _symmetry_equiv_pos_as_xyz
  1  'x, y, z'
loop_
 _atom_site_type_symbol
 _atom_site_label
 _atom_site_symmetry_multiplicity
 _atom_site_fract_x
 _atom_site_fract_y
 _atom_site_fract_z
 _atom_site_occupancy
  Dy  Dy0  1  0.187735  0.188033  0.811690  1
  Dy  Dy1  1  0.603047  0.602507  0.196201  1
  Dy  Dy2  1  0.440144  0.059278  0.440309  1
  Dy  Dy3  1  0.440466  0.440067  0.059394  1
  Dy  Dy4  1  0.813768  0.181472  0.813585  1
  Dy  Dy5  1  0.187515  0.812002  0.188061  1
  Dy  Dy6  1  0.438423  0.060375  0.060597  1
  Dy  Dy7  1  0.181278  0.813999  0.813383  1
  Dy  Dy8  1  0.060594  0.437927  0.061016  1
  Dy  Dy9  1  0.813681  0.814101  0.181374  1
  Dy  Dy10  1  0.195752  0.603011  0.602807  1
  Ho  Ho11  1  0.059218  0.439975  0.440501  1
  Ho  Ho12  1  0.060457  0.060664  0.438445  1
  Ho  Ho13  1  0.811737  0.187829  0.188116  1
  Ho  Ho14  1  0.602971  0.196543  0.602274  1
  Ho  Ho15  1  0.599153  0.599066  0.598836  1
  Zn  Zn16  1  0.833500  0.833547  0.833372  1
  In  In17  1  0.832395  0.832843  0.504738  1
  In  In18  1  0.505049  0.832618  0.832291  1
  In  In19  1  0.832396  0.504850  0.832567  1
  Rh  Rh20  1  0.391814  0.822696  0.392137  1
  Rh  Rh21  1  0.393653  0.393360  0.393732  1
  Rh  Rh22  1  0.822892  0.391410  0.392265  1
  Rh  Rh23  1  0.392363  0.391827  0.822310  1
