# generated using pymatgen
data_SmEr2Np7O20
_symmetry_space_group_name_H-M   'P 1'
_cell_length_a   6.58059361
_cell_length_b   7.59042272
_cell_length_c   8.48643747
_cell_angle_alpha   102.70421467
_cell_angle_beta   97.33958980
_cell_angle_gamma   106.86118188
_symmetry_Int_Tables_number   1
_chemical_formula_structural   SmEr2Np7O20
_chemical_formula_sum   'Sm1 Er2 Np7 O20'
_cell_volume   387.32032177
_cell_formula_units_Z   1
loop_
 _symmetry_equiv_pos_site_id
 _symmetry_equiv_pos_as_xyz
  1  'x, y, z'
loop_
 _atom_site_type_symbol
 _atom_site_label
 _atom_site_symmetry_multiplicity
 _atom_site_fract_x
 _atom_site_fract_y
 _atom_site_fract_z
 _atom_site_occupancy
  Sm  Sm0  1  0.999416  0.999751  0.999563  1
  Er  Er1  1  0.798991  0.598612  0.598174  1
  Er  Er2  1  0.601039  0.201751  0.201478  1
  Np  Np3  1  0.999033  0.499584  0.999701  1
  Np  Np4  1  0.798753  0.100101  0.598456  1
  Np  Np5  1  0.400350  0.800228  0.801557  1
  Np  Np6  1  0.200009  0.399714  0.399074  1
  Np  Np7  1  0.600592  0.699384  0.201022  1
  Np  Np8  1  0.401039  0.299574  0.800623  1
  Np  Np9  1  0.200710  0.901242  0.400139  1
  O  O10  1  0.856445  0.321179  0.454133  1
  O  O11  1  0.638739  0.914545  0.052222  1
  O  O12  1  0.950572  0.766173  0.155081  1
  O  O13  1  0.442238  0.520859  0.653618  1
  O  O14  1  0.855744  0.831561  0.448280  1
  O  O15  1  0.649371  0.430373  0.047104  1
  O  O16  1  0.742882  0.368854  0.751751  1
  O  O17  1  0.251945  0.127066  0.260871  1
  O  O18  1  0.954899  0.288790  0.152588  1
  O  O19  1  0.446186  0.026475  0.646308  1
  O  O20  1  0.549780  0.970350  0.355027  1
  O  O21  1  0.055831  0.714520  0.848014  1
  O  O22  1  0.737256  0.876169  0.742165  1
  O  O23  1  0.350306  0.571628  0.952939  1
  O  O24  1  0.253457  0.628443  0.248033  1
  O  O25  1  0.546625  0.481300  0.349259  1
  O  O26  1  0.151231  0.173255  0.552190  1
  O  O27  1  0.050957  0.233539  0.843510  1
  O  O28  1  0.358948  0.077200  0.942292  1
  O  O29  1  0.156655  0.677780  0.544827  1
