# generated using pymatgen
data_TbY4Er3Pt4
_symmetry_space_group_name_H-M   'P 1'
_cell_length_a   4.76014400
_cell_length_b   7.15973809
_cell_length_c   8.77381216
_cell_angle_alpha   89.93631755
_cell_angle_beta   90.00000000
_cell_angle_gamma   90.00000000
_symmetry_Int_Tables_number   1
_chemical_formula_structural   TbY4Er3Pt4
_chemical_formula_sum   'Tb1 Y4 Er3 Pt4'
_cell_volume   299.02347966
_cell_formula_units_Z   1
loop_
 _symmetry_equiv_pos_site_id
 _symmetry_equiv_pos_as_xyz
  1  'x, y, z'
loop_
 _atom_site_type_symbol
 _atom_site_label
 _atom_site_symmetry_multiplicity
 _atom_site_fract_x
 _atom_site_fract_y
 _atom_site_fract_z
 _atom_site_occupancy
  Tb  Tb0  1  0.750000  0.644718  0.420130  1
  Y  Y1  1  0.250000  0.990617  0.331056  1
  Y  Y2  1  0.250000  0.489124  0.168108  1
  Y  Y3  1  0.750000  0.011008  0.670184  1
  Y  Y4  1  0.750000  0.510346  0.830678  1
  Er  Er5  1  0.250000  0.856442  0.920877  1
  Er  Er6  1  0.250000  0.355389  0.579720  1
  Er  Er7  1  0.750000  0.143778  0.079192  1
  Pt  Pt8  1  0.250000  0.254985  0.906037  1
  Pt  Pt9  1  0.250000  0.756140  0.596061  1
  Pt  Pt10  1  0.750000  0.745238  0.091599  1
  Pt  Pt11  1  0.750000  0.242215  0.406359  1
