# generated using pymatgen
data_CaPa(TcO4)6
_symmetry_space_group_name_H-M   'P 1'
_cell_length_a   9.99759800
_cell_length_b   9.99759900
_cell_length_c   6.07344500
_cell_angle_alpha   90.00000000
_cell_angle_beta   90.00000000
_cell_angle_gamma   119.99999669
_symmetry_Int_Tables_number   1
_chemical_formula_structural   CaPa(TcO4)6
_chemical_formula_sum   'Ca1 Pa1 Tc6 O24'
_cell_volume   525.72318758
_cell_formula_units_Z   1
loop_
 _symmetry_equiv_pos_site_id
 _symmetry_equiv_pos_as_xyz
  1  'x, y, z'
loop_
 _atom_site_type_symbol
 _atom_site_label
 _atom_site_symmetry_multiplicity
 _atom_site_fract_x
 _atom_site_fract_y
 _atom_site_fract_z
 _atom_site_occupancy
  Ca  Ca0  1  0.333333  0.666667  0.250000  1
  Pa  Pa1  1  0.666667  0.333333  0.750000  1
  Tc  Tc2  1  0.085071  0.386389  0.750000  1
  Tc  Tc3  1  0.389831  0.293461  0.250000  1
  Tc  Tc4  1  0.613611  0.698680  0.750000  1
  Tc  Tc5  1  0.903627  0.610169  0.250000  1
  Tc  Tc6  1  0.301320  0.914929  0.750000  1
  Tc  Tc7  1  0.706539  0.096373  0.250000  1
  O  O8  1  0.495686  0.645791  0.519452  1
  O  O9  1  0.354209  0.849895  0.519452  1
  O  O10  1  0.821358  0.724599  0.250000  1
  O  O11  1  0.106146  0.846241  0.750000  1
  O  O12  1  0.275401  0.096759  0.250000  1
  O  O13  1  0.153759  0.259905  0.750000  1
  O  O14  1  0.516428  0.355586  0.018324  1
  O  O15  1  0.903241  0.178642  0.250000  1
  O  O16  1  0.101819  0.717845  0.250000  1
  O  O17  1  0.150105  0.504314  0.980548  1
  O  O18  1  0.150105  0.504314  0.519452  1
  O  O19  1  0.880936  0.287823  0.750000  1
  O  O20  1  0.282155  0.383975  0.250000  1
  O  O21  1  0.712177  0.593113  0.750000  1
  O  O22  1  0.839158  0.483572  0.481676  1
  O  O23  1  0.406887  0.119064  0.750000  1
  O  O24  1  0.644414  0.160842  0.018324  1
  O  O25  1  0.495686  0.645791  0.980548  1
  O  O26  1  0.354209  0.849895  0.980548  1
  O  O27  1  0.644414  0.160842  0.481676  1
  O  O28  1  0.516428  0.355586  0.481676  1
  O  O29  1  0.839158  0.483572  0.018324  1
  O  O30  1  0.740095  0.893854  0.750000  1
  O  O31  1  0.616025  0.898181  0.250000  1
