# generated using pymatgen
data_Y16Sc4Ir5Pt7
_symmetry_space_group_name_H-M   'P 1'
_cell_length_a   10.95340768
_cell_length_b   10.95340768
_cell_length_c   6.30092276
_cell_angle_alpha   90.08879973
_cell_angle_beta   90.08879973
_cell_angle_gamma   90.27847748
_symmetry_Int_Tables_number   1
_chemical_formula_structural   Y16Sc4Ir5Pt7
_chemical_formula_sum   'Y16 Sc4 Ir5 Pt7'
_cell_volume   755.95593677
_cell_formula_units_Z   1
loop_
 _symmetry_equiv_pos_site_id
 _symmetry_equiv_pos_as_xyz
  1  'x, y, z'
loop_
 _atom_site_type_symbol
 _atom_site_label
 _atom_site_symmetry_multiplicity
 _atom_site_fract_x
 _atom_site_fract_y
 _atom_site_fract_z
 _atom_site_occupancy
  Y  Y0  1  0.291158  0.085118  0.375766  1
  Y  Y1  1  0.291488  0.911535  0.876216  1
  Y  Y2  1  0.708828  0.085281  0.876100  1
  Y  Y3  1  0.708646  0.913620  0.375617  1
  Y  Y4  1  0.582808  0.789288  0.874992  1
  Y  Y5  1  0.585722  0.209672  0.377142  1
  Y  Y6  1  0.413122  0.789081  0.379825  1
  Y  Y7  1  0.413897  0.208490  0.876419  1
  Y  Y8  1  0.210712  0.417192  0.625008  1
  Y  Y9  1  0.210919  0.586878  0.120175  1
  Y  Y10  1  0.790328  0.414278  0.122858  1
  Y  Y11  1  0.791510  0.586103  0.623581  1
  Y  Y12  1  0.914882  0.708842  0.124234  1
  Y  Y13  1  0.914719  0.291172  0.623900  1
  Y  Y14  1  0.088465  0.708512  0.623784  1
  Y  Y15  1  0.086380  0.291354  0.124383  1
  Sc  Sc16  1  0.999951  0.999907  0.500613  1
  Sc  Sc17  1  0.000093  0.000049  0.999387  1
  Sc  Sc18  1  0.497602  0.501621  0.998965  1
  Sc  Sc19  1  0.498379  0.502398  0.501035  1
  Ir  Ir20  1  0.354687  0.645313  0.750000  1
  Ir  Ir21  1  0.500059  0.000130  0.123020  1
  Ir  Ir22  1  0.500011  0.000674  0.621333  1
  Ir  Ir23  1  0.999326  0.499989  0.878667  1
  Ir  Ir24  1  0.999870  0.499941  0.376980  1
  Pt  Pt25  1  0.853944  0.146056  0.250000  1
  Pt  Pt26  1  0.853819  0.853759  0.749948  1
  Pt  Pt27  1  0.146241  0.146181  0.750052  1
  Pt  Pt28  1  0.145757  0.854243  0.250000  1
  Pt  Pt29  1  0.646040  0.353960  0.750000  1
  Pt  Pt30  1  0.647203  0.646563  0.249846  1
  Pt  Pt31  1  0.353437  0.352797  0.250154  1
