# generated using pymatgen
data_Tm3MgCd2Ga3
_symmetry_space_group_name_H-M   'P 1'
_cell_length_a   7.18867900
_cell_length_b   7.18047677
_cell_length_c   4.39931000
_cell_angle_alpha   90.00000000
_cell_angle_beta   90.00000000
_cell_angle_gamma   120.03778944
_symmetry_Int_Tables_number   1
_chemical_formula_structural   Tm3MgCd2Ga3
_chemical_formula_sum   'Tm3 Mg1 Cd2 Ga3'
_cell_volume   196.58576586
_cell_formula_units_Z   1
loop_
 _symmetry_equiv_pos_site_id
 _symmetry_equiv_pos_as_xyz
  1  'x, y, z'
loop_
 _atom_site_type_symbol
 _atom_site_label
 _atom_site_symmetry_multiplicity
 _atom_site_fract_x
 _atom_site_fract_y
 _atom_site_fract_z
 _atom_site_occupancy
  Tm  Tm0  1  0.999530  0.571023  0.000000  1
  Tm  Tm1  1  0.428507  0.428977  0.000000  1
  Tm  Tm2  1  0.573629  0.000000  0.000000  1
  Mg  Mg3  1  0.241396  0.000000  0.500000  1
  Cd  Cd4  1  0.001164  0.248926  0.500000  1
  Cd  Cd5  1  0.752238  0.751074  0.500000  1
  Ga  Ga6  1  0.663826  0.329227  0.500000  1
  Ga  Ga7  1  0.334598  0.670773  0.500000  1
  Ga  Ga8  1  0.005113  0.000000  0.000000  1
