# generated using pymatgen
data_Yb2CeDy(Ga2Ag)4
_symmetry_space_group_name_H-M   'P 1'
_cell_length_a   4.38689800
_cell_length_b   6.99112142
_cell_length_c   10.35102356
_cell_angle_alpha   90.28874819
_cell_angle_beta   90.00000000
_cell_angle_gamma   90.00000000
_symmetry_Int_Tables_number   1
_chemical_formula_structural   Yb2CeDy(Ga2Ag)4
_chemical_formula_sum   'Yb2 Ce1 Dy1 Ga8 Ag4'
_cell_volume   317.45499423
_cell_formula_units_Z   1
loop_
 _symmetry_equiv_pos_site_id
 _symmetry_equiv_pos_as_xyz
  1  'x, y, z'
loop_
 _atom_site_type_symbol
 _atom_site_label
 _atom_site_symmetry_multiplicity
 _atom_site_fract_x
 _atom_site_fract_y
 _atom_site_fract_z
 _atom_site_occupancy
  Yb  Yb0  1  0.750000  0.723402  0.331781  1
  Yb  Yb1  1  0.250000  0.276439  0.670534  1
  Ce  Ce2  1  0.750000  0.218003  0.172890  1
  Dy  Dy3  1  0.250000  0.779125  0.826181  1
  Ga  Ga4  1  0.250000  0.699517  0.536651  1
  Ga  Ga5  1  0.750000  0.306187  0.465930  1
  Ga  Ga6  1  0.750000  0.793611  0.037274  1
  Ga  Ga7  1  0.250000  0.203055  0.962230  1
  Ga  Ga8  1  0.250000  0.923485  0.150325  1
  Ga  Ga9  1  0.750000  0.073188  0.848685  1
  Ga  Ga10  1  0.750000  0.572572  0.652942  1
  Ga  Ga11  1  0.250000  0.427885  0.347172  1
  Ag  Ag12  1  0.250000  0.544385  0.096357  1
  Ag  Ag13  1  0.750000  0.459662  0.899053  1
  Ag  Ag14  1  0.750000  0.959287  0.597720  1
  Ag  Ag15  1  0.250000  0.040196  0.404275  1
