# generated using pymatgen
data_Dy2YTm(Si3Rh)2
_symmetry_space_group_name_H-M   'P 1'
_cell_length_a   8.16652400
_cell_length_b   8.15951538
_cell_length_c   7.88059300
_cell_angle_alpha   90.00000000
_cell_angle_beta   90.00000000
_cell_angle_gamma   119.97160794
_symmetry_Int_Tables_number   1
_chemical_formula_structural   Dy2YTm(Si3Rh)2
_chemical_formula_sum   'Dy4 Y2 Tm2 Si12 Rh4'
_cell_volume   454.89935163
_cell_formula_units_Z   2
loop_
 _symmetry_equiv_pos_site_id
 _symmetry_equiv_pos_as_xyz
  1  'x, y, z'
loop_
 _atom_site_type_symbol
 _atom_site_label
 _atom_site_symmetry_multiplicity
 _atom_site_fract_x
 _atom_site_fract_y
 _atom_site_fract_z
 _atom_site_occupancy
  Dy  Dy0  1  0.981717  0.490858  0.250000  1
  Dy  Dy1  1  0.491265  0.508778  0.750000  1
  Dy  Dy2  1  0.491265  0.982487  0.750000  1
  Dy  Dy3  1  0.017513  0.508756  0.750000  1
  Y  Y4  1  0.000241  0.000121  0.250000  1
  Y  Y5  1  0.999717  0.999858  0.750000  1
  Tm  Tm6  1  0.508430  0.491111  0.250000  1
  Tm  Tm7  1  0.508430  0.017320  0.250000  1
  Si  Si8  1  0.167430  0.832949  0.499032  1
  Si  Si9  1  0.167430  0.334483  0.499032  1
  Si  Si10  1  0.665614  0.832807  0.498761  1
  Si  Si11  1  0.832551  0.166693  0.499003  1
  Si  Si12  1  0.832551  0.665858  0.499003  1
  Si  Si13  1  0.334398  0.167198  0.497924  1
  Si  Si14  1  0.832551  0.166693  0.000997  1
  Si  Si15  1  0.832551  0.665858  0.000997  1
  Si  Si16  1  0.334398  0.167198  0.002076  1
  Si  Si17  1  0.167430  0.832949  0.000968  1
  Si  Si18  1  0.167430  0.334483  0.000968  1
  Si  Si19  1  0.665614  0.832807  0.001239  1
  Rh  Rh20  1  0.334708  0.667355  0.462431  1
  Rh  Rh21  1  0.666028  0.333014  0.530967  1
  Rh  Rh22  1  0.666028  0.333014  0.969033  1
  Rh  Rh23  1  0.334708  0.667355  0.037569  1
