# generated using pymatgen
data_Rb10CaSn12
_symmetry_space_group_name_H-M   'P 1'
_cell_length_a   10.82880137
_cell_length_b   10.82880265
_cell_length_c   10.82880200
_cell_angle_alpha   109.47121568
_cell_angle_beta   109.47121808
_cell_angle_gamma   109.47122080
_symmetry_Int_Tables_number   1
_chemical_formula_structural   Rb10CaSn12
_chemical_formula_sum   'Rb10 Ca1 Sn12'
_cell_volume   977.50590130
_cell_formula_units_Z   1
loop_
 _symmetry_equiv_pos_site_id
 _symmetry_equiv_pos_as_xyz
  1  'x, y, z'
loop_
 _atom_site_type_symbol
 _atom_site_label
 _atom_site_symmetry_multiplicity
 _atom_site_fract_x
 _atom_site_fract_y
 _atom_site_fract_z
 _atom_site_occupancy
  Rb  Rb0  1  0.500000  0.250000  0.750000  1
  Rb  Rb1  1  0.750000  0.250000  0.500000  1
  Rb  Rb2  1  0.250000  0.750000  0.500000  1
  Rb  Rb3  1  0.500000  0.750000  0.250000  1
  Rb  Rb4  1  0.598468  0.000000  0.000000  1
  Rb  Rb5  1  0.401532  0.401532  0.401532  1
  Rb  Rb6  1  0.000000  0.598468  0.000000  1
  Rb  Rb7  1  0.000000  0.000000  0.598468  1
  Rb  Rb8  1  0.750000  0.500000  0.250000  1
  Rb  Rb9  1  0.250000  0.500000  0.750000  1
  Ca  Ca10  1  0.000000  0.000000  0.000000  1
  Sn  Sn11  1  0.000000  0.172724  0.339623  1
  Sn  Sn12  1  0.827276  0.166899  0.827276  1
  Sn  Sn13  1  0.660377  0.660377  0.833101  1
  Sn  Sn14  1  0.339623  0.172724  0.000000  1
  Sn  Sn15  1  0.172724  0.339623  0.000000  1
  Sn  Sn16  1  0.339623  0.000000  0.172724  1
  Sn  Sn17  1  0.660377  0.833101  0.660377  1
  Sn  Sn18  1  0.833101  0.660377  0.660377  1
  Sn  Sn19  1  0.000000  0.339623  0.172724  1
  Sn  Sn20  1  0.827276  0.827276  0.166899  1
  Sn  Sn21  1  0.166899  0.827276  0.827276  1
  Sn  Sn22  1  0.172724  0.000000  0.339623  1
