# generated using pymatgen
data_Ba3Np2O7
_symmetry_space_group_name_H-M   'P 1'
_cell_length_a   11.54602513
_cell_length_b   11.54602447
_cell_length_c   6.22761000
_cell_angle_alpha   90.00000000
_cell_angle_beta   90.00000000
_cell_angle_gamma   148.00317764
_symmetry_Int_Tables_number   1
_chemical_formula_structural   Ba3Np2O7
_chemical_formula_sum   'Ba6 Np4 O14'
_cell_volume   439.90362311
_cell_formula_units_Z   2
loop_
 _symmetry_equiv_pos_site_id
 _symmetry_equiv_pos_as_xyz
  1  'x, y, z'
loop_
 _atom_site_type_symbol
 _atom_site_label
 _atom_site_symmetry_multiplicity
 _atom_site_fract_x
 _atom_site_fract_y
 _atom_site_fract_z
 _atom_site_occupancy
  Ba  Ba0  1  0.048583  0.424100  0.750000  1
  Ba  Ba1  1  0.575900  0.951417  0.250000  1
  Ba  Ba2  1  0.951417  0.575900  0.250000  1
  Ba  Ba3  1  0.424100  0.048583  0.750000  1
  Ba  Ba4  1  0.754681  0.754681  0.250000  1
  Ba  Ba5  1  0.245319  0.245319  0.750000  1
  Np  Np6  1  0.153340  0.350968  0.250000  1
  Np  Np7  1  0.649032  0.846660  0.750000  1
  Np  Np8  1  0.846660  0.649032  0.750000  1
  Np  Np9  1  0.350968  0.153340  0.250000  1
  O  O10  1  0.914967  0.085033  0.000000  1
  O  O11  1  0.914967  0.085033  0.500000  1
  O  O12  1  0.388069  0.611931  0.500000  1
  O  O13  1  0.388069  0.611931  0.000000  1
  O  O14  1  0.988566  0.380563  0.250000  1
  O  O15  1  0.619437  0.011434  0.750000  1
  O  O16  1  0.380563  0.988566  0.250000  1
  O  O17  1  0.011434  0.619437  0.750000  1
  O  O18  1  0.611931  0.388069  0.000000  1
  O  O19  1  0.611931  0.388069  0.500000  1
  O  O20  1  0.085033  0.914967  0.500000  1
  O  O21  1  0.085033  0.914967  0.000000  1
  O  O22  1  0.679592  0.679592  0.750000  1
  O  O23  1  0.320408  0.320408  0.250000  1
