# generated using pymatgen
data_Sr10Cd2Ag3Ir
_symmetry_space_group_name_H-M   'P 1'
_cell_length_a   9.95250720
_cell_length_b   9.95250555
_cell_length_c   9.97867560
_cell_angle_alpha   129.13418867
_cell_angle_beta   129.13417981
_cell_angle_gamma   74.59759081
_symmetry_Int_Tables_number   1
_chemical_formula_structural   Sr10Cd2Ag3Ir
_chemical_formula_sum   'Sr10 Cd2 Ag3 Ir1'
_cell_volume   580.03824389
_cell_formula_units_Z   1
loop_
 _symmetry_equiv_pos_site_id
 _symmetry_equiv_pos_as_xyz
  1  'x, y, z'
loop_
 _atom_site_type_symbol
 _atom_site_label
 _atom_site_symmetry_multiplicity
 _atom_site_fract_x
 _atom_site_fract_y
 _atom_site_fract_z
 _atom_site_occupancy
  Sr  Sr0  1  0.532716  0.019581  0.824841  1
  Sr  Sr1  1  0.207875  0.694739  0.175159  1
  Sr  Sr2  1  0.029993  0.190502  0.500000  1
  Sr  Sr3  1  0.681952  0.549834  0.500000  1
  Sr  Sr4  1  0.480419  0.967284  0.175159  1
  Sr  Sr5  1  0.805261  0.292125  0.824841  1
  Sr  Sr6  1  0.950166  0.818048  0.500000  1
  Sr  Sr7  1  0.309498  0.470007  0.500000  1
  Sr  Sr8  1  0.504325  0.510968  0.015294  1
  Sr  Sr9  1  0.989032  0.995675  0.984706  1
  Cd  Cd10  1  0.253408  0.246592  0.000000  1
  Cd  Cd11  1  0.753408  0.746592  0.000000  1
  Ag  Ag12  1  0.380596  0.119404  0.500000  1
  Ag  Ag13  1  0.120302  0.620833  0.741135  1
  Ag  Ag14  1  0.879167  0.379698  0.258865  1
  Ir  Ir15  1  0.621882  0.878118  0.500000  1
