# generated using pymatgen
data_NdHoErGa8Ag3
_symmetry_space_group_name_H-M   'P 1'
_cell_length_a   4.36347217
_cell_length_b   8.39237466
_cell_length_c   8.39237486
_cell_angle_alpha   69.23177581
_cell_angle_beta   74.93192152
_cell_angle_gamma   74.93191902
_symmetry_Int_Tables_number   1
_chemical_formula_structural   NdHoErGa8Ag3
_chemical_formula_sum   'Nd1 Ho1 Er1 Ga8 Ag3'
_cell_volume   272.64500077
_cell_formula_units_Z   1
loop_
 _symmetry_equiv_pos_site_id
 _symmetry_equiv_pos_as_xyz
  1  'x, y, z'
loop_
 _atom_site_type_symbol
 _atom_site_label
 _atom_site_symmetry_multiplicity
 _atom_site_fract_x
 _atom_site_fract_y
 _atom_site_fract_z
 _atom_site_occupancy
  Nd  Nd0  1  0.500046  0.499954  0.499954  1
  Ho  Ho1  1  0.200306  0.799694  0.799694  1
  Er  Er2  1  0.799760  0.200240  0.200240  1
  Ga  Ga3  1  0.355822  0.360548  0.927808  1
  Ga  Ga4  1  0.644135  0.639278  0.072453  1
  Ga  Ga5  1  0.355822  0.927808  0.360548  1
  Ga  Ga6  1  0.644135  0.072453  0.639278  1
  Ga  Ga7  1  0.160718  0.471585  0.206980  1
  Ga  Ga8  1  0.839434  0.528180  0.792952  1
  Ga  Ga9  1  0.160718  0.206980  0.471585  1
  Ga  Ga10  1  0.839434  0.792952  0.528180  1
  Ag  Ag11  1  0.499900  0.000100  0.000100  1
  Ag  Ag12  1  0.999885  0.806880  0.193350  1
  Ag  Ag13  1  0.999885  0.193350  0.806880  1
