# generated using pymatgen
data_Gd4ErScSi4
_symmetry_space_group_name_H-M   'P 1'
_cell_length_a   7.37996600
_cell_length_b   7.37996600
_cell_length_c   4.27153200
_cell_angle_alpha   90.00000000
_cell_angle_beta   90.00000000
_cell_angle_gamma   90.00000000
_symmetry_Int_Tables_number   1
_chemical_formula_structural   Gd4ErScSi4
_chemical_formula_sum   'Gd4 Er1 Sc1 Si4'
_cell_volume   232.64428384
_cell_formula_units_Z   1
loop_
 _symmetry_equiv_pos_site_id
 _symmetry_equiv_pos_as_xyz
  1  'x, y, z'
loop_
 _atom_site_type_symbol
 _atom_site_label
 _atom_site_symmetry_multiplicity
 _atom_site_fract_x
 _atom_site_fract_y
 _atom_site_fract_z
 _atom_site_occupancy
  Gd  Gd0  1  0.674143  0.178437  0.500000  1
  Gd  Gd1  1  0.325857  0.821563  0.500000  1
  Gd  Gd2  1  0.178437  0.325857  0.500000  1
  Gd  Gd3  1  0.821563  0.674143  0.500000  1
  Er  Er4  1  0.000000  0.000000  0.000000  1
  Sc  Sc5  1  0.500000  0.500000  0.000000  1
  Si  Si6  1  0.120344  0.615198  0.000000  1
  Si  Si7  1  0.879656  0.384802  0.000000  1
  Si  Si8  1  0.615198  0.879656  0.000000  1
  Si  Si9  1  0.384802  0.120344  0.000000  1
