# generated using pymatgen
data_Ti24Si3AsSe4
_symmetry_space_group_name_H-M   'P 1'
_cell_length_a   10.13800653
_cell_length_b   10.15677752
_cell_length_c   5.08758646
_cell_angle_alpha   90.07924632
_cell_angle_beta   90.12921090
_cell_angle_gamma   90.05317795
_symmetry_Int_Tables_number   1
_chemical_formula_structural   Ti24Si3AsSe4
_chemical_formula_sum   'Ti24 Si3 As1 Se4'
_cell_volume   523.86405581
_cell_formula_units_Z   1
loop_
 _symmetry_equiv_pos_site_id
 _symmetry_equiv_pos_as_xyz
  1  'x, y, z'
loop_
 _atom_site_type_symbol
 _atom_site_label
 _atom_site_symmetry_multiplicity
 _atom_site_fract_x
 _atom_site_fract_y
 _atom_site_fract_z
 _atom_site_occupancy
  Ti  Ti0  1  0.216768  0.683559  0.994571  1
  Ti  Ti1  1  0.783827  0.316864  0.993522  1
  Ti  Ti2  1  0.184022  0.283447  0.494020  1
  Ti  Ti3  1  0.816464  0.715082  0.495414  1
  Ti  Ti4  1  0.286333  0.818045  0.504331  1
  Ti  Ti5  1  0.713091  0.182954  0.508081  1
  Ti  Ti6  1  0.317403  0.213507  0.004232  1
  Ti  Ti7  1  0.682367  0.784505  0.002513  1
  Ti  Ti8  1  0.639150  0.527129  0.715451  1
  Ti  Ti9  1  0.360676  0.472729  0.715932  1
  Ti  Ti10  1  0.028910  0.859966  0.215110  1
  Ti  Ti11  1  0.973812  0.140745  0.213841  1
  Ti  Ti12  1  0.858744  0.973013  0.787123  1
  Ti  Ti13  1  0.142706  0.027820  0.784817  1
  Ti  Ti14  1  0.472777  0.643487  0.285028  1
  Ti  Ti15  1  0.528127  0.356537  0.284876  1
  Ti  Ti16  1  0.103665  0.581084  0.464653  1
  Ti  Ti17  1  0.896228  0.418753  0.465127  1
  Ti  Ti18  1  0.081141  0.396445  0.965148  1
  Ti  Ti19  1  0.918956  0.603127  0.964988  1
  Ti  Ti20  1  0.394566  0.918075  0.035605  1
  Ti  Ti21  1  0.603786  0.083419  0.031396  1
  Ti  Ti22  1  0.417859  0.105175  0.536717  1
  Ti  Ti23  1  0.580196  0.894069  0.539826  1
  Si  Si24  1  0.206236  0.040847  0.287448  1
  Si  Si25  1  0.458524  0.705968  0.788299  1
  Si  Si26  1  0.540163  0.294258  0.787635  1
  As  As27  1  0.792792  0.959639  0.288732  1
  Se  Se28  1  0.706785  0.540247  0.211369  1
  Se  Se29  1  0.293217  0.459382  0.211687  1
  Se  Se30  1  0.040606  0.792644  0.711532  1
  Se  Se31  1  0.960101  0.207479  0.710981  1
