# generated using pymatgen
data_Cs2Pa4O11
_symmetry_space_group_name_H-M   'P 1'
_cell_length_a   7.05702400
_cell_length_b   7.05702408
_cell_length_c   13.47879500
_cell_angle_alpha   90.00000000
_cell_angle_beta   90.00000000
_cell_angle_gamma   120.00000212
_symmetry_Int_Tables_number   1
_chemical_formula_structural   Cs2Pa4O11
_chemical_formula_sum   'Cs4 Pa8 O22'
_cell_volume   581.33287634
_cell_formula_units_Z   2
loop_
 _symmetry_equiv_pos_site_id
 _symmetry_equiv_pos_as_xyz
  1  'x, y, z'
loop_
 _atom_site_type_symbol
 _atom_site_label
 _atom_site_symmetry_multiplicity
 _atom_site_fract_x
 _atom_site_fract_y
 _atom_site_fract_z
 _atom_site_occupancy
  Cs  Cs0  1  0.666667  0.333333  0.058326  1
  Cs  Cs1  1  0.333333  0.666667  0.558326  1
  Cs  Cs2  1  0.333333  0.666667  0.103933  1
  Cs  Cs3  1  0.666667  0.333333  0.603933  1
  Pa  Pa4  1  0.696417  0.673559  0.334270  1
  Pa  Pa5  1  0.326441  0.022859  0.334270  1
  Pa  Pa6  1  0.977141  0.303583  0.334270  1
  Pa  Pa7  1  0.303583  0.326441  0.834270  1
  Pa  Pa8  1  0.673559  0.977141  0.834270  1
  Pa  Pa9  1  0.022859  0.696417  0.834270  1
  Pa  Pa10  1  0.000000  0.000000  0.087549  1
  Pa  Pa11  1  0.000000  0.000000  0.587549  1
  O  O12  1  0.087844  0.662780  0.334475  1
  O  O13  1  0.337220  0.425065  0.334475  1
  O  O14  1  0.574935  0.912156  0.334475  1
  O  O15  1  0.912156  0.337220  0.834475  1
  O  O16  1  0.662780  0.574935  0.834475  1
  O  O17  1  0.425065  0.087844  0.834475  1
  O  O18  1  0.756542  0.720199  0.177010  1
  O  O19  1  0.279801  0.036342  0.177010  1
  O  O20  1  0.963658  0.243458  0.177010  1
  O  O21  1  0.243458  0.279801  0.677010  1
  O  O22  1  0.720199  0.963658  0.677010  1
  O  O23  1  0.036342  0.756542  0.677010  1
  O  O24  1  0.666667  0.333333  0.337880  1
  O  O25  1  0.333333  0.666667  0.837880  1
  O  O26  1  0.000000  0.000000  0.328026  1
  O  O27  1  0.000000  0.000000  0.828026  1
  O  O28  1  0.234029  0.268305  0.990926  1
  O  O29  1  0.731695  0.965725  0.990926  1
  O  O30  1  0.034275  0.765971  0.990926  1
  O  O31  1  0.765971  0.731695  0.490926  1
  O  O32  1  0.268305  0.034275  0.490926  1
  O  O33  1  0.965725  0.234029  0.490926  1
