# generated using pymatgen
data_YbHf(ZrPt6)2
_symmetry_space_group_name_H-M   'P 1'
_cell_length_a   5.73787300
_cell_length_b   5.73787257
_cell_length_c   9.34719700
_cell_angle_alpha   90.00000000
_cell_angle_beta   90.00000000
_cell_angle_gamma   120.00000823
_symmetry_Int_Tables_number   1
_chemical_formula_structural   YbHf(ZrPt6)2
_chemical_formula_sum   'Yb1 Hf1 Zr2 Pt12'
_cell_volume   266.51019208
_cell_formula_units_Z   1
loop_
 _symmetry_equiv_pos_site_id
 _symmetry_equiv_pos_as_xyz
  1  'x, y, z'
loop_
 _atom_site_type_symbol
 _atom_site_label
 _atom_site_symmetry_multiplicity
 _atom_site_fract_x
 _atom_site_fract_y
 _atom_site_fract_z
 _atom_site_occupancy
  Yb  Yb0  1  0.666667  0.333333  0.750000  1
  Hf  Hf1  1  0.333333  0.666667  0.250000  1
  Zr  Zr2  1  0.000000  0.000000  0.503801  1
  Zr  Zr3  1  0.000000  0.000000  0.996199  1
  Pt  Pt4  1  0.171257  0.342514  0.750000  1
  Pt  Pt5  1  0.003587  0.501793  0.004005  1
  Pt  Pt6  1  0.830190  0.660382  0.250000  1
  Pt  Pt7  1  0.339618  0.169810  0.250000  1
  Pt  Pt8  1  0.498207  0.501793  0.004005  1
  Pt  Pt9  1  0.830190  0.169810  0.250000  1
  Pt  Pt10  1  0.498207  0.501793  0.495995  1
  Pt  Pt11  1  0.498207  0.996413  0.495995  1
  Pt  Pt12  1  0.171257  0.828743  0.750000  1
  Pt  Pt13  1  0.657486  0.828743  0.750000  1
  Pt  Pt14  1  0.498207  0.996413  0.004005  1
  Pt  Pt15  1  0.003587  0.501793  0.495995  1
