# generated using pymatgen
data_Pr8Ho9Sc3Si15Au
_symmetry_space_group_name_H-M   'P 1'
_cell_length_a   7.37786024
_cell_length_b   7.79891039
_cell_length_c   14.81857300
_cell_angle_alpha   90.00000000
_cell_angle_beta   90.00000000
_cell_angle_gamma   90.55396073
_symmetry_Int_Tables_number   1
_chemical_formula_structural   Pr8Ho9Sc3Si15Au
_chemical_formula_sum   'Pr8 Ho9 Sc3 Si15 Au1'
_cell_volume   852.61003473
_cell_formula_units_Z   1
loop_
 _symmetry_equiv_pos_site_id
 _symmetry_equiv_pos_as_xyz
  1  'x, y, z'
loop_
 _atom_site_type_symbol
 _atom_site_label
 _atom_site_symmetry_multiplicity
 _atom_site_fract_x
 _atom_site_fract_y
 _atom_site_fract_z
 _atom_site_occupancy
  Pr  Pr0  1  0.017062  0.180850  0.399317  1
  Pr  Pr1  1  0.516690  0.321979  0.398756  1
  Pr  Pr2  1  0.487543  0.669098  0.907414  1
  Pr  Pr3  1  0.487543  0.669098  0.592586  1
  Pr  Pr4  1  0.983994  0.821154  0.594381  1
  Pr  Pr5  1  0.983994  0.821154  0.905619  1
  Pr  Pr6  1  0.516690  0.321979  0.101244  1
  Pr  Pr7  1  0.017062  0.180850  0.100683  1
  Ho  Ho8  1  0.323131  0.185043  0.621682  1
  Ho  Ho9  1  0.676450  0.824496  0.373551  1
  Ho  Ho10  1  0.652978  0.980893  0.750000  1
  Ho  Ho11  1  0.176523  0.676945  0.374964  1
  Ho  Ho12  1  0.825548  0.321375  0.878381  1
  Ho  Ho13  1  0.825548  0.321375  0.621619  1
  Ho  Ho14  1  0.323131  0.185043  0.878318  1
  Ho  Ho15  1  0.176523  0.676945  0.125036  1
  Ho  Ho16  1  0.676450  0.824496  0.126449  1
  Sc  Sc17  1  0.841025  0.493257  0.250000  1
  Sc  Sc18  1  0.341256  0.009294  0.250000  1
  Sc  Sc19  1  0.160550  0.505134  0.750000  1
  Si  Si20  1  0.474684  0.609630  0.250000  1
  Si  Si21  1  0.028701  0.123558  0.750000  1
  Si  Si22  1  0.531149  0.391257  0.750000  1
  Si  Si23  1  0.148836  0.469650  0.538348  1
  Si  Si24  1  0.978576  0.889826  0.250000  1
  Si  Si25  1  0.715600  0.127501  0.250000  1
  Si  Si26  1  0.847036  0.533448  0.041258  1
  Si  Si27  1  0.350543  0.967034  0.039249  1
  Si  Si28  1  0.148836  0.469650  0.961652  1
  Si  Si29  1  0.647770  0.033321  0.536814  1
  Si  Si30  1  0.350543  0.967034  0.460751  1
  Si  Si31  1  0.847036  0.533448  0.458742  1
  Si  Si32  1  0.782743  0.614905  0.750000  1
  Si  Si33  1  0.217626  0.376298  0.250000  1
  Si  Si34  1  0.647770  0.033321  0.963186  1
  Au  Au35  1  0.272862  0.869665  0.750000  1
