# generated using pymatgen
data_Ta10AlOs4
_symmetry_space_group_name_H-M   'P 1'
_cell_length_a   9.90641100
_cell_length_b   9.90641100
_cell_length_c   5.17823600
_cell_angle_alpha   90.00000000
_cell_angle_beta   90.00000000
_cell_angle_gamma   90.00000000
_symmetry_Int_Tables_number   1
_chemical_formula_structural   Ta10AlOs4
_chemical_formula_sum   'Ta20 Al2 Os8'
_cell_volume   508.17643708
_cell_formula_units_Z   2
loop_
 _symmetry_equiv_pos_site_id
 _symmetry_equiv_pos_as_xyz
  1  'x, y, z'
loop_
 _atom_site_type_symbol
 _atom_site_label
 _atom_site_symmetry_multiplicity
 _atom_site_fract_x
 _atom_site_fract_y
 _atom_site_fract_z
 _atom_site_occupancy
  Ta  Ta0  1  0.395866  0.395866  0.000000  1
  Ta  Ta1  1  0.895866  0.104134  0.500000  1
  Ta  Ta2  1  0.104134  0.895866  0.500000  1
  Ta  Ta3  1  0.604134  0.604134  0.000000  1
  Ta  Ta4  1  0.128783  0.465456  0.000000  1
  Ta  Ta5  1  0.965456  0.371217  0.500000  1
  Ta  Ta6  1  0.034544  0.628783  0.500000  1
  Ta  Ta7  1  0.871217  0.534544  0.000000  1
  Ta  Ta8  1  0.371217  0.965456  0.500000  1
  Ta  Ta9  1  0.628783  0.034544  0.500000  1
  Ta  Ta10  1  0.465456  0.128783  0.000000  1
  Ta  Ta11  1  0.534544  0.871217  0.000000  1
  Ta  Ta12  1  0.182712  0.182712  0.250790  1
  Ta  Ta13  1  0.682712  0.317288  0.750790  1
  Ta  Ta14  1  0.317288  0.682712  0.750790  1
  Ta  Ta15  1  0.817288  0.817288  0.250790  1
  Ta  Ta16  1  0.317288  0.682712  0.249210  1
  Ta  Ta17  1  0.682712  0.317288  0.249210  1
  Ta  Ta18  1  0.182712  0.182712  0.749210  1
  Ta  Ta19  1  0.817288  0.817288  0.749210  1
  Al  Al20  1  0.000000  0.000000  0.000000  1
  Al  Al21  1  0.500000  0.500000  0.500000  1
  Os  Os22  1  0.256531  0.936134  0.000000  1
  Os  Os23  1  0.436134  0.243469  0.500000  1
  Os  Os24  1  0.563866  0.756531  0.500000  1
  Os  Os25  1  0.743469  0.063866  0.000000  1
  Os  Os26  1  0.243469  0.436134  0.500000  1
  Os  Os27  1  0.756531  0.563866  0.500000  1
  Os  Os28  1  0.936134  0.256531  0.000000  1
  Os  Os29  1  0.063866  0.743469  0.000000  1
