# generated using pymatgen
data_Ho3Er7(Bi2Rh)2
_symmetry_space_group_name_H-M   'P 1'
_cell_length_a   7.95828800
_cell_length_b   8.98144300
_cell_length_c   12.38626600
_cell_angle_alpha   90.00000000
_cell_angle_beta   89.99749833
_cell_angle_gamma   90.00000000
_symmetry_Int_Tables_number   1
_chemical_formula_structural   Ho3Er7(Bi2Rh)2
_chemical_formula_sum   'Ho6 Er14 Bi8 Rh4'
_cell_volume   885.33202031
_cell_formula_units_Z   2
loop_
 _symmetry_equiv_pos_site_id
 _symmetry_equiv_pos_as_xyz
  1  'x, y, z'
loop_
 _atom_site_type_symbol
 _atom_site_label
 _atom_site_symmetry_multiplicity
 _atom_site_fract_x
 _atom_site_fract_y
 _atom_site_fract_z
 _atom_site_occupancy
  Ho  Ho0  1  0.663235  0.750000  0.707503  1
  Ho  Ho1  1  0.336765  0.250000  0.292497  1
  Ho  Ho2  1  0.163225  0.250000  0.792503  1
  Ho  Ho3  1  0.836775  0.750000  0.207497  1
  Ho  Ho4  1  0.125692  0.750000  0.808920  1
  Ho  Ho5  1  0.874308  0.250000  0.191080  1
  Er  Er6  1  0.625615  0.250000  0.691021  1
  Er  Er7  1  0.374385  0.750000  0.308979  1
  Er  Er8  1  0.548620  0.750000  0.998732  1
  Er  Er9  1  0.451380  0.250000  0.001268  1
  Er  Er10  1  0.048687  0.250000  0.501255  1
  Er  Er11  1  0.951313  0.750000  0.498745  1
  Er  Er12  1  0.824368  0.456253  0.933331  1
  Er  Er13  1  0.175632  0.543747  0.066669  1
  Er  Er14  1  0.324528  0.543664  0.566606  1
  Er  Er15  1  0.175632  0.956253  0.066669  1
  Er  Er16  1  0.675472  0.456336  0.433394  1
  Er  Er17  1  0.824368  0.043747  0.933331  1
  Er  Er18  1  0.675472  0.043664  0.433394  1
  Er  Er19  1  0.324528  0.956336  0.566606  1
  Bi  Bi20  1  0.934111  0.008783  0.673319  1
  Bi  Bi21  1  0.065889  0.991217  0.326681  1
  Bi  Bi22  1  0.434227  0.991306  0.826664  1
  Bi  Bi23  1  0.065889  0.508783  0.326681  1
  Bi  Bi24  1  0.565773  0.008694  0.173336  1
  Bi  Bi25  1  0.934111  0.491217  0.673319  1
  Bi  Bi26  1  0.565773  0.491306  0.173336  1
  Bi  Bi27  1  0.434227  0.508694  0.826664  1
  Rh  Rh28  1  0.924793  0.750000  0.989998  1
  Rh  Rh29  1  0.075207  0.250000  0.010002  1
  Rh  Rh30  1  0.424861  0.250000  0.510120  1
  Rh  Rh31  1  0.575139  0.750000  0.489880  1
