# generated using pymatgen
data_SmMn4CrP3
_symmetry_space_group_name_H-M   'P 1'
_cell_length_a   3.64019300
_cell_length_b   10.72736800
_cell_length_c   12.28459400
_cell_angle_alpha   90.00000000
_cell_angle_beta   90.00000000
_cell_angle_gamma   90.00000000
_symmetry_Int_Tables_number   1
_chemical_formula_structural   SmMn4CrP3
_chemical_formula_sum   'Sm4 Mn16 Cr4 P12'
_cell_volume   479.70958627
_cell_formula_units_Z   4
loop_
 _symmetry_equiv_pos_site_id
 _symmetry_equiv_pos_as_xyz
  1  'x, y, z'
loop_
 _atom_site_type_symbol
 _atom_site_label
 _atom_site_symmetry_multiplicity
 _atom_site_fract_x
 _atom_site_fract_y
 _atom_site_fract_z
 _atom_site_occupancy
  Sm  Sm0  1  0.250000  0.586102  0.706217  1
  Sm  Sm1  1  0.250000  0.913898  0.206217  1
  Sm  Sm2  1  0.750000  0.413898  0.293783  1
  Sm  Sm3  1  0.750000  0.086102  0.793783  1
  Mn  Mn4  1  0.250000  0.409343  0.493106  1
  Mn  Mn5  1  0.250000  0.090657  0.993106  1
  Mn  Mn6  1  0.750000  0.590657  0.506894  1
  Mn  Mn7  1  0.750000  0.909343  0.006894  1
  Mn  Mn8  1  0.250000  0.213242  0.178255  1
  Mn  Mn9  1  0.250000  0.286758  0.678255  1
  Mn  Mn10  1  0.750000  0.786758  0.821745  1
  Mn  Mn11  1  0.750000  0.713242  0.321745  1
  Mn  Mn12  1  0.250000  0.882047  0.694259  1
  Mn  Mn13  1  0.250000  0.617953  0.194259  1
  Mn  Mn14  1  0.750000  0.117953  0.305741  1
  Mn  Mn15  1  0.750000  0.382047  0.805741  1
  Mn  Mn16  1  0.250000  0.466155  0.935131  1
  Mn  Mn17  1  0.250000  0.033845  0.435131  1
  Mn  Mn18  1  0.750000  0.533845  0.064869  1
  Mn  Mn19  1  0.750000  0.966155  0.564869  1
  Cr  Cr20  1  0.250000  0.707618  0.984558  1
  Cr  Cr21  1  0.250000  0.792382  0.484558  1
  Cr  Cr22  1  0.750000  0.292382  0.015442  1
  Cr  Cr23  1  0.750000  0.207618  0.515442  1
  P  P24  1  0.250000  0.412713  0.112891  1
  P  P25  1  0.250000  0.087287  0.612891  1
  P  P26  1  0.750000  0.587287  0.887109  1
  P  P27  1  0.750000  0.912713  0.387109  1
  P  P28  1  0.250000  0.267663  0.874690  1
  P  P29  1  0.250000  0.232337  0.374690  1
  P  P30  1  0.750000  0.732337  0.125310  1
  P  P31  1  0.750000  0.767663  0.625310  1
  P  P32  1  0.250000  0.596190  0.387159  1
  P  P33  1  0.250000  0.903810  0.887159  1
  P  P34  1  0.750000  0.403810  0.612841  1
  P  P35  1  0.750000  0.096190  0.112841  1
