# generated using pymatgen
data_Sr2(P2Pd7)3
_symmetry_space_group_name_H-M   'P 1'
_cell_length_a   8.69061280
_cell_length_b   8.69091920
_cell_length_c   8.69089805
_cell_angle_alpha   59.99260020
_cell_angle_beta   59.98619016
_cell_angle_gamma   59.98612408
_symmetry_Int_Tables_number   1
_chemical_formula_structural   Sr2(P2Pd7)3
_chemical_formula_sum   'Sr2 P6 Pd21'
_cell_volume   464.03483706
_cell_formula_units_Z   1
loop_
 _symmetry_equiv_pos_site_id
 _symmetry_equiv_pos_as_xyz
  1  'x, y, z'
loop_
 _atom_site_type_symbol
 _atom_site_label
 _atom_site_symmetry_multiplicity
 _atom_site_fract_x
 _atom_site_fract_y
 _atom_site_fract_z
 _atom_site_occupancy
  Sr  Sr0  1  0.749989  0.749998  0.749999  1
  Sr  Sr1  1  0.250011  0.250002  0.250001  1
  P  P2  1  0.737920  0.737971  0.262225  1
  P  P3  1  0.262079  0.737776  0.262029  1
  P  P4  1  0.737723  0.262079  0.262081  1
  P  P5  1  0.262080  0.262029  0.737775  1
  P  P6  1  0.737921  0.262224  0.737971  1
  P  P7  1  0.262277  0.737921  0.737919  1
  Pd  Pd8  1  0.000000  0.000000  0.000000  1
  Pd  Pd9  1  0.612521  0.612571  0.162340  1
  Pd  Pd10  1  0.612521  0.162340  0.612572  1
  Pd  Pd11  1  0.162330  0.612529  0.612529  1
  Pd  Pd12  1  0.612543  0.612511  0.612511  1
  Pd  Pd13  1  0.387479  0.387429  0.837660  1
  Pd  Pd14  1  0.387479  0.837660  0.387428  1
  Pd  Pd15  1  0.837670  0.387471  0.387471  1
  Pd  Pd16  1  0.387457  0.387489  0.387489  1
  Pd  Pd17  1  0.000161  0.000184  0.342280  1
  Pd  Pd18  1  0.657472  0.000001  0.342550  1
  Pd  Pd19  1  0.000000  0.657485  0.342514  1
  Pd  Pd20  1  0.657473  0.342549  0.000002  1
  Pd  Pd21  1  0.000161  0.342281  0.000183  1
  Pd  Pd22  1  0.000000  0.342515  0.657486  1
  Pd  Pd23  1  0.342527  0.657451  0.999998  1
  Pd  Pd24  1  0.342528  0.999999  0.657450  1
  Pd  Pd25  1  0.342270  0.000183  0.000181  1
  Pd  Pd26  1  0.999839  0.999816  0.657720  1
  Pd  Pd27  1  0.999839  0.657719  0.999817  1
  Pd  Pd28  1  0.657730  0.999817  0.999819  1
