# generated using pymatgen
data_Er12Co6Sb
_symmetry_space_group_name_H-M   'P 1'
_cell_length_a   8.27497571
_cell_length_b   8.27497582
_cell_length_c   8.27497600
_cell_angle_alpha   109.47121864
_cell_angle_beta   109.47121890
_cell_angle_gamma   109.47122903
_symmetry_Int_Tables_number   1
_chemical_formula_structural   Er12Co6Sb
_chemical_formula_sum   'Er12 Co6 Sb1'
_cell_volume   436.19259434
_cell_formula_units_Z   1
loop_
 _symmetry_equiv_pos_site_id
 _symmetry_equiv_pos_as_xyz
  1  'x, y, z'
loop_
 _atom_site_type_symbol
 _atom_site_label
 _atom_site_symmetry_multiplicity
 _atom_site_fract_x
 _atom_site_fract_y
 _atom_site_fract_z
 _atom_site_occupancy
  Er  Er0  1  0.696712  0.195768  0.892480  1
  Er  Er1  1  0.804232  0.500944  0.696712  1
  Er  Er2  1  0.499056  0.303288  0.195768  1
  Er  Er3  1  0.804232  0.107520  0.303288  1
  Er  Er4  1  0.500944  0.696712  0.804232  1
  Er  Er5  1  0.195768  0.499056  0.303288  1
  Er  Er6  1  0.107520  0.303288  0.804232  1
  Er  Er7  1  0.892480  0.696712  0.195768  1
  Er  Er8  1  0.195768  0.892480  0.696712  1
  Er  Er9  1  0.696712  0.804232  0.500944  1
  Er  Er10  1  0.303288  0.195768  0.499056  1
  Er  Er11  1  0.303288  0.804232  0.107520  1
  Co  Co12  1  0.613868  0.113868  0.500000  1
  Co  Co13  1  0.886132  0.500000  0.386132  1
  Co  Co14  1  0.500000  0.386132  0.886132  1
  Co  Co15  1  0.113868  0.500000  0.613868  1
  Co  Co16  1  0.500000  0.613868  0.113868  1
  Co  Co17  1  0.386132  0.886132  0.500000  1
  Sb  Sb18  1  0.000000  0.000000  0.000000  1
