# generated using pymatgen
data_Er4Al2OsRu5
_symmetry_space_group_name_H-M   'P 1'
_cell_length_a   5.31096062
_cell_length_b   5.33959306
_cell_length_c   8.82556200
_cell_angle_alpha   90.00000000
_cell_angle_beta   90.00000000
_cell_angle_gamma   121.19609585
_symmetry_Int_Tables_number   1
_chemical_formula_structural   Er4Al2OsRu5
_chemical_formula_sum   'Er4 Al2 Os1 Ru5'
_cell_volume   214.08815145
_cell_formula_units_Z   1
loop_
 _symmetry_equiv_pos_site_id
 _symmetry_equiv_pos_as_xyz
  1  'x, y, z'
loop_
 _atom_site_type_symbol
 _atom_site_label
 _atom_site_symmetry_multiplicity
 _atom_site_fract_x
 _atom_site_fract_y
 _atom_site_fract_z
 _atom_site_occupancy
  Er  Er0  1  0.339477  0.668951  0.437279  1
  Er  Er1  1  0.668428  0.336727  0.562870  1
  Er  Er2  1  0.668428  0.336727  0.937130  1
  Er  Er3  1  0.339477  0.668951  0.062721  1
  Al  Al4  1  0.163736  0.331688  0.750000  1
  Al  Al5  1  0.330614  0.165829  0.250000  1
  Os  Os6  1  0.174565  0.829246  0.750000  1
  Ru  Ru7  1  0.833739  0.658934  0.250000  1
  Ru  Ru8  1  0.652026  0.832437  0.750000  1
  Ru  Ru9  1  0.999601  0.994758  0.999506  1
  Ru  Ru10  1  0.830309  0.180993  0.250000  1
  Ru  Ru11  1  0.999601  0.994758  0.500494  1
