# generated using pymatgen
data_LuScInNi7B2
_symmetry_space_group_name_H-M   'P 1'
_cell_length_a   4.91731100
_cell_length_b   4.91731140
_cell_length_c   14.07118400
_cell_angle_alpha   90.00000000
_cell_angle_beta   90.00000000
_cell_angle_gamma   119.99999055
_symmetry_Int_Tables_number   1
_chemical_formula_structural   LuScInNi7B2
_chemical_formula_sum   'Lu2 Sc2 In2 Ni14 B4'
_cell_volume   294.65696000
_cell_formula_units_Z   2
loop_
 _symmetry_equiv_pos_site_id
 _symmetry_equiv_pos_as_xyz
  1  'x, y, z'
loop_
 _atom_site_type_symbol
 _atom_site_label
 _atom_site_symmetry_multiplicity
 _atom_site_fract_x
 _atom_site_fract_y
 _atom_site_fract_z
 _atom_site_occupancy
  Lu  Lu0  1  0.333333  0.666667  0.752631  1
  Lu  Lu1  1  0.666667  0.333333  0.252631  1
  Sc  Sc2  1  0.333333  0.666667  0.530445  1
  Sc  Sc3  1  0.666667  0.333333  0.030445  1
  In  In4  1  0.666667  0.333333  0.470224  1
  In  In5  1  0.333333  0.666667  0.970224  1
  Ni  Ni6  1  0.000000  0.000000  0.999193  1
  Ni  Ni7  1  0.000000  0.000000  0.499193  1
  Ni  Ni8  1  0.166228  0.332458  0.145626  1
  Ni  Ni9  1  0.833772  0.667542  0.645626  1
  Ni  Ni10  1  0.667542  0.833772  0.145626  1
  Ni  Ni11  1  0.166228  0.833772  0.145626  1
  Ni  Ni12  1  0.833772  0.166228  0.645626  1
  Ni  Ni13  1  0.332458  0.166228  0.645626  1
  Ni  Ni14  1  0.833234  0.666467  0.854224  1
  Ni  Ni15  1  0.833234  0.166766  0.854224  1
  Ni  Ni16  1  0.333533  0.166766  0.854224  1
  Ni  Ni17  1  0.666467  0.833234  0.354224  1
  Ni  Ni18  1  0.166766  0.833234  0.354224  1
  Ni  Ni19  1  0.166766  0.333533  0.354224  1
  B  B20  1  0.333333  0.666667  0.249531  1
  B  B21  1  0.666667  0.333333  0.749531  1
  B  B22  1  0.000000  0.000000  0.248424  1
  B  B23  1  0.000000  0.000000  0.748424  1
