# generated using pymatgen
data_Tm16Ag3Rh4Pb
_symmetry_space_group_name_H-M   'P 1'
_cell_length_a   9.49125572
_cell_length_b   9.49124410
_cell_length_c   9.45731803
_cell_angle_alpha   59.88154456
_cell_angle_beta   59.88119050
_cell_angle_gamma   60.00031087
_symmetry_Int_Tables_number   1
_chemical_formula_structural   Tm16Ag3Rh4Pb
_chemical_formula_sum   'Tm16 Ag3 Rh4 Pb1'
_cell_volume   601.33952767
_cell_formula_units_Z   1
loop_
 _symmetry_equiv_pos_site_id
 _symmetry_equiv_pos_as_xyz
  1  'x, y, z'
loop_
 _atom_site_type_symbol
 _atom_site_label
 _atom_site_symmetry_multiplicity
 _atom_site_fract_x
 _atom_site_fract_y
 _atom_site_fract_z
 _atom_site_occupancy
  Tm  Tm0  1  0.063188  0.063187  0.438755  1
  Tm  Tm1  1  0.434870  0.063187  0.438754  1
  Tm  Tm2  1  0.056954  0.435703  0.071639  1
  Tm  Tm3  1  0.055740  0.648210  0.647842  1
  Tm  Tm4  1  0.435702  0.435703  0.071640  1
  Tm  Tm5  1  0.648210  0.055741  0.647843  1
  Tm  Tm6  1  0.187093  0.813251  0.186404  1
  Tm  Tm7  1  0.187881  0.187879  0.811964  1
  Tm  Tm8  1  0.813252  0.813251  0.186405  1
  Tm  Tm9  1  0.435701  0.056955  0.071640  1
  Tm  Tm10  1  0.813252  0.187092  0.186405  1
  Tm  Tm11  1  0.063187  0.434869  0.438755  1
  Tm  Tm12  1  0.812277  0.187880  0.811964  1
  Tm  Tm13  1  0.187880  0.812276  0.811963  1
  Tm  Tm14  1  0.648194  0.648192  0.055423  1
  Tm  Tm15  1  0.648211  0.648209  0.647843  1
  Ag  Ag16  1  0.417861  0.417861  0.411622  1
  Ag  Ag17  1  0.752654  0.417859  0.411625  1
  Ag  Ag18  1  0.417859  0.752657  0.411624  1
  Rh  Rh19  1  0.856284  0.856285  0.431148  1
  Rh  Rh20  1  0.856994  0.856992  0.855366  1
  Rh  Rh21  1  0.430649  0.856999  0.855362  1
  Rh  Rh22  1  0.856994  0.430646  0.855367  1
  Pb  Pb23  1  0.419117  0.419117  0.742648  1
