# generated using pymatgen
data_Tb4Cd2Cu3Ru
_symmetry_space_group_name_H-M   'P 1'
_cell_length_a   7.51514425
_cell_length_b   7.51514425
_cell_length_c   3.80322100
_cell_angle_alpha   90.00000000
_cell_angle_beta   90.00000000
_cell_angle_gamma   89.47708035
_symmetry_Int_Tables_number   1
_chemical_formula_structural   Tb4Cd2Cu3Ru
_chemical_formula_sum   'Tb4 Cd2 Cu3 Ru1'
_cell_volume   214.78706155
_cell_formula_units_Z   1
loop_
 _symmetry_equiv_pos_site_id
 _symmetry_equiv_pos_as_xyz
  1  'x, y, z'
loop_
 _atom_site_type_symbol
 _atom_site_label
 _atom_site_symmetry_multiplicity
 _atom_site_fract_x
 _atom_site_fract_y
 _atom_site_fract_z
 _atom_site_occupancy
  Tb  Tb0  1  0.671942  0.171942  0.500000  1
  Tb  Tb1  1  0.313431  0.813431  0.500000  1
  Tb  Tb2  1  0.182519  0.339846  0.500000  1
  Tb  Tb3  1  0.839846  0.682519  0.500000  1
  Cd  Cd4  1  0.999509  0.007323  0.000000  1
  Cd  Cd5  1  0.507323  0.499509  0.000000  1
  Cu  Cu6  1  0.875013  0.375013  0.000000  1
  Cu  Cu7  1  0.616069  0.876992  0.000000  1
  Cu  Cu8  1  0.376992  0.116069  0.000000  1
  Ru  Ru9  1  0.117355  0.617355  0.000000  1
