# generated using pymatgen
data_SmCoOs2C
_symmetry_space_group_name_H-M   'P 1'
_cell_length_a   5.64818461
_cell_length_b   5.64818393
_cell_length_c   7.48364300
_cell_angle_alpha   90.00000000
_cell_angle_beta   90.00000000
_cell_angle_gamma   140.18775110
_symmetry_Int_Tables_number   1
_chemical_formula_structural   SmCoOs2C
_chemical_formula_sum   'Sm2 Co2 Os4 C2'
_cell_volume   152.86096438
_cell_formula_units_Z   2
loop_
 _symmetry_equiv_pos_site_id
 _symmetry_equiv_pos_as_xyz
  1  'x, y, z'
loop_
 _atom_site_type_symbol
 _atom_site_label
 _atom_site_symmetry_multiplicity
 _atom_site_fract_x
 _atom_site_fract_y
 _atom_site_fract_z
 _atom_site_occupancy
  Sm  Sm0  1  0.535626  0.464374  0.250000  1
  Sm  Sm1  1  0.464374  0.535626  0.750000  1
  Co  Co2  1  0.263252  0.736748  0.250000  1
  Co  Co3  1  0.736748  0.263252  0.750000  1
  Os  Os4  1  0.825401  0.174599  0.061399  1
  Os  Os5  1  0.174599  0.825401  0.938601  1
  Os  Os6  1  0.174599  0.825401  0.561399  1
  Os  Os7  1  0.825401  0.174599  0.438601  1
  C  C8  1  0.000000  0.000000  0.000000  1
  C  C9  1  0.000000  0.000000  0.500000  1
