# generated using pymatgen
data_Ba9Sr7Li4(Mo2N7)4
_symmetry_space_group_name_H-M   'P 1'
_cell_length_a   15.32952757
_cell_length_b   6.43216720
_cell_length_c   10.27996125
_cell_angle_alpha   89.89606350
_cell_angle_beta   98.49881127
_cell_angle_gamma   90.15163825
_symmetry_Int_Tables_number   1
_chemical_formula_structural   Ba9Sr7Li4(Mo2N7)4
_chemical_formula_sum   'Ba9 Sr7 Li4 Mo8 N28'
_cell_volume   1002.49036555
_cell_formula_units_Z   1
loop_
 _symmetry_equiv_pos_site_id
 _symmetry_equiv_pos_as_xyz
  1  'x, y, z'
loop_
 _atom_site_type_symbol
 _atom_site_label
 _atom_site_symmetry_multiplicity
 _atom_site_fract_x
 _atom_site_fract_y
 _atom_site_fract_z
 _atom_site_occupancy
  Ba  Ba0  1  0.251215  0.314124  0.249301  1
  Ba  Ba1  1  0.126447  0.852181  0.424065  1
  Ba  Ba2  1  0.884788  0.150726  0.571681  1
  Ba  Ba3  1  0.418584  0.229613  0.575881  1
  Ba  Ba4  1  0.488051  0.716754  0.750958  1
  Ba  Ba5  1  0.748878  0.679207  0.750919  1
  Ba  Ba6  1  0.008748  0.720031  0.749794  1
  Ba  Ba7  1  0.083227  0.233879  0.924222  1
  Ba  Ba8  1  0.613806  0.146513  0.927372  1
  Sr  Sr9  1  0.377297  0.861118  0.080272  1
  Sr  Sr10  1  0.933925  0.775853  0.082419  1
  Sr  Sr11  1  0.973840  0.277647  0.228605  1
  Sr  Sr12  1  0.749344  0.951520  0.249378  1
  Sr  Sr13  1  0.527991  0.278636  0.272878  1
  Sr  Sr14  1  0.570136  0.776129  0.419642  1
  Sr  Sr15  1  0.251015  0.989075  0.750925  1
  Li  Li16  1  0.755656  0.454047  0.123733  1
  Li  Li17  1  0.742439  0.456264  0.376676  1
  Li  Li18  1  0.264655  0.537606  0.621302  1
  Li  Li19  1  0.236254  0.540106  0.875780  1
  Mo  Mo20  1  0.585876  0.672731  0.090229  1
  Mo  Mo21  1  0.153701  0.780417  0.108014  1
  Mo  Mo22  1  0.352294  0.778365  0.389837  1
  Mo  Mo23  1  0.909552  0.669140  0.408322  1
  Mo  Mo24  1  0.109291  0.334495  0.576214  1
  Mo  Mo25  1  0.656317  0.216602  0.598730  1
  Mo  Mo26  1  0.843895  0.217455  0.902347  1
  Mo  Mo27  1  0.388182  0.327694  0.926285  1
  N  N28  1  0.481907  0.497588  0.033541  1
  N  N29  1  0.289329  0.285851  0.004279  1
  N  N30  1  0.799317  0.158308  0.059378  1
  N  N31  1  0.083788  0.545232  0.115939  1
  N  N32  1  0.561537  0.939594  0.145526  1
  N  N33  1  0.085898  0.004521  0.148975  1
  N  N34  1  0.651153  0.548717  0.236016  1
  N  N35  1  0.254231  0.755991  0.246914  1
  N  N36  1  0.848825  0.546871  0.259258  1
  N  N37  1  0.419353  0.002902  0.347745  1
  N  N38  1  0.935488  0.938282  0.355252  1
  N  N39  1  0.420866  0.542171  0.385753  1
  N  N40  1  0.698671  0.157734  0.439760  1
  N  N41  1  0.205560  0.290326  0.492249  1
  N  N42  1  0.010720  0.488098  0.469213  1
  N  N43  1  0.839143  0.692269  0.538437  1
  N  N44  1  0.313569  0.822564  0.551953  1
  N  N45  1  0.598859  0.469792  0.592819  1
  N  N46  1  0.076584  0.080408  0.644692  1
  N  N47  1  0.577679  0.010854  0.631380  1
  N  N48  1  0.150147  0.501449  0.716006  1
  N  N49  1  0.750556  0.228969  0.749962  1
  N  N50  1  0.349979  0.479077  0.778260  1
  N  N51  1  0.922967  0.012490  0.871755  1
  N  N52  1  0.422360  0.066882  0.868424  1
  N  N53  1  0.901440  0.471914  0.909385  1
  N  N54  1  0.193333  0.821363  0.947136  1
  N  N55  1  0.651337  0.701848  0.954205  1
