# generated using pymatgen
data_Ta12Al8C3N
_symmetry_space_group_name_H-M   'P 1'
_cell_length_a   7.08043210
_cell_length_b   7.08043210
_cell_length_c   7.08043210
_cell_angle_alpha   89.90265894
_cell_angle_beta   90.09734106
_cell_angle_gamma   90.09734106
_symmetry_Int_Tables_number   1
_chemical_formula_structural   Ta12Al8C3N
_chemical_formula_sum   'Ta12 Al8 C3 N1'
_cell_volume   354.95836048
_cell_formula_units_Z   1
loop_
 _symmetry_equiv_pos_site_id
 _symmetry_equiv_pos_as_xyz
  1  'x, y, z'
loop_
 _atom_site_type_symbol
 _atom_site_label
 _atom_site_symmetry_multiplicity
 _atom_site_fract_x
 _atom_site_fract_y
 _atom_site_fract_z
 _atom_site_occupancy
  Ta  Ta0  1  0.795161  0.955203  0.376702  1
  Ta  Ta1  1  0.705203  0.045161  0.873298  1
  Ta  Ta2  1  0.204288  0.454288  0.125000  1
  Ta  Ta3  1  0.295434  0.545434  0.625000  1
  Ta  Ta4  1  0.954839  0.373298  0.794797  1
  Ta  Ta5  1  0.044797  0.876702  0.704839  1
  Ta  Ta6  1  0.454566  0.125000  0.204566  1
  Ta  Ta7  1  0.545712  0.625000  0.295712  1
  Ta  Ta8  1  0.375000  0.795712  0.954288  1
  Ta  Ta9  1  0.875000  0.704566  0.045434  1
  Ta  Ta10  1  0.123298  0.204839  0.455203  1
  Ta  Ta11  1  0.626702  0.294797  0.545161  1
  Al  Al12  1  0.179674  0.820326  0.320326  1
  Al  Al13  1  0.320224  0.179986  0.820357  1
  Al  Al14  1  0.820014  0.320357  0.179776  1
  Al  Al15  1  0.679643  0.679776  0.679986  1
  Al  Al16  1  0.570326  0.429674  0.929674  1
  Al  Al17  1  0.429776  0.929643  0.570014  1
  Al  Al18  1  0.929986  0.570224  0.429643  1
  Al  Al19  1  0.070357  0.070014  0.070224  1
  C  C20  1  0.626209  0.876209  0.125000  1
  C  C21  1  0.123791  0.625000  0.873791  1
  C  C22  1  0.375000  0.373791  0.376209  1
  N  N23  1  0.875000  0.125000  0.625000  1
