# generated using pymatgen
data_Ti2B(Ir2Rh)2
_symmetry_space_group_name_H-M   'P 1'
_cell_length_a   5.61907313
_cell_length_b   5.61907226
_cell_length_c   5.61170100
_cell_angle_alpha   60.04337960
_cell_angle_beta   60.04338467
_cell_angle_gamma   59.96668774
_symmetry_Int_Tables_number   1
_chemical_formula_structural   Ti2B(Ir2Rh)2
_chemical_formula_sum   'Ti2 B1 Ir4 Rh2'
_cell_volume   125.33826896
_cell_formula_units_Z   1
loop_
 _symmetry_equiv_pos_site_id
 _symmetry_equiv_pos_as_xyz
  1  'x, y, z'
loop_
 _atom_site_type_symbol
 _atom_site_label
 _atom_site_symmetry_multiplicity
 _atom_site_fract_x
 _atom_site_fract_y
 _atom_site_fract_z
 _atom_site_occupancy
  Ti  Ti0  1  0.749966  0.749966  0.750484  1
  Ti  Ti1  1  0.250034  0.250034  0.250417  1
  B  B2  1  0.500000  0.500000  0.501973  1
  Ir  Ir3  1  0.758703  0.758703  0.241208  1
  Ir  Ir4  1  0.759223  0.240777  0.240438  1
  Ir  Ir5  1  0.240777  0.759223  0.240438  1
  Ir  Ir6  1  0.241297  0.241297  0.758615  1
  Rh  Rh7  1  0.758572  0.241428  0.758214  1
  Rh  Rh8  1  0.241428  0.758572  0.758214  1
