# generated using pymatgen
data_Sc2GaPt4Rh
_symmetry_space_group_name_H-M   'P 1'
_cell_length_a   5.59859395
_cell_length_b   5.59859351
_cell_length_c   4.09471300
_cell_angle_alpha   90.00000000
_cell_angle_beta   90.00000000
_cell_angle_gamma   95.93358268
_symmetry_Int_Tables_number   1
_chemical_formula_structural   Sc2GaPt4Rh
_chemical_formula_sum   'Sc2 Ga1 Pt4 Rh1'
_cell_volume   127.65808964
_cell_formula_units_Z   1
loop_
 _symmetry_equiv_pos_site_id
 _symmetry_equiv_pos_as_xyz
  1  'x, y, z'
loop_
 _atom_site_type_symbol
 _atom_site_label
 _atom_site_symmetry_multiplicity
 _atom_site_fract_x
 _atom_site_fract_y
 _atom_site_fract_z
 _atom_site_occupancy
  Sc  Sc0  1  0.723472  0.275612  0.500000  1
  Sc  Sc1  1  0.275612  0.723472  0.500000  1
  Ga  Ga2  1  0.003327  0.003327  0.000000  1
  Pt  Pt3  1  0.498818  0.498818  0.000000  1
  Pt  Pt4  1  0.000189  0.498014  0.000000  1
  Pt  Pt5  1  0.498014  0.000189  0.000000  1
  Pt  Pt6  1  0.780851  0.780851  0.500000  1
  Rh  Rh7  1  0.219718  0.219718  0.500000  1
