# generated using pymatgen
data_LaThNi2(P2Ru)2
_symmetry_space_group_name_H-M   'P 1'
_cell_length_a   4.15087000
_cell_length_b   4.15087000
_cell_length_c   9.31835100
_cell_angle_alpha   90.00000000
_cell_angle_beta   90.00000000
_cell_angle_gamma   90.00000000
_symmetry_Int_Tables_number   1
_chemical_formula_structural   LaThNi2(P2Ru)2
_chemical_formula_sum   'La1 Th1 Ni2 P4 Ru2'
_cell_volume   160.55259496
_cell_formula_units_Z   1
loop_
 _symmetry_equiv_pos_site_id
 _symmetry_equiv_pos_as_xyz
  1  'x, y, z'
loop_
 _atom_site_type_symbol
 _atom_site_label
 _atom_site_symmetry_multiplicity
 _atom_site_fract_x
 _atom_site_fract_y
 _atom_site_fract_z
 _atom_site_occupancy
  La  La0  1  0.000000  0.500000  0.739639  1
  Th  Th1  1  0.500000  0.000000  0.258735  1
  Ni  Ni2  1  0.000000  0.500000  0.387395  1
  Ni  Ni3  1  0.500000  0.000000  0.605090  1
  P  P4  1  0.500000  0.000000  0.868921  1
  P  P5  1  0.000000  0.500000  0.133924  1
  P  P6  1  0.000000  0.000000  0.498486  1
  P  P7  1  0.500000  0.500000  0.498486  1
  Ru  Ru8  1  0.500000  0.500000  0.004662  1
  Ru  Ru9  1  0.000000  0.000000  0.004662  1
