# generated using pymatgen
data_Ca6Al7Hg5
_symmetry_space_group_name_H-M   'P 1'
_cell_length_a   6.00307827
_cell_length_b   6.00307877
_cell_length_c   16.90901241
_cell_angle_alpha   77.46142559
_cell_angle_beta   77.46142497
_cell_angle_gamma   46.30382131
_symmetry_Int_Tables_number   1
_chemical_formula_structural   Ca6Al7Hg5
_chemical_formula_sum   'Ca6 Al7 Hg5'
_cell_volume   428.11090199
_cell_formula_units_Z   1
loop_
 _symmetry_equiv_pos_site_id
 _symmetry_equiv_pos_as_xyz
  1  'x, y, z'
loop_
 _atom_site_type_symbol
 _atom_site_label
 _atom_site_symmetry_multiplicity
 _atom_site_fract_x
 _atom_site_fract_y
 _atom_site_fract_z
 _atom_site_occupancy
  Ca  Ca0  1  0.272026  0.272026  0.238227  1
  Ca  Ca1  1  0.603897  0.603897  0.573293  1
  Ca  Ca2  1  0.938613  0.938613  0.906433  1
  Ca  Ca3  1  0.059290  0.059290  0.095486  1
  Ca  Ca4  1  0.393981  0.393981  0.427799  1
  Ca  Ca5  1  0.725609  0.725609  0.763009  1
  Al  Al6  1  0.762783  0.762783  0.088567  1
  Al  Al7  1  0.091228  0.091228  0.424176  1
  Al  Al8  1  0.422085  0.422085  0.760373  1
  Al  Al9  1  0.378417  0.378417  0.041008  1
  Al  Al10  1  0.965691  0.965691  0.296741  1
  Al  Al11  1  0.296836  0.296836  0.631773  1
  Al  Al12  1  0.624002  0.624002  0.967168  1
  Hg  Hg13  1  0.717356  0.717356  0.379445  1
  Hg  Hg14  1  0.047129  0.047129  0.712844  1
  Hg  Hg15  1  0.567556  0.567556  0.227247  1
  Hg  Hg16  1  0.897770  0.897770  0.562169  1
  Hg  Hg17  1  0.235742  0.235742  0.904240  1
