# generated using pymatgen
data_ErTm7Ta10(TiSi8)2
_symmetry_space_group_name_H-M   'P 1'
_cell_length_a   7.01809201
_cell_length_b   7.01138720
_cell_length_c   12.90050404
_cell_angle_alpha   89.99063205
_cell_angle_beta   90.00122500
_cell_angle_gamma   89.98468847
_symmetry_Int_Tables_number   1
_chemical_formula_structural   ErTm7Ta10(TiSi8)2
_chemical_formula_sum   'Er1 Tm7 Ta10 Ti2 Si16'
_cell_volume   634.78940084
_cell_formula_units_Z   1
loop_
 _symmetry_equiv_pos_site_id
 _symmetry_equiv_pos_as_xyz
  1  'x, y, z'
loop_
 _atom_site_type_symbol
 _atom_site_label
 _atom_site_symmetry_multiplicity
 _atom_site_fract_x
 _atom_site_fract_y
 _atom_site_fract_z
 _atom_site_occupancy
  Er  Er0  1  0.997482  0.659006  0.031963  1
  Tm  Tm1  1  0.342030  0.002128  0.467803  1
  Tm  Tm2  1  0.498580  0.842098  0.717938  1
  Tm  Tm3  1  0.501408  0.157901  0.217991  1
  Tm  Tm4  1  0.842109  0.498618  0.282345  1
  Tm  Tm5  1  0.157901  0.501352  0.782194  1
  Tm  Tm6  1  0.657909  0.997893  0.967757  1
  Tm  Tm7  1  0.002323  0.341052  0.531905  1
  Ta  Ta8  1  0.329066  0.329114  0.999672  1
  Ta  Ta9  1  0.172975  0.826702  0.250187  1
  Ta  Ta10  1  0.827077  0.173308  0.750030  1
  Ta  Ta11  1  0.671063  0.670834  0.499692  1
  Ta  Ta12  1  0.152401  0.006811  0.873712  1
  Ta  Ta13  1  0.493469  0.652015  0.124194  1
  Ta  Ta14  1  0.506516  0.348015  0.624138  1
  Ta  Ta15  1  0.651692  0.492429  0.875975  1
  Ta  Ta16  1  0.348233  0.507520  0.376096  1
  Ta  Ta17  1  0.847642  0.993245  0.373848  1
  Ti  Ti18  1  0.007507  0.152912  0.126152  1
  Ti  Ti19  1  0.992513  0.847165  0.626113  1
  Si  Si20  1  0.202320  0.132567  0.680951  1
  Si  Si21  1  0.365250  0.705120  0.931129  1
  Si  Si22  1  0.634972  0.294905  0.431209  1
  Si  Si23  1  0.705211  0.363542  0.069308  1
  Si  Si24  1  0.294632  0.636330  0.569319  1
  Si  Si25  1  0.797489  0.867596  0.181124  1
  Si  Si26  1  0.134957  0.203240  0.318261  1
  Si  Si27  1  0.865041  0.796802  0.818147  1
  Si  Si28  1  0.293104  0.954943  0.064512  1
  Si  Si29  1  0.546610  0.795379  0.313702  1
  Si  Si30  1  0.453363  0.204666  0.813672  1
  Si  Si31  1  0.796863  0.547662  0.685213  1
  Si  Si32  1  0.203282  0.452215  0.185345  1
  Si  Si33  1  0.707032  0.045185  0.564516  1
  Si  Si34  1  0.954107  0.294462  0.936894  1
  Si  Si35  1  0.045874  0.705271  0.436992  1
