# generated using pymatgen
data_Yb2Er4Al17Si7Os8
_symmetry_space_group_name_H-M   'P 1'
_cell_length_a   8.67158217
_cell_length_b   8.66101965
_cell_length_c   9.50751600
_cell_angle_alpha   90.00000000
_cell_angle_beta   90.00000000
_cell_angle_gamma   120.26907876
_symmetry_Int_Tables_number   1
_chemical_formula_structural   Yb2Er4Al17Si7Os8
_chemical_formula_sum   'Yb2 Er4 Al17 Si7 Os8'
_cell_volume   616.71017550
_cell_formula_units_Z   1
loop_
 _symmetry_equiv_pos_site_id
 _symmetry_equiv_pos_as_xyz
  1  'x, y, z'
loop_
 _atom_site_type_symbol
 _atom_site_label
 _atom_site_symmetry_multiplicity
 _atom_site_fract_x
 _atom_site_fract_y
 _atom_site_fract_z
 _atom_site_occupancy
  Yb  Yb0  1  0.193054  0.387988  0.250000  1
  Yb  Yb1  1  0.610861  0.806765  0.250000  1
  Er  Er2  1  0.805347  0.611180  0.750000  1
  Er  Er3  1  0.391132  0.192821  0.750000  1
  Er  Er4  1  0.196325  0.804362  0.250000  1
  Er  Er5  1  0.801380  0.192630  0.750000  1
  Al  Al6  1  0.164577  0.331509  0.577277  1
  Al  Al7  1  0.833643  0.669790  0.419446  1
  Al  Al8  1  0.669505  0.834898  0.576643  1
  Al  Al9  1  0.833643  0.669790  0.080554  1
  Al  Al10  1  0.331122  0.166437  0.420838  1
  Al  Al11  1  0.164577  0.331509  0.922723  1
  Al  Al12  1  0.164346  0.833801  0.576850  1
  Al  Al13  1  0.331122  0.166437  0.079162  1
  Al  Al14  1  0.835036  0.164455  0.420845  1
  Al  Al15  1  0.669505  0.834898  0.923357  1
  Al  Al16  1  0.835036  0.164455  0.079155  1
  Al  Al17  1  0.164346  0.833801  0.923150  1
  Al  Al18  1  0.125961  0.565608  0.750000  1
  Al  Al19  1  0.563467  0.435908  0.250000  1
  Al  Al20  1  0.438336  0.566754  0.750000  1
  Al  Al21  1  0.999699  0.999119  0.250000  1
  Al  Al22  1  0.999862  0.001059  0.750000  1
  Si  Si23  1  0.333955  0.664287  0.041083  1
  Si  Si24  1  0.666699  0.335463  0.958856  1
  Si  Si25  1  0.666699  0.335463  0.541144  1
  Si  Si26  1  0.333955  0.664287  0.458917  1
  Si  Si27  1  0.565335  0.124907  0.250000  1
  Si  Si28  1  0.436217  0.872708  0.750000  1
  Si  Si29  1  0.874481  0.433974  0.250000  1
  Os  Os30  1  0.500665  0.002504  0.998541  1
  Os  Os31  1  0.996887  0.499658  0.004452  1
  Os  Os32  1  0.500665  0.002504  0.501459  1
  Os  Os33  1  0.501828  0.499138  0.996983  1
  Os  Os34  1  0.996887  0.499658  0.495548  1
  Os  Os35  1  0.501828  0.499138  0.503017  1
  Os  Os36  1  0.001008  0.000170  0.999537  1
  Os  Os37  1  0.001008  0.000170  0.500463  1
