# generated using pymatgen
data_Y3CoNi7P6Os
_symmetry_space_group_name_H-M   'P 1'
_cell_length_a   3.78168100
_cell_length_b   10.52249000
_cell_length_c   12.37997600
_cell_angle_alpha   90.00000000
_cell_angle_beta   90.00000000
_cell_angle_gamma   90.00000000
_symmetry_Int_Tables_number   1
_chemical_formula_structural   Y3CoNi7P6Os
_chemical_formula_sum   'Y6 Co2 Ni14 P12 Os2'
_cell_volume   492.63267724
_cell_formula_units_Z   2
loop_
 _symmetry_equiv_pos_site_id
 _symmetry_equiv_pos_as_xyz
  1  'x, y, z'
loop_
 _atom_site_type_symbol
 _atom_site_label
 _atom_site_symmetry_multiplicity
 _atom_site_fract_x
 _atom_site_fract_y
 _atom_site_fract_z
 _atom_site_occupancy
  Y  Y0  1  0.000000  0.500000  0.523530  1
  Y  Y1  1  0.500000  0.000000  0.476470  1
  Y  Y2  1  0.500000  0.815302  0.207770  1
  Y  Y3  1  0.500000  0.184698  0.207770  1
  Y  Y4  1  0.000000  0.684698  0.792230  1
  Y  Y5  1  0.000000  0.315302  0.792230  1
  Co  Co6  1  0.000000  0.500000  0.983467  1
  Co  Co7  1  0.500000  0.000000  0.016533  1
  Ni  Ni8  1  0.500000  0.500000  0.702282  1
  Ni  Ni9  1  0.000000  0.000000  0.297718  1
  Ni  Ni10  1  0.500000  0.330909  0.987359  1
  Ni  Ni11  1  0.500000  0.669091  0.987359  1
  Ni  Ni12  1  0.000000  0.169091  0.012641  1
  Ni  Ni13  1  0.000000  0.830909  0.012641  1
  Ni  Ni14  1  0.500000  0.302792  0.429117  1
  Ni  Ni15  1  0.500000  0.697208  0.429117  1
  Ni  Ni16  1  0.000000  0.197208  0.570883  1
  Ni  Ni17  1  0.000000  0.802792  0.570883  1
  Ni  Ni18  1  0.500000  0.879980  0.710204  1
  Ni  Ni19  1  0.500000  0.120020  0.710204  1
  Ni  Ni20  1  0.000000  0.620020  0.289796  1
  Ni  Ni21  1  0.000000  0.379980  0.289796  1
  P  P22  1  0.500000  0.500000  0.878568  1
  P  P23  1  0.000000  0.000000  0.121432  1
  P  P24  1  0.500000  0.500000  0.348076  1
  P  P25  1  0.000000  0.000000  0.651924  1
  P  P26  1  0.500000  0.313889  0.614563  1
  P  P27  1  0.500000  0.686111  0.614563  1
  P  P28  1  0.000000  0.186111  0.385437  1
  P  P29  1  0.000000  0.813889  0.385437  1
  P  P30  1  0.500000  0.851350  0.892350  1
  P  P31  1  0.500000  0.148650  0.892350  1
  P  P32  1  0.000000  0.648650  0.107650  1
  P  P33  1  0.000000  0.351350  0.107650  1
  Os  Os34  1  0.500000  0.500000  0.155552  1
  Os  Os35  1  0.000000  0.000000  0.844448  1
