# generated using pymatgen
data_Pd4Pt
_symmetry_space_group_name_H-M   'P 1'
_cell_length_a   11.25526777
_cell_length_b   11.25526788
_cell_length_c   11.25526847
_cell_angle_alpha   14.52336055
_cell_angle_beta   14.52336045
_cell_angle_gamma   14.52335387
_symmetry_Int_Tables_number   1
_chemical_formula_structural   Pd4Pt
_chemical_formula_sum   'Pd4 Pt1'
_cell_volume   78.07005895
_cell_formula_units_Z   1
loop_
 _symmetry_equiv_pos_site_id
 _symmetry_equiv_pos_as_xyz
  1  'x, y, z'
loop_
 _atom_site_type_symbol
 _atom_site_label
 _atom_site_symmetry_multiplicity
 _atom_site_fract_x
 _atom_site_fract_y
 _atom_site_fract_z
 _atom_site_occupancy
  Pd  Pd0  1  0.600048  0.600048  0.600048  1
  Pd  Pd1  1  0.200200  0.200200  0.200200  1
  Pd  Pd2  1  0.799800  0.799800  0.799800  1
  Pd  Pd3  1  0.399952  0.399952  0.399952  1
  Pt  Pt4  1  0.000000  0.000000  0.000000  1
