# generated using pymatgen
data_La8Yb12Si3Ge13
_symmetry_space_group_name_H-M   'P 1'
_cell_length_a   8.00507356
_cell_length_b   8.00495633
_cell_length_c   14.86365638
_cell_angle_alpha   90.00685450
_cell_angle_beta   90.06413154
_cell_angle_gamma   90.03234277
_symmetry_Int_Tables_number   1
_chemical_formula_structural   La8Yb12Si3Ge13
_chemical_formula_sum   'La8 Yb12 Si3 Ge13'
_cell_volume   952.46627376
_cell_formula_units_Z   1
loop_
 _symmetry_equiv_pos_site_id
 _symmetry_equiv_pos_as_xyz
  1  'x, y, z'
loop_
 _atom_site_type_symbol
 _atom_site_label
 _atom_site_symmetry_multiplicity
 _atom_site_fract_x
 _atom_site_fract_y
 _atom_site_fract_z
 _atom_site_occupancy
  La  La0  1  0.990517  0.623060  0.045583  1
  La  La1  1  0.010865  0.375308  0.546669  1
  La  La2  1  0.621727  0.988499  0.953503  1
  La  La3  1  0.124603  0.510815  0.796458  1
  La  La4  1  0.875530  0.487803  0.296979  1
  La  La5  1  0.510449  0.122727  0.204042  1
  La  La6  1  0.488298  0.878029  0.703813  1
  La  La7  1  0.377569  0.011868  0.454064  1
  Yb  Yb8  1  0.366533  0.490996  0.375249  1
  Yb  Yb9  1  0.866584  0.007484  0.374258  1
  Yb  Yb10  1  0.991953  0.133710  0.124878  1
  Yb  Yb11  1  0.008510  0.866977  0.625058  1
  Yb  Yb12  1  0.632972  0.508604  0.875074  1
  Yb  Yb13  1  0.491914  0.367290  0.624508  1
  Yb  Yb14  1  0.508989  0.633461  0.125004  1
  Yb  Yb15  1  0.132586  0.991947  0.874518  1
  Yb  Yb16  1  0.687304  0.686496  0.499913  1
  Yb  Yb17  1  0.813415  0.187354  0.749721  1
  Yb  Yb18  1  0.187169  0.812320  0.249847  1
  Yb  Yb19  1  0.313005  0.313320  0.999729  1
  Si  Si20  1  0.665652  0.297741  0.441779  1
  Si  Si21  1  0.334835  0.702110  0.941722  1
  Si  Si22  1  0.202035  0.165508  0.691738  1
  Ge  Ge23  1  0.074529  0.713214  0.438639  1
  Ge  Ge24  1  0.925086  0.286535  0.938591  1
  Ge  Ge25  1  0.713436  0.077664  0.560128  1
  Ge  Ge26  1  0.213278  0.425353  0.188667  1
  Ge  Ge27  1  0.786626  0.574604  0.688724  1
  Ge  Ge28  1  0.422288  0.213416  0.810075  1
  Ge  Ge29  1  0.574388  0.786675  0.311389  1
  Ge  Ge30  1  0.286594  0.922316  0.060055  1
  Ge  Ge31  1  0.836736  0.801124  0.809875  1
  Ge  Ge32  1  0.162854  0.198635  0.309921  1
  Ge  Ge33  1  0.801391  0.837098  0.189922  1
  Ge  Ge34  1  0.301260  0.663361  0.559942  1
  Ge  Ge35  1  0.698520  0.336579  0.059966  1
