# generated using pymatgen
data_Zr3Al3GaPtRh
_symmetry_space_group_name_H-M   'P 1'
_cell_length_a   6.73307200
_cell_length_b   6.73307216
_cell_length_c   4.09203700
_cell_angle_alpha   90.00000000
_cell_angle_beta   90.00000000
_cell_angle_gamma   120.00000906
_symmetry_Int_Tables_number   1
_chemical_formula_structural   Zr3Al3GaPtRh
_chemical_formula_sum   'Zr3 Al3 Ga1 Pt1 Rh1'
_cell_volume   160.65589698
_cell_formula_units_Z   1
loop_
 _symmetry_equiv_pos_site_id
 _symmetry_equiv_pos_as_xyz
  1  'x, y, z'
loop_
 _atom_site_type_symbol
 _atom_site_label
 _atom_site_symmetry_multiplicity
 _atom_site_fract_x
 _atom_site_fract_y
 _atom_site_fract_z
 _atom_site_occupancy
  Zr  Zr0  1  0.997394  0.413801  0.500000  1
  Zr  Zr1  1  0.586199  0.583593  0.500000  1
  Zr  Zr2  1  0.416407  0.002606  0.500000  1
  Al  Al3  1  0.990649  0.754314  0.000000  1
  Al  Al4  1  0.245686  0.236334  0.000000  1
  Al  Al5  1  0.763666  0.009351  0.000000  1
  Ga  Ga6  1  0.333333  0.666667  0.000000  1
  Pt  Pt7  1  0.666667  0.333333  0.000000  1
  Rh  Rh8  1  0.000000  0.000000  0.500000  1
