# generated using pymatgen
data_Sr5Li16(TmAs4)3
_symmetry_space_group_name_H-M   'P 1'
_cell_length_a   13.89342500
_cell_length_b   13.89342302
_cell_length_c   4.27586400
_cell_angle_alpha   90.00000000
_cell_angle_beta   90.00000000
_cell_angle_gamma   120.00000233
_symmetry_Int_Tables_number   1
_chemical_formula_structural   Sr5Li16(TmAs4)3
_chemical_formula_sum   'Sr5 Li16 Tm3 As12'
_cell_volume   714.78114036
_cell_formula_units_Z   1
loop_
 _symmetry_equiv_pos_site_id
 _symmetry_equiv_pos_as_xyz
  1  'x, y, z'
loop_
 _atom_site_type_symbol
 _atom_site_label
 _atom_site_symmetry_multiplicity
 _atom_site_fract_x
 _atom_site_fract_y
 _atom_site_fract_z
 _atom_site_occupancy
  Sr  Sr0  1  0.189007  0.189007  0.500000  1
  Sr  Sr1  1  0.810993  0.000000  0.500000  1
  Sr  Sr2  1  0.000000  0.810993  0.500000  1
  Sr  Sr3  1  0.333333  0.666667  0.000000  1
  Sr  Sr4  1  0.666667  0.333333  0.000000  1
  Li  Li5  1  0.727280  0.727280  0.500000  1
  Li  Li6  1  0.272720  0.000000  0.500000  1
  Li  Li7  1  0.000000  0.272720  0.500000  1
  Li  Li8  1  0.184849  0.374390  0.000000  1
  Li  Li9  1  0.625610  0.810459  0.000000  1
  Li  Li10  1  0.189541  0.815151  0.000000  1
  Li  Li11  1  0.810459  0.625610  0.000000  1
  Li  Li12  1  0.815151  0.189541  0.000000  1
  Li  Li13  1  0.374390  0.184849  0.000000  1
  Li  Li14  1  0.355557  0.476557  0.500000  1
  Li  Li15  1  0.523443  0.879000  0.500000  1
  Li  Li16  1  0.121000  0.644443  0.500000  1
  Li  Li17  1  0.879000  0.523443  0.500000  1
  Li  Li18  1  0.644443  0.121000  0.500000  1
  Li  Li19  1  0.476557  0.355557  0.500000  1
  Li  Li20  1  0.000000  0.000000  0.000000  1
  Tm  Tm21  1  0.569697  0.569697  0.000000  1
  Tm  Tm22  1  0.430303  0.000000  0.000000  1
  Tm  Tm23  1  0.000000  0.430303  0.000000  1
  As  As24  1  0.820825  0.820825  0.000000  1
  As  As25  1  0.179175  0.000000  0.000000  1
  As  As26  1  0.000000  0.179175  0.000000  1
  As  As27  1  0.164519  0.480669  0.500000  1
  As  As28  1  0.519331  0.683850  0.500000  1
  As  As29  1  0.316150  0.835481  0.500000  1
  As  As30  1  0.683850  0.519331  0.500000  1
  As  As31  1  0.835481  0.316150  0.500000  1
  As  As32  1  0.480669  0.164519  0.500000  1
  As  As33  1  0.368555  0.368555  0.000000  1
  As  As34  1  0.631445  0.000000  0.000000  1
  As  As35  1  0.000000  0.631445  0.000000  1
