# generated using pymatgen
data_Tb9Lu(SiB4)4
_symmetry_space_group_name_H-M   'P 1'
_cell_length_a   7.23759400
_cell_length_b   7.23759400
_cell_length_c   8.11139300
_cell_angle_alpha   90.00000000
_cell_angle_beta   90.00000000
_cell_angle_gamma   90.00000000
_symmetry_Int_Tables_number   1
_chemical_formula_structural   Tb9Lu(SiB4)4
_chemical_formula_sum   'Tb9 Lu1 Si4 B16'
_cell_volume   424.89720882
_cell_formula_units_Z   1
loop_
 _symmetry_equiv_pos_site_id
 _symmetry_equiv_pos_as_xyz
  1  'x, y, z'
loop_
 _atom_site_type_symbol
 _atom_site_label
 _atom_site_symmetry_multiplicity
 _atom_site_fract_x
 _atom_site_fract_y
 _atom_site_fract_z
 _atom_site_occupancy
  Tb  Tb0  1  0.680595  0.179915  0.224833  1
  Tb  Tb1  1  0.319405  0.820085  0.775167  1
  Tb  Tb2  1  0.319405  0.820085  0.224833  1
  Tb  Tb3  1  0.820085  0.680595  0.224833  1
  Tb  Tb4  1  0.820085  0.680595  0.775167  1
  Tb  Tb5  1  0.680595  0.179915  0.775167  1
  Tb  Tb6  1  0.179915  0.319405  0.775167  1
  Tb  Tb7  1  0.179915  0.319405  0.224833  1
  Tb  Tb8  1  0.500000  0.500000  0.500000  1
  Lu  Lu9  1  0.000000  0.000000  0.500000  1
  Si  Si10  1  0.112891  0.617416  0.500000  1
  Si  Si11  1  0.887109  0.382584  0.500000  1
  Si  Si12  1  0.382584  0.112891  0.500000  1
  Si  Si13  1  0.617416  0.887109  0.500000  1
  B  B14  1  0.172551  0.039037  0.000000  1
  B  B15  1  0.827449  0.960963  0.000000  1
  B  B16  1  0.960963  0.172551  0.000000  1
  B  B17  1  0.327540  0.539174  0.000000  1
  B  B18  1  0.039037  0.827449  0.000000  1
  B  B19  1  0.672460  0.460826  0.000000  1
  B  B20  1  0.539174  0.672460  0.000000  1
  B  B21  1  0.460826  0.327540  0.000000  1
  B  B22  1  0.089917  0.589794  0.000000  1
  B  B23  1  0.910083  0.410206  0.000000  1
  B  B24  1  0.410206  0.089917  0.000000  1
  B  B25  1  0.589794  0.910083  0.000000  1
  B  B26  1  0.000000  0.000000  0.162012  1
  B  B27  1  0.000000  0.000000  0.837988  1
  B  B28  1  0.500000  0.500000  0.838838  1
  B  B29  1  0.500000  0.500000  0.161162  1
