# generated using pymatgen
data_Ho4Co3Ni5(PRu)12
_symmetry_space_group_name_H-M   'P 1'
_cell_length_a   3.79301500
_cell_length_b   10.68255423
_cell_length_c   12.08585421
_cell_angle_alpha   89.97742167
_cell_angle_beta   90.00000000
_cell_angle_gamma   90.00000000
_symmetry_Int_Tables_number   1
_chemical_formula_structural   Ho4Co3Ni5(PRu)12
_chemical_formula_sum   'Ho4 Co3 Ni5 P12 Ru12'
_cell_volume   489.70775751
_cell_formula_units_Z   1
loop_
 _symmetry_equiv_pos_site_id
 _symmetry_equiv_pos_as_xyz
  1  'x, y, z'
loop_
 _atom_site_type_symbol
 _atom_site_label
 _atom_site_symmetry_multiplicity
 _atom_site_fract_x
 _atom_site_fract_y
 _atom_site_fract_z
 _atom_site_occupancy
  Ho  Ho0  1  0.250000  0.587060  0.707444  1
  Ho  Ho1  1  0.250000  0.913128  0.206746  1
  Ho  Ho2  1  0.750000  0.412851  0.293047  1
  Ho  Ho3  1  0.750000  0.087182  0.793319  1
  Co  Co4  1  0.250000  0.036938  0.431527  1
  Co  Co5  1  0.750000  0.537841  0.071199  1
  Co  Co6  1  0.750000  0.962591  0.568364  1
  Ni  Ni7  1  0.250000  0.889769  0.697624  1
  Ni  Ni8  1  0.250000  0.611515  0.198628  1
  Ni  Ni9  1  0.750000  0.110568  0.301851  1
  Ni  Ni10  1  0.750000  0.391536  0.801418  1
  Ni  Ni11  1  0.250000  0.461471  0.929872  1
  P  P12  1  0.250000  0.423319  0.110454  1
  P  P13  1  0.250000  0.077087  0.609804  1
  P  P14  1  0.750000  0.580352  0.891831  1
  P  P15  1  0.750000  0.922756  0.389915  1
  P  P16  1  0.250000  0.268208  0.874104  1
  P  P17  1  0.250000  0.229732  0.374418  1
  P  P18  1  0.750000  0.730120  0.125129  1
  P  P19  1  0.750000  0.769817  0.625563  1
  P  P20  1  0.250000  0.601074  0.389541  1
  P  P21  1  0.250000  0.898547  0.889375  1
  P  P22  1  0.750000  0.399164  0.611330  1
  P  P23  1  0.750000  0.100987  0.110760  1
  Ru  Ru24  1  0.250000  0.707427  0.986433  1
  Ru  Ru25  1  0.250000  0.792584  0.487226  1
  Ru  Ru26  1  0.750000  0.289306  0.010785  1
  Ru  Ru27  1  0.750000  0.207439  0.512346  1
  Ru  Ru28  1  0.250000  0.405914  0.486454  1
  Ru  Ru29  1  0.250000  0.092744  0.986760  1
  Ru  Ru30  1  0.750000  0.593947  0.513338  1
  Ru  Ru31  1  0.750000  0.905875  0.014127  1
  Ru  Ru32  1  0.250000  0.223232  0.181909  1
  Ru  Ru33  1  0.250000  0.276419  0.681790  1
  Ru  Ru34  1  0.750000  0.778402  0.817602  1
  Ru  Ru35  1  0.750000  0.723096  0.317968  1
