# generated using pymatgen
data_TbYb2Be(PPd4)5
_symmetry_space_group_name_H-M   'P 1'
_cell_length_a   8.65221006
_cell_length_b   8.62374873
_cell_length_c   8.62374663
_cell_angle_alpha   60.30376014
_cell_angle_beta   59.89073845
_cell_angle_gamma   59.89073716
_symmetry_Int_Tables_number   1
_chemical_formula_structural   TbYb2Be(PPd4)5
_chemical_formula_sum   'Tb1 Yb2 Be1 P5 Pd20'
_cell_volume   455.26963341
_cell_formula_units_Z   1
loop_
 _symmetry_equiv_pos_site_id
 _symmetry_equiv_pos_as_xyz
  1  'x, y, z'
loop_
 _atom_site_type_symbol
 _atom_site_label
 _atom_site_symmetry_multiplicity
 _atom_site_fract_x
 _atom_site_fract_y
 _atom_site_fract_z
 _atom_site_occupancy
  Tb  Tb0  1  0.249660  0.250340  0.250340  1
  Yb  Yb1  1  0.749705  0.750295  0.750295  1
  Yb  Yb2  1  0.996724  0.003276  0.003276  1
  Be  Be3  1  0.732608  0.267391  0.267391  1
  P  P4  1  0.262029  0.737972  0.737972  1
  P  P5  1  0.264865  0.735146  0.263596  1
  P  P6  1  0.736395  0.263597  0.735145  1
  P  P7  1  0.264865  0.263596  0.735146  1
  P  P8  1  0.736395  0.735145  0.263597  1
  Pd  Pd9  1  0.387139  0.383014  0.383014  1
  Pd  Pd10  1  0.616229  0.615070  0.615070  1
  Pd  Pd11  1  0.384888  0.384352  0.845874  1
  Pd  Pd12  1  0.384888  0.845874  0.384352  1
  Pd  Pd13  1  0.617199  0.613165  0.152441  1
  Pd  Pd14  1  0.617199  0.152441  0.613165  1
  Pd  Pd15  1  0.846839  0.383010  0.383010  1
  Pd  Pd16  1  0.153626  0.615068  0.615068  1
  Pd  Pd17  1  0.343801  0.001152  0.001152  1
  Pd  Pd18  1  0.653899  0.001151  0.001151  1
  Pd  Pd19  1  0.999124  0.345791  0.655964  1
  Pd  Pd20  1  0.999124  0.655964  0.345791  1
  Pd  Pd21  1  0.997591  0.342056  0.002885  1
  Pd  Pd22  1  0.657464  0.002884  0.342060  1
  Pd  Pd23  1  0.000226  0.653159  0.000493  1
  Pd  Pd24  1  0.346120  0.000491  0.653157  1
  Pd  Pd25  1  0.997591  0.002885  0.342056  1
  Pd  Pd26  1  0.000226  0.000493  0.653159  1
  Pd  Pd27  1  0.657464  0.342060  0.002884  1
  Pd  Pd28  1  0.346120  0.653157  0.000491  1
