# generated using pymatgen
data_Tb16Ag3Rh4Pb
_symmetry_space_group_name_H-M   'P 1'
_cell_length_a   9.60753769
_cell_length_b   9.63737756
_cell_length_c   9.63737700
_cell_angle_alpha   60.00000537
_cell_angle_beta   59.89721035
_cell_angle_gamma   59.89720779
_symmetry_Int_Tables_number   1
_chemical_formula_structural   Tb16Ag3Rh4Pb
_chemical_formula_sum   'Tb16 Ag3 Rh4 Pb1'
_cell_volume   629.99678289
_cell_formula_units_Z   1
loop_
 _symmetry_equiv_pos_site_id
 _symmetry_equiv_pos_as_xyz
  1  'x, y, z'
loop_
 _atom_site_type_symbol
 _atom_site_label
 _atom_site_symmetry_multiplicity
 _atom_site_fract_x
 _atom_site_fract_y
 _atom_site_fract_z
 _atom_site_occupancy
  Tb  Tb0  1  0.811024  0.809948  0.189514  1
  Tb  Tb1  1  0.811024  0.189514  0.809948  1
  Tb  Tb2  1  0.187039  0.187215  0.812873  1
  Tb  Tb3  1  0.647622  0.054550  0.648914  1
  Tb  Tb4  1  0.072029  0.056540  0.435716  1
  Tb  Tb5  1  0.437673  0.435856  0.063236  1
  Tb  Tb6  1  0.647622  0.648914  0.648914  1
  Tb  Tb7  1  0.811024  0.189514  0.189514  1
  Tb  Tb8  1  0.187039  0.812873  0.812873  1
  Tb  Tb9  1  0.057704  0.647432  0.647432  1
  Tb  Tb10  1  0.437673  0.063236  0.063236  1
  Tb  Tb11  1  0.437673  0.063236  0.435856  1
  Tb  Tb12  1  0.072029  0.435716  0.056540  1
  Tb  Tb13  1  0.647622  0.648914  0.054550  1
  Tb  Tb14  1  0.187039  0.812873  0.187215  1
  Tb  Tb15  1  0.072029  0.435716  0.435716  1
  Ag  Ag16  1  0.412083  0.417858  0.417858  1
  Ag  Ag17  1  0.412083  0.417858  0.752200  1
  Ag  Ag18  1  0.412083  0.752200  0.417858  1
  Rh  Rh19  1  0.856906  0.429099  0.856997  1
  Rh  Rh20  1  0.856906  0.856997  0.856997  1
  Rh  Rh21  1  0.856906  0.856997  0.429099  1
  Rh  Rh22  1  0.428621  0.857127  0.857127  1
  Pb  Pb23  1  0.740548  0.419817  0.419817  1
