# generated using pymatgen
data_K4Zn7GaAg12
_symmetry_space_group_name_H-M   'P 1'
_cell_length_a   5.56411584
_cell_length_b   7.03942779
_cell_length_c   14.01649631
_cell_angle_alpha   89.99411280
_cell_angle_beta   89.93421556
_cell_angle_gamma   89.85858263
_symmetry_Int_Tables_number   1
_chemical_formula_structural   K4Zn7GaAg12
_chemical_formula_sum   'K4 Zn7 Ga1 Ag12'
_cell_volume   548.99877727
_cell_formula_units_Z   1
loop_
 _symmetry_equiv_pos_site_id
 _symmetry_equiv_pos_as_xyz
  1  'x, y, z'
loop_
 _atom_site_type_symbol
 _atom_site_label
 _atom_site_symmetry_multiplicity
 _atom_site_fract_x
 _atom_site_fract_y
 _atom_site_fract_z
 _atom_site_occupancy
  K  K0  1  0.250089  0.125400  0.081625  1
  K  K1  1  0.250085  0.373882  0.581804  1
  K  K2  1  0.749772  0.875026  0.917443  1
  K  K3  1  0.749598  0.625552  0.418977  1
  Zn  Zn4  1  0.001645  0.865330  0.645889  1
  Zn  Zn5  1  0.498541  0.634990  0.145321  1
  Zn  Zn6  1  0.501980  0.134770  0.354922  1
  Zn  Zn7  1  0.998547  0.365203  0.853694  1
  Zn  Zn8  1  0.997963  0.134508  0.355420  1
  Zn  Zn9  1  0.501077  0.365116  0.853853  1
  Zn  Zn10  1  0.498751  0.865520  0.645945  1
  Ga  Ga11  1  0.001400  0.636148  0.144526  1
  Ag  Ag12  1  0.249902  0.073754  0.782435  1
  Ag  Ag13  1  0.249344  0.425134  0.282320  1
  Ag  Ag14  1  0.750577  0.925528  0.218020  1
  Ag  Ag15  1  0.750636  0.574258  0.717955  1
  Ag  Ag16  1  0.249348  0.668158  0.781847  1
  Ag  Ag17  1  0.252047  0.833053  0.282495  1
  Ag  Ag18  1  0.750595  0.332410  0.218540  1
  Ag  Ag19  1  0.750059  0.168194  0.717862  1
  Ag  Ag20  1  0.249384  0.569986  0.984808  1
  Ag  Ag21  1  0.250367  0.930020  0.485756  1
  Ag  Ag22  1  0.748635  0.429472  0.013745  1
  Ag  Ag23  1  0.749658  0.068588  0.514799  1
