# generated using pymatgen
data_CeAl10TcRh
_symmetry_space_group_name_H-M   'P 1'
_cell_length_a   6.89252195
_cell_length_b   6.90888101
_cell_length_c   9.20281300
_cell_angle_alpha   90.00000000
_cell_angle_beta   90.00000000
_cell_angle_gamma   97.29293313
_symmetry_Int_Tables_number   1
_chemical_formula_structural   CeAl10TcRh
_chemical_formula_sum   'Ce2 Al20 Tc2 Rh2'
_cell_volume   434.68913320
_cell_formula_units_Z   2
loop_
 _symmetry_equiv_pos_site_id
 _symmetry_equiv_pos_as_xyz
  1  'x, y, z'
loop_
 _atom_site_type_symbol
 _atom_site_label
 _atom_site_symmetry_multiplicity
 _atom_site_fract_x
 _atom_site_fract_y
 _atom_site_fract_z
 _atom_site_occupancy
  Ce  Ce0  1  0.867209  0.114882  0.750000  1
  Ce  Ce1  1  0.132791  0.885118  0.250000  1
  Al  Al2  1  0.591931  0.861437  0.250000  1
  Al  Al3  1  0.778400  0.521065  0.250000  1
  Al  Al4  1  0.157894  0.841244  0.898036  1
  Al  Al5  1  0.408069  0.138563  0.750000  1
  Al  Al6  1  0.621014  0.375506  0.949697  1
  Al  Al7  1  0.842106  0.158756  0.398036  1
  Al  Al8  1  0.774713  0.775609  0.998538  1
  Al  Al9  1  0.859581  0.589822  0.750000  1
  Al  Al10  1  0.842106  0.158756  0.101964  1
  Al  Al11  1  0.221600  0.478935  0.750000  1
  Al  Al12  1  0.157894  0.841244  0.601964  1
  Al  Al13  1  0.774713  0.775609  0.501462  1
  Al  Al14  1  0.482931  0.222456  0.250000  1
  Al  Al15  1  0.621014  0.375506  0.550303  1
  Al  Al16  1  0.225287  0.224391  0.498538  1
  Al  Al17  1  0.378986  0.624494  0.449697  1
  Al  Al18  1  0.140419  0.410178  0.250000  1
  Al  Al19  1  0.517069  0.777544  0.750000  1
  Al  Al20  1  0.378986  0.624494  0.050303  1
  Al  Al21  1  0.225287  0.224391  0.001462  1
  Tc  Tc22  1  0.500000  0.000000  0.000000  1
  Tc  Tc23  1  0.500000  0.000000  0.500000  1
  Rh  Rh24  1  0.000000  0.500000  0.000000  1
  Rh  Rh25  1  0.000000  0.500000  0.500000  1
