# generated using pymatgen
data_Pr2DyAg(Ir2O7)2
_symmetry_space_group_name_H-M   'P 1'
_cell_length_a   7.43359105
_cell_length_b   7.43359031
_cell_length_c   7.25147878
_cell_angle_alpha   59.11507393
_cell_angle_beta   59.11507944
_cell_angle_gamma   60.19012538
_symmetry_Int_Tables_number   1
_chemical_formula_structural   Pr2DyAg(Ir2O7)2
_chemical_formula_sum   'Pr2 Dy1 Ag1 Ir4 O14'
_cell_volume   279.87963317
_cell_formula_units_Z   1
loop_
 _symmetry_equiv_pos_site_id
 _symmetry_equiv_pos_as_xyz
  1  'x, y, z'
loop_
 _atom_site_type_symbol
 _atom_site_label
 _atom_site_symmetry_multiplicity
 _atom_site_fract_x
 _atom_site_fract_y
 _atom_site_fract_z
 _atom_site_occupancy
  Pr  Pr0  1  0.625000  0.125000  0.125000  1
  Pr  Pr1  1  0.125000  0.625000  0.125000  1
  Dy  Dy2  1  0.125000  0.125000  0.125000  1
  Ag  Ag3  1  0.125000  0.125000  0.625000  1
  Ir  Ir4  1  0.625000  0.625000  0.625000  1
  Ir  Ir5  1  0.125000  0.625000  0.625000  1
  Ir  Ir6  1  0.625000  0.125000  0.625000  1
  Ir  Ir7  1  0.625000  0.625000  0.125000  1
  O  O8  1  0.947683  0.555384  0.551003  1
  O  O9  1  0.301830  0.301830  0.709659  1
  O  O10  1  0.956447  0.534358  0.961387  1
  O  O11  1  0.715642  0.293553  0.288613  1
  O  O12  1  0.541216  0.541216  0.962218  1
  O  O13  1  0.555384  0.947683  0.551003  1
  O  O14  1  0.534358  0.956447  0.961387  1
  O  O15  1  0.241514  0.241514  0.255519  1
  O  O16  1  0.302317  0.694616  0.698997  1
  O  O17  1  0.694616  0.302317  0.698997  1
  O  O18  1  0.008486  0.008486  0.994481  1
  O  O19  1  0.948170  0.948170  0.540341  1
  O  O20  1  0.293553  0.715642  0.288613  1
  O  O21  1  0.708784  0.708784  0.287782  1
