# generated using pymatgen
data_ThAlCdCu4
_symmetry_space_group_name_H-M   'P 1'
_cell_length_a   5.09050600
_cell_length_b   8.46378400
_cell_length_c   10.73277400
_cell_angle_alpha   90.00000000
_cell_angle_beta   90.00000000
_cell_angle_gamma   90.00000000
_symmetry_Int_Tables_number   1
_chemical_formula_structural   ThAlCdCu4
_chemical_formula_sum   'Th4 Al4 Cd4 Cu16'
_cell_volume   462.42095854
_cell_formula_units_Z   4
loop_
 _symmetry_equiv_pos_site_id
 _symmetry_equiv_pos_as_xyz
  1  'x, y, z'
loop_
 _atom_site_type_symbol
 _atom_site_label
 _atom_site_symmetry_multiplicity
 _atom_site_fract_x
 _atom_site_fract_y
 _atom_site_fract_z
 _atom_site_occupancy
  Th  Th0  1  0.746237  0.243360  0.942794  1
  Th  Th1  1  0.246237  0.756640  0.057206  1
  Th  Th2  1  0.753763  0.743360  0.557206  1
  Th  Th3  1  0.253763  0.256640  0.442794  1
  Al  Al4  1  0.990617  0.436114  0.186425  1
  Al  Al5  1  0.490617  0.563886  0.813575  1
  Al  Al6  1  0.509383  0.936114  0.313575  1
  Al  Al7  1  0.009383  0.063886  0.686425  1
  Cd  Cd8  1  0.749884  0.364251  0.636840  1
  Cd  Cd9  1  0.249884  0.635749  0.363160  1
  Cd  Cd10  1  0.750116  0.864251  0.863160  1
  Cd  Cd11  1  0.250116  0.135749  0.136840  1
  Cu  Cu12  1  0.989283  0.564896  0.813373  1
  Cu  Cu13  1  0.489283  0.435104  0.186627  1
  Cu  Cu14  1  0.510717  0.064896  0.686627  1
  Cu  Cu15  1  0.010717  0.935104  0.313373  1
  Cu  Cu16  1  0.747996  0.443605  0.392137  1
  Cu  Cu17  1  0.247996  0.556395  0.607863  1
  Cu  Cu18  1  0.752004  0.943605  0.107863  1
  Cu  Cu19  1  0.252004  0.056395  0.892137  1
  Cu  Cu20  1  0.753903  0.188160  0.254043  1
  Cu  Cu21  1  0.253903  0.811840  0.745957  1
  Cu  Cu22  1  0.746097  0.688160  0.245957  1
  Cu  Cu23  1  0.246097  0.311840  0.754043  1
  Cu  Cu24  1  0.753546  0.084211  0.483156  1
  Cu  Cu25  1  0.253546  0.915789  0.516844  1
  Cu  Cu26  1  0.746454  0.584211  0.016844  1
  Cu  Cu27  1  0.246454  0.415789  0.983156  1
