# generated using pymatgen
data_Li2Ce3ZnIr2Pd
_symmetry_space_group_name_H-M   'P 1'
_cell_length_a   7.28952800
_cell_length_b   7.24887326
_cell_length_c   3.96959800
_cell_angle_alpha   90.00000000
_cell_angle_beta   90.00000000
_cell_angle_gamma   120.18569002
_symmetry_Int_Tables_number   1
_chemical_formula_structural   Li2Ce3ZnIr2Pd
_chemical_formula_sum   'Li2 Ce3 Zn1 Ir2 Pd1'
_cell_volume   181.31402800
_cell_formula_units_Z   1
loop_
 _symmetry_equiv_pos_site_id
 _symmetry_equiv_pos_as_xyz
  1  'x, y, z'
loop_
 _atom_site_type_symbol
 _atom_site_label
 _atom_site_symmetry_multiplicity
 _atom_site_fract_x
 _atom_site_fract_y
 _atom_site_fract_z
 _atom_site_occupancy
  Li  Li0  1  0.998884  0.765065  0.500000  1
  Li  Li1  1  0.233818  0.234935  0.500000  1
  Ce  Ce2  1  0.996844  0.418156  0.000000  1
  Ce  Ce3  1  0.578687  0.581844  0.000000  1
  Ce  Ce4  1  0.425736  0.000000  0.000000  1
  Zn  Zn5  1  0.763142  0.000000  0.500000  1
  Ir  Ir6  1  0.668671  0.330103  0.500000  1
  Ir  Ir7  1  0.338567  0.669897  0.500000  1
  Pd  Pd8  1  0.995651  0.000000  0.000000  1
