# generated using pymatgen
data_AlGa3(SiIr)12
_symmetry_space_group_name_H-M   'P 1'
_cell_length_a   3.63709300
_cell_length_b   5.96729217
_cell_length_c   19.36954328
_cell_angle_alpha   90.01412615
_cell_angle_beta   90.00000000
_cell_angle_gamma   90.00000000
_symmetry_Int_Tables_number   1
_chemical_formula_structural   AlGa3(SiIr)12
_chemical_formula_sum   'Al1 Ga3 Si12 Ir12'
_cell_volume   420.38874056
_cell_formula_units_Z   1
loop_
 _symmetry_equiv_pos_site_id
 _symmetry_equiv_pos_as_xyz
  1  'x, y, z'
loop_
 _atom_site_type_symbol
 _atom_site_label
 _atom_site_symmetry_multiplicity
 _atom_site_fract_x
 _atom_site_fract_y
 _atom_site_fract_z
 _atom_site_occupancy
  Al  Al0  1  0.250000  0.519261  0.950581  1
  Ga  Ga1  1  0.250000  0.982083  0.451459  1
  Ga  Ga2  1  0.750000  0.018238  0.548614  1
  Ga  Ga3  1  0.750000  0.480390  0.048491  1
  Si  Si4  1  0.250000  0.082166  0.910686  1
  Si  Si5  1  0.750000  0.918799  0.089349  1
  Si  Si6  1  0.750000  0.579034  0.589637  1
  Si  Si7  1  0.250000  0.420832  0.410526  1
  Si  Si8  1  0.250000  0.722640  0.269136  1
  Si  Si9  1  0.750000  0.277513  0.730835  1
  Si  Si10  1  0.750000  0.222880  0.230611  1
  Si  Si11  1  0.250000  0.778052  0.769348  1
  Si  Si12  1  0.250000  0.384886  0.141779  1
  Si  Si13  1  0.750000  0.615874  0.858054  1
  Si  Si14  1  0.750000  0.883964  0.357887  1
  Si  Si15  1  0.250000  0.115868  0.642190  1
  Ir  Ir16  1  0.250000  0.391084  0.824607  1
  Ir  Ir17  1  0.750000  0.609732  0.176416  1
  Ir  Ir18  1  0.750000  0.889954  0.676225  1
  Ir  Ir19  1  0.250000  0.109475  0.323765  1
  Ir  Ir20  1  0.250000  0.495878  0.678097  1
  Ir  Ir21  1  0.750000  0.503763  0.322288  1
  Ir  Ir22  1  0.750000  0.996622  0.822532  1
  Ir  Ir23  1  0.250000  0.004663  0.177409  1
  Ir  Ir24  1  0.250000  0.334924  0.535192  1
  Ir  Ir25  1  0.750000  0.665521  0.465001  1
  Ir  Ir26  1  0.750000  0.826496  0.965173  1
  Ir  Ir27  1  0.250000  0.169407  0.034117  1
