# generated using pymatgen
data_ErTm3B12MoRh
_symmetry_space_group_name_H-M   'P 1'
_cell_length_a   3.63386700
_cell_length_b   9.12929839
_cell_length_c   11.52890847
_cell_angle_alpha   90.41123179
_cell_angle_beta   90.00006638
_cell_angle_gamma   89.99996529
_symmetry_Int_Tables_number   1
_chemical_formula_structural   ErTm3B12MoRh
_chemical_formula_sum   'Er2 Tm6 B24 Mo2 Rh2'
_cell_volume   382.45772338
_cell_formula_units_Z   2
loop_
 _symmetry_equiv_pos_site_id
 _symmetry_equiv_pos_as_xyz
  1  'x, y, z'
loop_
 _atom_site_type_symbol
 _atom_site_label
 _atom_site_symmetry_multiplicity
 _atom_site_fract_x
 _atom_site_fract_y
 _atom_site_fract_z
 _atom_site_occupancy
  Er  Er0  1  0.499995  0.319233  0.411671  1
  Er  Er1  1  0.500005  0.680767  0.588329  1
  Tm  Tm2  1  0.500001  0.174562  0.916977  1
  Tm  Tm3  1  0.499999  0.825438  0.083023  1
  Tm  Tm4  1  0.500002  0.443413  0.126448  1
  Tm  Tm5  1  0.499998  0.556587  0.873552  1
  Tm  Tm6  1  0.500002  0.054689  0.628281  1
  Tm  Tm7  1  0.499998  0.945311  0.371719  1
  B  B8  1  0.000001  0.106242  0.472081  1
  B  B9  1  0.999999  0.893758  0.527919  1
  B  B10  1  0.000002  0.395009  0.970123  1
  B  B11  1  0.999998  0.604991  0.029877  1
  B  B12  1  0.999999  0.132574  0.317574  1
  B  B13  1  0.000001  0.867426  0.682426  1
  B  B14  1  0.000002  0.368083  0.816103  1
  B  B15  1  0.999998  0.631917  0.183897  1
  B  B16  1  0.999999  0.051679  0.065726  1
  B  B17  1  0.000001  0.948321  0.934274  1
  B  B18  1  0.000001  0.446090  0.565423  1
  B  B19  1  0.999999  0.553910  0.434577  1
  B  B20  1  0.999997  0.483553  0.288124  1
  B  B21  1  0.000003  0.516447  0.711876  1
  B  B22  1  0.000002  0.020629  0.786193  1
  B  B23  1  0.999998  0.979371  0.213807  1
  B  B24  1  0.000001  0.250587  0.078954  1
  B  B25  1  0.999999  0.749413  0.921046  1
  B  B26  1  0.000003  0.250460  0.579155  1
  B  B27  1  0.999997  0.749540  0.420845  1
  B  B28  1  0.000000  0.296218  0.236419  1
  B  B29  1  0.000000  0.703782  0.763581  1
  B  B30  1  0.000002  0.208398  0.734392  1
  B  B31  1  0.999998  0.791602  0.265608  1
  Mo  Mo32  1  0.500001  0.139440  0.180945  1
  Mo  Mo33  1  0.499999  0.860560  0.819055  1
  Rh  Rh34  1  0.500007  0.361316  0.678536  1
  Rh  Rh35  1  0.499993  0.638684  0.321464  1
