# generated using pymatgen
data_TmHf2Zr(Al3Rh)6
_symmetry_space_group_name_H-M   'P 1'
_cell_length_a   7.47549595
_cell_length_b   7.46939058
_cell_length_c   9.28682800
_cell_angle_alpha   90.00000000
_cell_angle_beta   90.00000000
_cell_angle_gamma   119.75856235
_symmetry_Int_Tables_number   1
_chemical_formula_structural   TmHf2Zr(Al3Rh)6
_chemical_formula_sum   'Tm1 Hf2 Zr1 Al18 Rh6'
_cell_volume   450.16805167
_cell_formula_units_Z   1
loop_
 _symmetry_equiv_pos_site_id
 _symmetry_equiv_pos_as_xyz
  1  'x, y, z'
loop_
 _atom_site_type_symbol
 _atom_site_label
 _atom_site_symmetry_multiplicity
 _atom_site_fract_x
 _atom_site_fract_y
 _atom_site_fract_z
 _atom_site_occupancy
  Tm  Tm0  1  0.328899  0.006342  0.750000  1
  Hf  Hf1  1  0.994445  0.672299  0.250000  1
  Hf  Hf2  1  0.671413  0.993928  0.250000  1
  Zr  Zr3  1  0.006128  0.329394  0.750000  1
  Al  Al4  1  0.121692  0.122873  0.250000  1
  Al  Al5  1  0.873034  0.875871  0.750000  1
  Al  Al6  1  0.996514  0.334649  0.077870  1
  Al  Al7  1  0.000621  0.663089  0.925991  1
  Al  Al8  1  0.000621  0.663089  0.574009  1
  Al  Al9  1  0.334924  0.997325  0.419050  1
  Al  Al10  1  0.996514  0.334649  0.422130  1
  Al  Al11  1  0.667481  0.002294  0.574173  1
  Al  Al12  1  0.667481  0.002294  0.925827  1
  Al  Al13  1  0.334924  0.997325  0.080950  1
  Al  Al14  1  0.331493  0.333512  0.554675  1
  Al  Al15  1  0.669109  0.668966  0.439054  1
  Al  Al16  1  0.669109  0.668966  0.060946  1
  Al  Al17  1  0.331493  0.333512  0.945325  1
  Al  Al18  1  0.337818  0.553549  0.250000  1
  Al  Al19  1  0.665810  0.450526  0.750000  1
  Al  Al20  1  0.555705  0.339007  0.250000  1
  Al  Al21  1  0.445443  0.657508  0.750000  1
  Rh  Rh22  1  0.672566  0.327554  0.001734  1
  Rh  Rh23  1  0.328268  0.674043  0.002326  1
  Rh  Rh24  1  0.328268  0.674043  0.497674  1
  Rh  Rh25  1  0.672566  0.327554  0.498266  1
  Rh  Rh26  1  0.998832  0.997919  0.002048  1
  Rh  Rh27  1  0.998832  0.997919  0.497952  1
