# generated using pymatgen
data_Dy2HoFe7B2
_symmetry_space_group_name_H-M   'P 1'
_cell_length_a   7.79482656
_cell_length_b   7.79482672
_cell_length_c   7.79482613
_cell_angle_alpha   38.36014071
_cell_angle_beta   38.36014049
_cell_angle_gamma   38.36013811
_symmetry_Int_Tables_number   1
_chemical_formula_structural   Dy2HoFe7B2
_chemical_formula_sum   'Dy2 Ho1 Fe7 B2'
_cell_volume   163.84742636
_cell_formula_units_Z   1
loop_
 _symmetry_equiv_pos_site_id
 _symmetry_equiv_pos_as_xyz
  1  'x, y, z'
loop_
 _atom_site_type_symbol
 _atom_site_label
 _atom_site_symmetry_multiplicity
 _atom_site_fract_x
 _atom_site_fract_y
 _atom_site_fract_z
 _atom_site_occupancy
  Dy  Dy0  1  0.356362  0.356362  0.356362  1
  Dy  Dy1  1  0.643638  0.643638  0.643638  1
  Ho  Ho2  1  0.500000  0.500000  0.500000  1
  Fe  Fe3  1  0.000000  0.000000  0.000000  1
  Fe  Fe4  1  0.573288  0.066784  0.066786  1
  Fe  Fe5  1  0.066784  0.573288  0.066786  1
  Fe  Fe6  1  0.933215  0.933215  0.426710  1
  Fe  Fe7  1  0.066785  0.066785  0.573289  1
  Fe  Fe8  1  0.933215  0.426711  0.933214  1
  Fe  Fe9  1  0.426711  0.933215  0.933214  1
  B  B10  1  0.167910  0.167910  0.167910  1
  B  B11  1  0.832090  0.832090  0.832090  1
