# generated using pymatgen
data_Ho6Er4In8Pd3Ru
_symmetry_space_group_name_H-M   'P 1'
_cell_length_a   3.61609900
_cell_length_b   8.10464231
_cell_length_c   18.21899700
_cell_angle_alpha   90.01590890
_cell_angle_beta   90.00000000
_cell_angle_gamma   90.00000000
_symmetry_Int_Tables_number   1
_chemical_formula_structural   Ho6Er4In8Pd3Ru
_chemical_formula_sum   'Ho6 Er4 In8 Pd3 Ru1'
_cell_volume   533.94756672
_cell_formula_units_Z   1
loop_
 _symmetry_equiv_pos_site_id
 _symmetry_equiv_pos_as_xyz
  1  'x, y, z'
loop_
 _atom_site_type_symbol
 _atom_site_label
 _atom_site_symmetry_multiplicity
 _atom_site_fract_x
 _atom_site_fract_y
 _atom_site_fract_z
 _atom_site_occupancy
  Ho  Ho0  1  0.000000  0.499875  0.499641  1
  Ho  Ho1  1  0.000000  0.999720  0.000787  1
  Ho  Ho2  1  0.000000  0.727158  0.277230  1
  Ho  Ho3  1  0.000000  0.259661  0.720189  1
  Ho  Ho4  1  0.000000  0.759670  0.779673  1
  Ho  Ho5  1  0.000000  0.252902  0.220343  1
  Er  Er6  1  0.000000  0.614701  0.087181  1
  Er  Er7  1  0.000000  0.384281  0.916012  1
  Er  Er8  1  0.000000  0.883892  0.584034  1
  Er  Er9  1  0.000000  0.118159  0.414593  1
  In  In10  1  0.500000  0.709926  0.932002  1
  In  In11  1  0.500000  0.292343  0.068881  1
  In  In12  1  0.500000  0.791491  0.432473  1
  In  In13  1  0.500000  0.209092  0.567491  1
  In  In14  1  0.500000  0.580289  0.649176  1
  In  In15  1  0.500000  0.424692  0.350300  1
  In  In16  1  0.500000  0.920469  0.150086  1
  In  In17  1  0.500000  0.079426  0.851061  1
  Pd  Pd18  1  0.500000  0.477090  0.804088  1
  Pd  Pd19  1  0.500000  0.977035  0.695679  1
  Pd  Pd20  1  0.500000  0.019611  0.304001  1
  Ru  Ru21  1  0.500000  0.518519  0.195080  1
