# generated using pymatgen
data_YbPa5(Al3Fe)8
_symmetry_space_group_name_H-M   'P 1'
_cell_length_a   8.71995675
_cell_length_b   8.71995675
_cell_length_c   9.21290100
_cell_angle_alpha   90.00000000
_cell_angle_beta   90.00000000
_cell_angle_gamma   119.86843040
_symmetry_Int_Tables_number   1
_chemical_formula_structural   YbPa5(Al3Fe)8
_chemical_formula_sum   'Yb1 Pa5 Al24 Fe8'
_cell_volume   607.47715759
_cell_formula_units_Z   1
loop_
 _symmetry_equiv_pos_site_id
 _symmetry_equiv_pos_as_xyz
  1  'x, y, z'
loop_
 _atom_site_type_symbol
 _atom_site_label
 _atom_site_symmetry_multiplicity
 _atom_site_fract_x
 _atom_site_fract_y
 _atom_site_fract_z
 _atom_site_occupancy
  Yb  Yb0  1  0.803393  0.196607  0.750000  1
  Pa  Pa1  1  0.200345  0.799655  0.250000  1
  Pa  Pa2  1  0.394244  0.201318  0.750000  1
  Pa  Pa3  1  0.602486  0.803784  0.250000  1
  Pa  Pa4  1  0.798682  0.605756  0.750000  1
  Pa  Pa5  1  0.196216  0.397514  0.250000  1
  Al  Al6  1  0.669720  0.330280  0.987133  1
  Al  Al7  1  0.334532  0.665468  0.007297  1
  Al  Al8  1  0.334532  0.665468  0.492703  1
  Al  Al9  1  0.669720  0.330280  0.512867  1
  Al  Al10  1  0.840040  0.159960  0.423028  1
  Al  Al11  1  0.160369  0.839631  0.579589  1
  Al  Al12  1  0.320502  0.160122  0.421211  1
  Al  Al13  1  0.160369  0.839631  0.920411  1
  Al  Al14  1  0.680035  0.841104  0.577639  1
  Al  Al15  1  0.840040  0.159960  0.076972  1
  Al  Al16  1  0.839878  0.679498  0.421211  1
  Al  Al17  1  0.680035  0.841104  0.922361  1
  Al  Al18  1  0.158896  0.319965  0.577639  1
  Al  Al19  1  0.320502  0.160122  0.078789  1
  Al  Al20  1  0.158896  0.319965  0.922361  1
  Al  Al21  1  0.839878  0.679498  0.078789  1
  Al  Al22  1  0.436993  0.563007  0.750000  1
  Al  Al23  1  0.560186  0.439814  0.250000  1
  Al  Al24  1  0.115266  0.556391  0.750000  1
  Al  Al25  1  0.875777  0.437875  0.250000  1
  Al  Al26  1  0.443609  0.884734  0.750000  1
  Al  Al27  1  0.562125  0.124223  0.250000  1
  Al  Al28  1  0.999569  0.000431  0.750000  1
  Al  Al29  1  0.000213  0.999787  0.250000  1
  Fe  Fe30  1  0.501274  0.498726  0.998076  1
  Fe  Fe31  1  0.006458  0.506353  0.007585  1
  Fe  Fe32  1  0.501274  0.498726  0.501924  1
  Fe  Fe33  1  0.493647  0.993542  0.007585  1
  Fe  Fe34  1  0.006458  0.506353  0.492415  1
  Fe  Fe35  1  0.493647  0.993542  0.492415  1
  Fe  Fe36  1  0.000096  0.999904  0.000085  1
  Fe  Fe37  1  0.000096  0.999904  0.499915  1
