# generated using pymatgen
data_Sr(Al5Rh)2
_symmetry_space_group_name_H-M   'P 1'
_cell_length_a   6.94401123
_cell_length_b   6.94400980
_cell_length_c   9.21475500
_cell_angle_alpha   90.00000000
_cell_angle_beta   90.00000000
_cell_angle_gamma   97.50791791
_symmetry_Int_Tables_number   1
_chemical_formula_structural   Sr(Al5Rh)2
_chemical_formula_sum   'Sr2 Al20 Rh4'
_cell_volume   440.51955640
_cell_formula_units_Z   2
loop_
 _symmetry_equiv_pos_site_id
 _symmetry_equiv_pos_as_xyz
  1  'x, y, z'
loop_
 _atom_site_type_symbol
 _atom_site_label
 _atom_site_symmetry_multiplicity
 _atom_site_fract_x
 _atom_site_fract_y
 _atom_site_fract_z
 _atom_site_occupancy
  Sr  Sr0  1  0.876918  0.123082  0.750000  1
  Sr  Sr1  1  0.123082  0.876918  0.250000  1
  Al  Al2  1  0.620976  0.379024  0.549488  1
  Al  Al3  1  0.379024  0.620976  0.450512  1
  Al  Al4  1  0.379024  0.620976  0.049488  1
  Al  Al5  1  0.620976  0.379024  0.950512  1
  Al  Al6  1  0.226736  0.226736  0.500000  1
  Al  Al7  1  0.773264  0.773264  0.500000  1
  Al  Al8  1  0.773264  0.773264  0.000000  1
  Al  Al9  1  0.226736  0.226736  0.000000  1
  Al  Al10  1  0.839726  0.160274  0.103048  1
  Al  Al11  1  0.160274  0.839726  0.896952  1
  Al  Al12  1  0.160274  0.839726  0.603048  1
  Al  Al13  1  0.839726  0.160274  0.396952  1
  Al  Al14  1  0.857590  0.588478  0.750000  1
  Al  Al15  1  0.142410  0.411522  0.250000  1
  Al  Al16  1  0.411522  0.142410  0.750000  1
  Al  Al17  1  0.588478  0.857590  0.250000  1
  Al  Al18  1  0.225525  0.482080  0.750000  1
  Al  Al19  1  0.774475  0.517920  0.250000  1
  Al  Al20  1  0.517920  0.774475  0.750000  1
  Al  Al21  1  0.482080  0.225525  0.250000  1
  Rh  Rh22  1  0.000000  0.500000  0.500000  1
  Rh  Rh23  1  0.000000  0.500000  0.000000  1
  Rh  Rh24  1  0.500000  0.000000  0.000000  1
  Rh  Rh25  1  0.500000  0.000000  0.500000  1
