# generated using pymatgen
data_Sc18Re7MoSe2
_symmetry_space_group_name_H-M   'P 1'
_cell_length_a   8.61828500
_cell_length_b   8.74716894
_cell_length_c   8.68999874
_cell_angle_alpha   120.21902580
_cell_angle_beta   90.00000000
_cell_angle_gamma   90.00000000
_symmetry_Int_Tables_number   1
_chemical_formula_structural   Sc18Re7MoSe2
_chemical_formula_sum   'Sc18 Re7 Mo1 Se2'
_cell_volume   566.07759348
_cell_formula_units_Z   1
loop_
 _symmetry_equiv_pos_site_id
 _symmetry_equiv_pos_as_xyz
  1  'x, y, z'
loop_
 _atom_site_type_symbol
 _atom_site_label
 _atom_site_symmetry_multiplicity
 _atom_site_fract_x
 _atom_site_fract_y
 _atom_site_fract_z
 _atom_site_occupancy
  Sc  Sc0  1  0.545958  0.805783  0.611547  1
  Sc  Sc1  1  0.543712  0.802847  0.194607  1
  Sc  Sc2  1  0.543755  0.391857  0.194687  1
  Sc  Sc3  1  0.450686  0.193758  0.387487  1
  Sc  Sc4  1  0.454233  0.194704  0.805322  1
  Sc  Sc5  1  0.454227  0.610676  0.805359  1
  Sc  Sc6  1  0.049314  0.193758  0.387487  1
  Sc  Sc7  1  0.045767  0.194704  0.805322  1
  Sc  Sc8  1  0.045773  0.610676  0.805359  1
  Sc  Sc9  1  0.954042  0.805783  0.611547  1
  Sc  Sc10  1  0.956288  0.802847  0.194607  1
  Sc  Sc11  1  0.956245  0.391857  0.194687  1
  Sc  Sc12  1  0.750000  0.457831  0.915845  1
  Sc  Sc13  1  0.750000  0.466616  0.547830  1
  Sc  Sc14  1  0.750000  0.081292  0.547865  1
  Sc  Sc15  1  0.250000  0.541063  0.082212  1
  Sc  Sc16  1  0.250000  0.541928  0.457808  1
  Sc  Sc17  1  0.250000  0.915884  0.457886  1
  Re  Re18  1  0.750000  0.108057  0.890832  1
  Re  Re19  1  0.750000  0.782612  0.890388  1
  Re  Re20  1  0.250000  0.894448  0.788481  1
  Re  Re21  1  0.250000  0.892138  0.107676  1
  Re  Re22  1  0.250000  0.215383  0.107520  1
  Re  Re23  1  0.498584  0.999593  0.999583  1
  Re  Re24  1  0.001416  0.999593  0.999583  1
  Mo  Mo25  1  0.750000  0.103417  0.206836  1
  Se  Se26  1  0.750000  0.666446  0.332823  1
  Se  Se27  1  0.250000  0.334449  0.668813  1
