# generated using pymatgen
data_Tm3Zr(Co3Os)2
_symmetry_space_group_name_H-M   'P 1'
_cell_length_a   5.02443100
_cell_length_b   5.02443048
_cell_length_c   8.28944600
_cell_angle_alpha   90.00000000
_cell_angle_beta   90.00000000
_cell_angle_gamma   120.00000999
_symmetry_Int_Tables_number   1
_chemical_formula_structural   Tm3Zr(Co3Os)2
_chemical_formula_sum   'Tm3 Zr1 Co6 Os2'
_cell_volume   181.22988841
_cell_formula_units_Z   1
loop_
 _symmetry_equiv_pos_site_id
 _symmetry_equiv_pos_as_xyz
  1  'x, y, z'
loop_
 _atom_site_type_symbol
 _atom_site_label
 _atom_site_symmetry_multiplicity
 _atom_site_fract_x
 _atom_site_fract_y
 _atom_site_fract_z
 _atom_site_occupancy
  Tm  Tm0  1  0.333333  0.666667  0.434304  1
  Tm  Tm1  1  0.666667  0.333333  0.564388  1
  Tm  Tm2  1  0.666667  0.333333  0.934763  1
  Zr  Zr3  1  0.333333  0.666667  0.064704  1
  Co  Co4  1  0.831476  0.168524  0.247476  1
  Co  Co5  1  0.831476  0.662953  0.247476  1
  Co  Co6  1  0.337047  0.168524  0.247476  1
  Co  Co7  1  0.169047  0.830953  0.752898  1
  Co  Co8  1  0.169047  0.338093  0.752898  1
  Co  Co9  1  0.661907  0.830953  0.752898  1
  Os  Os10  1  0.000000  0.000000  0.500607  1
  Os  Os11  1  0.000000  0.000000  0.000114  1
