# generated using pymatgen
data_DyHo5(AuO7)2
_symmetry_space_group_name_H-M   'P 1'
_cell_length_a   6.46586006
_cell_length_b   6.46586068
_cell_length_c   7.41542403
_cell_angle_alpha   89.99109026
_cell_angle_beta   90.00890806
_cell_angle_gamma   108.89169820
_symmetry_Int_Tables_number   1
_chemical_formula_structural   DyHo5(AuO7)2
_chemical_formula_sum   'Dy1 Ho5 Au2 O14'
_cell_volume   293.31919632
_cell_formula_units_Z   1
loop_
 _symmetry_equiv_pos_site_id
 _symmetry_equiv_pos_as_xyz
  1  'x, y, z'
loop_
 _atom_site_type_symbol
 _atom_site_label
 _atom_site_symmetry_multiplicity
 _atom_site_fract_x
 _atom_site_fract_y
 _atom_site_fract_z
 _atom_site_occupancy
  Dy  Dy0  1  0.500000  0.500000  0.500000  1
  Ho  Ho1  1  0.002172  0.471049  0.750132  1
  Ho  Ho2  1  0.500000  0.500000  0.000000  1
  Ho  Ho3  1  0.997828  0.528951  0.249868  1
  Ho  Ho4  1  0.471049  0.002172  0.249868  1
  Ho  Ho5  1  0.528951  0.997828  0.750132  1
  Au  Au6  1  0.000000  0.000000  0.000000  1
  Au  Au7  1  0.000000  0.000000  0.500000  1
  O  O8  1  0.081859  0.330780  0.475122  1
  O  O9  1  0.919720  0.080280  0.750000  1
  O  O10  1  0.082284  0.330865  0.024864  1
  O  O11  1  0.918141  0.669220  0.524878  1
  O  O12  1  0.638968  0.361032  0.750609  1
  O  O13  1  0.669220  0.918141  0.475122  1
  O  O14  1  0.330780  0.081859  0.524878  1
  O  O15  1  0.330865  0.082284  0.975136  1
  O  O16  1  0.669135  0.917716  0.024864  1
  O  O17  1  0.917716  0.669135  0.975136  1
  O  O18  1  0.632318  0.367682  0.249271  1
  O  O19  1  0.361032  0.638968  0.249391  1
  O  O20  1  0.367682  0.632318  0.750729  1
  O  O21  1  0.080280  0.919720  0.250000  1
