# generated using pymatgen
data_Er4Tm6SnSb5
_symmetry_space_group_name_H-M   'P 1'
_cell_length_a   8.87522900
_cell_length_b   8.86957836
_cell_length_c   6.27538100
_cell_angle_alpha   90.00000000
_cell_angle_beta   90.00000000
_cell_angle_gamma   120.02108044
_symmetry_Int_Tables_number   1
_chemical_formula_structural   Er4Tm6SnSb5
_chemical_formula_sum   'Er4 Tm6 Sn1 Sb5'
_cell_volume   427.72140080
_cell_formula_units_Z   1
loop_
 _symmetry_equiv_pos_site_id
 _symmetry_equiv_pos_as_xyz
  1  'x, y, z'
loop_
 _atom_site_type_symbol
 _atom_site_label
 _atom_site_symmetry_multiplicity
 _atom_site_fract_x
 _atom_site_fract_y
 _atom_site_fract_z
 _atom_site_occupancy
  Er  Er0  1  0.244800  0.000000  0.250000  1
  Er  Er1  1  0.755952  0.000000  0.750000  1
  Er  Er2  1  0.245479  0.244509  0.750000  1
  Er  Er3  1  0.000969  0.755491  0.750000  1
  Tm  Tm4  1  0.334059  0.667858  0.000218  1
  Tm  Tm5  1  0.666202  0.332142  0.499782  1
  Tm  Tm6  1  0.666202  0.332142  0.000218  1
  Tm  Tm7  1  0.334059  0.667858  0.499782  1
  Tm  Tm8  1  0.998332  0.243163  0.250000  1
  Tm  Tm9  1  0.755169  0.756837  0.250000  1
  Sn  Sn10  1  0.608456  0.000000  0.250000  1
  Sb  Sb11  1  0.390530  0.000000  0.750000  1
  Sb  Sb12  1  0.999032  0.609593  0.250000  1
  Sb  Sb13  1  0.389440  0.390407  0.250000  1
  Sb  Sb14  1  0.610538  0.609758  0.750000  1
  Sb  Sb15  1  0.000779  0.390242  0.750000  1
