# generated using pymatgen
data_Er4Zr4IrRh3
_symmetry_space_group_name_H-M   'P 1'
_cell_length_a   4.59947400
_cell_length_b   7.03428435
_cell_length_c   8.24076404
_cell_angle_alpha   90.01877079
_cell_angle_beta   90.00000000
_cell_angle_gamma   90.00000000
_symmetry_Int_Tables_number   1
_chemical_formula_structural   Er4Zr4IrRh3
_chemical_formula_sum   'Er4 Zr4 Ir1 Rh3'
_cell_volume   266.62173130
_cell_formula_units_Z   1
loop_
 _symmetry_equiv_pos_site_id
 _symmetry_equiv_pos_as_xyz
  1  'x, y, z'
loop_
 _atom_site_type_symbol
 _atom_site_label
 _atom_site_symmetry_multiplicity
 _atom_site_fract_x
 _atom_site_fract_y
 _atom_site_fract_z
 _atom_site_occupancy
  Er  Er0  1  0.250000  0.987258  0.324721  1
  Er  Er1  1  0.250000  0.482977  0.177870  1
  Er  Er2  1  0.750000  0.015271  0.676562  1
  Er  Er3  1  0.750000  0.515049  0.823582  1
  Zr  Zr4  1  0.250000  0.356689  0.575926  1
  Zr  Zr5  1  0.250000  0.855590  0.923172  1
  Zr  Zr6  1  0.750000  0.644503  0.421810  1
  Zr  Zr7  1  0.750000  0.143062  0.078208  1
  Ir  Ir8  1  0.750000  0.266339  0.409329  1
  Rh  Rh9  1  0.250000  0.233416  0.911878  1
  Rh  Rh10  1  0.250000  0.734252  0.588999  1
  Rh  Rh11  1  0.750000  0.765593  0.087944  1
