# generated using pymatgen
data_Dy2Zn2P7N12
_symmetry_space_group_name_H-M   'P 1'
_cell_length_a   7.38177854
_cell_length_b   7.33781222
_cell_length_c   7.38177950
_cell_angle_alpha   110.29253094
_cell_angle_beta   108.08965336
_cell_angle_gamma   110.29252414
_symmetry_Int_Tables_number   1
_chemical_formula_structural   Dy2Zn2P7N12
_chemical_formula_sum   'Dy2 Zn2 P7 N12'
_cell_volume   306.69049440
_cell_formula_units_Z   1
loop_
 _symmetry_equiv_pos_site_id
 _symmetry_equiv_pos_as_xyz
  1  'x, y, z'
loop_
 _atom_site_type_symbol
 _atom_site_label
 _atom_site_symmetry_multiplicity
 _atom_site_fract_x
 _atom_site_fract_y
 _atom_site_fract_z
 _atom_site_occupancy
  Dy  Dy0  1  0.984542  0.313471  0.984542  1
  Dy  Dy1  1  0.671071  0.686529  0.671071  1
  Zn  Zn2  1  0.348070  0.000000  0.007924  1
  Zn  Zn3  1  0.007924  0.000000  0.348070  1
  P  P4  1  0.746033  0.249502  0.492750  1
  P  P5  1  0.243249  0.750498  0.496532  1
  P  P6  1  0.496532  0.750498  0.243249  1
  P  P7  1  0.492750  0.249502  0.746033  1
  P  P8  1  0.746292  0.500000  0.246292  1
  P  P9  1  0.246292  0.500000  0.746292  1
  P  P10  1  0.053090  0.000000  0.053090  1
  N  N11  1  0.574763  0.276276  0.994954  1
  N  N12  1  0.426420  0.431509  0.715745  1
  N  N13  1  0.994954  0.276276  0.574763  1
  N  N14  1  0.273323  0.000000  0.569368  1
  N  N15  1  0.715745  0.431509  0.426420  1
  N  N16  1  0.994911  0.568491  0.284236  1
  N  N17  1  0.569368  0.000000  0.273323  1
  N  N18  1  0.404586  0.695904  0.404586  1
  N  N19  1  0.284236  0.568491  0.994911  1
  N  N20  1  0.708683  0.304096  0.708683  1
  N  N21  1  0.718678  0.723724  0.298487  1
  N  N22  1  0.298487  0.723724  0.718678  1
