# generated using pymatgen
data_Hf18Ti2FeCuRe6
_symmetry_space_group_name_H-M   'P 1'
_cell_length_a   8.40710200
_cell_length_b   8.65747651
_cell_length_c   8.65747500
_cell_angle_alpha   119.99618240
_cell_angle_beta   90.00000000
_cell_angle_gamma   90.00000000
_symmetry_Int_Tables_number   1
_chemical_formula_structural   Hf18Ti2FeCuRe6
_chemical_formula_sum   'Hf18 Ti2 Fe1 Cu1 Re6'
_cell_volume   545.72798067
_cell_formula_units_Z   1
loop_
 _symmetry_equiv_pos_site_id
 _symmetry_equiv_pos_as_xyz
  1  'x, y, z'
loop_
 _atom_site_type_symbol
 _atom_site_label
 _atom_site_symmetry_multiplicity
 _atom_site_fract_x
 _atom_site_fract_y
 _atom_site_fract_z
 _atom_site_occupancy
  Hf  Hf0  1  0.554837  0.803512  0.607021  1
  Hf  Hf1  1  0.554850  0.803494  0.196506  1
  Hf  Hf2  1  0.554837  0.392979  0.196488  1
  Hf  Hf3  1  0.440672  0.201349  0.402725  1
  Hf  Hf4  1  0.440650  0.201378  0.798622  1
  Hf  Hf5  1  0.440672  0.597275  0.798651  1
  Hf  Hf6  1  0.059328  0.201349  0.402725  1
  Hf  Hf7  1  0.059350  0.201378  0.798622  1
  Hf  Hf8  1  0.059328  0.597275  0.798651  1
  Hf  Hf9  1  0.945163  0.803512  0.607021  1
  Hf  Hf10  1  0.945150  0.803494  0.196506  1
  Hf  Hf11  1  0.945163  0.392979  0.196488  1
  Hf  Hf12  1  0.750000  0.457789  0.915597  1
  Hf  Hf13  1  0.750000  0.457772  0.542228  1
  Hf  Hf14  1  0.750000  0.084403  0.542210  1
  Hf  Hf15  1  0.250000  0.541407  0.082792  1
  Hf  Hf16  1  0.250000  0.541409  0.458591  1
  Hf  Hf17  1  0.250000  0.917208  0.458592  1
  Ti  Ti18  1  0.499159  0.999999  0.000001  1
  Ti  Ti19  1  0.000841  0.999999  0.000001  1
  Fe  Fe20  1  0.250000  0.333368  0.666632  1
  Cu  Cu21  1  0.750000  0.666644  0.333356  1
  Re  Re22  1  0.750000  0.113254  0.226540  1
  Re  Re23  1  0.750000  0.113260  0.886740  1
  Re  Re24  1  0.750000  0.773460  0.886746  1
  Re  Re25  1  0.250000  0.886677  0.773312  1
  Re  Re26  1  0.250000  0.886684  0.113316  1
  Re  Re27  1  0.250000  0.226688  0.113323  1
