# generated using pymatgen
data_Tm3Zr(TcB2)4
_symmetry_space_group_name_H-M   'P 1'
_cell_length_a   5.27518600
_cell_length_b   5.89467423
_cell_length_c   6.38647000
_cell_angle_alpha   89.67092048
_cell_angle_beta   90.00000000
_cell_angle_gamma   90.00000000
_symmetry_Int_Tables_number   1
_chemical_formula_structural   Tm3Zr(TcB2)4
_chemical_formula_sum   'Tm3 Zr1 Tc4 B8'
_cell_volume   198.58722121
_cell_formula_units_Z   1
loop_
 _symmetry_equiv_pos_site_id
 _symmetry_equiv_pos_as_xyz
  1  'x, y, z'
loop_
 _atom_site_type_symbol
 _atom_site_label
 _atom_site_symmetry_multiplicity
 _atom_site_fract_x
 _atom_site_fract_y
 _atom_site_fract_z
 _atom_site_occupancy
  Tm  Tm0  1  0.250000  0.013410  0.339061  1
  Tm  Tm1  1  0.250000  0.515027  0.163032  1
  Tm  Tm2  1  0.750000  0.983813  0.663513  1
  Zr  Zr3  1  0.750000  0.479100  0.830718  1
  Tc  Tc4  1  0.250000  0.184620  0.815941  1
  Tc  Tc5  1  0.250000  0.678647  0.690206  1
  Tc  Tc6  1  0.750000  0.815362  0.179752  1
  Tc  Tc7  1  0.750000  0.320880  0.315033  1
  B  B8  1  0.076957  0.368271  0.536218  1
  B  B9  1  0.421922  0.868803  0.964562  1
  B  B10  1  0.580254  0.632613  0.467558  1
  B  B11  1  0.919746  0.134883  0.033035  1
  B  B12  1  0.919746  0.632613  0.467558  1
  B  B13  1  0.580254  0.134883  0.033035  1
  B  B14  1  0.423043  0.368271  0.536218  1
  B  B15  1  0.078078  0.868803  0.964562  1
