# generated using pymatgen
data_ErZrMnIr3
_symmetry_space_group_name_H-M   'P 1'
_cell_length_a   5.12658010
_cell_length_b   5.12657990
_cell_length_c   5.12658115
_cell_angle_alpha   63.57203560
_cell_angle_beta   63.57203819
_cell_angle_gamma   63.57202739
_symmetry_Int_Tables_number   1
_chemical_formula_structural   ErZrMnIr3
_chemical_formula_sum   'Er1 Zr1 Mn1 Ir3'
_cell_volume   102.79387034
_cell_formula_units_Z   1
loop_
 _symmetry_equiv_pos_site_id
 _symmetry_equiv_pos_as_xyz
  1  'x, y, z'
loop_
 _atom_site_type_symbol
 _atom_site_label
 _atom_site_symmetry_multiplicity
 _atom_site_fract_x
 _atom_site_fract_y
 _atom_site_fract_z
 _atom_site_occupancy
  Er  Er0  1  0.250675  0.250675  0.250675  1
  Zr  Zr1  1  0.998006  0.998006  0.998006  1
  Mn  Mn2  1  0.625273  0.625273  0.625273  1
  Ir  Ir3  1  0.625287  0.625287  0.125469  1
  Ir  Ir4  1  0.625287  0.125469  0.625287  1
  Ir  Ir5  1  0.125469  0.625287  0.625287  1
