# generated using pymatgen
data_Pr8Si12HgPt3
_symmetry_space_group_name_H-M   'P 1'
_cell_length_a   8.29173500
_cell_length_b   8.29173512
_cell_length_c   8.71532900
_cell_angle_alpha   90.00000000
_cell_angle_beta   90.00000000
_cell_angle_gamma   120.00000352
_symmetry_Int_Tables_number   1
_chemical_formula_structural   Pr8Si12HgPt3
_chemical_formula_sum   'Pr8 Si12 Hg1 Pt3'
_cell_volume   518.92576749
_cell_formula_units_Z   1
loop_
 _symmetry_equiv_pos_site_id
 _symmetry_equiv_pos_as_xyz
  1  'x, y, z'
loop_
 _atom_site_type_symbol
 _atom_site_label
 _atom_site_symmetry_multiplicity
 _atom_site_fract_x
 _atom_site_fract_y
 _atom_site_fract_z
 _atom_site_occupancy
  Pr  Pr0  1  0.497718  0.502282  0.745763  1
  Pr  Pr1  1  0.498714  0.501286  0.253876  1
  Pr  Pr2  1  0.004563  0.502282  0.745763  1
  Pr  Pr3  1  0.002571  0.501286  0.253876  1
  Pr  Pr4  1  0.497718  0.995437  0.745763  1
  Pr  Pr5  1  0.498714  0.997429  0.253876  1
  Pr  Pr6  1  0.000000  0.000000  0.747133  1
  Pr  Pr7  1  0.000000  0.000000  0.253747  1
  Si  Si8  1  0.842006  0.157994  0.001907  1
  Si  Si9  1  0.168634  0.831366  0.999153  1
  Si  Si10  1  0.315987  0.157994  0.001907  1
  Si  Si11  1  0.165990  0.834010  0.499686  1
  Si  Si12  1  0.662733  0.831366  0.999153  1
  Si  Si13  1  0.833408  0.166592  0.500408  1
  Si  Si14  1  0.842006  0.684013  0.001907  1
  Si  Si15  1  0.668019  0.834010  0.499686  1
  Si  Si16  1  0.168634  0.337267  0.999153  1
  Si  Si17  1  0.333183  0.166592  0.500408  1
  Si  Si18  1  0.165990  0.331981  0.499686  1
  Si  Si19  1  0.833408  0.666817  0.500408  1
  Hg  Hg20  1  0.666667  0.333333  0.995708  1
  Pt  Pt21  1  0.333333  0.666667  0.001270  1
  Pt  Pt22  1  0.333333  0.666667  0.498833  1
  Pt  Pt23  1  0.666667  0.333333  0.500925  1
