# generated using pymatgen
data_Cs6TbSmCl12
_symmetry_space_group_name_H-M   'P 1'
_cell_length_a   9.50987700
_cell_length_b   9.51944313
_cell_length_c   7.91455900
_cell_angle_alpha   90.00000000
_cell_angle_beta   90.00000000
_cell_angle_gamma   89.99065880
_symmetry_Int_Tables_number   1
_chemical_formula_structural   Cs6TbSmCl12
_chemical_formula_sum   'Cs6 Tb1 Sm1 Cl12'
_cell_volume   716.49499091
_cell_formula_units_Z   1
loop_
 _symmetry_equiv_pos_site_id
 _symmetry_equiv_pos_as_xyz
  1  'x, y, z'
loop_
 _atom_site_type_symbol
 _atom_site_label
 _atom_site_symmetry_multiplicity
 _atom_site_fract_x
 _atom_site_fract_y
 _atom_site_fract_z
 _atom_site_occupancy
  Cs  Cs0  1  0.000000  0.000000  0.500000  1
  Cs  Cs1  1  0.000000  0.000000  0.000000  1
  Cs  Cs2  1  0.234427  0.582041  0.500000  1
  Cs  Cs3  1  0.765573  0.417959  0.500000  1
  Cs  Cs4  1  0.417432  0.237748  0.000000  1
  Cs  Cs5  1  0.582568  0.762252  0.000000  1
  Tb  Tb6  1  0.000000  0.500000  0.000000  1
  Sm  Sm7  1  0.500000  0.000000  0.500000  1
  Cl  Cl8  1  0.694128  0.057484  0.742238  1
  Cl  Cl9  1  0.305872  0.942516  0.742238  1
  Cl  Cl10  1  0.943449  0.690871  0.238612  1
  Cl  Cl11  1  0.056551  0.309129  0.238612  1
  Cl  Cl12  1  0.305872  0.942516  0.257762  1
  Cl  Cl13  1  0.694128  0.057484  0.257762  1
  Cl  Cl14  1  0.056551  0.309129  0.761388  1
  Cl  Cl15  1  0.943449  0.690871  0.761388  1
  Cl  Cl16  1  0.571064  0.725638  0.500000  1
  Cl  Cl17  1  0.428936  0.274362  0.500000  1
  Cl  Cl18  1  0.269956  0.570372  0.000000  1
  Cl  Cl19  1  0.730044  0.429628  0.000000  1
