# generated using pymatgen
data_Ta6Mn2Al4BC
_symmetry_space_group_name_H-M   'P 1'
_cell_length_a   8.28336519
_cell_length_b   8.27548010
_cell_length_c   8.28336512
_cell_angle_alpha   60.03148719
_cell_angle_beta   60.07049548
_cell_angle_gamma   60.03148308
_symmetry_Int_Tables_number   1
_chemical_formula_structural   Ta6Mn2Al4BC
_chemical_formula_sum   'Ta12 Mn4 Al8 B2 C2'
_cell_volume   401.91053951
_cell_formula_units_Z   2
loop_
 _symmetry_equiv_pos_site_id
 _symmetry_equiv_pos_as_xyz
  1  'x, y, z'
loop_
 _atom_site_type_symbol
 _atom_site_label
 _atom_site_symmetry_multiplicity
 _atom_site_fract_x
 _atom_site_fract_y
 _atom_site_fract_z
 _atom_site_occupancy
  Ta  Ta0  1  0.556542  0.943458  0.556542  1
  Ta  Ta1  1  0.307499  0.696308  0.695444  1
  Ta  Ta2  1  0.695444  0.300748  0.307499  1
  Ta  Ta3  1  0.301782  0.698218  0.301782  1
  Ta  Ta4  1  0.695444  0.696308  0.307499  1
  Ta  Ta5  1  0.307499  0.300748  0.695444  1
  Ta  Ta6  1  0.554556  0.553692  0.942501  1
  Ta  Ta7  1  0.942501  0.553692  0.554556  1
  Ta  Ta8  1  0.554556  0.949252  0.942501  1
  Ta  Ta9  1  0.942501  0.949252  0.554556  1
  Ta  Ta10  1  0.693458  0.306542  0.693458  1
  Ta  Ta11  1  0.948218  0.551782  0.948218  1
  Mn  Mn12  1  0.125000  0.125000  0.125000  1
  Mn  Mn13  1  0.625000  0.125000  0.125000  1
  Mn  Mn14  1  0.125000  0.625000  0.125000  1
  Mn  Mn15  1  0.125000  0.125000  0.625000  1
  Al  Al16  1  0.916318  0.915663  0.916318  1
  Al  Al17  1  0.999106  0.334091  0.332710  1
  Al  Al18  1  0.333682  0.998298  0.333682  1
  Al  Al19  1  0.332710  0.334091  0.999106  1
  Al  Al20  1  0.916318  0.251702  0.916318  1
  Al  Al21  1  0.917290  0.915909  0.250894  1
  Al  Al22  1  0.250894  0.915909  0.917290  1
  Al  Al23  1  0.333682  0.334337  0.333682  1
  B  B24  1  0.125000  0.625000  0.625000  1
  B  B25  1  0.625000  0.625000  0.125000  1
  C  C26  1  0.625000  0.625000  0.625000  1
  C  C27  1  0.625000  0.125000  0.625000  1
