# generated using pymatgen
data_Ta8CdFeS16
_symmetry_space_group_name_H-M   'P 1'
_cell_length_a   6.68330600
_cell_length_b   6.68330583
_cell_length_c   12.74337500
_cell_angle_alpha   90.00000000
_cell_angle_beta   90.00000000
_cell_angle_gamma   120.00001076
_symmetry_Int_Tables_number   1
_chemical_formula_structural   Ta8CdFeS16
_chemical_formula_sum   'Ta8 Cd1 Fe1 S16'
_cell_volume   492.94416340
_cell_formula_units_Z   1
loop_
 _symmetry_equiv_pos_site_id
 _symmetry_equiv_pos_as_xyz
  1  'x, y, z'
loop_
 _atom_site_type_symbol
 _atom_site_label
 _atom_site_symmetry_multiplicity
 _atom_site_fract_x
 _atom_site_fract_y
 _atom_site_fract_z
 _atom_site_occupancy
  Ta  Ta0  1  0.000000  0.000000  0.230020  1
  Ta  Ta1  1  0.000000  0.000000  0.769980  1
  Ta  Ta2  1  0.504366  0.495634  0.227215  1
  Ta  Ta3  1  0.504366  0.008733  0.227215  1
  Ta  Ta4  1  0.991267  0.495634  0.227215  1
  Ta  Ta5  1  0.495634  0.504366  0.772785  1
  Ta  Ta6  1  0.495634  0.991267  0.772785  1
  Ta  Ta7  1  0.008733  0.504366  0.772785  1
  Cd  Cd8  1  0.000000  0.000000  0.500000  1
  Fe  Fe9  1  0.000000  0.000000  0.000000  1
  S  S10  1  0.333333  0.666667  0.896788  1
  S  S11  1  0.666667  0.333333  0.103212  1
  S  S12  1  0.666667  0.333333  0.352821  1
  S  S13  1  0.333333  0.666667  0.647179  1
  S  S14  1  0.169275  0.830725  0.351168  1
  S  S15  1  0.169275  0.338550  0.351168  1
  S  S16  1  0.661450  0.830725  0.351168  1
  S  S17  1  0.830725  0.169275  0.648832  1
  S  S18  1  0.830725  0.661450  0.648832  1
  S  S19  1  0.338550  0.169275  0.648832  1
  S  S20  1  0.835878  0.164122  0.893090  1
  S  S21  1  0.835878  0.671758  0.893090  1
  S  S22  1  0.328242  0.164122  0.893090  1
  S  S23  1  0.164122  0.835878  0.106910  1
  S  S24  1  0.164122  0.328242  0.106910  1
  S  S25  1  0.671758  0.835878  0.106910  1
