# generated using pymatgen
data_HfBe9Mo2
_symmetry_space_group_name_H-M   'P 1'
_cell_length_a   7.50564283
_cell_length_b   7.50564251
_cell_length_c   7.50564267
_cell_angle_alpha   34.75312598
_cell_angle_beta   34.75311971
_cell_angle_gamma   34.75311575
_symmetry_Int_Tables_number   1
_chemical_formula_structural   HfBe9Mo2
_chemical_formula_sum   'Hf1 Be9 Mo2'
_cell_volume   122.62737641
_cell_formula_units_Z   1
loop_
 _symmetry_equiv_pos_site_id
 _symmetry_equiv_pos_as_xyz
  1  'x, y, z'
loop_
 _atom_site_type_symbol
 _atom_site_label
 _atom_site_symmetry_multiplicity
 _atom_site_fract_x
 _atom_site_fract_y
 _atom_site_fract_z
 _atom_site_occupancy
  Hf  Hf0  1  0.000000  0.000000  0.000000  1
  Be  Be1  1  0.414054  0.920539  0.414054  1
  Be  Be2  1  0.414054  0.414054  0.920539  1
  Be  Be3  1  0.920539  0.414054  0.414054  1
  Be  Be4  1  0.585946  0.079461  0.585946  1
  Be  Be5  1  0.585946  0.585946  0.079461  1
  Be  Be6  1  0.079461  0.585946  0.585946  1
  Be  Be7  1  0.666287  0.666287  0.666287  1
  Be  Be8  1  0.333713  0.333713  0.333713  1
  Be  Be9  1  0.500000  0.500000  0.500000  1
  Mo  Mo10  1  0.855868  0.855868  0.855868  1
  Mo  Mo11  1  0.144132  0.144132  0.144132  1
