# generated using pymatgen
data_AcThBe26
_symmetry_space_group_name_H-M   'P 1'
_cell_length_a   7.37100338
_cell_length_b   7.37100337
_cell_length_c   7.37100300
_cell_angle_alpha   59.99999719
_cell_angle_beta   59.99999722
_cell_angle_gamma   60.00000071
_symmetry_Int_Tables_number   1
_chemical_formula_structural   AcThBe26
_chemical_formula_sum   'Ac1 Th1 Be26'
_cell_volume   283.18144565
_cell_formula_units_Z   1
loop_
 _symmetry_equiv_pos_site_id
 _symmetry_equiv_pos_as_xyz
  1  'x, y, z'
loop_
 _atom_site_type_symbol
 _atom_site_label
 _atom_site_symmetry_multiplicity
 _atom_site_fract_x
 _atom_site_fract_y
 _atom_site_fract_z
 _atom_site_occupancy
  Ac  Ac0  1  0.750000  0.750000  0.750000  1
  Th  Th1  1  0.250000  0.250000  0.250000  1
  Be  Be2  1  0.500000  0.500000  0.500000  1
  Be  Be3  1  0.000000  0.000000  0.000000  1
  Be  Be4  1  0.434455  0.788362  0.560634  1
  Be  Be5  1  0.283451  0.939366  0.065545  1
  Be  Be6  1  0.939366  0.283451  0.711638  1
  Be  Be7  1  0.711638  0.939366  0.283451  1
  Be  Be8  1  0.283451  0.065545  0.711638  1
  Be  Be9  1  0.939366  0.065545  0.283451  1
  Be  Be10  1  0.711638  0.283451  0.065545  1
  Be  Be11  1  0.560634  0.434455  0.788362  1
  Be  Be12  1  0.788362  0.560634  0.434455  1
  Be  Be13  1  0.434455  0.216549  0.788362  1
  Be  Be14  1  0.434455  0.560634  0.216549  1
  Be  Be15  1  0.788362  0.216549  0.560634  1
  Be  Be16  1  0.216549  0.434455  0.560634  1
  Be  Be17  1  0.216549  0.788362  0.434455  1
  Be  Be18  1  0.560634  0.788362  0.216549  1
  Be  Be19  1  0.065545  0.283451  0.939366  1
  Be  Be20  1  0.065545  0.711638  0.283451  1
  Be  Be21  1  0.283451  0.711638  0.939366  1
  Be  Be22  1  0.065545  0.939366  0.711638  1
  Be  Be23  1  0.711638  0.065545  0.939366  1
  Be  Be24  1  0.939366  0.711638  0.065545  1
  Be  Be25  1  0.788362  0.434455  0.216549  1
  Be  Be26  1  0.560634  0.216549  0.434455  1
  Be  Be27  1  0.216549  0.560634  0.788362  1
