# generated using pymatgen
data_Ho6Fe11P12Ru7
_symmetry_space_group_name_H-M   'P 1'
_cell_length_a   3.79590300
_cell_length_b   10.69989902
_cell_length_c   12.39126478
_cell_angle_alpha   90.44587509
_cell_angle_beta   90.00000000
_cell_angle_gamma   90.00000000
_symmetry_Int_Tables_number   1
_chemical_formula_structural   Ho6Fe11P12Ru7
_chemical_formula_sum   'Ho6 Fe11 P12 Ru7'
_cell_volume   503.26563015
_cell_formula_units_Z   1
loop_
 _symmetry_equiv_pos_site_id
 _symmetry_equiv_pos_as_xyz
  1  'x, y, z'
loop_
 _atom_site_type_symbol
 _atom_site_label
 _atom_site_symmetry_multiplicity
 _atom_site_fract_x
 _atom_site_fract_y
 _atom_site_fract_z
 _atom_site_occupancy
  Ho  Ho0  1  0.000000  0.500784  0.525871  1
  Ho  Ho1  1  0.500000  0.993692  0.477076  1
  Ho  Ho2  1  0.500000  0.818489  0.204974  1
  Ho  Ho3  1  0.500000  0.184578  0.198178  1
  Ho  Ho4  1  0.000000  0.682302  0.795040  1
  Ho  Ho5  1  0.000000  0.315844  0.800664  1
  Fe  Fe6  1  0.000000  0.505319  0.988202  1
  Fe  Fe7  1  0.500000  0.995437  0.011109  1
  Fe  Fe8  1  0.000000  0.802202  0.572576  1
  Fe  Fe9  1  0.500000  0.882171  0.711702  1
  Fe  Fe10  1  0.500000  0.114591  0.716891  1
  Fe  Fe11  1  0.000000  0.618143  0.288027  1
  Fe  Fe12  1  0.000000  0.384529  0.281705  1
  Fe  Fe13  1  0.500000  0.332869  0.993270  1
  Fe  Fe14  1  0.500000  0.676925  0.994337  1
  Fe  Fe15  1  0.000000  0.167192  0.005118  1
  Fe  Fe16  1  0.000000  0.823994  0.005355  1
  P  P17  1  0.500000  0.296727  0.624008  1
  P  P18  1  0.500000  0.704569  0.620142  1
  P  P19  1  0.000000  0.202424  0.375977  1
  P  P20  1  0.000000  0.802742  0.385552  1
  P  P21  1  0.500000  0.500340  0.890105  1
  P  P22  1  0.000000  0.000562  0.109366  1
  P  P23  1  0.500000  0.849101  0.888960  1
  P  P24  1  0.500000  0.153939  0.898846  1
  P  P25  1  0.000000  0.651518  0.110932  1
  P  P26  1  0.000000  0.345949  0.099549  1
  P  P27  1  0.500000  0.500535  0.335097  1
  P  P28  1  0.000000  0.994947  0.661832  1
  Ru  Ru29  1  0.500000  0.304731  0.429023  1
  Ru  Ru30  1  0.500000  0.697857  0.432234  1
  Ru  Ru31  1  0.000000  0.194233  0.570258  1
  Ru  Ru32  1  0.500000  0.504623  0.149536  1
  Ru  Ru33  1  0.000000  0.995266  0.848927  1
  Ru  Ru34  1  0.500000  0.500201  0.698128  1
  Ru  Ru35  1  0.000000  0.000671  0.301434  1
