# generated using pymatgen
data_PrDy10Cd9Pd4
_symmetry_space_group_name_H-M   'P 1'
_cell_length_a   13.26063400
_cell_length_b   13.26063579
_cell_length_c   3.71971700
_cell_angle_alpha   90.00000000
_cell_angle_beta   90.00000000
_cell_angle_gamma   112.40847086
_symmetry_Int_Tables_number   1
_chemical_formula_structural   PrDy10Cd9Pd4
_chemical_formula_sum   'Pr1 Dy10 Cd9 Pd4'
_cell_volume   604.70088591
_cell_formula_units_Z   1
loop_
 _symmetry_equiv_pos_site_id
 _symmetry_equiv_pos_as_xyz
  1  'x, y, z'
loop_
 _atom_site_type_symbol
 _atom_site_label
 _atom_site_symmetry_multiplicity
 _atom_site_fract_x
 _atom_site_fract_y
 _atom_site_fract_z
 _atom_site_occupancy
  Pr  Pr0  1  0.000000  0.000000  0.000000  1
  Dy  Dy1  1  0.417332  0.075381  0.000000  1
  Dy  Dy2  1  0.582668  0.924619  0.000000  1
  Dy  Dy3  1  0.075381  0.417332  0.000000  1
  Dy  Dy4  1  0.924619  0.582668  0.000000  1
  Dy  Dy5  1  0.163450  0.836550  0.000000  1
  Dy  Dy6  1  0.836550  0.163450  0.000000  1
  Dy  Dy7  1  0.373684  0.626316  0.000000  1
  Dy  Dy8  1  0.626316  0.373684  0.000000  1
  Dy  Dy9  1  0.308415  0.308415  0.000000  1
  Dy  Dy10  1  0.691585  0.691585  0.000000  1
  Cd  Cd11  1  0.365958  0.840858  0.500000  1
  Cd  Cd12  1  0.634042  0.159142  0.500000  1
  Cd  Cd13  1  0.840858  0.365958  0.500000  1
  Cd  Cd14  1  0.159142  0.634042  0.500000  1
  Cd  Cd15  1  0.220249  0.071372  0.500000  1
  Cd  Cd16  1  0.779751  0.928628  0.500000  1
  Cd  Cd17  1  0.071372  0.220249  0.500000  1
  Cd  Cd18  1  0.928628  0.779751  0.500000  1
  Cd  Cd19  1  0.500000  0.500000  0.500000  1
  Pd  Pd20  1  0.450882  0.249069  0.500000  1
  Pd  Pd21  1  0.549118  0.750931  0.500000  1
  Pd  Pd22  1  0.249069  0.450882  0.500000  1
  Pd  Pd23  1  0.750931  0.549118  0.500000  1
