# generated using pymatgen
data_Ba9Nb2CSN10
_symmetry_space_group_name_H-M   'P 1'
_cell_length_a   8.26738503
_cell_length_b   10.14647841
_cell_length_c   12.75079904
_cell_angle_alpha   76.27218856
_cell_angle_beta   86.91175044
_cell_angle_gamma   87.18209334
_symmetry_Int_Tables_number   1
_chemical_formula_structural   Ba9Nb2CSN10
_chemical_formula_sum   'Ba18 Nb4 C2 S2 N20'
_cell_volume   1036.80588717
_cell_formula_units_Z   2
loop_
 _symmetry_equiv_pos_site_id
 _symmetry_equiv_pos_as_xyz
  1  'x, y, z'
loop_
 _atom_site_type_symbol
 _atom_site_label
 _atom_site_symmetry_multiplicity
 _atom_site_fract_x
 _atom_site_fract_y
 _atom_site_fract_z
 _atom_site_occupancy
  Ba  Ba0  1  0.487106  0.606975  0.125758  1
  Ba  Ba1  1  0.489637  0.666878  0.588417  1
  Ba  Ba2  1  0.044789  0.075969  0.703173  1
  Ba  Ba3  1  0.955211  0.924031  0.296827  1
  Ba  Ba4  1  0.465493  0.935886  0.279644  1
  Ba  Ba5  1  0.021115  0.411119  0.885005  1
  Ba  Ba6  1  0.512894  0.393025  0.874242  1
  Ba  Ba7  1  0.739676  0.283347  0.145451  1
  Ba  Ba8  1  0.244740  0.066833  0.997413  1
  Ba  Ba9  1  0.510363  0.333122  0.411583  1
  Ba  Ba10  1  0.260324  0.716653  0.854549  1
  Ba  Ba11  1  0.534507  0.064114  0.720356  1
  Ba  Ba12  1  0.180540  0.573198  0.390989  1
  Ba  Ba13  1  0.819460  0.426802  0.609011  1
  Ba  Ba14  1  0.968382  0.751111  0.624919  1
  Ba  Ba15  1  0.755260  0.933167  0.002587  1
  Ba  Ba16  1  0.978885  0.588881  0.114995  1
  Ba  Ba17  1  0.031618  0.248889  0.375081  1
  Nb  Nb18  1  0.726899  0.636941  0.338347  1
  Nb  Nb19  1  0.273101  0.363059  0.661653  1
  Nb  Nb20  1  0.731461  0.688540  0.870933  1
  Nb  Nb21  1  0.268539  0.311460  0.129067  1
  C  C22  1  0.256756  0.931585  0.536688  1
  C  C23  1  0.743244  0.068415  0.463312  1
  S  S24  1  0.794314  0.197903  0.839254  1
  S  S25  1  0.205686  0.802097  0.160746  1
  N  N26  1  0.133197  0.323699  0.551490  1
  N  N27  1  0.792396  0.460332  0.298369  1
  N  N28  1  0.207604  0.539668  0.701631  1
  N  N29  1  0.449336  0.184272  0.099640  1
  N  N30  1  0.550664  0.815728  0.900360  1
  N  N31  1  0.700470  0.089881  0.368063  1
  N  N32  1  0.791563  0.053240  0.555990  1
  N  N33  1  0.208437  0.946760  0.444010  1
  N  N34  1  0.720697  0.614655  0.740154  1
  N  N35  1  0.263875  0.472684  0.004457  1
  N  N36  1  0.933629  0.786696  0.865836  1
  N  N37  1  0.736125  0.527316  0.995543  1
  N  N38  1  0.279303  0.385345  0.259846  1
  N  N39  1  0.501868  0.365275  0.615315  1
  N  N40  1  0.742530  0.794117  0.212536  1
  N  N41  1  0.257470  0.205883  0.787464  1
  N  N42  1  0.066371  0.213304  0.134164  1
  N  N43  1  0.299530  0.910119  0.631937  1
  N  N44  1  0.498132  0.634725  0.384685  1
  N  N45  1  0.866803  0.676301  0.448510  1
