# generated using pymatgen
data_Pr5MnReO12
_symmetry_space_group_name_H-M   'P 1'
_cell_length_a   7.12081331
_cell_length_b   7.12081381
_cell_length_c   7.65378291
_cell_angle_alpha   74.46630370
_cell_angle_beta   74.46630377
_cell_angle_gamma   51.69203986
_symmetry_Int_Tables_number   1
_chemical_formula_structural   Pr5MnReO12
_chemical_formula_sum   'Pr5 Mn1 Re1 O12'
_cell_volume   290.73702921
_cell_formula_units_Z   1
loop_
 _symmetry_equiv_pos_site_id
 _symmetry_equiv_pos_as_xyz
  1  'x, y, z'
loop_
 _atom_site_type_symbol
 _atom_site_label
 _atom_site_symmetry_multiplicity
 _atom_site_fract_x
 _atom_site_fract_y
 _atom_site_fract_z
 _atom_site_occupancy
  Pr  Pr0  1  0.317360  0.293288  0.357932  1
  Pr  Pr1  1  0.706712  0.682640  0.642068  1
  Pr  Pr2  1  0.692540  0.694040  0.166261  1
  Pr  Pr3  1  0.305960  0.307460  0.833739  1
  Pr  Pr4  1  0.012141  0.987859  0.500000  1
  Mn  Mn5  1  0.746472  0.253528  0.000000  1
  Re  Re6  1  0.234553  0.765447  0.000000  1
  O  O7  1  0.102059  0.592470  0.573609  1
  O  O8  1  0.021290  0.977604  0.175513  1
  O  O9  1  0.407530  0.897941  0.426391  1
  O  O10  1  0.468502  0.534093  0.176466  1
  O  O11  1  0.103762  0.586762  0.079014  1
  O  O12  1  0.912119  0.398371  0.419813  1
  O  O13  1  0.022396  0.978710  0.824487  1
  O  O14  1  0.601629  0.087880  0.580187  1
  O  O15  1  0.465907  0.531498  0.823534  1
  O  O16  1  0.569198  0.103366  0.079340  1
  O  O17  1  0.413238  0.896238  0.920986  1
  O  O18  1  0.896634  0.430802  0.920660  1
