# generated using pymatgen
data_K4LiSb2Au
_symmetry_space_group_name_H-M   'P 1'
_cell_length_a   6.77495480
_cell_length_b   6.77495532
_cell_length_c   6.28461948
_cell_angle_alpha   91.13432998
_cell_angle_beta   91.13432916
_cell_angle_gamma   102.76743532
_symmetry_Int_Tables_number   1
_chemical_formula_structural   K4LiSb2Au
_chemical_formula_sum   'K4 Li1 Sb2 Au1'
_cell_volume   281.19032516
_cell_formula_units_Z   1
loop_
 _symmetry_equiv_pos_site_id
 _symmetry_equiv_pos_as_xyz
  1  'x, y, z'
loop_
 _atom_site_type_symbol
 _atom_site_label
 _atom_site_symmetry_multiplicity
 _atom_site_fract_x
 _atom_site_fract_y
 _atom_site_fract_z
 _atom_site_occupancy
  K  K0  1  0.818554  0.477732  0.738853  1
  K  K1  1  0.522268  0.181446  0.261147  1
  K  K2  1  0.477732  0.818554  0.738853  1
  K  K3  1  0.181446  0.522268  0.261147  1
  Li  Li4  1  0.000000  0.000000  0.000000  1
  Sb  Sb5  1  0.738772  0.738772  0.241569  1
  Sb  Sb6  1  0.261228  0.261228  0.758431  1
  Au  Au7  1  0.000000  0.000000  0.500000  1
