# generated using pymatgen
data_TcHg(PO3)6
_symmetry_space_group_name_H-M   'P 1'
_cell_length_a   6.83270200
_cell_length_b   6.83270206
_cell_length_c   10.14479000
_cell_angle_alpha   90.00000000
_cell_angle_beta   90.00000000
_cell_angle_gamma   120.00000939
_symmetry_Int_Tables_number   1
_chemical_formula_structural   TcHg(PO3)6
_chemical_formula_sum   'Tc1 Hg1 P6 O18'
_cell_volume   410.16501608
_cell_formula_units_Z   1
loop_
 _symmetry_equiv_pos_site_id
 _symmetry_equiv_pos_as_xyz
  1  'x, y, z'
loop_
 _atom_site_type_symbol
 _atom_site_label
 _atom_site_symmetry_multiplicity
 _atom_site_fract_x
 _atom_site_fract_y
 _atom_site_fract_z
 _atom_site_occupancy
  Tc  Tc0  1  0.000000  0.000000  0.000000  1
  Hg  Hg1  1  0.000000  0.000000  0.500000  1
  P  P2  1  0.726933  0.119527  0.769022  1
  P  P3  1  0.880473  0.273067  0.230978  1
  P  P4  1  0.726933  0.607406  0.230978  1
  P  P5  1  0.880473  0.607406  0.769022  1
  P  P6  1  0.392594  0.273067  0.769022  1
  P  P7  1  0.392594  0.119527  0.230978  1
  O  O8  1  0.901220  0.515592  0.207936  1
  O  O9  1  0.901220  0.385629  0.792064  1
  O  O10  1  0.484408  0.098780  0.792064  1
  O  O11  1  0.614371  0.098780  0.207936  1
  O  O12  1  0.740061  0.039676  0.635394  1
  O  O13  1  0.756367  0.998066  0.887296  1
  O  O14  1  0.484408  0.385629  0.207936  1
  O  O15  1  0.740061  0.700385  0.364606  1
  O  O16  1  0.756367  0.758301  0.112704  1
  O  O17  1  0.614371  0.515592  0.792064  1
  O  O18  1  0.960324  0.259939  0.364606  1
  O  O19  1  0.001934  0.243633  0.112704  1
  O  O20  1  0.241699  0.243633  0.887296  1
  O  O21  1  0.299615  0.259939  0.635394  1
  O  O22  1  0.001934  0.758301  0.887296  1
  O  O23  1  0.960324  0.700385  0.635394  1
  O  O24  1  0.241699  0.998066  0.112704  1
  O  O25  1  0.299615  0.039676  0.364606  1
