# generated using pymatgen
data_NbSb3Se4(OF7)4
_symmetry_space_group_name_H-M   'P 1'
_cell_length_a   7.22819353
_cell_length_b   8.04860300
_cell_length_c   11.43402065
_cell_angle_alpha   90.00000000
_cell_angle_beta   90.22892499
_cell_angle_gamma   90.00000000
_symmetry_Int_Tables_number   1
_chemical_formula_structural   NbSb3Se4(OF7)4
_chemical_formula_sum   'Nb1 Sb3 Se4 O4 F28'
_cell_volume   665.19011046
_cell_formula_units_Z   1
loop_
 _symmetry_equiv_pos_site_id
 _symmetry_equiv_pos_as_xyz
  1  'x, y, z'
loop_
 _atom_site_type_symbol
 _atom_site_label
 _atom_site_symmetry_multiplicity
 _atom_site_fract_x
 _atom_site_fract_y
 _atom_site_fract_z
 _atom_site_occupancy
  Nb  Nb0  1  0.800108  0.750000  0.649653  1
  Sb  Sb1  1  0.692517  0.750000  0.145867  1
  Sb  Sb2  1  0.192226  0.250000  0.354186  1
  Sb  Sb3  1  0.307403  0.250000  0.854171  1
  Se  Se4  1  0.264154  0.750000  0.999716  1
  Se  Se5  1  0.765330  0.250000  0.500536  1
  Se  Se6  1  0.735230  0.250000  0.001197  1
  Se  Se7  1  0.236959  0.750000  0.497290  1
  O  O8  1  0.494885  0.750000  0.012440  1
  O  O9  1  0.010499  0.750000  0.515764  1
  O  O10  1  0.504804  0.250000  0.987795  1
  O  O11  1  0.995877  0.250000  0.487484  1
  F  F12  1  0.705452  0.091991  0.402793  1
  F  F13  1  0.794690  0.407667  0.903272  1
  F  F14  1  0.300533  0.591872  0.595640  1
  F  F15  1  0.205160  0.907861  0.097198  1
  F  F16  1  0.300533  0.908128  0.595640  1
  F  F17  1  0.794690  0.092333  0.903272  1
  F  F18  1  0.705452  0.408009  0.402793  1
  F  F19  1  0.205160  0.592139  0.097198  1
  F  F20  1  0.863879  0.750000  0.018255  1
  F  F21  1  0.365254  0.250000  0.481581  1
  F  F22  1  0.135418  0.250000  0.981131  1
  F  F23  1  0.634785  0.750000  0.517253  1
  F  F24  1  0.882311  0.750000  0.259543  1
  F  F25  1  0.381315  0.250000  0.240576  1
  F  F26  1  0.117543  0.250000  0.740479  1
  F  F27  1  0.614829  0.750000  0.763694  1
  F  F28  1  0.498802  0.750000  0.257861  1
  F  F29  1  0.997991  0.250000  0.241000  1
  F  F30  1  0.501331  0.250000  0.742080  1
  F  F31  1  0.001114  0.750000  0.758815  1
  F  F32  1  0.686849  0.510669  0.137908  1
  F  F33  1  0.186066  0.488938  0.360572  1
  F  F34  1  0.313958  0.010710  0.861620  1
  F  F35  1  0.810010  0.990498  0.636815  1
  F  F36  1  0.313958  0.489290  0.861620  1
  F  F37  1  0.810010  0.509502  0.636815  1
  F  F38  1  0.686849  0.989331  0.137908  1
  F  F39  1  0.186066  0.011062  0.360572  1
