# generated using pymatgen
data_Hf10V2Sn3Sb
_symmetry_space_group_name_H-M   'P 1'
_cell_length_a   5.53791386
_cell_length_b   8.33201255
_cell_length_c   8.34589782
_cell_angle_alpha   83.66981828
_cell_angle_beta   70.62347779
_cell_angle_gamma   70.58987854
_symmetry_Int_Tables_number   1
_chemical_formula_structural   Hf10V2Sn3Sb
_chemical_formula_sum   'Hf10 V2 Sn3 Sb1'
_cell_volume   342.63618624
_cell_formula_units_Z   1
loop_
 _symmetry_equiv_pos_site_id
 _symmetry_equiv_pos_as_xyz
  1  'x, y, z'
loop_
 _atom_site_type_symbol
 _atom_site_label
 _atom_site_symmetry_multiplicity
 _atom_site_fract_x
 _atom_site_fract_y
 _atom_site_fract_z
 _atom_site_occupancy
  Hf  Hf0  1  0.072850  0.131628  0.722672  1
  Hf  Hf1  1  0.926785  0.869356  0.277072  1
  Hf  Hf2  1  0.796532  0.275557  0.131380  1
  Hf  Hf3  1  0.427911  0.275557  0.868620  1
  Hf  Hf4  1  0.203269  0.723981  0.869481  1
  Hf  Hf5  1  0.572750  0.723981  0.130519  1
  Hf  Hf6  1  0.703858  0.869356  0.722928  1
  Hf  Hf7  1  0.295522  0.131628  0.277328  1
  Hf  Hf8  1  0.248796  0.499572  0.500000  1
  Hf  Hf9  1  0.751632  0.499572  0.500000  1
  V  V10  1  0.249889  0.000221  0.000000  1
  V  V11  1  0.749889  0.000221  0.000000  1
  Sn  Sn12  1  0.163502  0.499513  0.173483  1
  Sn  Sn13  1  0.836985  0.499513  0.826517  1
  Sn  Sn14  1  0.336961  0.826078  0.500000  1
  Sb  Sb15  1  0.662868  0.174264  0.500000  1
