# generated using pymatgen
data_Ca2FeRuO6
_symmetry_space_group_name_H-M   'P 1'
_cell_length_a   5.43780621
_cell_length_b   5.56371301
_cell_length_c   7.75938202
_cell_angle_alpha   90.00681642
_cell_angle_beta   89.90257452
_cell_angle_gamma   90.00047807
_symmetry_Int_Tables_number   1
_chemical_formula_structural   Ca2FeRuO6
_chemical_formula_sum   'Ca4 Fe2 Ru2 O12'
_cell_volume   234.75505356
_cell_formula_units_Z   2
loop_
 _symmetry_equiv_pos_site_id
 _symmetry_equiv_pos_as_xyz
  1  'x, y, z'
loop_
 _atom_site_type_symbol
 _atom_site_label
 _atom_site_symmetry_multiplicity
 _atom_site_fract_x
 _atom_site_fract_y
 _atom_site_fract_z
 _atom_site_occupancy
  Ca  Ca0  1  0.510524  0.550549  0.749776  1
  Ca  Ca1  1  0.489475  0.449458  0.250221  1
  Ca  Ca2  1  0.989482  0.050523  0.750268  1
  Ca  Ca3  1  0.010518  0.949466  0.249733  1
  Fe  Fe4  1  0.999998  0.499992  0.000003  1
  Fe  Fe5  1  0.500007  0.000030  0.499994  1
  Ru  Ru6  1  0.000002  0.500018  0.500002  1
  Ru  Ru7  1  0.499997  0.999990  0.999988  1
  O  O8  1  0.413961  0.976606  0.752749  1
  O  O9  1  0.913928  0.523450  0.252760  1
  O  O10  1  0.086073  0.476540  0.747241  1
  O  O11  1  0.586039  0.023391  0.247256  1
  O  O12  1  0.205071  0.201139  0.044594  1
  O  O13  1  0.198533  0.206768  0.454842  1
  O  O14  1  0.698533  0.293246  0.954880  1
  O  O15  1  0.801465  0.793231  0.545156  1
  O  O16  1  0.294907  0.701148  0.455427  1
  O  O17  1  0.794927  0.798855  0.955408  1
  O  O18  1  0.705091  0.298852  0.544576  1
  O  O19  1  0.301468  0.706744  0.045121  1
