# generated using pymatgen
data_Cs2ThHg2Se5
_symmetry_space_group_name_H-M   'P 1'
_cell_length_a   10.54390412
_cell_length_b   4.44493200
_cell_length_c   15.87148410
_cell_angle_alpha   90.00000000
_cell_angle_beta   103.57560188
_cell_angle_gamma   90.00000000
_symmetry_Int_Tables_number   1
_chemical_formula_structural   Cs2ThHg2Se5
_chemical_formula_sum   'Cs4 Th2 Hg4 Se10'
_cell_volume   723.06550914
_cell_formula_units_Z   2
loop_
 _symmetry_equiv_pos_site_id
 _symmetry_equiv_pos_as_xyz
  1  'x, y, z'
loop_
 _atom_site_type_symbol
 _atom_site_label
 _atom_site_symmetry_multiplicity
 _atom_site_fract_x
 _atom_site_fract_y
 _atom_site_fract_z
 _atom_site_occupancy
  Cs  Cs0  1  0.284791  0.313479  0.054320  1
  Cs  Cs1  1  0.215209  0.313479  0.445680  1
  Cs  Cs2  1  0.784790  0.686522  0.554320  1
  Cs  Cs3  1  0.715210  0.686522  0.945680  1
  Th  Th4  1  0.750000  0.205025  0.250000  1
  Th  Th5  1  0.250000  0.794974  0.750000  1
  Hg  Hg6  1  0.033445  0.628480  0.201471  1
  Hg  Hg7  1  0.466555  0.628480  0.298529  1
  Hg  Hg8  1  0.533445  0.371519  0.701471  1
  Hg  Hg9  1  0.966554  0.371519  0.798529  1
  Se  Se10  1  0.903673  0.183632  0.116800  1
  Se  Se11  1  0.596136  0.702659  0.153972  1
  Se  Se12  1  0.250000  0.915632  0.250000  1
  Se  Se13  1  0.903865  0.702659  0.346028  1
  Se  Se14  1  0.596328  0.183632  0.383200  1
  Se  Se15  1  0.403673  0.816369  0.616800  1
  Se  Se16  1  0.096136  0.297343  0.653972  1
  Se  Se17  1  0.750000  0.084369  0.750000  1
  Se  Se18  1  0.403864  0.297343  0.846028  1
  Se  Se19  1  0.096328  0.816369  0.883200  1
