# generated using pymatgen
data_Tb3SmPtBr6
_symmetry_space_group_name_H-M   'P 1'
_cell_length_a   4.11793800
_cell_length_b   13.46701352
_cell_length_c   14.19714000
_cell_angle_alpha   89.28638667
_cell_angle_beta   90.00000000
_cell_angle_gamma   90.00000000
_symmetry_Int_Tables_number   1
_chemical_formula_structural   Tb3SmPtBr6
_chemical_formula_sum   'Tb6 Sm2 Pt2 Br12'
_cell_volume   787.26016862
_cell_formula_units_Z   2
loop_
 _symmetry_equiv_pos_site_id
 _symmetry_equiv_pos_as_xyz
  1  'x, y, z'
loop_
 _atom_site_type_symbol
 _atom_site_label
 _atom_site_symmetry_multiplicity
 _atom_site_fract_x
 _atom_site_fract_y
 _atom_site_fract_z
 _atom_site_occupancy
  Tb  Tb0  1  0.500000  0.122988  0.335866  1
  Tb  Tb1  1  0.500000  0.877012  0.664134  1
  Tb  Tb2  1  0.500000  0.621091  0.161094  1
  Tb  Tb3  1  0.500000  0.378909  0.838906  1
  Tb  Tb4  1  0.000000  0.611314  0.923569  1
  Tb  Tb5  1  0.000000  0.388686  0.076431  1
  Sm  Sm6  1  0.000000  0.113355  0.577203  1
  Sm  Sm7  1  0.000000  0.886645  0.422797  1
  Pt  Pt8  1  0.500000  0.000000  0.500000  1
  Pt  Pt9  1  0.500000  0.500000  0.000000  1
  Br  Br10  1  0.500000  0.244715  0.161463  1
  Br  Br11  1  0.500000  0.755285  0.838537  1
  Br  Br12  1  0.500000  0.742651  0.334197  1
  Br  Br13  1  0.500000  0.257349  0.665803  1
  Br  Br14  1  0.000000  0.257834  0.405827  1
  Br  Br15  1  0.000000  0.742166  0.594173  1
  Br  Br16  1  0.000000  0.755603  0.088002  1
  Br  Br17  1  0.000000  0.244397  0.911998  1
  Br  Br18  1  0.000000  0.009144  0.237554  1
  Br  Br19  1  0.000000  0.990856  0.762446  1
  Br  Br20  1  0.000000  0.504266  0.258592  1
  Br  Br21  1  0.000000  0.495734  0.741408  1
