# generated using pymatgen
data_BaCeSmTe4
_symmetry_space_group_name_H-M   'P 1'
_cell_length_a   13.97107600
_cell_length_b   4.59703600
_cell_length_c   16.65797700
_cell_angle_alpha   90.00000000
_cell_angle_beta   90.00000000
_cell_angle_gamma   90.00000000
_symmetry_Int_Tables_number   1
_chemical_formula_structural   BaCeSmTe4
_chemical_formula_sum   'Ba4 Ce4 Sm4 Te16'
_cell_volume   1069.86755698
_cell_formula_units_Z   4
loop_
 _symmetry_equiv_pos_site_id
 _symmetry_equiv_pos_as_xyz
  1  'x, y, z'
loop_
 _atom_site_type_symbol
 _atom_site_label
 _atom_site_symmetry_multiplicity
 _atom_site_fract_x
 _atom_site_fract_y
 _atom_site_fract_z
 _atom_site_occupancy
  Ba  Ba0  1  0.241661  0.250000  0.664080  1
  Ba  Ba1  1  0.258339  0.750001  0.164080  1
  Ba  Ba2  1  0.741661  0.250000  0.835920  1
  Ba  Ba3  1  0.758338  0.750001  0.335920  1
  Ce  Ce4  1  0.568047  0.250000  0.610403  1
  Ce  Ce5  1  0.931953  0.750001  0.110402  1
  Ce  Ce6  1  0.068047  0.250000  0.889597  1
  Ce  Ce7  1  0.431953  0.750001  0.389597  1
  Sm  Sm8  1  0.078112  0.250000  0.402917  1
  Sm  Sm9  1  0.421888  0.750001  0.902918  1
  Sm  Sm10  1  0.578112  0.250000  0.097083  1
  Sm  Sm11  1  0.921888  0.750001  0.597082  1
  Te  Te12  1  0.086319  0.250000  0.080580  1
  Te  Te13  1  0.413681  0.750001  0.580580  1
  Te  Te14  1  0.586320  0.250000  0.419420  1
  Te  Te15  1  0.913681  0.750001  0.919420  1
  Te  Te16  1  0.288271  0.250000  0.327147  1
  Te  Te17  1  0.211728  0.750001  0.827147  1
  Te  Te18  1  0.788272  0.250000  0.172853  1
  Te  Te19  1  0.711728  0.750001  0.672853  1
  Te  Te20  1  0.368560  0.250000  0.026210  1
  Te  Te21  1  0.131441  0.750001  0.526211  1
  Te  Te22  1  0.868560  0.250000  0.473790  1
  Te  Te23  1  0.631441  0.750001  0.973789  1
  Te  Te24  1  0.477914  0.250000  0.785749  1
  Te  Te25  1  0.022087  0.750001  0.285749  1
  Te  Te26  1  0.977914  0.250000  0.714251  1
  Te  Te27  1  0.522087  0.750001  0.214251  1
