# generated using pymatgen
data_Er6Al21Co2(SiOs2)3
_symmetry_space_group_name_H-M   'P 1'
_cell_length_a   8.66296600
_cell_length_b   8.66296632
_cell_length_c   9.46473500
_cell_angle_alpha   90.00000000
_cell_angle_beta   90.00000000
_cell_angle_gamma   119.99999877
_symmetry_Int_Tables_number   1
_chemical_formula_structural   Er6Al21Co2(SiOs2)3
_chemical_formula_sum   'Er6 Al21 Co2 Si3 Os6'
_cell_volume   615.13768208
_cell_formula_units_Z   1
loop_
 _symmetry_equiv_pos_site_id
 _symmetry_equiv_pos_as_xyz
  1  'x, y, z'
loop_
 _atom_site_type_symbol
 _atom_site_label
 _atom_site_symmetry_multiplicity
 _atom_site_fract_x
 _atom_site_fract_y
 _atom_site_fract_z
 _atom_site_occupancy
  Er  Er0  1  0.196180  0.392361  0.248102  1
  Er  Er1  1  0.803156  0.606311  0.752369  1
  Er  Er2  1  0.607639  0.803820  0.248102  1
  Er  Er3  1  0.393689  0.196844  0.752369  1
  Er  Er4  1  0.196180  0.803820  0.248102  1
  Er  Er5  1  0.803156  0.196844  0.752369  1
  Al  Al6  1  0.333333  0.666667  0.482989  1
  Al  Al7  1  0.159484  0.318968  0.574844  1
  Al  Al8  1  0.839704  0.679408  0.423296  1
  Al  Al9  1  0.681032  0.840516  0.574844  1
  Al  Al10  1  0.839492  0.678983  0.076601  1
  Al  Al11  1  0.320592  0.160296  0.423296  1
  Al  Al12  1  0.160556  0.321112  0.922633  1
  Al  Al13  1  0.159484  0.840516  0.574844  1
  Al  Al14  1  0.321017  0.160508  0.076601  1
  Al  Al15  1  0.839704  0.160296  0.423296  1
  Al  Al16  1  0.678888  0.839444  0.922633  1
  Al  Al17  1  0.839492  0.160508  0.076601  1
  Al  Al18  1  0.160556  0.839444  0.922633  1
  Al  Al19  1  0.563241  0.126481  0.248539  1
  Al  Al20  1  0.437550  0.875102  0.748721  1
  Al  Al21  1  0.873519  0.436759  0.248539  1
  Al  Al22  1  0.124898  0.562450  0.748721  1
  Al  Al23  1  0.563241  0.436759  0.248539  1
  Al  Al24  1  0.437550  0.562450  0.748721  1
  Al  Al25  1  0.000000  0.000000  0.249182  1
  Al  Al26  1  0.000000  0.000000  0.749664  1
  Co  Co27  1  0.000000  0.000000  0.999300  1
  Co  Co28  1  0.000000  0.000000  0.499177  1
  Si  Si29  1  0.333333  0.666667  0.032638  1
  Si  Si30  1  0.666667  0.333333  0.967034  1
  Si  Si31  1  0.666667  0.333333  0.535460  1
  Os  Os32  1  0.499652  0.999304  0.998887  1
  Os  Os33  1  0.000696  0.500348  0.998887  1
  Os  Os34  1  0.504197  0.008394  0.500859  1
  Os  Os35  1  0.499652  0.500348  0.998887  1
  Os  Os36  1  0.991606  0.495803  0.500859  1
  Os  Os37  1  0.504197  0.495803  0.500859  1
