# generated using pymatgen
data_InPI8
_symmetry_space_group_name_H-M   'P 1'
_cell_length_a   11.40078000
_cell_length_b   11.51566200
_cell_length_c   16.52189500
_cell_angle_alpha   90.00000000
_cell_angle_beta   90.00000000
_cell_angle_gamma   90.00000000
_symmetry_Int_Tables_number   1
_chemical_formula_structural   InPI8
_chemical_formula_sum   'In4 P4 I32'
_cell_volume   2169.11876922
_cell_formula_units_Z   4
loop_
 _symmetry_equiv_pos_site_id
 _symmetry_equiv_pos_as_xyz
  1  'x, y, z'
loop_
 _atom_site_type_symbol
 _atom_site_label
 _atom_site_symmetry_multiplicity
 _atom_site_fract_x
 _atom_site_fract_y
 _atom_site_fract_z
 _atom_site_occupancy
  In  In0  1  0.990739  0.921365  0.337638  1
  In  In1  1  0.490739  0.578635  0.837638  1
  In  In2  1  0.009261  0.078635  0.837638  1
  In  In3  1  0.509261  0.421365  0.337638  1
  P  P4  1  0.015368  0.458932  0.550525  1
  P  P5  1  0.515368  0.041068  0.050525  1
  P  P6  1  0.984632  0.541068  0.050525  1
  P  P7  1  0.484632  0.958932  0.550525  1
  I  I8  1  0.484535  0.618822  0.248906  1
  I  I9  1  0.627728  0.969775  0.168547  1
  I  I10  1  0.539559  0.541311  0.001460  1
  I  I11  1  0.959433  0.751376  0.025150  1
  I  I12  1  0.540567  0.251376  0.025150  1
  I  I13  1  0.039559  0.958689  0.501460  1
  I  I14  1  0.872272  0.469775  0.168547  1
  I  I15  1  0.306490  0.013844  0.074856  1
  I  I16  1  0.653226  0.743645  0.785869  1
  I  I17  1  0.515465  0.381178  0.748906  1
  I  I18  1  0.846774  0.243645  0.785869  1
  I  I19  1  0.984535  0.881178  0.748906  1
  I  I20  1  0.346774  0.256355  0.285869  1
  I  I21  1  0.693510  0.986156  0.574856  1
  I  I22  1  0.193510  0.513844  0.074856  1
  I  I23  1  0.372272  0.030225  0.668547  1
  I  I24  1  0.427728  0.078673  0.431761  1
  I  I25  1  0.732285  0.328135  0.321818  1
  I  I26  1  0.459433  0.748624  0.525150  1
  I  I27  1  0.572272  0.921327  0.931760  1
  I  I28  1  0.767715  0.828135  0.321818  1
  I  I29  1  0.927728  0.421327  0.931760  1
  I  I30  1  0.015465  0.118822  0.248906  1
  I  I31  1  0.153226  0.756355  0.285869  1
  I  I32  1  0.127728  0.530225  0.668547  1
  I  I33  1  0.460441  0.458689  0.501460  1
  I  I34  1  0.232285  0.171865  0.821818  1
  I  I35  1  0.806490  0.486156  0.574856  1
  I  I36  1  0.072272  0.578673  0.431761  1
  I  I37  1  0.267715  0.671865  0.821818  1
  I  I38  1  0.040567  0.248624  0.525150  1
  I  I39  1  0.960441  0.041311  0.001460  1
