# generated using pymatgen
data_La4CdSn4Hg3
_symmetry_space_group_name_H-M   'P 1'
_cell_length_a   4.86428600
_cell_length_b   4.86428715
_cell_length_c   16.98561400
_cell_angle_alpha   90.00000000
_cell_angle_beta   90.00000000
_cell_angle_gamma   120.00000577
_symmetry_Int_Tables_number   1
_chemical_formula_structural   La4CdSn4Hg3
_chemical_formula_sum   'La4 Cd1 Sn4 Hg3'
_cell_volume   348.05683225
_cell_formula_units_Z   1
loop_
 _symmetry_equiv_pos_site_id
 _symmetry_equiv_pos_as_xyz
  1  'x, y, z'
loop_
 _atom_site_type_symbol
 _atom_site_label
 _atom_site_symmetry_multiplicity
 _atom_site_fract_x
 _atom_site_fract_y
 _atom_site_fract_z
 _atom_site_occupancy
  La  La0  1  0.000000  0.000000  0.000254  1
  La  La1  1  0.000000  0.000000  0.252231  1
  La  La2  1  0.000000  0.000000  0.499989  1
  La  La3  1  0.000000  0.000000  0.750140  1
  Cd  Cd4  1  0.666666  0.333334  0.151775  1
  Sn  Sn5  1  0.333334  0.666668  0.110393  1
  Sn  Sn6  1  0.333334  0.666668  0.392105  1
  Sn  Sn7  1  0.666666  0.333334  0.608167  1
  Sn  Sn8  1  0.666666  0.333334  0.892038  1
  Hg  Hg9  1  0.666666  0.333334  0.342776  1
  Hg  Hg10  1  0.333334  0.666668  0.655013  1
  Hg  Hg11  1  0.333334  0.666668  0.845120  1
