# generated using pymatgen
data_Ho3Cd3AgIrAu
_symmetry_space_group_name_H-M   'P 1'
_cell_length_a   7.94246600
_cell_length_b   7.94246572
_cell_length_c   3.69780200
_cell_angle_alpha   90.00000000
_cell_angle_beta   90.00000000
_cell_angle_gamma   120.00000117
_symmetry_Int_Tables_number   1
_chemical_formula_structural   Ho3Cd3AgIrAu
_chemical_formula_sum   'Ho3 Cd3 Ag1 Ir1 Au1'
_cell_volume   202.01563965
_cell_formula_units_Z   1
loop_
 _symmetry_equiv_pos_site_id
 _symmetry_equiv_pos_as_xyz
  1  'x, y, z'
loop_
 _atom_site_type_symbol
 _atom_site_label
 _atom_site_symmetry_multiplicity
 _atom_site_fract_x
 _atom_site_fract_y
 _atom_site_fract_z
 _atom_site_occupancy
  Ho  Ho0  1  0.579626  0.973355  0.000000  1
  Ho  Ho1  1  0.026645  0.606272  0.000000  1
  Ho  Ho2  1  0.393728  0.420374  0.000000  1
  Cd  Cd3  1  0.270091  0.004703  0.500000  1
  Cd  Cd4  1  0.995297  0.265389  0.500000  1
  Cd  Cd5  1  0.734611  0.729909  0.500000  1
  Ag  Ag6  1  0.000000  0.000000  0.000000  1
  Ir  Ir7  1  0.333333  0.666667  0.500000  1
  Au  Au8  1  0.666667  0.333333  0.500000  1
