# generated using pymatgen
data_Mg3Zn(PdO4)2
_symmetry_space_group_name_H-M   'P 1'
_cell_length_a   6.08297868
_cell_length_b   6.08297979
_cell_length_c   6.08297798
_cell_angle_alpha   120.97855282
_cell_angle_beta   119.46779184
_cell_angle_gamma   89.61889610
_symmetry_Int_Tables_number   1
_chemical_formula_structural   Mg3Zn(PdO4)2
_chemical_formula_sum   'Mg3 Zn1 Pd2 O8'
_cell_volume   158.58456132
_cell_formula_units_Z   1
loop_
 _symmetry_equiv_pos_site_id
 _symmetry_equiv_pos_as_xyz
  1  'x, y, z'
loop_
 _atom_site_type_symbol
 _atom_site_label
 _atom_site_symmetry_multiplicity
 _atom_site_fract_x
 _atom_site_fract_y
 _atom_site_fract_z
 _atom_site_occupancy
  Mg  Mg0  1  0.499224  0.501244  0.502019  1
  Mg  Mg1  1  0.499224  0.997205  0.997981  1
  Mg  Mg2  1  0.105990  0.855990  0.250000  1
  Zn  Zn3  1  0.898504  0.148504  0.750000  1
  Pd  Pd4  1  0.000382  0.500191  0.500191  1
  Pd  Pd5  1  0.500000  0.500191  0.999809  1
  O  O6  1  0.746146  0.267667  0.021520  1
  O  O7  1  0.746146  0.724626  0.478480  1
  O  O8  1  0.284754  0.263080  0.021675  1
  O  O9  1  0.741405  0.263080  0.478325  1
  O  O10  1  0.255430  0.735824  0.519606  1
  O  O11  1  0.253287  0.275330  0.522042  1
  O  O12  1  0.716218  0.735824  0.980394  1
  O  O13  1  0.253287  0.731245  0.977958  1
