# generated using pymatgen
data_Ta2Nb2Si4Ir3Os
_symmetry_space_group_name_H-M   'P 1'
_cell_length_a   3.84056000
_cell_length_b   6.44131571
_cell_length_c   7.31850717
_cell_angle_alpha   89.78389323
_cell_angle_beta   90.00000000
_cell_angle_gamma   90.00000000
_symmetry_Int_Tables_number   1
_chemical_formula_structural   Ta2Nb2Si4Ir3Os
_chemical_formula_sum   'Ta2 Nb2 Si4 Ir3 Os1'
_cell_volume   181.04584149
_cell_formula_units_Z   1
loop_
 _symmetry_equiv_pos_site_id
 _symmetry_equiv_pos_as_xyz
  1  'x, y, z'
loop_
 _atom_site_type_symbol
 _atom_site_label
 _atom_site_symmetry_multiplicity
 _atom_site_fract_x
 _atom_site_fract_y
 _atom_site_fract_z
 _atom_site_occupancy
  Ta  Ta0  1  0.750000  0.526788  0.828283  1
  Ta  Ta1  1  0.750000  0.020418  0.676057  1
  Nb  Nb2  1  0.250000  0.974850  0.324805  1
  Nb  Nb3  1  0.250000  0.477705  0.171350  1
  Si  Si4  1  0.250000  0.229126  0.876195  1
  Si  Si5  1  0.250000  0.729027  0.623479  1
  Si  Si6  1  0.750000  0.771872  0.123815  1
  Si  Si7  1  0.750000  0.269300  0.376089  1
  Ir  Ir8  1  0.250000  0.351799  0.564926  1
  Ir  Ir9  1  0.750000  0.646772  0.438033  1
  Ir  Ir10  1  0.750000  0.149699  0.061596  1
  Os  Os11  1  0.250000  0.852644  0.935373  1
