# generated using pymatgen
data_HoFeCo4P3
_symmetry_space_group_name_H-M   'P 1'
_cell_length_a   3.65234100
_cell_length_b   10.23472200
_cell_length_c   11.74889800
_cell_angle_alpha   90.00000000
_cell_angle_beta   90.00000000
_cell_angle_gamma   90.00000000
_symmetry_Int_Tables_number   1
_chemical_formula_structural   HoFeCo4P3
_chemical_formula_sum   'Ho4 Fe4 Co16 P12'
_cell_volume   439.18197019
_cell_formula_units_Z   4
loop_
 _symmetry_equiv_pos_site_id
 _symmetry_equiv_pos_as_xyz
  1  'x, y, z'
loop_
 _atom_site_type_symbol
 _atom_site_label
 _atom_site_symmetry_multiplicity
 _atom_site_fract_x
 _atom_site_fract_y
 _atom_site_fract_z
 _atom_site_occupancy
  Ho  Ho0  1  0.250000  0.581543  0.703347  1
  Ho  Ho1  1  0.250000  0.918457  0.203347  1
  Ho  Ho2  1  0.750000  0.418457  0.296653  1
  Ho  Ho3  1  0.750000  0.081543  0.796653  1
  Fe  Fe4  1  0.250000  0.709848  0.987283  1
  Fe  Fe5  1  0.250000  0.790152  0.487283  1
  Fe  Fe6  1  0.750000  0.290152  0.012717  1
  Fe  Fe7  1  0.750000  0.209848  0.512717  1
  Co  Co8  1  0.250000  0.405867  0.487075  1
  Co  Co9  1  0.250000  0.094133  0.987075  1
  Co  Co10  1  0.750000  0.594133  0.512925  1
  Co  Co11  1  0.750000  0.905867  0.012925  1
  Co  Co12  1  0.250000  0.221078  0.176578  1
  Co  Co13  1  0.250000  0.278922  0.676578  1
  Co  Co14  1  0.750000  0.778922  0.823422  1
  Co  Co15  1  0.750000  0.721078  0.323422  1
  Co  Co16  1  0.250000  0.882488  0.698390  1
  Co  Co17  1  0.250000  0.617512  0.198390  1
  Co  Co18  1  0.750000  0.117512  0.301610  1
  Co  Co19  1  0.750000  0.382488  0.801610  1
  Co  Co20  1  0.250000  0.466591  0.932894  1
  Co  Co21  1  0.250000  0.033409  0.432894  1
  Co  Co22  1  0.750000  0.533409  0.067106  1
  Co  Co23  1  0.750000  0.966591  0.567106  1
  P  P24  1  0.250000  0.418761  0.113210  1
  P  P25  1  0.250000  0.081239  0.613210  1
  P  P26  1  0.750000  0.581239  0.886790  1
  P  P27  1  0.750000  0.918761  0.386790  1
  P  P28  1  0.250000  0.269518  0.868183  1
  P  P29  1  0.250000  0.230482  0.368183  1
  P  P30  1  0.750000  0.730482  0.131817  1
  P  P31  1  0.750000  0.769518  0.631817  1
  P  P32  1  0.250000  0.601857  0.392296  1
  P  P33  1  0.250000  0.898143  0.892296  1
  P  P34  1  0.750000  0.398143  0.607704  1
  P  P35  1  0.750000  0.101857  0.107704  1
