# generated using pymatgen
data_Cd2SbPO6
_symmetry_space_group_name_H-M   'P 1'
_cell_length_a   7.54736936
_cell_length_b   7.54736923
_cell_length_c   5.34905200
_cell_angle_alpha   90.00000000
_cell_angle_beta   90.00000000
_cell_angle_gamma   109.91777175
_symmetry_Int_Tables_number   1
_chemical_formula_structural   Cd2SbPO6
_chemical_formula_sum   'Cd4 Sb2 P2 O12'
_cell_volume   286.47068479
_cell_formula_units_Z   2
loop_
 _symmetry_equiv_pos_site_id
 _symmetry_equiv_pos_as_xyz
  1  'x, y, z'
loop_
 _atom_site_type_symbol
 _atom_site_label
 _atom_site_symmetry_multiplicity
 _atom_site_fract_x
 _atom_site_fract_y
 _atom_site_fract_z
 _atom_site_occupancy
  Cd  Cd0  1  0.414726  0.187270  0.389242  1
  Cd  Cd1  1  0.812730  0.585274  0.389242  1
  Cd  Cd2  1  0.585274  0.812730  0.889242  1
  Cd  Cd3  1  0.187270  0.414726  0.889242  1
  Sb  Sb4  1  0.917479  0.082521  0.383769  1
  Sb  Sb5  1  0.082521  0.917479  0.883769  1
  P  P6  1  0.315101  0.684899  0.342810  1
  P  P7  1  0.684899  0.315101  0.842810  1
  O  O8  1  0.148577  0.148844  0.629768  1
  O  O9  1  0.104762  0.596416  0.265746  1
  O  O10  1  0.148844  0.148577  0.129768  1
  O  O11  1  0.851156  0.851423  0.629768  1
  O  O12  1  0.851423  0.851156  0.129768  1
  O  O13  1  0.577136  0.422864  0.684619  1
  O  O14  1  0.337210  0.662790  0.630699  1
  O  O15  1  0.895238  0.403584  0.765746  1
  O  O16  1  0.596416  0.104762  0.765746  1
  O  O17  1  0.422864  0.577136  0.184619  1
  O  O18  1  0.662790  0.337210  0.130699  1
  O  O19  1  0.403584  0.895238  0.265746  1
