# generated using pymatgen
data_TbYbHf2(Al8Pt3)3
_symmetry_space_group_name_H-M   'P 1'
_cell_length_a   7.50192466
_cell_length_b   7.49997750
_cell_length_c   13.05664706
_cell_angle_alpha   84.54022103
_cell_angle_beta   100.96826681
_cell_angle_gamma   119.98111463
_symmetry_Int_Tables_number   1
_chemical_formula_structural   TbYbHf2(Al8Pt3)3
_chemical_formula_sum   'Tb1 Yb1 Hf2 Al24 Pt9'
_cell_volume   624.69903018
_cell_formula_units_Z   1
loop_
 _symmetry_equiv_pos_site_id
 _symmetry_equiv_pos_as_xyz
  1  'x, y, z'
loop_
 _atom_site_type_symbol
 _atom_site_label
 _atom_site_symmetry_multiplicity
 _atom_site_fract_x
 _atom_site_fract_y
 _atom_site_fract_z
 _atom_site_occupancy
  Tb  Tb0  1  0.768660  0.501800  0.809103  1
  Yb  Yb1  1  0.232141  0.498218  0.191866  1
  Hf  Hf2  1  0.437565  0.831621  0.808078  1
  Hf  Hf3  1  0.562318  0.167996  0.192327  1
  Al  Al4  1  0.482637  0.163518  0.943529  1
  Al  Al5  1  0.516711  0.835633  0.057179  1
  Al  Al6  1  0.020388  0.167430  0.562184  1
  Al  Al7  1  0.979591  0.832869  0.437624  1
  Al  Al8  1  0.353511  0.833315  0.559970  1
  Al  Al9  1  0.646581  0.166417  0.439603  1
  Al  Al10  1  0.614362  0.835257  0.326003  1
  Al  Al11  1  0.383808  0.163904  0.673394  1
  Al  Al12  1  0.059055  0.495121  0.673697  1
  Al  Al13  1  0.941918  0.504398  0.325693  1
  Al  Al14  1  0.729610  0.840385  0.672716  1
  Al  Al15  1  0.270456  0.161311  0.326568  1
  Al  Al16  1  0.150397  0.502822  0.943786  1
  Al  Al17  1  0.850999  0.496570  0.058484  1
  Al  Al18  1  0.813246  0.832473  0.950997  1
  Al  Al19  1  0.187200  0.168295  0.050021  1
  Al  Al20  1  0.313802  0.500794  0.440001  1
  Al  Al21  1  0.685483  0.499037  0.558871  1
  Al  Al22  1  0.109033  0.843816  0.183114  1
  Al  Al23  1  0.892260  0.157723  0.816708  1
  Al  Al24  1  0.306664  0.373688  0.815484  1
  Al  Al25  1  0.693374  0.625158  0.184270  1
  Al  Al26  1  0.109911  0.960716  0.816051  1
  Al  Al27  1  0.889224  0.039849  0.183799  1
  Pt  Pt28  1  0.388853  0.510256  0.639548  1
  Pt  Pt29  1  0.612764  0.490884  0.361108  1
  Pt  Pt30  1  0.170200  0.827656  0.998418  1
  Pt  Pt31  1  0.828404  0.171897  0.999377  1
  Pt  Pt32  1  0.296262  0.834119  0.361301  1
  Pt  Pt33  1  0.702832  0.165873  0.639635  1
  Pt  Pt34  1  0.046231  0.823953  0.638037  1
  Pt  Pt35  1  0.953262  0.174735  0.362663  1
  Pt  Pt36  1  0.500284  0.500492  0.998794  1
