# generated using pymatgen
data_Ta13TlO33
_symmetry_space_group_name_H-M   'P 1'
_cell_length_a   11.59430829
_cell_length_b   11.59430780
_cell_length_c   15.70028700
_cell_angle_alpha   88.24650913
_cell_angle_beta   88.24650920
_cell_angle_gamma   19.17360679
_symmetry_Int_Tables_number   1
_chemical_formula_structural   Ta13TlO33
_chemical_formula_sum   'Ta13 Tl1 O33'
_cell_volume   692.84000763
_cell_formula_units_Z   1
loop_
 _symmetry_equiv_pos_site_id
 _symmetry_equiv_pos_as_xyz
  1  'x, y, z'
loop_
 _atom_site_type_symbol
 _atom_site_label
 _atom_site_symmetry_multiplicity
 _atom_site_fract_x
 _atom_site_fract_y
 _atom_site_fract_z
 _atom_site_occupancy
  Ta  Ta0  1  0.931397  0.931397  0.229836  1
  Ta  Ta1  1  0.910046  0.910046  0.682761  1
  Ta  Ta2  1  0.859148  0.859148  0.469446  1
  Ta  Ta3  1  0.842967  0.842967  0.911463  1
  Ta  Ta4  1  0.775919  0.775919  0.140467  1
  Ta  Ta5  1  0.707449  0.707449  0.371009  1
  Ta  Ta6  1  0.000000  0.000000  0.000000  1
  Ta  Ta7  1  0.292551  0.292551  0.628991  1
  Ta  Ta8  1  0.224081  0.224081  0.859533  1
  Ta  Ta9  1  0.157033  0.157033  0.088537  1
  Ta  Ta10  1  0.140852  0.140852  0.530554  1
  Ta  Ta11  1  0.089954  0.089954  0.317239  1
  Ta  Ta12  1  0.068603  0.068603  0.770164  1
  Tl  Tl13  1  0.500000  0.500000  0.500000  1
  O  O14  1  0.986731  0.986731  0.711319  1
  O  O15  1  0.965814  0.965814  0.120408  1
  O  O16  1  0.921930  0.921930  0.552787  1
  O  O17  1  0.917706  0.917706  0.953288  1
  O  O18  1  0.900030  0.900030  0.369677  1
  O  O19  1  0.870143  0.870143  0.791265  1
  O  O20  1  0.848695  0.848695  0.192569  1
  O  O21  1  0.813798  0.813798  0.616542  1
  O  O22  1  0.804934  0.804934  0.026969  1
  O  O23  1  0.776722  0.776722  0.429085  1
  O  O24  1  0.747175  0.747175  0.863403  1
  O  O25  1  0.735552  0.735552  0.261553  1
  O  O26  1  0.680353  0.680353  0.098706  1
  O  O27  1  0.656198  0.656198  0.500374  1
  O  O28  1  0.613341  0.613341  0.331723  1
  O  O29  1  0.570605  0.570605  0.750938  1
  O  O30  1  0.500000  0.500000  0.000000  1
  O  O31  1  0.429395  0.429395  0.249062  1
  O  O32  1  0.386659  0.386659  0.668277  1
  O  O33  1  0.343802  0.343802  0.499626  1
  O  O34  1  0.319647  0.319647  0.901294  1
  O  O35  1  0.264448  0.264448  0.738447  1
  O  O36  1  0.252825  0.252825  0.136597  1
  O  O37  1  0.223278  0.223278  0.570915  1
  O  O38  1  0.195066  0.195066  0.973031  1
  O  O39  1  0.186202  0.186202  0.383458  1
  O  O40  1  0.151305  0.151305  0.807431  1
  O  O41  1  0.129857  0.129857  0.208735  1
  O  O42  1  0.099970  0.099970  0.630323  1
  O  O43  1  0.082294  0.082294  0.046712  1
  O  O44  1  0.078070  0.078070  0.447213  1
  O  O45  1  0.034186  0.034186  0.879592  1
  O  O46  1  0.013269  0.013269  0.288681  1
