# generated using pymatgen
data_Ho2Tm8(AlSb)3
_symmetry_space_group_name_H-M   'P 1'
_cell_length_a   8.73412002
_cell_length_b   8.76175431
_cell_length_c   6.38576800
_cell_angle_alpha   90.00000000
_cell_angle_beta   90.00000000
_cell_angle_gamma   119.73723559
_symmetry_Int_Tables_number   1
_chemical_formula_structural   Ho2Tm8(AlSb)3
_chemical_formula_sum   'Ho2 Tm8 Al3 Sb3'
_cell_volume   424.32423356
_cell_formula_units_Z   1
loop_
 _symmetry_equiv_pos_site_id
 _symmetry_equiv_pos_as_xyz
  1  'x, y, z'
loop_
 _atom_site_type_symbol
 _atom_site_label
 _atom_site_symmetry_multiplicity
 _atom_site_fract_x
 _atom_site_fract_y
 _atom_site_fract_z
 _atom_site_occupancy
  Ho  Ho0  1  0.759508  0.001950  0.750000  1
  Ho  Ho1  1  0.243263  0.232248  0.750000  1
  Tm  Tm2  1  0.332816  0.679070  0.002887  1
  Tm  Tm3  1  0.666639  0.325862  0.497230  1
  Tm  Tm4  1  0.666639  0.325862  0.002770  1
  Tm  Tm5  1  0.332816  0.679070  0.497113  1
  Tm  Tm6  1  0.233509  0.989064  0.250000  1
  Tm  Tm7  1  0.987694  0.233647  0.250000  1
  Tm  Tm8  1  0.764139  0.764816  0.250000  1
  Tm  Tm9  1  0.012705  0.770159  0.750000  1
  Al  Al10  1  0.599993  0.999154  0.250000  1
  Al  Al11  1  0.403591  0.003418  0.750000  1
  Al  Al12  1  0.994913  0.600239  0.250000  1
  Sb  Sb13  1  0.387754  0.391621  0.250000  1
  Sb  Sb14  1  0.609140  0.606892  0.750000  1
  Sb  Sb15  1  0.004883  0.396926  0.750000  1
