# generated using pymatgen
data_HoTm3Ni13C4
_symmetry_space_group_name_H-M   'P 1'
_cell_length_a   3.83378300
_cell_length_b   8.35926295
_cell_length_c   8.35926315
_cell_angle_alpha   91.31847810
_cell_angle_beta   90.00000000
_cell_angle_gamma   90.00000000
_symmetry_Int_Tables_number   1
_chemical_formula_structural   HoTm3Ni13C4
_chemical_formula_sum   'Ho1 Tm3 Ni13 C4'
_cell_volume   267.82339579
_cell_formula_units_Z   1
loop_
 _symmetry_equiv_pos_site_id
 _symmetry_equiv_pos_as_xyz
  1  'x, y, z'
loop_
 _atom_site_type_symbol
 _atom_site_label
 _atom_site_symmetry_multiplicity
 _atom_site_fract_x
 _atom_site_fract_y
 _atom_site_fract_z
 _atom_site_occupancy
  Ho  Ho0  1  0.500000  0.652056  0.652056  1
  Tm  Tm1  1  0.500000  0.187162  0.812787  1
  Tm  Tm2  1  0.500000  0.812787  0.187162  1
  Tm  Tm3  1  0.500000  0.347979  0.347979  1
  Ni  Ni4  1  0.500000  0.001158  0.499077  1
  Ni  Ni5  1  0.500000  0.499077  0.001158  1
  Ni  Ni6  1  0.000000  0.000559  0.000559  1
  Ni  Ni7  1  0.000000  0.783972  0.429210  1
  Ni  Ni8  1  0.000000  0.215405  0.570159  1
  Ni  Ni9  1  0.000000  0.570159  0.215405  1
  Ni  Ni10  1  0.000000  0.429210  0.783972  1
  Ni  Ni11  1  0.000000  0.926681  0.709421  1
  Ni  Ni12  1  0.000000  0.074436  0.291155  1
  Ni  Ni13  1  0.000000  0.291155  0.074436  1
  Ni  Ni14  1  0.000000  0.709421  0.926681  1
  Ni  Ni15  1  0.500000  0.877725  0.877725  1
  Ni  Ni16  1  0.500000  0.123382  0.123382  1
  C  C17  1  0.000000  0.556106  0.442263  1
  C  C18  1  0.000000  0.442263  0.556106  1
  C  C19  1  0.000000  0.999372  0.499935  1
  C  C20  1  0.000000  0.499935  0.999372  1
