# generated using pymatgen
data_Ca5IrPt
_symmetry_space_group_name_H-M   'P 1'
_cell_length_a   8.78463037
_cell_length_b   8.78463071
_cell_length_c   7.67048700
_cell_angle_alpha   82.90262465
_cell_angle_beta   82.90262437
_cell_angle_gamma   43.73311186
_symmetry_Int_Tables_number   1
_chemical_formula_structural   Ca5IrPt
_chemical_formula_sum   'Ca10 Ir2 Pt2'
_cell_volume   405.55816692
_cell_formula_units_Z   2
loop_
 _symmetry_equiv_pos_site_id
 _symmetry_equiv_pos_as_xyz
  1  'x, y, z'
loop_
 _atom_site_type_symbol
 _atom_site_label
 _atom_site_symmetry_multiplicity
 _atom_site_fract_x
 _atom_site_fract_y
 _atom_site_fract_z
 _atom_site_occupancy
  Ca  Ca0  1  0.026304  0.796761  0.913582  1
  Ca  Ca1  1  0.203239  0.973696  0.586418  1
  Ca  Ca2  1  0.983666  0.196968  0.078955  1
  Ca  Ca3  1  0.803032  0.016334  0.421045  1
  Ca  Ca4  1  0.361654  0.201869  0.817384  1
  Ca  Ca5  1  0.798131  0.638346  0.682616  1
  Ca  Ca6  1  0.631717  0.799965  0.174113  1
  Ca  Ca7  1  0.200035  0.368283  0.325887  1
  Ca  Ca8  1  0.570530  0.429470  0.750000  1
  Ca  Ca9  1  0.420626  0.579374  0.250000  1
  Ir  Ir10  1  0.178769  0.598112  0.582021  1
  Ir  Ir11  1  0.401888  0.821231  0.917979  1
  Pt  Pt12  1  0.821899  0.401491  0.417611  1
  Pt  Pt13  1  0.598509  0.178101  0.082389  1
