# generated using pymatgen
data_La3Y5(TmBi)12
_symmetry_space_group_name_H-M   'P 1'
_cell_length_a   8.30554011
_cell_length_b   9.50548200
_cell_length_c   12.16443117
_cell_angle_alpha   90.00000000
_cell_angle_beta   89.98101494
_cell_angle_gamma   90.00000000
_symmetry_Int_Tables_number   1
_chemical_formula_structural   La3Y5(TmBi)12
_chemical_formula_sum   'La3 Y5 Tm12 Bi12'
_cell_volume   960.35943034
_cell_formula_units_Z   1
loop_
 _symmetry_equiv_pos_site_id
 _symmetry_equiv_pos_as_xyz
  1  'x, y, z'
loop_
 _atom_site_type_symbol
 _atom_site_label
 _atom_site_symmetry_multiplicity
 _atom_site_fract_x
 _atom_site_fract_y
 _atom_site_fract_z
 _atom_site_occupancy
  La  La0  1  0.182619  0.750000  0.721059  1
  La  La1  1  0.683246  0.750000  0.778671  1
  La  La2  1  0.816747  0.250000  0.279167  1
  Y  Y3  1  0.315146  0.250000  0.218416  1
  Y  Y4  1  0.351467  0.750000  0.217827  1
  Y  Y5  1  0.852668  0.750000  0.280731  1
  Y  Y6  1  0.648200  0.250000  0.783869  1
  Y  Y7  1  0.149827  0.250000  0.717174  1
  Tm  Tm8  1  0.023774  0.750000  0.989851  1
  Tm  Tm9  1  0.521323  0.750000  0.510649  1
  Tm  Tm10  1  0.977369  0.250000  0.013379  1
  Tm  Tm11  1  0.477077  0.250000  0.488137  1
  Tm  Tm12  1  0.307715  0.434174  0.940448  1
  Tm  Tm13  1  0.809345  0.066786  0.560156  1
  Tm  Tm14  1  0.692791  0.934284  0.060582  1
  Tm  Tm15  1  0.190532  0.565771  0.438302  1
  Tm  Tm16  1  0.692791  0.565716  0.060582  1
  Tm  Tm17  1  0.190532  0.934229  0.438302  1
  Tm  Tm18  1  0.307715  0.065826  0.940448  1
  Tm  Tm19  1  0.809345  0.433214  0.560156  1
  Bi  Bi20  1  0.435162  0.009808  0.669534  1
  Bi  Bi21  1  0.934892  0.489889  0.831225  1
  Bi  Bi22  1  0.560945  0.506577  0.329009  1
  Bi  Bi23  1  0.070317  0.993370  0.170769  1
  Bi  Bi24  1  0.560945  0.993423  0.329009  1
  Bi  Bi25  1  0.070317  0.506630  0.170769  1
  Bi  Bi26  1  0.435162  0.490192  0.669534  1
  Bi  Bi27  1  0.934892  0.010111  0.831225  1
  Bi  Bi28  1  0.404105  0.750000  0.964174  1
  Bi  Bi29  1  0.902770  0.750000  0.535242  1
  Bi  Bi30  1  0.591277  0.250000  0.039834  1
  Bi  Bi31  1  0.098990  0.250000  0.461773  1
