# generated using pymatgen
data_TlV(WSe3)2
_symmetry_space_group_name_H-M   'P 1'
_cell_length_a   5.74725200
_cell_length_b   5.74725403
_cell_length_c   17.69205800
_cell_angle_alpha   90.00000000
_cell_angle_beta   90.00000000
_cell_angle_gamma   119.99999983
_symmetry_Int_Tables_number   1
_chemical_formula_structural   TlV(WSe3)2
_chemical_formula_sum   'Tl2 V2 W4 Se12'
_cell_volume   506.09217259
_cell_formula_units_Z   2
loop_
 _symmetry_equiv_pos_site_id
 _symmetry_equiv_pos_as_xyz
  1  'x, y, z'
loop_
 _atom_site_type_symbol
 _atom_site_label
 _atom_site_symmetry_multiplicity
 _atom_site_fract_x
 _atom_site_fract_y
 _atom_site_fract_z
 _atom_site_occupancy
  Tl  Tl0  1  0.000000  0.000000  0.000000  1
  Tl  Tl1  1  0.000000  0.000000  0.500000  1
  V  V2  1  0.666667  0.333333  0.250000  1
  V  V3  1  0.333333  0.666667  0.750000  1
  W  W4  1  0.000000  0.000000  0.750000  1
  W  W5  1  0.000000  0.000000  0.250000  1
  W  W6  1  0.333333  0.666667  0.250000  1
  W  W7  1  0.666667  0.333333  0.750000  1
  Se  Se8  1  0.340935  0.006685  0.156772  1
  Se  Se9  1  0.993315  0.334250  0.156772  1
  Se  Se10  1  0.665750  0.659065  0.156772  1
  Se  Se11  1  0.334250  0.340935  0.656772  1
  Se  Se12  1  0.665750  0.659065  0.343228  1
  Se  Se13  1  0.659065  0.993315  0.656772  1
  Se  Se14  1  0.006685  0.665750  0.656772  1
  Se  Se15  1  0.006685  0.665750  0.843228  1
  Se  Se16  1  0.334250  0.340935  0.843228  1
  Se  Se17  1  0.993315  0.334250  0.343228  1
  Se  Se18  1  0.340935  0.006685  0.343228  1
  Se  Se19  1  0.659065  0.993315  0.843228  1
