# generated using pymatgen
data_LaY19(Cd3Tc)2
_symmetry_space_group_name_H-M   'P 1'
_cell_length_a   9.62771997
_cell_length_b   9.62771966
_cell_length_c   9.98710378
_cell_angle_alpha   90.20174517
_cell_angle_beta   89.79825311
_cell_angle_gamma   119.79697641
_symmetry_Int_Tables_number   1
_chemical_formula_structural   LaY19(Cd3Tc)2
_chemical_formula_sum   'La1 Y19 Cd6 Tc2'
_cell_volume   803.33804169
_cell_formula_units_Z   1
loop_
 _symmetry_equiv_pos_site_id
 _symmetry_equiv_pos_as_xyz
  1  'x, y, z'
loop_
 _atom_site_type_symbol
 _atom_site_label
 _atom_site_symmetry_multiplicity
 _atom_site_fract_x
 _atom_site_fract_y
 _atom_site_fract_z
 _atom_site_occupancy
  La  La0  1  0.211351  0.788649  0.432676  1
  Y  Y1  1  0.000426  0.999574  0.500319  1
  Y  Y2  1  0.000532  0.999468  0.000298  1
  Y  Y3  1  0.210928  0.415609  0.441839  1
  Y  Y4  1  0.584391  0.789072  0.441839  1
  Y  Y5  1  0.790137  0.209863  0.558599  1
  Y  Y6  1  0.788387  0.578897  0.559759  1
  Y  Y7  1  0.421103  0.211613  0.559759  1
  Y  Y8  1  0.790480  0.209520  0.941299  1
  Y  Y9  1  0.789369  0.580422  0.941323  1
  Y  Y10  1  0.419578  0.210631  0.941323  1
  Y  Y11  1  0.209424  0.790576  0.056484  1
  Y  Y12  1  0.210782  0.420055  0.058745  1
  Y  Y13  1  0.579945  0.789218  0.058745  1
  Y  Y14  1  0.541095  0.458905  0.248053  1
  Y  Y15  1  0.543116  0.083212  0.247748  1
  Y  Y16  1  0.916788  0.456884  0.247748  1
  Y  Y17  1  0.460690  0.539310  0.750770  1
  Y  Y18  1  0.462471  0.922315  0.752566  1
  Y  Y19  1  0.077685  0.537529  0.752566  1
  Cd  Cd20  1  0.885525  0.114475  0.250961  1
  Cd  Cd21  1  0.882190  0.770154  0.248436  1
  Cd  Cd22  1  0.229846  0.117810  0.248436  1
  Cd  Cd23  1  0.114546  0.885454  0.750980  1
  Cd  Cd24  1  0.114041  0.228906  0.750651  1
  Cd  Cd25  1  0.771094  0.885959  0.750651  1
  Tc  Tc26  1  0.327969  0.672031  0.257319  1
  Tc  Tc27  1  0.666112  0.333888  0.750109  1
