# generated using pymatgen
data_Ba(InAu)3
_symmetry_space_group_name_H-M   'P 1'
_cell_length_a   4.71327900
_cell_length_b   8.05508400
_cell_length_c   9.29813700
_cell_angle_alpha   90.00000000
_cell_angle_beta   90.00000000
_cell_angle_gamma   90.00000000
_symmetry_Int_Tables_number   1
_chemical_formula_structural   Ba(InAu)3
_chemical_formula_sum   'Ba2 In6 Au6'
_cell_volume   353.01175143
_cell_formula_units_Z   2
loop_
 _symmetry_equiv_pos_site_id
 _symmetry_equiv_pos_as_xyz
  1  'x, y, z'
loop_
 _atom_site_type_symbol
 _atom_site_label
 _atom_site_symmetry_multiplicity
 _atom_site_fract_x
 _atom_site_fract_y
 _atom_site_fract_z
 _atom_site_occupancy
  Ba  Ba0  1  0.500000  0.000000  0.729648  1
  Ba  Ba1  1  0.000000  0.500000  0.270352  1
  In  In2  1  0.000000  0.305523  0.885599  1
  In  In3  1  0.500000  0.194477  0.114401  1
  In  In4  1  0.000000  0.694477  0.885599  1
  In  In5  1  0.000000  0.000000  0.365920  1
  In  In6  1  0.500000  0.805523  0.114401  1
  In  In7  1  0.500000  0.500000  0.634080  1
  Au  Au8  1  0.000000  0.725556  0.588238  1
  Au  Au9  1  0.500000  0.774444  0.411762  1
  Au  Au10  1  0.500000  0.500000  0.954204  1
  Au  Au11  1  0.000000  0.000000  0.045796  1
  Au  Au12  1  0.500000  0.225556  0.411762  1
  Au  Au13  1  0.000000  0.274444  0.588238  1
