# generated using pymatgen
data_Sr2LiGdO4
_symmetry_space_group_name_H-M   'P 1'
_cell_length_a   11.61941000
_cell_length_b   3.49777400
_cell_length_c   11.66413300
_cell_angle_alpha   90.00000000
_cell_angle_beta   90.00000000
_cell_angle_gamma   90.00000000
_symmetry_Int_Tables_number   1
_chemical_formula_structural   Sr2LiGdO4
_chemical_formula_sum   'Sr8 Li4 Gd4 O16'
_cell_volume   474.05451213
_cell_formula_units_Z   4
loop_
 _symmetry_equiv_pos_site_id
 _symmetry_equiv_pos_as_xyz
  1  'x, y, z'
loop_
 _atom_site_type_symbol
 _atom_site_label
 _atom_site_symmetry_multiplicity
 _atom_site_fract_x
 _atom_site_fract_y
 _atom_site_fract_z
 _atom_site_occupancy
  Sr  Sr0  1  0.635968  0.499999  0.071586  1
  Sr  Sr1  1  0.098341  0.000000  0.115171  1
  Sr  Sr2  1  0.598341  0.000000  0.384829  1
  Sr  Sr3  1  0.135969  0.499999  0.428414  1
  Sr  Sr4  1  0.864031  0.000000  0.571586  1
  Sr  Sr5  1  0.401658  0.499999  0.615170  1
  Sr  Sr6  1  0.901658  0.499999  0.884829  1
  Sr  Sr7  1  0.364030  0.000000  0.928413  1
  Li  Li8  1  0.847427  0.000000  0.090078  1
  Li  Li9  1  0.347427  0.000000  0.409922  1
  Li  Li10  1  0.652573  0.499999  0.590077  1
  Li  Li11  1  0.152572  0.499999  0.909922  1
  Gd  Gd12  1  0.358509  0.499999  0.205988  1
  Gd  Gd13  1  0.858510  0.499999  0.294011  1
  Gd  Gd14  1  0.141490  0.000000  0.705989  1
  Gd  Gd15  1  0.641490  0.000000  0.794010  1
  O  O16  1  0.244601  0.499999  0.046190  1
  O  O17  1  0.938072  0.499999  0.110566  1
  O  O18  1  0.473338  0.000000  0.131211  1
  O  O19  1  0.742415  0.000000  0.219329  1
  O  O20  1  0.242415  0.000000  0.280670  1
  O  O21  1  0.973338  0.000000  0.368788  1
  O  O22  1  0.438071  0.499999  0.389433  1
  O  O23  1  0.744601  0.499999  0.453809  1
  O  O24  1  0.255398  0.000000  0.546190  1
  O  O25  1  0.561928  0.000000  0.610567  1
  O  O26  1  0.026661  0.499999  0.631211  1
  O  O27  1  0.757584  0.499999  0.719330  1
  O  O28  1  0.257585  0.499999  0.780670  1
  O  O29  1  0.526660  0.499999  0.868788  1
  O  O30  1  0.061928  0.000000  0.889433  1
  O  O31  1  0.755398  0.000000  0.953809  1
