# generated using pymatgen
data_Tb5Tm11In4OsRh3
_symmetry_space_group_name_H-M   'P 1'
_cell_length_a   9.58697227
_cell_length_b   9.57806429
_cell_length_c   9.60661867
_cell_angle_alpha   60.03591521
_cell_angle_beta   59.95063369
_cell_angle_gamma   59.83254873
_symmetry_Int_Tables_number   1
_chemical_formula_structural   Tb5Tm11In4OsRh3
_chemical_formula_sum   'Tb5 Tm11 In4 Os1 Rh3'
_cell_volume   622.89898597
_cell_formula_units_Z   1
loop_
 _symmetry_equiv_pos_site_id
 _symmetry_equiv_pos_as_xyz
  1  'x, y, z'
loop_
 _atom_site_type_symbol
 _atom_site_label
 _atom_site_symmetry_multiplicity
 _atom_site_fract_x
 _atom_site_fract_y
 _atom_site_fract_z
 _atom_site_occupancy
  Tb  Tb0  1  0.059319  0.059898  0.436198  1
  Tb  Tb1  1  0.446045  0.058728  0.436668  1
  Tb  Tb2  1  0.063205  0.437018  0.062201  1
  Tb  Tb3  1  0.047542  0.650424  0.650878  1
  Tb  Tb4  1  0.438499  0.437374  0.061363  1
  Tm  Tm5  1  0.651162  0.047976  0.649995  1
  Tm  Tm6  1  0.187552  0.811344  0.191442  1
  Tm  Tm7  1  0.189274  0.189722  0.810973  1
  Tm  Tm8  1  0.809097  0.810847  0.192203  1
  Tm  Tm9  1  0.441387  0.059447  0.058455  1
  Tm  Tm10  1  0.810154  0.187684  0.191823  1
  Tm  Tm11  1  0.057367  0.446890  0.437958  1
  Tm  Tm12  1  0.809491  0.190482  0.810480  1
  Tm  Tm13  1  0.189549  0.811368  0.810394  1
  Tm  Tm14  1  0.651284  0.649632  0.047784  1
  Tm  Tm15  1  0.651810  0.650271  0.650762  1
  In  In16  1  0.417261  0.417845  0.415746  1
  In  In17  1  0.749173  0.418228  0.416156  1
  In  In18  1  0.418324  0.748974  0.414964  1
  In  In19  1  0.418478  0.416854  0.747324  1
  Os  Os20  1  0.856826  0.857108  0.425930  1
  Rh  Rh21  1  0.855427  0.860812  0.861585  1
  Rh  Rh22  1  0.424055  0.858996  0.859565  1
  Rh  Rh23  1  0.857719  0.422080  0.859155  1
