# generated using pymatgen
data_Nd4Al4OsPd3
_symmetry_space_group_name_H-M   'P 1'
_cell_length_a   4.47145100
_cell_length_b   7.13415646
_cell_length_c   7.97060051
_cell_angle_alpha   90.01575158
_cell_angle_beta   90.00000000
_cell_angle_gamma   90.00000000
_symmetry_Int_Tables_number   1
_chemical_formula_structural   Nd4Al4OsPd3
_chemical_formula_sum   'Nd4 Al4 Os1 Pd3'
_cell_volume   254.26239407
_cell_formula_units_Z   1
loop_
 _symmetry_equiv_pos_site_id
 _symmetry_equiv_pos_as_xyz
  1  'x, y, z'
loop_
 _atom_site_type_symbol
 _atom_site_label
 _atom_site_symmetry_multiplicity
 _atom_site_fract_x
 _atom_site_fract_y
 _atom_site_fract_z
 _atom_site_occupancy
  Nd  Nd0  1  0.750000  0.469737  0.181009  1
  Nd  Nd1  1  0.250000  0.020672  0.682162  1
  Nd  Nd2  1  0.750000  0.965431  0.321215  1
  Nd  Nd3  1  0.250000  0.532617  0.812100  1
  Al  Al4  1  0.750000  0.851235  0.930861  1
  Al  Al5  1  0.250000  0.648966  0.439205  1
  Al  Al6  1  0.750000  0.362011  0.564824  1
  Al  Al7  1  0.250000  0.145037  0.064309  1
  Os  Os8  1  0.750000  0.724953  0.616339  1
  Pd  Pd9  1  0.750000  0.216901  0.888191  1
  Pd  Pd10  1  0.250000  0.281002  0.385195  1
  Pd  Pd11  1  0.250000  0.781440  0.114591  1
