# generated using pymatgen
data_Ho4Cr4Fe11Ni5P12
_symmetry_space_group_name_H-M   'P 1'
_cell_length_a   3.67094300
_cell_length_b   10.23582828
_cell_length_c   11.95948674
_cell_angle_alpha   89.92295167
_cell_angle_beta   90.00000000
_cell_angle_gamma   90.00000000
_symmetry_Int_Tables_number   1
_chemical_formula_structural   Ho4Cr4Fe11Ni5P12
_chemical_formula_sum   'Ho4 Cr4 Fe11 Ni5 P12'
_cell_volume   449.37900838
_cell_formula_units_Z   1
loop_
 _symmetry_equiv_pos_site_id
 _symmetry_equiv_pos_as_xyz
  1  'x, y, z'
loop_
 _atom_site_type_symbol
 _atom_site_label
 _atom_site_symmetry_multiplicity
 _atom_site_fract_x
 _atom_site_fract_y
 _atom_site_fract_z
 _atom_site_occupancy
  Ho  Ho0  1  0.250000  0.581131  0.708003  1
  Ho  Ho1  1  0.250000  0.918868  0.207699  1
  Ho  Ho2  1  0.750000  0.419927  0.292951  1
  Ho  Ho3  1  0.750000  0.080436  0.792213  1
  Cr  Cr4  1  0.250000  0.700871  0.991150  1
  Cr  Cr5  1  0.250000  0.798319  0.491981  1
  Cr  Cr6  1  0.750000  0.296426  0.008761  1
  Cr  Cr7  1  0.750000  0.202858  0.508011  1
  Fe  Fe8  1  0.250000  0.280073  0.673124  1
  Fe  Fe9  1  0.750000  0.779946  0.828213  1
  Fe  Fe10  1  0.750000  0.719662  0.328183  1
  Fe  Fe11  1  0.250000  0.880744  0.697268  1
  Fe  Fe12  1  0.250000  0.620443  0.198639  1
  Fe  Fe13  1  0.750000  0.121671  0.298945  1
  Fe  Fe14  1  0.750000  0.379965  0.802916  1
  Fe  Fe15  1  0.250000  0.463195  0.935322  1
  Fe  Fe16  1  0.250000  0.036196  0.433837  1
  Fe  Fe17  1  0.750000  0.535082  0.065148  1
  Fe  Fe18  1  0.750000  0.965009  0.564570  1
  Ni  Ni19  1  0.250000  0.407902  0.486353  1
  Ni  Ni20  1  0.250000  0.091782  0.986200  1
  Ni  Ni21  1  0.750000  0.592573  0.514834  1
  Ni  Ni22  1  0.750000  0.905282  0.013624  1
  Ni  Ni23  1  0.250000  0.222722  0.172107  1
  P  P24  1  0.250000  0.426302  0.112534  1
  P  P25  1  0.250000  0.078729  0.612688  1
  P  P26  1  0.750000  0.578118  0.886941  1
  P  P27  1  0.750000  0.922326  0.386449  1
  P  P28  1  0.250000  0.271004  0.860554  1
  P  P29  1  0.250000  0.228585  0.363807  1
  P  P30  1  0.750000  0.727605  0.140375  1
  P  P31  1  0.750000  0.772594  0.640324  1
  P  P32  1  0.250000  0.605532  0.385891  1
  P  P33  1  0.250000  0.893477  0.883847  1
  P  P34  1  0.750000  0.394990  0.615995  1
  P  P35  1  0.750000  0.099653  0.110542  1
