# generated using pymatgen
data_Sr3Sm(NiAs)4
_symmetry_space_group_name_H-M   'P 1'
_cell_length_a   4.09757800
_cell_length_b   4.09757794
_cell_length_c   17.47475000
_cell_angle_alpha   90.00000000
_cell_angle_beta   90.00000000
_cell_angle_gamma   120.00001660
_symmetry_Int_Tables_number   1
_chemical_formula_structural   Sr3Sm(NiAs)4
_chemical_formula_sum   'Sr3 Sm1 Ni4 As4'
_cell_volume   254.09492042
_cell_formula_units_Z   1
loop_
 _symmetry_equiv_pos_site_id
 _symmetry_equiv_pos_as_xyz
  1  'x, y, z'
loop_
 _atom_site_type_symbol
 _atom_site_label
 _atom_site_symmetry_multiplicity
 _atom_site_fract_x
 _atom_site_fract_y
 _atom_site_fract_z
 _atom_site_occupancy
  Sr  Sr0  1  0.000000  0.000000  0.500000  1
  Sr  Sr1  1  0.000000  0.000000  0.243947  1
  Sr  Sr2  1  0.000000  0.000000  0.756053  1
  Sm  Sm3  1  0.000000  0.000000  0.000000  1
  Ni  Ni4  1  0.333333  0.666667  0.371483  1
  Ni  Ni5  1  0.666667  0.333333  0.628517  1
  Ni  Ni6  1  0.666667  0.333333  0.887571  1
  Ni  Ni7  1  0.333333  0.666667  0.112429  1
  As  As8  1  0.333333  0.666667  0.885498  1
  As  As9  1  0.666667  0.333333  0.114502  1
  As  As10  1  0.666667  0.333333  0.372049  1
  As  As11  1  0.333333  0.666667  0.627951  1
