# generated using pymatgen
data_DyAlSiIr2
_symmetry_space_group_name_H-M   'P 1'
_cell_length_a   4.07877500
_cell_length_b   4.07877500
_cell_length_c   10.44136500
_cell_angle_alpha   90.00000000
_cell_angle_beta   90.00000000
_cell_angle_gamma   90.00000000
_symmetry_Int_Tables_number   1
_chemical_formula_structural   DyAlSiIr2
_chemical_formula_sum   'Dy2 Al2 Si2 Ir4'
_cell_volume   173.70678212
_cell_formula_units_Z   2
loop_
 _symmetry_equiv_pos_site_id
 _symmetry_equiv_pos_as_xyz
  1  'x, y, z'
loop_
 _atom_site_type_symbol
 _atom_site_label
 _atom_site_symmetry_multiplicity
 _atom_site_fract_x
 _atom_site_fract_y
 _atom_site_fract_z
 _atom_site_occupancy
  Dy  Dy0  1  0.000000  0.500000  0.243299  1
  Dy  Dy1  1  0.500000  0.000000  0.756701  1
  Al  Al2  1  0.000000  0.000000  0.500000  1
  Al  Al3  1  0.500000  0.500000  0.500000  1
  Si  Si4  1  0.000000  0.500000  0.875374  1
  Si  Si5  1  0.500000  0.000000  0.124626  1
  Ir  Ir6  1  0.000000  0.000000  0.000000  1
  Ir  Ir7  1  0.500000  0.500000  0.000000  1
  Ir  Ir8  1  0.000000  0.500000  0.645920  1
  Ir  Ir9  1  0.500000  0.000000  0.354080  1
