# generated using pymatgen
data_Hf4Sn(B7Ir6)2
_symmetry_space_group_name_H-M   'P 1'
_cell_length_a   3.43548104
_cell_length_b   7.87051428
_cell_length_c   13.63309050
_cell_angle_alpha   90.01110095
_cell_angle_beta   90.07729179
_cell_angle_gamma   90.11641240
_symmetry_Int_Tables_number   1
_chemical_formula_structural   Hf4Sn(B7Ir6)2
_chemical_formula_sum   'Hf4 Sn1 B14 Ir12'
_cell_volume   368.62406638
_cell_formula_units_Z   1
loop_
 _symmetry_equiv_pos_site_id
 _symmetry_equiv_pos_as_xyz
  1  'x, y, z'
loop_
 _atom_site_type_symbol
 _atom_site_label
 _atom_site_symmetry_multiplicity
 _atom_site_fract_x
 _atom_site_fract_y
 _atom_site_fract_z
 _atom_site_occupancy
  Hf  Hf0  1  0.250916  0.497286  0.837681  1
  Hf  Hf1  1  0.253711  0.002648  0.328428  1
  Hf  Hf2  1  0.746289  0.997352  0.671572  1
  Hf  Hf3  1  0.749084  0.502714  0.162319  1
  Sn  Sn4  1  0.500000  0.500000  0.500000  1
  B  B5  1  0.500000  0.000000  0.000000  1
  B  B6  1  0.000000  0.000000  0.000000  1
  B  B7  1  0.748934  0.324701  0.731465  1
  B  B8  1  0.751650  0.830732  0.217664  1
  B  B9  1  0.749821  0.752868  0.807684  1
  B  B10  1  0.750354  0.245712  0.295638  1
  B  B11  1  0.751424  0.424460  0.974527  1
  B  B12  1  0.749878  0.920308  0.473494  1
  B  B13  1  0.248350  0.169268  0.782336  1
  B  B14  1  0.251066  0.675299  0.268535  1
  B  B15  1  0.249646  0.754288  0.704362  1
  B  B16  1  0.250179  0.247132  0.192316  1
  B  B17  1  0.250122  0.079692  0.526506  1
  B  B18  1  0.248576  0.575540  0.025473  1
  Ir  Ir19  1  0.751642  0.593095  0.681474  1
  Ir  Ir20  1  0.750270  0.088750  0.162552  1
  Ir  Ir21  1  0.749370  0.701384  0.962773  1
  Ir  Ir22  1  0.754548  0.190412  0.455334  1
  Ir  Ir23  1  0.749858  0.205204  0.875901  1
  Ir  Ir24  1  0.753722  0.719225  0.361104  1
  Ir  Ir25  1  0.249730  0.911250  0.837448  1
  Ir  Ir26  1  0.248358  0.406905  0.318526  1
  Ir  Ir27  1  0.245452  0.809588  0.544666  1
  Ir  Ir28  1  0.250630  0.298616  0.037227  1
  Ir  Ir29  1  0.246278  0.280775  0.638896  1
  Ir  Ir30  1  0.250142  0.794796  0.124099  1
