# generated using pymatgen
data_Ba10AlSi17
_symmetry_space_group_name_H-M   'P 1'
_cell_length_a   6.67262410
_cell_length_b   6.67262410
_cell_length_c   17.96906547
_cell_angle_alpha   81.58793151
_cell_angle_beta   81.58793084
_cell_angle_gamma   100.74635295
_symmetry_Int_Tables_number   1
_chemical_formula_structural   Ba10AlSi17
_chemical_formula_sum   'Ba10 Al1 Si17'
_cell_volume   765.06529129
_cell_formula_units_Z   1
loop_
 _symmetry_equiv_pos_site_id
 _symmetry_equiv_pos_as_xyz
  1  'x, y, z'
loop_
 _atom_site_type_symbol
 _atom_site_label
 _atom_site_symmetry_multiplicity
 _atom_site_fract_x
 _atom_site_fract_y
 _atom_site_fract_z
 _atom_site_occupancy
  Ba  Ba0  1  0.750167  0.255074  0.998156  1
  Ba  Ba1  1  0.110904  0.580664  0.791697  1
  Ba  Ba2  1  0.285991  0.709682  0.499945  1
  Ba  Ba3  1  0.756833  0.756833  0.648486  1
  Ba  Ba4  1  0.242549  0.242549  0.350643  1
  Ba  Ba5  1  0.580664  0.110904  0.791697  1
  Ba  Ba6  1  0.255074  0.750167  0.998156  1
  Ba  Ba7  1  0.709682  0.285991  0.499945  1
  Ba  Ba8  1  0.422366  0.885419  0.210702  1
  Ba  Ba9  1  0.885419  0.422366  0.210702  1
  Al  Al10  1  0.224288  0.224288  0.070567  1
  Si  Si11  1  0.924983  0.924983  0.262743  1
  Si  Si12  1  0.072152  0.072152  0.736712  1
  Si  Si13  1  0.778879  0.778879  0.930182  1
  Si  Si14  1  0.347235  0.347235  0.647476  1
  Si  Si15  1  0.293738  0.293738  0.929601  1
  Si  Si16  1  0.934237  0.934237  0.131077  1
  Si  Si17  1  0.649206  0.649206  0.354732  1
  Si  Si18  1  0.434571  0.434571  0.145471  1
  Si  Si19  1  0.062176  0.062176  0.868940  1
  Si  Si20  1  0.816041  0.816041  0.449791  1
  Si  Si21  1  0.326546  0.971285  0.643617  1
  Si  Si22  1  0.670978  0.026075  0.356222  1
  Si  Si23  1  0.181818  0.181818  0.550383  1
  Si  Si24  1  0.971285  0.326546  0.643617  1
  Si  Si25  1  0.026075  0.670978  0.356222  1
  Si  Si26  1  0.709726  0.709726  0.067198  1
  Si  Si27  1  0.576415  0.576415  0.855321  1
