# generated using pymatgen
data_NdGaSiAg
_symmetry_space_group_name_H-M   'P 1'
_cell_length_a   4.24879418
_cell_length_b   4.26720800
_cell_length_c   9.32771165
_cell_angle_alpha   90.00000000
_cell_angle_beta   103.16471509
_cell_angle_gamma   90.00000000
_symmetry_Int_Tables_number   1
_chemical_formula_structural   NdGaSiAg
_chemical_formula_sum   'Nd2 Ga2 Si2 Ag2'
_cell_volume   164.67149053
_cell_formula_units_Z   2
loop_
 _symmetry_equiv_pos_site_id
 _symmetry_equiv_pos_as_xyz
  1  'x, y, z'
loop_
 _atom_site_type_symbol
 _atom_site_label
 _atom_site_symmetry_multiplicity
 _atom_site_fract_x
 _atom_site_fract_y
 _atom_site_fract_z
 _atom_site_occupancy
  Nd  Nd0  1  0.604253  0.250000  0.208507  1
  Nd  Nd1  1  0.395747  0.750000  0.791493  1
  Ga  Ga2  1  0.966281  0.250000  0.932563  1
  Ga  Ga3  1  0.033719  0.750000  0.067437  1
  Si  Si4  1  0.834153  0.250000  0.668306  1
  Si  Si5  1  0.165847  0.750000  0.331694  1
  Ag  Ag6  1  0.249416  0.250000  0.498832  1
  Ag  Ag7  1  0.750584  0.750000  0.501168  1
