# generated using pymatgen
data_NpNiAsH
_symmetry_space_group_name_H-M   'P 1'
_cell_length_a   3.98108500
_cell_length_b   8.25499000
_cell_length_c   7.03800300
_cell_angle_alpha   90.00000000
_cell_angle_beta   90.00000000
_cell_angle_gamma   90.00000000
_symmetry_Int_Tables_number   1
_chemical_formula_structural   NpNiAsH
_chemical_formula_sum   'Np4 Ni4 As4 H4'
_cell_volume   231.29564168
_cell_formula_units_Z   4
loop_
 _symmetry_equiv_pos_site_id
 _symmetry_equiv_pos_as_xyz
  1  'x, y, z'
loop_
 _atom_site_type_symbol
 _atom_site_label
 _atom_site_symmetry_multiplicity
 _atom_site_fract_x
 _atom_site_fract_y
 _atom_site_fract_z
 _atom_site_occupancy
  Np  Np0  1  0.750000  0.506170  0.756431  1
  Np  Np1  1  0.250000  0.493830  0.243569  1
  Np  Np2  1  0.250000  0.993830  0.256431  1
  Np  Np3  1  0.750000  0.006170  0.743569  1
  Ni  Ni4  1  0.750000  0.238165  0.410020  1
  Ni  Ni5  1  0.250000  0.761835  0.589980  1
  Ni  Ni6  1  0.250000  0.261835  0.910020  1
  Ni  Ni7  1  0.750000  0.738165  0.089980  1
  As  As8  1  0.750000  0.225615  0.077574  1
  As  As9  1  0.250000  0.774385  0.922426  1
  As  As10  1  0.250000  0.274385  0.577574  1
  As  As11  1  0.750000  0.725615  0.422426  1
  H  H12  1  0.250000  0.959727  0.580019  1
  H  H13  1  0.750000  0.040273  0.419981  1
  H  H14  1  0.750000  0.540273  0.080019  1
  H  H15  1  0.250000  0.459727  0.919981  1
