# generated using pymatgen
data_GaCo20(B3W)2
_symmetry_space_group_name_H-M   'P 1'
_cell_length_a   7.41345494
_cell_length_b   7.41345549
_cell_length_c   7.41345500
_cell_angle_alpha   59.99999774
_cell_angle_beta   59.99999526
_cell_angle_gamma   59.99999932
_symmetry_Int_Tables_number   1
_chemical_formula_structural   GaCo20(B3W)2
_chemical_formula_sum   'Ga1 Co20 B6 W2'
_cell_volume   288.10246184
_cell_formula_units_Z   1
loop_
 _symmetry_equiv_pos_site_id
 _symmetry_equiv_pos_as_xyz
  1  'x, y, z'
loop_
 _atom_site_type_symbol
 _atom_site_label
 _atom_site_symmetry_multiplicity
 _atom_site_fract_x
 _atom_site_fract_y
 _atom_site_fract_z
 _atom_site_occupancy
  Ga  Ga0  1  0.000000  0.000000  0.000000  1
  Co  Co1  1  0.617709  0.617709  0.146875  1
  Co  Co2  1  0.617709  0.146875  0.617709  1
  Co  Co3  1  0.146875  0.617709  0.617709  1
  Co  Co4  1  0.617709  0.617709  0.617709  1
  Co  Co5  1  0.382291  0.382291  0.853125  1
  Co  Co6  1  0.382291  0.853125  0.382291  1
  Co  Co7  1  0.853125  0.382291  0.382291  1
  Co  Co8  1  0.382291  0.382291  0.382291  1
  Co  Co9  1  0.000000  0.000000  0.342471  1
  Co  Co10  1  0.657529  0.000000  0.342471  1
  Co  Co11  1  0.000000  0.657529  0.342471  1
  Co  Co12  1  0.657529  0.342471  0.000000  1
  Co  Co13  1  0.000000  0.342471  0.000000  1
  Co  Co14  1  0.000000  0.342471  0.657529  1
  Co  Co15  1  0.342471  0.657529  0.000000  1
  Co  Co16  1  0.342471  0.000000  0.657529  1
  Co  Co17  1  0.342471  0.000000  0.000000  1
  Co  Co18  1  0.000000  0.000000  0.657529  1
  Co  Co19  1  0.000000  0.657529  0.000000  1
  Co  Co20  1  0.657529  0.000000  0.000000  1
  B  B21  1  0.723052  0.723052  0.276948  1
  B  B22  1  0.276948  0.723052  0.276948  1
  B  B23  1  0.723052  0.276948  0.276948  1
  B  B24  1  0.276948  0.276948  0.723052  1
  B  B25  1  0.723052  0.276948  0.723052  1
  B  B26  1  0.276948  0.723052  0.723052  1
  W  W27  1  0.750000  0.750000  0.750000  1
  W  W28  1  0.250000  0.250000  0.250000  1
