# generated using pymatgen
data_Li3Dy3ZnSi2
_symmetry_space_group_name_H-M   'P 1'
_cell_length_a   7.14707924
_cell_length_b   7.14827528
_cell_length_c   4.17030000
_cell_angle_alpha   90.00000000
_cell_angle_beta   90.00000000
_cell_angle_gamma   120.00811902
_symmetry_Int_Tables_number   1
_chemical_formula_structural   Li3Dy3ZnSi2
_chemical_formula_sum   'Li3 Dy3 Zn1 Si2'
_cell_volume   184.49825325
_cell_formula_units_Z   1
loop_
 _symmetry_equiv_pos_site_id
 _symmetry_equiv_pos_as_xyz
  1  'x, y, z'
loop_
 _atom_site_type_symbol
 _atom_site_label
 _atom_site_symmetry_multiplicity
 _atom_site_fract_x
 _atom_site_fract_y
 _atom_site_fract_z
 _atom_site_occupancy
  Li  Li0  1  0.245557  0.000175  0.500000  1
  Li  Li1  1  0.754481  0.754604  0.500000  1
  Li  Li2  1  0.000002  0.245421  0.500000  1
  Dy  Dy3  1  0.999988  0.571520  0.000000  1
  Dy  Dy4  1  0.571500  0.999924  0.000000  1
  Dy  Dy5  1  0.428490  0.428424  0.000000  1
  Zn  Zn6  1  0.000067  0.000317  0.000000  1
  Si  Si7  1  0.333076  0.666396  0.500000  1
  Si  Si8  1  0.666838  0.333219  0.500000  1
