# generated using pymatgen
data_DyTm6Sc9(In3Co)2
_symmetry_space_group_name_H-M   'P 1'
_cell_length_a   9.88345100
_cell_length_b   9.88345206
_cell_length_c   6.87007600
_cell_angle_alpha   90.00000000
_cell_angle_beta   90.00000000
_cell_angle_gamma   120.00000650
_symmetry_Int_Tables_number   1
_chemical_formula_structural   DyTm6Sc9(In3Co)2
_chemical_formula_sum   'Dy1 Tm6 Sc9 In6 Co2'
_cell_volume   581.17833738
_cell_formula_units_Z   1
loop_
 _symmetry_equiv_pos_site_id
 _symmetry_equiv_pos_as_xyz
  1  'x, y, z'
loop_
 _atom_site_type_symbol
 _atom_site_label
 _atom_site_symmetry_multiplicity
 _atom_site_fract_x
 _atom_site_fract_y
 _atom_site_fract_z
 _atom_site_occupancy
  Dy  Dy0  1  0.000000  0.000000  0.003477  1
  Tm  Tm1  1  0.533127  0.066254  0.509290  1
  Tm  Tm2  1  0.933746  0.466873  0.509290  1
  Tm  Tm3  1  0.533127  0.466873  0.509290  1
  Tm  Tm4  1  0.466542  0.933083  0.009545  1
  Tm  Tm5  1  0.066917  0.533458  0.009545  1
  Tm  Tm6  1  0.466542  0.533458  0.009545  1
  Sc  Sc7  1  0.179255  0.358510  0.715929  1
  Sc  Sc8  1  0.641490  0.820745  0.715929  1
  Sc  Sc9  1  0.179255  0.820745  0.715929  1
  Sc  Sc10  1  0.820290  0.640581  0.219091  1
  Sc  Sc11  1  0.359419  0.179710  0.219091  1
  Sc  Sc12  1  0.820290  0.179710  0.219091  1
  Sc  Sc13  1  0.666667  0.333333  0.907102  1
  Sc  Sc14  1  0.333333  0.666667  0.409337  1
  Sc  Sc15  1  0.000000  0.000000  0.503799  1
  In  In16  1  0.837231  0.674460  0.764920  1
  In  In17  1  0.325540  0.162769  0.764920  1
  In  In18  1  0.837231  0.162769  0.764920  1
  In  In19  1  0.162342  0.324685  0.271788  1
  In  In20  1  0.675315  0.837658  0.271788  1
  In  In21  1  0.162342  0.837658  0.271788  1
  Co  Co22  1  0.666667  0.333333  0.273243  1
  Co  Co23  1  0.333333  0.666667  0.775546  1
