# generated using pymatgen
data_Tm4Al4Ni2IrRh
_symmetry_space_group_name_H-M   'P 1'
_cell_length_a   4.21377800
_cell_length_b   6.68493061
_cell_length_c   7.76468071
_cell_angle_alpha   90.04883327
_cell_angle_beta   90.00000000
_cell_angle_gamma   90.00000000
_symmetry_Int_Tables_number   1
_chemical_formula_structural   Tm4Al4Ni2IrRh
_chemical_formula_sum   'Tm4 Al4 Ni2 Ir1 Rh1'
_cell_volume   218.72176341
_cell_formula_units_Z   1
loop_
 _symmetry_equiv_pos_site_id
 _symmetry_equiv_pos_as_xyz
  1  'x, y, z'
loop_
 _atom_site_type_symbol
 _atom_site_label
 _atom_site_symmetry_multiplicity
 _atom_site_fract_x
 _atom_site_fract_y
 _atom_site_fract_z
 _atom_site_occupancy
  Tm  Tm0  1  0.250000  0.967891  0.320240  1
  Tm  Tm1  1  0.750000  0.533334  0.826620  1
  Tm  Tm2  1  0.250000  0.467838  0.179884  1
  Tm  Tm3  1  0.750000  0.036968  0.673689  1
  Al  Al4  1  0.750000  0.632956  0.436902  1
  Al  Al5  1  0.750000  0.134112  0.063541  1
  Al  Al6  1  0.250000  0.360109  0.554718  1
  Al  Al7  1  0.250000  0.858708  0.946570  1
  Ni  Ni8  1  0.750000  0.768553  0.128395  1
  Ni  Ni9  1  0.750000  0.268562  0.372325  1
  Ir  Ir10  1  0.250000  0.234025  0.875562  1
  Rh  Rh11  1  0.250000  0.736944  0.621553  1
