# generated using pymatgen
data_Dy6ErTm3(CoBi2)2
_symmetry_space_group_name_H-M   'P 1'
_cell_length_a   7.92613050
_cell_length_b   8.86466023
_cell_length_c   12.37484882
_cell_angle_alpha   90.01924518
_cell_angle_beta   89.96299147
_cell_angle_gamma   90.01737084
_symmetry_Int_Tables_number   1
_chemical_formula_structural   Dy6ErTm3(CoBi2)2
_chemical_formula_sum   'Dy12 Er2 Tm6 Co4 Bi8'
_cell_volume   869.48697358
_cell_formula_units_Z   2
loop_
 _symmetry_equiv_pos_site_id
 _symmetry_equiv_pos_as_xyz
  1  'x, y, z'
loop_
 _atom_site_type_symbol
 _atom_site_label
 _atom_site_symmetry_multiplicity
 _atom_site_fract_x
 _atom_site_fract_y
 _atom_site_fract_z
 _atom_site_occupancy
  Dy  Dy0  1  0.847811  0.749963  0.801268  1
  Dy  Dy1  1  0.152189  0.250037  0.198732  1
  Dy  Dy2  1  0.347598  0.250106  0.698892  1
  Dy  Dy3  1  0.652402  0.749894  0.301108  1
  Dy  Dy4  1  0.379147  0.749794  0.687830  1
  Dy  Dy5  1  0.620853  0.250206  0.312170  1
  Dy  Dy6  1  0.879272  0.249995  0.812403  1
  Dy  Dy7  1  0.120728  0.750005  0.187597  1
  Dy  Dy8  1  0.950242  0.749791  0.502653  1
  Dy  Dy9  1  0.049758  0.250209  0.497347  1
  Dy  Dy10  1  0.450065  0.250012  0.997310  1
  Dy  Dy11  1  0.549935  0.749988  0.002690  1
  Er  Er12  1  0.673920  0.035104  0.563325  1
  Er  Er13  1  0.326080  0.964896  0.436675  1
  Tm  Tm14  1  0.172811  0.964840  0.936942  1
  Tm  Tm15  1  0.327165  0.535230  0.436907  1
  Tm  Tm16  1  0.827189  0.035160  0.063058  1
  Tm  Tm17  1  0.672835  0.464770  0.563093  1
  Tm  Tm18  1  0.827194  0.464836  0.063069  1
  Tm  Tm19  1  0.172806  0.535164  0.936931  1
  Co  Co20  1  0.560512  0.749574  0.507443  1
  Co  Co21  1  0.439488  0.250426  0.492557  1
  Co  Co22  1  0.060328  0.249999  0.992633  1
  Co  Co23  1  0.939672  0.750001  0.007367  1
  Bi  Bi24  1  0.568060  0.492561  0.826256  1
  Bi  Bi25  1  0.431940  0.507439  0.173744  1
  Bi  Bi26  1  0.068092  0.507443  0.673784  1
  Bi  Bi27  1  0.431994  0.992558  0.173683  1
  Bi  Bi28  1  0.931908  0.492557  0.326216  1
  Bi  Bi29  1  0.568006  0.007442  0.826317  1
  Bi  Bi30  1  0.931619  0.007479  0.326150  1
  Bi  Bi31  1  0.068381  0.992521  0.673850  1
