# generated using pymatgen
data_CeCoMo(PRu)3
_symmetry_space_group_name_H-M   'P 1'
_cell_length_a   3.84812400
_cell_length_b   10.83609700
_cell_length_c   12.44861600
_cell_angle_alpha   90.00000000
_cell_angle_beta   90.00000000
_cell_angle_gamma   90.00000000
_symmetry_Int_Tables_number   1
_chemical_formula_structural   CeCoMo(PRu)3
_chemical_formula_sum   'Ce4 Co4 Mo4 P12 Ru12'
_cell_volume   519.09041848
_cell_formula_units_Z   4
loop_
 _symmetry_equiv_pos_site_id
 _symmetry_equiv_pos_as_xyz
  1  'x, y, z'
loop_
 _atom_site_type_symbol
 _atom_site_label
 _atom_site_symmetry_multiplicity
 _atom_site_fract_x
 _atom_site_fract_y
 _atom_site_fract_z
 _atom_site_occupancy
  Ce  Ce0  1  0.250000  0.580440  0.705967  1
  Ce  Ce1  1  0.250000  0.919560  0.205967  1
  Ce  Ce2  1  0.750000  0.419560  0.294033  1
  Ce  Ce3  1  0.750000  0.080440  0.794033  1
  Co  Co4  1  0.250000  0.464137  0.938886  1
  Co  Co5  1  0.250000  0.035863  0.438886  1
  Co  Co6  1  0.750000  0.535863  0.061114  1
  Co  Co7  1  0.750000  0.964137  0.561114  1
  Mo  Mo8  1  0.250000  0.699447  0.989551  1
  Mo  Mo9  1  0.250000  0.800553  0.489551  1
  Mo  Mo10  1  0.750000  0.300553  0.010449  1
  Mo  Mo11  1  0.750000  0.199447  0.510449  1
  P  P12  1  0.250000  0.421644  0.109665  1
  P  P13  1  0.250000  0.078356  0.609665  1
  P  P14  1  0.750000  0.578356  0.890335  1
  P  P15  1  0.750000  0.921644  0.390335  1
  P  P16  1  0.250000  0.273285  0.868058  1
  P  P17  1  0.250000  0.226715  0.368058  1
  P  P18  1  0.750000  0.726715  0.131942  1
  P  P19  1  0.750000  0.773285  0.631942  1
  P  P20  1  0.250000  0.603841  0.393878  1
  P  P21  1  0.250000  0.896159  0.893878  1
  P  P22  1  0.750000  0.396159  0.606122  1
  P  P23  1  0.750000  0.103841  0.106122  1
  Ru  Ru24  1  0.250000  0.404003  0.483374  1
  Ru  Ru25  1  0.250000  0.095997  0.983374  1
  Ru  Ru26  1  0.750000  0.595997  0.516626  1
  Ru  Ru27  1  0.750000  0.904003  0.016626  1
  Ru  Ru28  1  0.250000  0.224526  0.176212  1
  Ru  Ru29  1  0.250000  0.275474  0.676212  1
  Ru  Ru30  1  0.750000  0.775474  0.823788  1
  Ru  Ru31  1  0.750000  0.724526  0.323788  1
  Ru  Ru32  1  0.250000  0.889807  0.697650  1
  Ru  Ru33  1  0.250000  0.610193  0.197650  1
  Ru  Ru34  1  0.750000  0.110193  0.302350  1
  Ru  Ru35  1  0.750000  0.389807  0.802350  1
