# generated using pymatgen
data_TaTi16Si16W3
_symmetry_space_group_name_H-M   'P 1'
_cell_length_a   6.66983742
_cell_length_b   6.66983742
_cell_length_c   12.20343574
_cell_angle_alpha   89.92856463
_cell_angle_beta   90.07143537
_cell_angle_gamma   89.97796244
_symmetry_Int_Tables_number   1
_chemical_formula_structural   TaTi16Si16W3
_chemical_formula_sum   'Ta1 Ti16 Si16 W3'
_cell_volume   542.89008133
_cell_formula_units_Z   1
loop_
 _symmetry_equiv_pos_site_id
 _symmetry_equiv_pos_as_xyz
  1  'x, y, z'
loop_
 _atom_site_type_symbol
 _atom_site_label
 _atom_site_symmetry_multiplicity
 _atom_site_fract_x
 _atom_site_fract_y
 _atom_site_fract_z
 _atom_site_occupancy
  Ta  Ta0  1  0.829047  0.829047  0.500000  1
  Ti  Ti1  1  0.995989  0.149396  0.622565  1
  Ti  Ti2  1  0.350366  0.494989  0.871697  1
  Ti  Ti3  1  0.649292  0.505646  0.371306  1
  Ti  Ti4  1  0.494989  0.350366  0.128303  1
  Ti  Ti5  1  0.505646  0.649292  0.628694  1
  Ti  Ti6  1  0.005450  0.850165  0.120638  1
  Ti  Ti7  1  0.149396  0.995989  0.377435  1
  Ti  Ti8  1  0.850165  0.005450  0.879362  1
  Ti  Ti9  1  0.003034  0.341517  0.221063  1
  Ti  Ti10  1  0.157200  0.503023  0.471605  1
  Ti  Ti11  1  0.841547  0.497502  0.972182  1
  Ti  Ti12  1  0.503023  0.157200  0.528395  1
  Ti  Ti13  1  0.497502  0.841547  0.027818  1
  Ti  Ti14  1  0.997791  0.658296  0.721803  1
  Ti  Ti15  1  0.341517  0.003034  0.778937  1
  Ti  Ti16  1  0.658296  0.997791  0.278197  1
  Si  Si17  1  0.043894  0.302000  0.813981  1
  Si  Si18  1  0.197970  0.543495  0.063524  1
  Si  Si19  1  0.801159  0.452797  0.564403  1
  Si  Si20  1  0.543495  0.197970  0.936476  1
  Si  Si21  1  0.452797  0.801159  0.435597  1
  Si  Si22  1  0.957758  0.696842  0.312261  1
  Si  Si23  1  0.302000  0.043894  0.186019  1
  Si  Si24  1  0.696842  0.957758  0.687739  1
  Si  Si25  1  0.293798  0.359263  0.672274  1
  Si  Si26  1  0.141209  0.793758  0.922027  1
  Si  Si27  1  0.859342  0.208134  0.422094  1
  Si  Si28  1  0.793758  0.141209  0.077973  1
  Si  Si29  1  0.208134  0.859342  0.577906  1
  Si  Si30  1  0.706199  0.641260  0.171952  1
  Si  Si31  1  0.359263  0.293798  0.327726  1
  Si  Si32  1  0.641260  0.706199  0.828048  1
  W  W33  1  0.171311  0.171311  0.000000  1
  W  W34  1  0.328889  0.670672  0.248928  1
  W  W35  1  0.670672  0.328889  0.751072  1
