# generated using pymatgen
data_Rb6Na2MgMnBr12
_symmetry_space_group_name_H-M   'P 1'
_cell_length_a   9.18322524
_cell_length_b   9.18322578
_cell_length_c   9.18322535
_cell_angle_alpha   92.95611076
_cell_angle_beta   92.95610820
_cell_angle_gamma   92.95610690
_symmetry_Int_Tables_number   1
_chemical_formula_structural   Rb6Na2MgMnBr12
_chemical_formula_sum   'Rb6 Na2 Mg1 Mn1 Br12'
_cell_volume   771.23403723
_cell_formula_units_Z   1
loop_
 _symmetry_equiv_pos_site_id
 _symmetry_equiv_pos_as_xyz
  1  'x, y, z'
loop_
 _atom_site_type_symbol
 _atom_site_label
 _atom_site_symmetry_multiplicity
 _atom_site_fract_x
 _atom_site_fract_y
 _atom_site_fract_z
 _atom_site_occupancy
  Rb  Rb0  1  0.128104  0.371723  0.750054  1
  Rb  Rb1  1  0.750054  0.128104  0.371723  1
  Rb  Rb2  1  0.371723  0.750054  0.128104  1
  Rb  Rb3  1  0.249946  0.871896  0.628277  1
  Rb  Rb4  1  0.628277  0.249946  0.871896  1
  Rb  Rb5  1  0.871896  0.628277  0.249946  1
  Na  Na6  1  0.249906  0.249906  0.249906  1
  Na  Na7  1  0.750094  0.750094  0.750094  1
  Mg  Mg8  1  0.500000  0.500000  0.500000  1
  Mn  Mn9  1  0.000000  0.000000  0.000000  1
  Br  Br10  1  0.215310  0.541028  0.418060  1
  Br  Br11  1  0.418060  0.215310  0.541028  1
  Br  Br12  1  0.541028  0.418060  0.215310  1
  Br  Br13  1  0.918038  0.041010  0.715270  1
  Br  Br14  1  0.715270  0.918038  0.041010  1
  Br  Br15  1  0.041010  0.715270  0.918038  1
  Br  Br16  1  0.784690  0.458972  0.581940  1
  Br  Br17  1  0.581940  0.784690  0.458972  1
  Br  Br18  1  0.458972  0.581940  0.784690  1
  Br  Br19  1  0.081962  0.958990  0.284730  1
  Br  Br20  1  0.284730  0.081962  0.958990  1
  Br  Br21  1  0.958990  0.284730  0.081962  1
