# generated using pymatgen
data_LaNd15MgHg3Rh4
_symmetry_space_group_name_H-M   'P 1'
_cell_length_a   9.92564378
_cell_length_b   9.97009190
_cell_length_c   9.97009164
_cell_angle_alpha   59.92446668
_cell_angle_beta   59.90265165
_cell_angle_gamma   59.90264886
_symmetry_Int_Tables_number   1
_chemical_formula_structural   LaNd15MgHg3Rh4
_chemical_formula_sum   'La1 Nd15 Mg1 Hg3 Rh4'
_cell_volume   696.23138114
_cell_formula_units_Z   1
loop_
 _symmetry_equiv_pos_site_id
 _symmetry_equiv_pos_as_xyz
  1  'x, y, z'
loop_
 _atom_site_type_symbol
 _atom_site_label
 _atom_site_symmetry_multiplicity
 _atom_site_fract_x
 _atom_site_fract_y
 _atom_site_fract_z
 _atom_site_occupancy
  La  La0  1  0.597548  0.596434  0.596434  1
  Nd  Nd1  1  0.599874  0.598646  0.201825  1
  Nd  Nd2  1  0.599874  0.201825  0.598646  1
  Nd  Nd3  1  0.194182  0.601654  0.601654  1
  Nd  Nd4  1  0.058414  0.441522  0.441522  1
  Nd  Nd5  1  0.436717  0.061092  0.061092  1
  Nd  Nd6  1  0.437171  0.062112  0.439198  1
  Nd  Nd7  1  0.056829  0.441617  0.058358  1
  Nd  Nd8  1  0.437171  0.439198  0.062112  1
  Nd  Nd9  1  0.056829  0.058358  0.441617  1
  Nd  Nd10  1  0.187169  0.813655  0.813655  1
  Nd  Nd11  1  0.810648  0.188387  0.188387  1
  Nd  Nd12  1  0.811661  0.187551  0.813952  1
  Nd  Nd13  1  0.187903  0.812047  0.187521  1
  Nd  Nd14  1  0.811661  0.813952  0.187551  1
  Nd  Nd15  1  0.187903  0.187521  0.812047  1
  Mg  Mg16  1  0.536658  0.821494  0.821494  1
  Hg  Hg17  1  0.831087  0.836187  0.836187  1
  Hg  Hg18  1  0.831869  0.837372  0.495701  1
  Hg  Hg19  1  0.831869  0.495701  0.837372  1
  Rh  Rh20  1  0.390633  0.392774  0.392774  1
  Rh  Rh21  1  0.392073  0.393758  0.823465  1
  Rh  Rh22  1  0.392073  0.823465  0.393758  1
  Rh  Rh23  1  0.822182  0.393680  0.393680  1
