# generated using pymatgen
data_Nb6ReSi6Ru3W2
_symmetry_space_group_name_H-M   'P 1'
_cell_length_a   7.55126792
_cell_length_b   7.55985023
_cell_length_c   7.54770254
_cell_angle_alpha   126.93771466
_cell_angle_beta   124.53822882
_cell_angle_gamma   80.24664906
_symmetry_Int_Tables_number   1
_chemical_formula_structural   Nb6ReSi6Ru3W2
_chemical_formula_sum   'Nb6 Re1 Si6 Ru3 W2'
_cell_volume   273.92148142
_cell_formula_units_Z   1
loop_
 _symmetry_equiv_pos_site_id
 _symmetry_equiv_pos_as_xyz
  1  'x, y, z'
loop_
 _atom_site_type_symbol
 _atom_site_label
 _atom_site_symmetry_multiplicity
 _atom_site_fract_x
 _atom_site_fract_y
 _atom_site_fract_z
 _atom_site_occupancy
  Nb  Nb0  1  0.555579  0.090406  0.031260  1
  Nb  Nb1  1  0.440166  0.478011  0.535699  1
  Nb  Nb2  1  0.957726  0.494066  0.034605  1
  Nb  Nb3  1  0.042355  0.066541  0.528948  1
  Nb  Nb4  1  0.757729  0.921154  0.668780  1
  Nb  Nb5  1  0.246383  0.916626  0.165407  1
  Re  Re6  1  0.161521  0.748990  0.656338  1
  Si  Si7  1  0.773964  0.548091  0.269755  1
  Si  Si8  1  0.220453  0.490379  0.772650  1
  Si  Si9  1  0.337632  0.817837  0.491271  1
  Si  Si10  1  0.666521  0.158534  0.483504  1
  Si  Si11  1  0.825160  0.817426  0.983475  1
  Si  Si12  1  0.174922  0.162682  0.994915  1
  Ru  Ru13  1  0.838884  0.492992  0.587727  1
  Ru  Ru14  1  0.587336  0.746447  0.081056  1
  Ru  Ru15  1  0.409496  0.494235  0.156865  1
  W  W16  1  0.503995  0.249573  0.750839  1
  W  W17  1  0.000179  0.248207  0.249108  1
