# generated using pymatgen
data_Nb6Co4MoOsN2
_symmetry_space_group_name_H-M   'P 1'
_cell_length_a   8.14914498
_cell_length_b   8.14914518
_cell_length_c   8.18168500
_cell_angle_alpha   59.86782739
_cell_angle_beta   59.86782658
_cell_angle_gamma   59.72336109
_symmetry_Int_Tables_number   1
_chemical_formula_structural   Nb6Co4MoOsN2
_chemical_formula_sum   'Nb12 Co8 Mo2 Os2 N4'
_cell_volume   382.62094980
_cell_formula_units_Z   2
loop_
 _symmetry_equiv_pos_site_id
 _symmetry_equiv_pos_as_xyz
  1  'x, y, z'
loop_
 _atom_site_type_symbol
 _atom_site_label
 _atom_site_symmetry_multiplicity
 _atom_site_fract_x
 _atom_site_fract_y
 _atom_site_fract_z
 _atom_site_occupancy
  Nb  Nb0  1  0.805188  0.805188  0.194812  1
  Nb  Nb1  1  0.188648  0.188648  0.811352  1
  Nb  Nb2  1  0.807969  0.194177  0.808698  1
  Nb  Nb3  1  0.194177  0.807969  0.189156  1
  Nb  Nb4  1  0.194177  0.807969  0.808698  1
  Nb  Nb5  1  0.807969  0.194177  0.189156  1
  Nb  Nb6  1  0.444812  0.444812  0.055188  1
  Nb  Nb7  1  0.061352  0.061352  0.438648  1
  Nb  Nb8  1  0.442031  0.055823  0.441302  1
  Nb  Nb9  1  0.055823  0.442031  0.060844  1
  Nb  Nb10  1  0.055823  0.442031  0.441302  1
  Nb  Nb11  1  0.442031  0.055823  0.060844  1
  Co  Co12  1  0.730298  0.423085  0.423310  1
  Co  Co13  1  0.423085  0.730298  0.423310  1
  Co  Co14  1  0.421731  0.421731  0.735306  1
  Co  Co15  1  0.421731  0.421731  0.421233  1
  Co  Co16  1  0.519702  0.826915  0.826690  1
  Co  Co17  1  0.826915  0.519702  0.826690  1
  Co  Co18  1  0.828269  0.828269  0.514694  1
  Co  Co19  1  0.828269  0.828269  0.828767  1
  Mo  Mo20  1  0.125000  0.625000  0.625000  1
  Mo  Mo21  1  0.625000  0.125000  0.625000  1
  Os  Os22  1  0.625000  0.625000  0.125000  1
  Os  Os23  1  0.625000  0.625000  0.625000  1
  N  N24  1  0.625000  0.125000  0.125000  1
  N  N25  1  0.125000  0.625000  0.125000  1
  N  N26  1  0.125000  0.125000  0.625000  1
  N  N27  1  0.125000  0.125000  0.125000  1
