# generated using pymatgen
data_HfTh2(NbSi2)2
_symmetry_space_group_name_H-M   'P 1'
_cell_length_a   7.26767419
_cell_length_b   7.26281021
_cell_length_c   13.49838319
_cell_angle_alpha   90.01471021
_cell_angle_beta   89.98744221
_cell_angle_gamma   89.97689398
_symmetry_Int_Tables_number   1
_chemical_formula_structural   HfTh2(NbSi2)2
_chemical_formula_sum   'Hf4 Th8 Nb8 Si16'
_cell_volume   712.49502738
_cell_formula_units_Z   4
loop_
 _symmetry_equiv_pos_site_id
 _symmetry_equiv_pos_as_xyz
  1  'x, y, z'
loop_
 _atom_site_type_symbol
 _atom_site_label
 _atom_site_symmetry_multiplicity
 _atom_site_fract_x
 _atom_site_fract_y
 _atom_site_fract_z
 _atom_site_occupancy
  Hf  Hf0  1  0.156852  0.995997  0.373999  1
  Hf  Hf1  1  0.841705  0.004763  0.875039  1
  Hf  Hf2  1  0.505445  0.655384  0.624076  1
  Hf  Hf3  1  0.341595  0.495124  0.875792  1
  Th  Th4  1  0.000063  0.339225  0.217452  1
  Th  Th5  1  0.999107  0.660164  0.716102  1
  Th  Th6  1  0.161176  0.500679  0.465675  1
  Th  Th7  1  0.500209  0.838599  0.035080  1
  Th  Th8  1  0.839178  0.499603  0.968776  1
  Th  Th9  1  0.499816  0.161656  0.531924  1
  Th  Th10  1  0.338131  0.999846  0.783360  1
  Th  Th11  1  0.662156  0.001159  0.282343  1
  Nb  Nb12  1  0.170292  0.168424  0.001582  1
  Nb  Nb13  1  0.830941  0.830557  0.499145  1
  Nb  Nb14  1  0.332479  0.668080  0.248635  1
  Nb  Nb15  1  0.670597  0.329105  0.748703  1
  Nb  Nb16  1  0.494186  0.343998  0.124445  1
  Nb  Nb17  1  0.658972  0.505519  0.375964  1
  Nb  Nb18  1  0.992031  0.158394  0.625288  1
  Nb  Nb19  1  0.005435  0.843562  0.126970  1
  Si  Si20  1  0.289183  0.043507  0.184695  1
  Si  Si21  1  0.710821  0.961780  0.684086  1
  Si  Si22  1  0.460703  0.788166  0.433413  1
  Si  Si23  1  0.210467  0.541274  0.066021  1
  Si  Si24  1  0.541961  0.208357  0.937524  1
  Si  Si25  1  0.792480  0.455439  0.562444  1
  Si  Si26  1  0.040327  0.291560  0.813206  1
  Si  Si27  1  0.954669  0.709084  0.313466  1
  Si  Si28  1  0.375697  0.301904  0.313639  1
  Si  Si29  1  0.630551  0.699200  0.815156  1
  Si  Si30  1  0.199381  0.875186  0.566102  1
  Si  Si31  1  0.129179  0.799099  0.937965  1
  Si  Si32  1  0.797281  0.126259  0.067390  1
  Si  Si33  1  0.870685  0.205382  0.435747  1
  Si  Si34  1  0.293165  0.369197  0.683111  1
  Si  Si35  1  0.703085  0.624769  0.185683  1
