# generated using pymatgen
data_Tb9DyS10
_symmetry_space_group_name_H-M   'P 1'
_cell_length_a   6.78938051
_cell_length_b   7.81242909
_cell_length_c   8.83937837
_cell_angle_alpha   103.17950923
_cell_angle_beta   96.99593151
_cell_angle_gamma   106.83598618
_symmetry_Int_Tables_number   1
_chemical_formula_structural   Tb9DyS10
_chemical_formula_sum   'Tb9 Dy1 S10'
_cell_volume   427.97083027
_cell_formula_units_Z   1
loop_
 _symmetry_equiv_pos_site_id
 _symmetry_equiv_pos_as_xyz
  1  'x, y, z'
loop_
 _atom_site_type_symbol
 _atom_site_label
 _atom_site_symmetry_multiplicity
 _atom_site_fract_x
 _atom_site_fract_y
 _atom_site_fract_z
 _atom_site_occupancy
  Tb  Tb0  1  0.799753  0.599981  0.599279  1
  Tb  Tb1  1  0.598520  0.199335  0.200660  1
  Tb  Tb2  1  0.401480  0.800665  0.799340  1
  Tb  Tb3  1  0.600164  0.701151  0.201292  1
  Tb  Tb4  1  0.200247  0.400019  0.400721  1
  Tb  Tb5  1  0.399836  0.298849  0.798708  1
  Tb  Tb6  1  0.000000  0.000000  0.000000  1
  Tb  Tb7  1  0.201271  0.900774  0.401214  1
  Tb  Tb8  1  0.798729  0.099226  0.598786  1
  Dy  Dy9  1  0.000000  0.500000  0.000000  1
  S  S10  1  0.700434  0.649234  0.900734  1
  S  S11  1  0.500240  0.250426  0.500020  1
  S  S12  1  0.701020  0.151203  0.900697  1
  S  S13  1  0.298980  0.848797  0.099303  1
  S  S14  1  0.499760  0.749574  0.499980  1
  S  S15  1  0.099224  0.450066  0.701122  1
  S  S16  1  0.299566  0.350766  0.099266  1
  S  S17  1  0.900958  0.050133  0.299766  1
  S  S18  1  0.099042  0.949867  0.700234  1
  S  S19  1  0.900776  0.549934  0.298878  1
