# generated using pymatgen
data_La2BeB3Ir3Rh2
_symmetry_space_group_name_H-M   'P 1'
_cell_length_a   7.71647290
_cell_length_b   6.46319252
_cell_length_c   5.73627464
_cell_angle_alpha   77.10757056
_cell_angle_beta   54.99579816
_cell_angle_gamma   46.68635294
_symmetry_Int_Tables_number   1
_chemical_formula_structural   La2BeB3Ir3Rh2
_chemical_formula_sum   'La2 Be1 B3 Ir3 Rh2'
_cell_volume   163.38822529
_cell_formula_units_Z   1
loop_
 _symmetry_equiv_pos_site_id
 _symmetry_equiv_pos_as_xyz
  1  'x, y, z'
loop_
 _atom_site_type_symbol
 _atom_site_label
 _atom_site_symmetry_multiplicity
 _atom_site_fract_x
 _atom_site_fract_y
 _atom_site_fract_z
 _atom_site_occupancy
  La  La0  1  0.863869  0.862781  0.137625  1
  La  La1  1  0.144058  0.142165  0.856067  1
  Be  Be2  1  0.784625  0.479101  0.522499  1
  B  B3  1  0.201595  0.536942  0.468175  1
  B  B4  1  0.540474  0.206007  0.789589  1
  B  B5  1  0.471754  0.784000  0.207443  1
  Ir  Ir6  1  0.750314  0.754241  0.757247  1
  Ir  Ir7  1  0.495618  0.499965  0.005968  1
  Ir  Ir8  1  0.486102  0.494619  0.506931  1
  Rh  Rh9  1  0.002066  0.996355  0.500180  1
  Rh  Rh10  1  0.259523  0.243824  0.248277  1
