# generated using pymatgen
data_Tm9Si16W11
_symmetry_space_group_name_H-M   'P 1'
_cell_length_a   6.73604612
_cell_length_b   6.92489727
_cell_length_c   13.03022919
_cell_angle_alpha   89.85662371
_cell_angle_beta   89.91410781
_cell_angle_gamma   89.79812160
_symmetry_Int_Tables_number   1
_chemical_formula_structural   Tm9Si16W11
_chemical_formula_sum   'Tm9 Si16 W11'
_cell_volume   607.80728850
_cell_formula_units_Z   1
loop_
 _symmetry_equiv_pos_site_id
 _symmetry_equiv_pos_as_xyz
  1  'x, y, z'
loop_
 _atom_site_type_symbol
 _atom_site_label
 _atom_site_symmetry_multiplicity
 _atom_site_fract_x
 _atom_site_fract_y
 _atom_site_fract_z
 _atom_site_occupancy
  Tm  Tm0  1  0.004021  0.328959  0.906161  1
  Tm  Tm1  1  0.503863  0.172277  0.591319  1
  Tm  Tm2  1  0.498684  0.832068  0.095008  1
  Tm  Tm3  1  0.994459  0.669220  0.406522  1
  Tm  Tm4  1  0.004266  0.328111  0.590282  1
  Tm  Tm5  1  0.502416  0.173853  0.904319  1
  Tm  Tm6  1  0.494872  0.831468  0.406330  1
  Tm  Tm7  1  0.994902  0.668579  0.097170  1
  Tm  Tm8  1  0.834719  0.829798  0.877562  1
  Si  Si9  1  0.656124  0.530557  0.961442  1
  Si  Si10  1  0.165552  0.955969  0.542286  1
  Si  Si11  1  0.838473  0.047888  0.053502  1
  Si  Si12  1  0.335956  0.458307  0.452980  1
  Si  Si13  1  0.334661  0.459439  0.045277  1
  Si  Si14  1  0.834932  0.041515  0.454582  1
  Si  Si15  1  0.179558  0.958815  0.960737  1
  Si  Si16  1  0.664318  0.543770  0.542169  1
  Si  Si17  1  0.300831  0.363088  0.747751  1
  Si  Si18  1  0.798556  0.139557  0.747642  1
  Si  Si19  1  0.197592  0.865816  0.250535  1
  Si  Si20  1  0.694812  0.635736  0.251836  1
  Si  Si21  1  0.039701  0.618478  0.744030  1
  Si  Si22  1  0.530144  0.875732  0.744756  1
  Si  Si23  1  0.465703  0.128516  0.252410  1
  Si  Si24  1  0.963778  0.373639  0.251619  1
  W  W25  1  0.333155  0.660730  0.621759  1
  W  W26  1  0.662420  0.337282  0.131130  1
  W  W27  1  0.167661  0.162874  0.375136  1
  W  W28  1  0.173938  0.167045  0.127681  1
  W  W29  1  0.669777  0.338788  0.377009  1
  W  W30  1  0.330874  0.663441  0.872964  1
  W  W31  1  0.835752  0.835326  0.621597  1
  W  W32  1  0.163072  0.994494  0.745276  1
  W  W33  1  0.661855  0.503524  0.745468  1
  W  W34  1  0.332238  0.501228  0.250764  1
  W  W35  1  0.836362  0.004114  0.252990  1
