# generated using pymatgen
data_Sm4Al4Ru3Rh
_symmetry_space_group_name_H-M   'P 1'
_cell_length_a   4.09640800
_cell_length_b   7.13672815
_cell_length_c   8.20288635
_cell_angle_alpha   89.95983617
_cell_angle_beta   90.00000000
_cell_angle_gamma   90.00000000
_symmetry_Int_Tables_number   1
_chemical_formula_structural   Sm4Al4Ru3Rh
_chemical_formula_sum   'Sm4 Al4 Ru3 Rh1'
_cell_volume   239.81091567
_cell_formula_units_Z   1
loop_
 _symmetry_equiv_pos_site_id
 _symmetry_equiv_pos_as_xyz
  1  'x, y, z'
loop_
 _atom_site_type_symbol
 _atom_site_label
 _atom_site_symmetry_multiplicity
 _atom_site_fract_x
 _atom_site_fract_y
 _atom_site_fract_z
 _atom_site_occupancy
  Sm  Sm0  1  0.250000  0.532627  0.181524  1
  Sm  Sm1  1  0.750000  0.468481  0.820296  1
  Sm  Sm2  1  0.750000  0.964964  0.682167  1
  Sm  Sm3  1  0.250000  0.030947  0.316516  1
  Al  Al4  1  0.250000  0.638872  0.559888  1
  Al  Al5  1  0.750000  0.363771  0.439463  1
  Al  Al6  1  0.750000  0.862793  0.058781  1
  Al  Al7  1  0.250000  0.136007  0.942506  1
  Ru  Ru8  1  0.250000  0.771747  0.878942  1
  Ru  Ru9  1  0.750000  0.228883  0.121244  1
  Ru  Ru10  1  0.750000  0.727171  0.380652  1
  Rh  Rh11  1  0.250000  0.273737  0.618019  1
