# generated using pymatgen
data_ErU2Sn3Ir2Ru
_symmetry_space_group_name_H-M   'P 1'
_cell_length_a   7.43534542
_cell_length_b   7.32883766
_cell_length_c   3.99852800
_cell_angle_alpha   90.00000000
_cell_angle_beta   90.00000000
_cell_angle_gamma   119.52726533
_symmetry_Int_Tables_number   1
_chemical_formula_structural   ErU2Sn3Ir2Ru
_chemical_formula_sum   'Er1 U2 Sn3 Ir2 Ru1'
_cell_volume   189.59032744
_cell_formula_units_Z   1
loop_
 _symmetry_equiv_pos_site_id
 _symmetry_equiv_pos_as_xyz
  1  'x, y, z'
loop_
 _atom_site_type_symbol
 _atom_site_label
 _atom_site_symmetry_multiplicity
 _atom_site_fract_x
 _atom_site_fract_y
 _atom_site_fract_z
 _atom_site_occupancy
  Er  Er0  1  0.000000  0.591552  0.500000  1
  U  U1  1  0.413215  0.411674  0.500000  1
  U  U2  1  0.586785  0.998459  0.500000  1
  Sn  Sn3  1  0.755394  0.746193  0.000000  1
  Sn  Sn4  1  0.244606  0.990799  0.000000  1
  Sn  Sn5  1  0.000000  0.263922  0.000000  1
  Ir  Ir6  1  0.647993  0.316709  0.000000  1
  Ir  Ir7  1  0.352007  0.668716  0.000000  1
  Ru  Ru8  1  0.000000  0.011976  0.500000  1
