# generated using pymatgen
data_HoTh7(Si3Ru)4
_symmetry_space_group_name_H-M   'P 1'
_cell_length_a   8.28128000
_cell_length_b   8.28128049
_cell_length_c   8.23659600
_cell_angle_alpha   90.00000000
_cell_angle_beta   90.00000000
_cell_angle_gamma   119.99999005
_symmetry_Int_Tables_number   1
_chemical_formula_structural   HoTh7(Si3Ru)4
_chemical_formula_sum   'Ho1 Th7 Si12 Ru4'
_cell_volume   489.18530608
_cell_formula_units_Z   1
loop_
 _symmetry_equiv_pos_site_id
 _symmetry_equiv_pos_as_xyz
  1  'x, y, z'
loop_
 _atom_site_type_symbol
 _atom_site_label
 _atom_site_symmetry_multiplicity
 _atom_site_fract_x
 _atom_site_fract_y
 _atom_site_fract_z
 _atom_site_occupancy
  Ho  Ho0  1  0.000000  0.000000  0.750000  1
  Th  Th1  1  0.500089  0.000176  0.250000  1
  Th  Th2  1  0.500006  0.000014  0.750000  1
  Th  Th3  1  0.999824  0.499911  0.250000  1
  Th  Th4  1  0.999986  0.499994  0.750000  1
  Th  Th5  1  0.500089  0.499911  0.250000  1
  Th  Th6  1  0.500006  0.499994  0.750000  1
  Th  Th7  1  0.000000  0.000000  0.250000  1
  Si  Si8  1  0.165666  0.331329  0.999486  1
  Si  Si9  1  0.834266  0.668532  0.999979  1
  Si  Si10  1  0.668671  0.834334  0.999486  1
  Si  Si11  1  0.834266  0.668532  0.500021  1
  Si  Si12  1  0.331468  0.165734  0.999979  1
  Si  Si13  1  0.165666  0.331329  0.500514  1
  Si  Si14  1  0.165666  0.834334  0.999486  1
  Si  Si15  1  0.331468  0.165734  0.500021  1
  Si  Si16  1  0.834266  0.165734  0.999979  1
  Si  Si17  1  0.668671  0.834334  0.500514  1
  Si  Si18  1  0.834266  0.165734  0.500021  1
  Si  Si19  1  0.165666  0.834334  0.500514  1
  Ru  Ru20  1  0.333333  0.666667  0.993295  1
  Ru  Ru21  1  0.666667  0.333333  0.993061  1
  Ru  Ru22  1  0.666667  0.333333  0.506939  1
  Ru  Ru23  1  0.333333  0.666667  0.506705  1
