# generated using pymatgen
data_Tb6Al24FeRu5Au2
_symmetry_space_group_name_H-M   'P 1'
_cell_length_a   8.87060469
_cell_length_b   8.82025028
_cell_length_c   9.54547105
_cell_angle_alpha   90.00000359
_cell_angle_beta   89.93206966
_cell_angle_gamma   119.81239555
_symmetry_Int_Tables_number   1
_chemical_formula_structural   Tb6Al24FeRu5Au2
_chemical_formula_sum   'Tb6 Al24 Fe1 Ru5 Au2'
_cell_volume   648.00689488
_cell_formula_units_Z   1
loop_
 _symmetry_equiv_pos_site_id
 _symmetry_equiv_pos_as_xyz
  1  'x, y, z'
loop_
 _atom_site_type_symbol
 _atom_site_label
 _atom_site_symmetry_multiplicity
 _atom_site_fract_x
 _atom_site_fract_y
 _atom_site_fract_z
 _atom_site_occupancy
  Tb  Tb0  1  0.383759  0.191879  0.252246  1
  Tb  Tb1  1  0.808682  0.193844  0.246839  1
  Tb  Tb2  1  0.808682  0.614838  0.246839  1
  Tb  Tb3  1  0.616241  0.808121  0.747754  1
  Tb  Tb4  1  0.191318  0.806156  0.753161  1
  Tb  Tb5  1  0.191318  0.385162  0.753161  1
  Al  Al6  1  0.435213  0.871578  0.242623  1
  Al  Al7  1  0.121742  0.560871  0.249999  1
  Al  Al8  1  0.435213  0.563635  0.242623  1
  Al  Al9  1  0.564787  0.128422  0.757377  1
  Al  Al10  1  0.878258  0.439129  0.750001  1
  Al  Al11  1  0.564787  0.436365  0.757377  1
  Al  Al12  1  0.151752  0.829080  0.419182  1
  Al  Al13  1  0.151752  0.322674  0.419182  1
  Al  Al14  1  0.682416  0.841208  0.415995  1
  Al  Al15  1  0.848248  0.170920  0.580818  1
  Al  Al16  1  0.848248  0.677326  0.580818  1
  Al  Al17  1  0.317584  0.158792  0.584005  1
  Al  Al18  1  0.839009  0.160552  0.925545  1
  Al  Al19  1  0.839009  0.678456  0.925545  1
  Al  Al20  1  0.320541  0.160271  0.929210  1
  Al  Al21  1  0.160991  0.839448  0.074455  1
  Al  Al22  1  0.160991  0.321544  0.074455  1
  Al  Al23  1  0.679459  0.839729  0.070790  1
  Al  Al24  1  0.321179  0.660590  0.528899  1
  Al  Al25  1  0.678821  0.339410  0.471101  1
  Al  Al26  1  0.666519  0.333259  0.023818  1
  Al  Al27  1  0.333481  0.666741  0.976182  1
  Al  Al28  1  0.002845  0.001422  0.242985  1
  Al  Al29  1  0.997155  0.998578  0.757015  1
  Fe  Fe30  1  0.000000  0.000000  0.000000  1
  Ru  Ru31  1  0.000000  0.000000  0.500000  1
  Ru  Ru32  1  0.000000  0.500000  0.500000  1
  Ru  Ru33  1  0.500000  0.000000  0.000000  1
  Ru  Ru34  1  0.000000  0.500000  0.000000  1
  Ru  Ru35  1  0.500000  0.500000  0.000000  1
  Au  Au36  1  0.500000  0.000000  0.500000  1
  Au  Au37  1  0.500000  0.500000  0.500000  1
