# generated using pymatgen
data_Rb2Sn(OF3)2
_symmetry_space_group_name_H-M   'P 1'
_cell_length_a   6.44514494
_cell_length_b   6.44393176
_cell_length_c   5.66948089
_cell_angle_alpha   82.34145821
_cell_angle_beta   82.21021360
_cell_angle_gamma   86.87966430
_symmetry_Int_Tables_number   1
_chemical_formula_structural   Rb2Sn(OF3)2
_chemical_formula_sum   'Rb2 Sn1 O2 F6'
_cell_volume   231.05278304
_cell_formula_units_Z   1
loop_
 _symmetry_equiv_pos_site_id
 _symmetry_equiv_pos_as_xyz
  1  'x, y, z'
loop_
 _atom_site_type_symbol
 _atom_site_label
 _atom_site_symmetry_multiplicity
 _atom_site_fract_x
 _atom_site_fract_y
 _atom_site_fract_z
 _atom_site_occupancy
  Rb  Rb0  1  0.500000  0.000000  0.500000  1
  Rb  Rb1  1  0.000000  0.500000  0.500000  1
  Sn  Sn2  1  0.000000  0.000000  0.000000  1
  O  O3  1  0.454020  0.454285  0.092715  1
  O  O4  1  0.545980  0.545715  0.907285  1
  F  F5  1  0.205270  0.881308  0.223412  1
  F  F6  1  0.880747  0.205320  0.223883  1
  F  F7  1  0.794730  0.118692  0.776588  1
  F  F8  1  0.119253  0.794680  0.776117  1
  F  F9  1  0.792325  0.792135  0.177650  1
  F  F10  1  0.207675  0.207865  0.822350  1
