# generated using pymatgen
data_Sm2Th3Si12Ir19
_symmetry_space_group_name_H-M   'P 1'
_cell_length_a   12.96895200
_cell_length_b   12.96895346
_cell_length_c   4.02080600
_cell_angle_alpha   90.00000000
_cell_angle_beta   90.00000000
_cell_angle_gamma   120.00000138
_symmetry_Int_Tables_number   1
_chemical_formula_structural   Sm2Th3Si12Ir19
_chemical_formula_sum   'Sm2 Th3 Si12 Ir19'
_cell_volume   585.67078353
_cell_formula_units_Z   1
loop_
 _symmetry_equiv_pos_site_id
 _symmetry_equiv_pos_as_xyz
  1  'x, y, z'
loop_
 _atom_site_type_symbol
 _atom_site_label
 _atom_site_symmetry_multiplicity
 _atom_site_fract_x
 _atom_site_fract_y
 _atom_site_fract_z
 _atom_site_occupancy
  Sm  Sm0  1  0.333333  0.666667  0.000000  1
  Sm  Sm1  1  0.666667  0.333333  0.000000  1
  Th  Th2  1  0.000000  0.813821  0.500000  1
  Th  Th3  1  0.186179  0.186179  0.500000  1
  Th  Th4  1  0.813821  0.000000  0.500000  1
  Si  Si5  1  0.000000  0.183860  0.000000  1
  Si  Si6  1  0.816140  0.816140  0.000000  1
  Si  Si7  1  0.183860  0.000000  0.000000  1
  Si  Si8  1  0.518668  0.687970  0.500000  1
  Si  Si9  1  0.312030  0.830698  0.500000  1
  Si  Si10  1  0.169302  0.481332  0.500000  1
  Si  Si11  1  0.481332  0.169302  0.500000  1
  Si  Si12  1  0.687970  0.518668  0.500000  1
  Si  Si13  1  0.830698  0.312030  0.500000  1
  Si  Si14  1  0.000000  0.627959  0.000000  1
  Si  Si15  1  0.372041  0.372041  0.000000  1
  Si  Si16  1  0.627959  0.000000  0.000000  1
  Ir  Ir17  1  0.000000  0.284690  0.500000  1
  Ir  Ir18  1  0.715310  0.715310  0.500000  1
  Ir  Ir19  1  0.284690  0.000000  0.500000  1
  Ir  Ir20  1  0.624030  0.806125  0.000000  1
  Ir  Ir21  1  0.193875  0.817905  0.000000  1
  Ir  Ir22  1  0.182095  0.375970  0.000000  1
  Ir  Ir23  1  0.375970  0.182095  0.000000  1
  Ir  Ir24  1  0.806125  0.624030  0.000000  1
  Ir  Ir25  1  0.817905  0.193875  0.000000  1
  Ir  Ir26  1  0.512426  0.874091  0.500000  1
  Ir  Ir27  1  0.125909  0.638336  0.500000  1
  Ir  Ir28  1  0.361664  0.487574  0.500000  1
  Ir  Ir29  1  0.487574  0.361664  0.500000  1
  Ir  Ir30  1  0.874091  0.512426  0.500000  1
  Ir  Ir31  1  0.638336  0.125909  0.500000  1
  Ir  Ir32  1  0.000000  0.000000  0.000000  1
  Ir  Ir33  1  0.000000  0.446048  0.000000  1
  Ir  Ir34  1  0.553952  0.553952  0.000000  1
  Ir  Ir35  1  0.446048  0.000000  0.000000  1
