# generated using pymatgen
data_Er4Re5Ru3
_symmetry_space_group_name_H-M   'P 1'
_cell_length_a   5.32600184
_cell_length_b   5.32600241
_cell_length_c   9.09315200
_cell_angle_alpha   90.00000000
_cell_angle_beta   90.00000000
_cell_angle_gamma   121.71409311
_symmetry_Int_Tables_number   1
_chemical_formula_structural   Er4Re5Ru3
_chemical_formula_sum   'Er4 Re5 Ru3'
_cell_volume   219.42407675
_cell_formula_units_Z   1
loop_
 _symmetry_equiv_pos_site_id
 _symmetry_equiv_pos_as_xyz
  1  'x, y, z'
loop_
 _atom_site_type_symbol
 _atom_site_label
 _atom_site_symmetry_multiplicity
 _atom_site_fract_x
 _atom_site_fract_y
 _atom_site_fract_z
 _atom_site_occupancy
  Er  Er0  1  0.336082  0.663918  0.436124  1
  Er  Er1  1  0.664696  0.335304  0.563305  1
  Er  Er2  1  0.664696  0.335304  0.936695  1
  Er  Er3  1  0.336082  0.663918  0.063876  1
  Re  Re4  1  0.168346  0.341265  0.750000  1
  Re  Re5  1  0.171416  0.828584  0.750000  1
  Re  Re6  1  0.335532  0.172029  0.250000  1
  Re  Re7  1  0.827971  0.664468  0.250000  1
  Re  Re8  1  0.658735  0.831654  0.750000  1
  Ru  Ru9  1  0.006810  0.993190  0.001570  1
  Ru  Ru10  1  0.822825  0.177175  0.250000  1
  Ru  Ru11  1  0.006810  0.993190  0.498430  1
