# generated using pymatgen
data_Zr6Zn19Au4C
_symmetry_space_group_name_H-M   'P 1'
_cell_length_a   8.85270131
_cell_length_b   8.86512704
_cell_length_c   8.84226400
_cell_angle_alpha   59.99239142
_cell_angle_beta   59.97405399
_cell_angle_gamma   59.87564758
_symmetry_Int_Tables_number   1
_chemical_formula_structural   Zr6Zn19Au4C
_chemical_formula_sum   'Zr6 Zn19 Au4 C1'
_cell_volume   490.10535773
_cell_formula_units_Z   1
loop_
 _symmetry_equiv_pos_site_id
 _symmetry_equiv_pos_as_xyz
  1  'x, y, z'
loop_
 _atom_site_type_symbol
 _atom_site_label
 _atom_site_symmetry_multiplicity
 _atom_site_fract_x
 _atom_site_fract_y
 _atom_site_fract_z
 _atom_site_occupancy
  Zr  Zr0  1  0.686365  0.314609  0.313635  1
  Zr  Zr1  1  0.313635  0.685391  0.686365  1
  Zr  Zr2  1  0.314399  0.685601  0.314399  1
  Zr  Zr3  1  0.685601  0.314399  0.685601  1
  Zr  Zr4  1  0.314258  0.315233  0.685742  1
  Zr  Zr5  1  0.685742  0.684767  0.314258  1
  Zn  Zn6  1  0.121085  0.122674  0.121317  1
  Zn  Zn7  1  0.878915  0.877326  0.878683  1
  Zn  Zn8  1  0.121335  0.121830  0.634342  1
  Zn  Zn9  1  0.121317  0.634926  0.121085  1
  Zn  Zn10  1  0.878665  0.878170  0.365658  1
  Zn  Zn11  1  0.878683  0.365074  0.878915  1
  Zn  Zn12  1  0.634342  0.122495  0.121335  1
  Zn  Zn13  1  0.365658  0.877505  0.878665  1
  Zn  Zn14  1  0.000000  0.500000  0.000000  1
  Zn  Zn15  1  0.000000  0.000000  0.500000  1
  Zn  Zn16  1  0.500000  0.500000  0.000000  1
  Zn  Zn17  1  0.336686  0.336709  0.324634  1
  Zn  Zn18  1  0.663314  0.663291  0.675366  1
  Zn  Zn19  1  0.329709  0.339106  0.002410  1
  Zn  Zn20  1  0.324634  0.001972  0.336686  1
  Zn  Zn21  1  0.670291  0.660894  0.997590  1
  Zn  Zn22  1  0.675366  0.998028  0.663314  1
  Zn  Zn23  1  0.002410  0.328775  0.329709  1
  Zn  Zn24  1  0.997590  0.671225  0.670291  1
  Au  Au25  1  0.500000  0.000000  0.000000  1
  Au  Au26  1  0.000000  0.500000  0.500000  1
  Au  Au27  1  0.500000  0.000000  0.500000  1
  Au  Au28  1  0.000000  0.000000  0.000000  1
  C  C29  1  0.500000  0.500000  0.500000  1
