# generated using pymatgen
data_Dy3YSc4(B6Ir)4
_symmetry_space_group_name_H-M   'P 1'
_cell_length_a   3.54895000
_cell_length_b   9.01116500
_cell_length_c   11.38014700
_cell_angle_alpha   90.00272005
_cell_angle_beta   90.00000000
_cell_angle_gamma   90.00000000
_symmetry_Int_Tables_number   1
_chemical_formula_structural   Dy3YSc4(B6Ir)4
_chemical_formula_sum   'Dy3 Y1 Sc4 B24 Ir4'
_cell_volume   363.93908130
_cell_formula_units_Z   1
loop_
 _symmetry_equiv_pos_site_id
 _symmetry_equiv_pos_as_xyz
  1  'x, y, z'
loop_
 _atom_site_type_symbol
 _atom_site_label
 _atom_site_symmetry_multiplicity
 _atom_site_fract_x
 _atom_site_fract_y
 _atom_site_fract_z
 _atom_site_occupancy
  Dy  Dy0  1  0.500000  0.319811  0.413990  1
  Dy  Dy1  1  0.500000  0.680201  0.586008  1
  Dy  Dy2  1  0.500000  0.180192  0.913997  1
  Y  Y3  1  0.500000  0.819766  0.085989  1
  Sc  Sc4  1  0.500000  0.445136  0.124278  1
  Sc  Sc5  1  0.500000  0.554839  0.875710  1
  Sc  Sc6  1  0.500000  0.054827  0.624273  1
  Sc  Sc7  1  0.500000  0.945168  0.375739  1
  B  B8  1  0.000000  0.100132  0.472865  1
  B  B9  1  0.000000  0.899869  0.527133  1
  B  B10  1  0.000000  0.399865  0.972865  1
  B  B11  1  0.000000  0.600064  0.027112  1
  B  B12  1  0.000000  0.129820  0.318365  1
  B  B13  1  0.000000  0.870187  0.681640  1
  B  B14  1  0.000000  0.370184  0.818361  1
  B  B15  1  0.000000  0.629708  0.181692  1
  B  B16  1  0.000000  0.054799  0.065758  1
  B  B17  1  0.000000  0.945357  0.934162  1
  B  B18  1  0.000000  0.445286  0.565792  1
  B  B19  1  0.000000  0.554716  0.434205  1
  B  B20  1  0.000000  0.481746  0.285016  1
  B  B21  1  0.000000  0.518257  0.714987  1
  B  B22  1  0.000000  0.018257  0.785014  1
  B  B23  1  0.000000  0.981804  0.215052  1
  B  B24  1  0.000000  0.254179  0.080261  1
  B  B25  1  0.000000  0.745781  0.919654  1
  B  B26  1  0.000000  0.245827  0.580257  1
  B  B27  1  0.000000  0.754175  0.419740  1
  B  B28  1  0.000000  0.295701  0.235267  1
  B  B29  1  0.000000  0.704295  0.764729  1
  B  B30  1  0.000000  0.204295  0.735273  1
  B  B31  1  0.000000  0.795707  0.264811  1
  Ir  Ir32  1  0.500000  0.141551  0.181463  1
  Ir  Ir33  1  0.500000  0.858556  0.818466  1
  Ir  Ir34  1  0.500000  0.358552  0.681438  1
  Ir  Ir35  1  0.500000  0.641392  0.318639  1
