# generated using pymatgen
data_Pr3NdCdPt
_symmetry_space_group_name_H-M   'P 1'
_cell_length_a   10.09154496
_cell_length_b   10.09154523
_cell_length_c   10.09154500
_cell_angle_alpha   59.99999747
_cell_angle_beta   59.99999659
_cell_angle_gamma   59.99999860
_symmetry_Int_Tables_number   1
_chemical_formula_structural   Pr3NdCdPt
_chemical_formula_sum   'Pr12 Nd4 Cd4 Pt4'
_cell_volume   726.70470100
_cell_formula_units_Z   4
loop_
 _symmetry_equiv_pos_site_id
 _symmetry_equiv_pos_as_xyz
  1  'x, y, z'
loop_
 _atom_site_type_symbol
 _atom_site_label
 _atom_site_symmetry_multiplicity
 _atom_site_fract_x
 _atom_site_fract_y
 _atom_site_fract_z
 _atom_site_occupancy
  Pr  Pr0  1  0.807287  0.192713  0.192713  1
  Pr  Pr1  1  0.192713  0.807287  0.807287  1
  Pr  Pr2  1  0.192713  0.807287  0.192713  1
  Pr  Pr3  1  0.807287  0.192713  0.807287  1
  Pr  Pr4  1  0.192713  0.192713  0.807287  1
  Pr  Pr5  1  0.807287  0.807287  0.192713  1
  Pr  Pr6  1  0.936440  0.563560  0.563560  1
  Pr  Pr7  1  0.563560  0.936440  0.936440  1
  Pr  Pr8  1  0.563560  0.936440  0.563560  1
  Pr  Pr9  1  0.936440  0.563560  0.936440  1
  Pr  Pr10  1  0.563560  0.563560  0.936440  1
  Pr  Pr11  1  0.936440  0.936440  0.563560  1
  Nd  Nd12  1  0.350004  0.350004  0.350004  1
  Nd  Nd13  1  0.350004  0.350004  0.949987  1
  Nd  Nd14  1  0.350004  0.949987  0.350004  1
  Nd  Nd15  1  0.949987  0.350004  0.350004  1
  Cd  Cd16  1  0.580313  0.580313  0.580313  1
  Cd  Cd17  1  0.580313  0.580313  0.259061  1
  Cd  Cd18  1  0.580313  0.259061  0.580313  1
  Cd  Cd19  1  0.259061  0.580313  0.580313  1
  Pt  Pt20  1  0.143685  0.143685  0.143685  1
  Pt  Pt21  1  0.143685  0.143685  0.568944  1
  Pt  Pt22  1  0.143685  0.568944  0.143685  1
  Pt  Pt23  1  0.568944  0.143685  0.143685  1
