# generated using pymatgen
data_CePrTm2(B6Ru)2
_symmetry_space_group_name_H-M   'P 1'
_cell_length_a   3.69624700
_cell_length_b   9.16928549
_cell_length_c   11.57932461
_cell_angle_alpha   89.96262463
_cell_angle_beta   90.00000000
_cell_angle_gamma   90.00000000
_symmetry_Int_Tables_number   1
_chemical_formula_structural   CePrTm2(B6Ru)2
_chemical_formula_sum   'Ce2 Pr2 Tm4 B24 Ru4'
_cell_volume   392.44573767
_cell_formula_units_Z   2
loop_
 _symmetry_equiv_pos_site_id
 _symmetry_equiv_pos_as_xyz
  1  'x, y, z'
loop_
 _atom_site_type_symbol
 _atom_site_label
 _atom_site_symmetry_multiplicity
 _atom_site_fract_x
 _atom_site_fract_y
 _atom_site_fract_z
 _atom_site_occupancy
  Ce  Ce0  1  0.000000  0.822998  0.085796  1
  Ce  Ce1  1  0.000000  0.177002  0.914204  1
  Pr  Pr2  1  0.000000  0.322582  0.414108  1
  Pr  Pr3  1  0.000000  0.677418  0.585892  1
  Tm  Tm4  1  0.000000  0.944334  0.372569  1
  Tm  Tm5  1  0.000000  0.055666  0.627431  1
  Tm  Tm6  1  0.000000  0.444616  0.126802  1
  Tm  Tm7  1  0.000000  0.555384  0.873198  1
  B  B8  1  0.500000  0.557080  0.429112  1
  B  B9  1  0.500000  0.442920  0.570888  1
  B  B10  1  0.500000  0.055012  0.067933  1
  B  B11  1  0.500000  0.944988  0.932067  1
  B  B12  1  0.500000  0.751386  0.416714  1
  B  B13  1  0.500000  0.248614  0.583286  1
  B  B14  1  0.500000  0.250036  0.081134  1
  B  B15  1  0.500000  0.749964  0.918866  1
  B  B16  1  0.500000  0.792772  0.265250  1
  B  B17  1  0.500000  0.207228  0.734750  1
  B  B18  1  0.500000  0.290840  0.232146  1
  B  B19  1  0.500000  0.709160  0.767854  1
  B  B20  1  0.500000  0.632102  0.183512  1
  B  B21  1  0.500000  0.367898  0.816488  1
  B  B22  1  0.500000  0.130216  0.314675  1
  B  B23  1  0.500000  0.869784  0.685325  1
  B  B24  1  0.500000  0.984567  0.213471  1
  B  B25  1  0.500000  0.015433  0.786529  1
  B  B26  1  0.500000  0.486076  0.284579  1
  B  B27  1  0.500000  0.513924  0.715421  1
  B  B28  1  0.500000  0.605407  0.028373  1
  B  B29  1  0.500000  0.394593  0.971627  1
  B  B30  1  0.500000  0.102055  0.472101  1
  B  B31  1  0.500000  0.897945  0.527899  1
  Ru  Ru32  1  0.000000  0.641708  0.316551  1
  Ru  Ru33  1  0.000000  0.358292  0.683449  1
  Ru  Ru34  1  0.000000  0.138717  0.177764  1
  Ru  Ru35  1  0.000000  0.861283  0.822236  1
