# generated using pymatgen
data_Sm2Al9ZnCu12
_symmetry_space_group_name_H-M   'P 1'
_cell_length_a   10.36373081
_cell_length_b   8.19084513
_cell_length_c   7.86732907
_cell_angle_alpha   80.36180535
_cell_angle_beta   51.18570648
_cell_angle_gamma   48.45248884
_symmetry_Int_Tables_number   1
_chemical_formula_structural   Sm2Al9ZnCu12
_chemical_formula_sum   'Sm2 Al9 Zn1 Cu12'
_cell_volume   352.38151909
_cell_formula_units_Z   1
loop_
 _symmetry_equiv_pos_site_id
 _symmetry_equiv_pos_as_xyz
  1  'x, y, z'
loop_
 _atom_site_type_symbol
 _atom_site_label
 _atom_site_symmetry_multiplicity
 _atom_site_fract_x
 _atom_site_fract_y
 _atom_site_fract_z
 _atom_site_occupancy
  Sm  Sm0  1  0.000000  0.000000  0.000000  1
  Sm  Sm1  1  0.250000  0.250000  0.250000  1
  Al  Al2  1  0.750000  0.750000  0.750000  1
  Al  Al3  1  0.756300  0.070395  0.832649  1
  Al  Al4  1  0.832649  0.340658  0.756300  1
  Al  Al5  1  0.070395  0.756300  0.340658  1
  Al  Al6  1  0.340658  0.832649  0.070395  1
  Al  Al7  1  0.493667  0.180673  0.417938  1
  Al  Al8  1  0.417938  0.907720  0.493667  1
  Al  Al9  1  0.180673  0.493667  0.907720  1
  Al  Al10  1  0.907720  0.417938  0.180673  1
  Zn  Zn11  1  0.500000  0.500000  0.500000  1
  Cu  Cu12  1  0.625337  0.124441  0.625094  1
  Cu  Cu13  1  0.625094  0.625129  0.625337  1
  Cu  Cu14  1  0.124441  0.625337  0.625129  1
  Cu  Cu15  1  0.625129  0.625094  0.124441  1
  Cu  Cu16  1  0.490225  0.434887  0.182964  1
  Cu  Cu17  1  0.182964  0.891923  0.490225  1
  Cu  Cu18  1  0.434887  0.490225  0.891923  1
  Cu  Cu19  1  0.891923  0.182964  0.434887  1
  Cu  Cu20  1  0.759238  0.815450  0.066887  1
  Cu  Cu21  1  0.066887  0.358426  0.759238  1
  Cu  Cu22  1  0.815450  0.759238  0.358426  1
  Cu  Cu23  1  0.358426  0.066887  0.815450  1
