# generated using pymatgen
data_Y2Co9Si6Tc3As
_symmetry_space_group_name_H-M   'P 1'
_cell_length_a   3.76307900
_cell_length_b   9.20241547
_cell_length_c   9.19580452
_cell_angle_alpha   119.85076966
_cell_angle_beta   90.00000000
_cell_angle_gamma   90.00000000
_symmetry_Int_Tables_number   1
_chemical_formula_structural   Y2Co9Si6Tc3As
_chemical_formula_sum   'Y2 Co9 Si6 Tc3 As1'
_cell_volume   276.19552674
_cell_formula_units_Z   1
loop_
 _symmetry_equiv_pos_site_id
 _symmetry_equiv_pos_as_xyz
  1  'x, y, z'
loop_
 _atom_site_type_symbol
 _atom_site_label
 _atom_site_symmetry_multiplicity
 _atom_site_fract_x
 _atom_site_fract_y
 _atom_site_fract_z
 _atom_site_occupancy
  Y  Y0  1  0.000000  0.667244  0.334918  1
  Y  Y1  1  0.500000  0.334034  0.662043  1
  Co  Co2  1  0.000000  0.573450  0.945655  1
  Co  Co3  1  0.000000  0.375034  0.429987  1
  Co  Co4  1  0.000000  0.051994  0.622188  1
  Co  Co5  1  0.000000  0.874842  0.155394  1
  Co  Co6  1  0.000000  0.281029  0.126587  1
  Co  Co7  1  0.000000  0.844871  0.720025  1
  Co  Co8  1  0.500000  0.949095  0.384353  1
  Co  Co9  1  0.500000  0.437671  0.055322  1
  Co  Co10  1  0.500000  0.615828  0.565593  1
  Si  Si11  1  0.000000  0.999662  0.000710  1
  Si  Si12  1  0.500000  0.710823  0.113859  1
  Si  Si13  1  0.500000  0.402985  0.292187  1
  Si  Si14  1  0.500000  0.885894  0.596514  1
  Si  Si15  1  0.000000  0.592832  0.702838  1
  Si  Si16  1  0.000000  0.110390  0.406697  1
  Tc  Tc17  1  0.500000  0.784165  0.896856  1
  Tc  Tc18  1  0.500000  0.112335  0.215847  1
  Tc  Tc19  1  0.500000  0.098343  0.887158  1
  As  As20  1  0.000000  0.297478  0.885269  1
