# generated using pymatgen
data_K3LiPtO4
_symmetry_space_group_name_H-M   'P 1'
_cell_length_a   7.29639175
_cell_length_b   7.29639171
_cell_length_c   5.97421687
_cell_angle_alpha   79.45439181
_cell_angle_beta   79.45438414
_cell_angle_gamma   84.38639911
_symmetry_Int_Tables_number   1
_chemical_formula_structural   K3LiPtO4
_chemical_formula_sum   'K6 Li2 Pt2 O8'
_cell_volume   306.71649690
_cell_formula_units_Z   2
loop_
 _symmetry_equiv_pos_site_id
 _symmetry_equiv_pos_as_xyz
  1  'x, y, z'
loop_
 _atom_site_type_symbol
 _atom_site_label
 _atom_site_symmetry_multiplicity
 _atom_site_fract_x
 _atom_site_fract_y
 _atom_site_fract_z
 _atom_site_occupancy
  K  K0  1  0.065682  0.243868  0.025876  1
  K  K1  1  0.595372  0.404628  0.250000  1
  K  K2  1  0.243868  0.065682  0.525876  1
  K  K3  1  0.756132  0.934318  0.474124  1
  K  K4  1  0.934318  0.756132  0.974124  1
  K  K5  1  0.404628  0.595372  0.750000  1
  Li  Li6  1  0.732193  0.267807  0.750000  1
  Li  Li7  1  0.267807  0.732193  0.250000  1
  Pt  Pt8  1  0.500000  0.000000  0.000000  1
  Pt  Pt9  1  0.000000  0.500000  0.500000  1
  O  O10  1  0.207616  0.480149  0.241023  1
  O  O11  1  0.911308  0.261662  0.469926  1
  O  O12  1  0.480149  0.207616  0.741023  1
  O  O13  1  0.261662  0.911308  0.969926  1
  O  O14  1  0.088692  0.738338  0.530074  1
  O  O15  1  0.738338  0.088692  0.030074  1
  O  O16  1  0.519851  0.792384  0.258977  1
  O  O17  1  0.792384  0.519851  0.758977  1
