# generated using pymatgen
data_Sr12Sn12PdAu11
_symmetry_space_group_name_H-M   'P 1'
_cell_length_a   4.89087600
_cell_length_b   8.37139152
_cell_length_c   23.80844850
_cell_angle_alpha   90.04062391
_cell_angle_beta   90.00000000
_cell_angle_gamma   90.00000000
_symmetry_Int_Tables_number   1
_chemical_formula_structural   Sr12Sn12PdAu11
_chemical_formula_sum   'Sr12 Sn12 Pd1 Au11'
_cell_volume   974.79948751
_cell_formula_units_Z   1
loop_
 _symmetry_equiv_pos_site_id
 _symmetry_equiv_pos_as_xyz
  1  'x, y, z'
loop_
 _atom_site_type_symbol
 _atom_site_label
 _atom_site_symmetry_multiplicity
 _atom_site_fract_x
 _atom_site_fract_y
 _atom_site_fract_z
 _atom_site_occupancy
  Sr  Sr0  1  0.750000  0.209253  0.498597  1
  Sr  Sr1  1  0.250000  0.791999  0.165948  1
  Sr  Sr2  1  0.250000  0.790644  0.504272  1
  Sr  Sr3  1  0.250000  0.793826  0.833274  1
  Sr  Sr4  1  0.250000  0.706696  0.333740  1
  Sr  Sr5  1  0.750000  0.206552  0.833571  1
  Sr  Sr6  1  0.750000  0.286876  0.997741  1
  Sr  Sr7  1  0.750000  0.292563  0.665423  1
  Sr  Sr8  1  0.750000  0.291916  0.334191  1
  Sr  Sr9  1  0.250000  0.709459  0.664745  1
  Sr  Sr10  1  0.250000  0.712869  0.002116  1
  Sr  Sr11  1  0.750000  0.206865  0.166379  1
  Sn  Sn12  1  0.250000  0.405969  0.565374  1
  Sn  Sn13  1  0.250000  0.084002  0.397795  1
  Sn  Sn14  1  0.250000  0.086832  0.065426  1
  Sn  Sn15  1  0.250000  0.415779  0.897787  1
  Sn  Sn16  1  0.750000  0.584283  0.102052  1
  Sn  Sn17  1  0.250000  0.417467  0.769113  1
  Sn  Sn18  1  0.750000  0.581952  0.230752  1
  Sn  Sn19  1  0.750000  0.586730  0.435233  1
  Sn  Sn20  1  0.750000  0.913117  0.935080  1
  Sn  Sn21  1  0.250000  0.082357  0.269287  1
  Sn  Sn22  1  0.750000  0.924547  0.602030  1
  Sn  Sn23  1  0.750000  0.917256  0.730222  1
  Pd  Pd24  1  0.250000  0.084908  0.593900  1
  Au  Au25  1  0.250000  0.085769  0.738619  1
  Au  Au26  1  0.750000  0.585712  0.906512  1
  Au  Au27  1  0.750000  0.913268  0.406008  1
  Au  Au28  1  0.750000  0.586050  0.567090  1
  Au  Au29  1  0.750000  0.586351  0.760810  1
  Au  Au30  1  0.250000  0.416083  0.433360  1
  Au  Au31  1  0.250000  0.413946  0.239197  1
  Au  Au32  1  0.750000  0.915858  0.066832  1
  Au  Au33  1  0.250000  0.414058  0.093632  1
  Au  Au34  1  0.250000  0.084143  0.933067  1
  Au  Au35  1  0.750000  0.914046  0.260825  1
