# generated using pymatgen
data_Y4Re(SiB4)2
_symmetry_space_group_name_H-M   'P 1'
_cell_length_a   7.09889500
_cell_length_b   7.09889500
_cell_length_c   7.60889300
_cell_angle_alpha   90.00000000
_cell_angle_beta   90.00000000
_cell_angle_gamma   90.00000000
_symmetry_Int_Tables_number   1
_chemical_formula_structural   Y4Re(SiB4)2
_chemical_formula_sum   'Y8 Re2 Si4 B16'
_cell_volume   383.44491428
_cell_formula_units_Z   2
loop_
 _symmetry_equiv_pos_site_id
 _symmetry_equiv_pos_as_xyz
  1  'x, y, z'
loop_
 _atom_site_type_symbol
 _atom_site_label
 _atom_site_symmetry_multiplicity
 _atom_site_fract_x
 _atom_site_fract_y
 _atom_site_fract_z
 _atom_site_occupancy
  Y  Y0  1  0.678755  0.178755  0.238575  1
  Y  Y1  1  0.321245  0.821245  0.761425  1
  Y  Y2  1  0.321245  0.821245  0.238575  1
  Y  Y3  1  0.821245  0.678755  0.238575  1
  Y  Y4  1  0.821245  0.678755  0.761425  1
  Y  Y5  1  0.678755  0.178755  0.761425  1
  Y  Y6  1  0.178755  0.321245  0.761425  1
  Y  Y7  1  0.178755  0.321245  0.238575  1
  Re  Re8  1  0.000000  0.000000  0.500000  1
  Re  Re9  1  0.500000  0.500000  0.500000  1
  Si  Si10  1  0.124000  0.624000  0.500000  1
  Si  Si11  1  0.876000  0.376000  0.500000  1
  Si  Si12  1  0.376000  0.124000  0.500000  1
  Si  Si13  1  0.624000  0.876000  0.500000  1
  B  B14  1  0.171681  0.039927  0.000000  1
  B  B15  1  0.828319  0.960073  0.000000  1
  B  B16  1  0.960073  0.171681  0.000000  1
  B  B17  1  0.328319  0.539927  0.000000  1
  B  B18  1  0.039927  0.828319  0.000000  1
  B  B19  1  0.671681  0.460073  0.000000  1
  B  B20  1  0.539927  0.671681  0.000000  1
  B  B21  1  0.460073  0.328319  0.000000  1
  B  B22  1  0.090172  0.590172  0.000000  1
  B  B23  1  0.909828  0.409828  0.000000  1
  B  B24  1  0.409828  0.090172  0.000000  1
  B  B25  1  0.590172  0.909828  0.000000  1
  B  B26  1  0.000000  0.000000  0.176157  1
  B  B27  1  0.000000  0.000000  0.823843  1
  B  B28  1  0.500000  0.500000  0.823843  1
  B  B29  1  0.500000  0.500000  0.176157  1
