# generated using pymatgen
data_TbEr7Be3Si12Pt
_symmetry_space_group_name_H-M   'P 1'
_cell_length_a   7.92197900
_cell_length_b   7.92197783
_cell_length_c   7.98647000
_cell_angle_alpha   90.00000000
_cell_angle_beta   90.00000000
_cell_angle_gamma   120.00000071
_symmetry_Int_Tables_number   1
_chemical_formula_structural   TbEr7Be3Si12Pt
_chemical_formula_sum   'Tb1 Er7 Be3 Si12 Pt1'
_cell_volume   434.06303502
_cell_formula_units_Z   1
loop_
 _symmetry_equiv_pos_site_id
 _symmetry_equiv_pos_as_xyz
  1  'x, y, z'
loop_
 _atom_site_type_symbol
 _atom_site_label
 _atom_site_symmetry_multiplicity
 _atom_site_fract_x
 _atom_site_fract_y
 _atom_site_fract_z
 _atom_site_occupancy
  Tb  Tb0  1  0.000000  0.000000  0.751652  1
  Er  Er1  1  0.501261  0.002523  0.247885  1
  Er  Er2  1  0.501843  0.003688  0.752096  1
  Er  Er3  1  0.997477  0.498739  0.247885  1
  Er  Er4  1  0.996312  0.498157  0.752096  1
  Er  Er5  1  0.501261  0.498739  0.247885  1
  Er  Er6  1  0.501843  0.498157  0.752096  1
  Er  Er7  1  0.000000  0.000000  0.248187  1
  Be  Be8  1  0.333333  0.666667  0.001461  1
  Be  Be9  1  0.666667  0.333333  0.001217  1
  Be  Be10  1  0.666667  0.333333  0.497946  1
  Si  Si11  1  0.172586  0.345172  0.000173  1
  Si  Si12  1  0.826543  0.653086  0.001106  1
  Si  Si13  1  0.654828  0.827414  0.000173  1
  Si  Si14  1  0.827588  0.655176  0.499384  1
  Si  Si15  1  0.346914  0.173457  0.001106  1
  Si  Si16  1  0.165611  0.331220  0.498634  1
  Si  Si17  1  0.172586  0.827414  0.000173  1
  Si  Si18  1  0.344824  0.172412  0.499384  1
  Si  Si19  1  0.826543  0.173457  0.001106  1
  Si  Si20  1  0.668780  0.834389  0.498634  1
  Si  Si21  1  0.827588  0.172412  0.499384  1
  Si  Si22  1  0.165611  0.834389  0.498634  1
  Pt  Pt23  1  0.333333  0.666667  0.501705  1
