# generated using pymatgen
data_Lu5ScTi4Al12Os6Rh
_symmetry_space_group_name_H-M   'P 1'
_cell_length_a   8.92092859
_cell_length_b   8.92092880
_cell_length_c   8.91137000
_cell_angle_alpha   60.03544612
_cell_angle_beta   60.03544534
_cell_angle_gamma   59.90017587
_symmetry_Int_Tables_number   1
_chemical_formula_structural   Lu5ScTi4Al12Os6Rh
_chemical_formula_sum   'Lu5 Sc1 Ti4 Al12 Os6 Rh1'
_cell_volume   501.36385754
_cell_formula_units_Z   1
loop_
 _symmetry_equiv_pos_site_id
 _symmetry_equiv_pos_as_xyz
  1  'x, y, z'
loop_
 _atom_site_type_symbol
 _atom_site_label
 _atom_site_symmetry_multiplicity
 _atom_site_fract_x
 _atom_site_fract_y
 _atom_site_fract_z
 _atom_site_occupancy
  Lu  Lu0  1  0.707435  0.293291  0.292994  1
  Lu  Lu1  1  0.707435  0.293291  0.706280  1
  Lu  Lu2  1  0.708452  0.708452  0.291548  1
  Lu  Lu3  1  0.293291  0.707435  0.706280  1
  Lu  Lu4  1  0.293291  0.707435  0.292994  1
  Sc  Sc5  1  0.288219  0.288219  0.711781  1
  Ti  Ti6  1  0.639399  0.120787  0.119907  1
  Ti  Ti7  1  0.120787  0.639399  0.119907  1
  Ti  Ti8  1  0.120818  0.120818  0.640435  1
  Ti  Ti9  1  0.120818  0.120818  0.117928  1
  Al  Al10  1  0.358767  0.882553  0.879341  1
  Al  Al11  1  0.882553  0.358767  0.879341  1
  Al  Al12  1  0.880079  0.880079  0.360024  1
  Al  Al13  1  0.880079  0.880079  0.879820  1
  Al  Al14  1  0.005797  0.331498  0.331353  1
  Al  Al15  1  0.331498  0.005797  0.331353  1
  Al  Al16  1  0.331866  0.331866  0.001759  1
  Al  Al17  1  0.331866  0.331866  0.334510  1
  Al  Al18  1  0.998244  0.665215  0.668270  1
  Al  Al19  1  0.665215  0.998244  0.668270  1
  Al  Al20  1  0.668385  0.668385  0.994657  1
  Al  Al21  1  0.668385  0.668385  0.668571  1
  Os  Os22  1  0.497657  0.001638  0.001556  1
  Os  Os23  1  0.497657  0.001638  0.499149  1
  Os  Os24  1  0.497762  0.497762  0.002238  1
  Os  Os25  1  0.001638  0.497657  0.499149  1
  Os  Os26  1  0.001638  0.497657  0.001556  1
  Os  Os27  1  0.001419  0.001419  0.498581  1
  Rh  Rh28  1  0.999551  0.999551  0.000449  1
