# generated using pymatgen
data_Tb6Dy7Lu3(InRh)4
_symmetry_space_group_name_H-M   'P 1'
_cell_length_a   9.65745108
_cell_length_b   9.64861024
_cell_length_c   9.64224418
_cell_angle_alpha   60.08409816
_cell_angle_beta   60.00293901
_cell_angle_gamma   59.92361459
_symmetry_Int_Tables_number   1
_chemical_formula_structural   Tb6Dy7Lu3(InRh)4
_chemical_formula_sum   'Tb6 Dy7 Lu3 In4 Rh4'
_cell_volume   635.36554918
_cell_formula_units_Z   1
loop_
 _symmetry_equiv_pos_site_id
 _symmetry_equiv_pos_as_xyz
  1  'x, y, z'
loop_
 _atom_site_type_symbol
 _atom_site_label
 _atom_site_symmetry_multiplicity
 _atom_site_fract_x
 _atom_site_fract_y
 _atom_site_fract_z
 _atom_site_occupancy
  Tb  Tb0  1  0.439052  0.062598  0.060867  1
  Tb  Tb1  1  0.438038  0.061954  0.438050  1
  Tb  Tb2  1  0.062063  0.437976  0.061982  1
  Tb  Tb3  1  0.649924  0.650373  0.050049  1
  Tb  Tb4  1  0.187863  0.812075  0.187982  1
  Tb  Tb5  1  0.060866  0.437540  0.439135  1
  Dy  Dy6  1  0.649602  0.049559  0.650479  1
  Dy  Dy7  1  0.061076  0.062515  0.438924  1
  Dy  Dy8  1  0.438852  0.437443  0.061080  1
  Dy  Dy9  1  0.650514  0.650360  0.649565  1
  Dy  Dy10  1  0.812248  0.187509  0.187327  1
  Dy  Dy11  1  0.187341  0.812850  0.812157  1
  Dy  Dy12  1  0.049894  0.649732  0.649933  1
  Lu  Lu13  1  0.811368  0.812091  0.188248  1
  Lu  Lu14  1  0.812244  0.187758  0.812213  1
  Lu  Lu15  1  0.188244  0.188449  0.811261  1
  In  In16  1  0.417361  0.416728  0.417604  1
  In  In17  1  0.417784  0.416929  0.748149  1
  In  In18  1  0.417441  0.748297  0.417531  1
  In  In19  1  0.748115  0.417074  0.417916  1
  Rh  Rh20  1  0.859884  0.424162  0.856551  1
  Rh  Rh21  1  0.856889  0.859403  0.859563  1
  Rh  Rh22  1  0.857120  0.856763  0.426471  1
  Rh  Rh23  1  0.426219  0.859863  0.856964  1
