# generated using pymatgen
data_Dy20Si12C
_symmetry_space_group_name_H-M   'P 1'
_cell_length_a   6.38972623
_cell_length_b   8.42680376
_cell_length_c   14.65752500
_cell_angle_alpha   90.00000680
_cell_angle_beta   90.00000000
_cell_angle_gamma   89.82968227
_symmetry_Int_Tables_number   1
_chemical_formula_structural   Dy20Si12C
_chemical_formula_sum   'Dy20 Si12 C1'
_cell_volume   789.23049288
_cell_formula_units_Z   1
loop_
 _symmetry_equiv_pos_site_id
 _symmetry_equiv_pos_as_xyz
  1  'x, y, z'
loop_
 _atom_site_type_symbol
 _atom_site_label
 _atom_site_symmetry_multiplicity
 _atom_site_fract_x
 _atom_site_fract_y
 _atom_site_fract_z
 _atom_site_occupancy
  Dy  Dy0  1  0.500001  0.000000  0.336542  1
  Dy  Dy1  1  0.500000  0.500000  0.828474  1
  Dy  Dy2  1  0.500000  0.500000  0.171526  1
  Dy  Dy3  1  0.500001  0.000000  0.663458  1
  Dy  Dy4  1  0.000000  0.499997  0.160878  1
  Dy  Dy5  1  0.000001  0.000001  0.671442  1
  Dy  Dy6  1  0.000001  0.000001  0.328558  1
  Dy  Dy7  1  0.000000  0.499997  0.839122  1
  Dy  Dy8  1  0.722582  0.235659  0.000000  1
  Dy  Dy9  1  0.752141  0.745195  0.500000  1
  Dy  Dy10  1  0.752895  0.377936  0.379603  1
  Dy  Dy11  1  0.725943  0.879292  0.881334  1
  Dy  Dy12  1  0.725943  0.879292  0.118666  1
  Dy  Dy13  1  0.752895  0.377936  0.620397  1
  Dy  Dy14  1  0.277424  0.764347  0.000000  1
  Dy  Dy15  1  0.247869  0.254800  0.500000  1
  Dy  Dy16  1  0.274055  0.120711  0.118666  1
  Dy  Dy17  1  0.247102  0.622061  0.620396  1
  Dy  Dy18  1  0.247102  0.622061  0.379604  1
  Dy  Dy19  1  0.274055  0.120711  0.881334  1
  Si  Si20  1  0.733994  0.599080  0.000000  1
  Si  Si21  1  0.756713  0.102934  0.500000  1
  Si  Si22  1  0.743251  0.200141  0.199730  1
  Si  Si23  1  0.754673  0.698521  0.697773  1
  Si  Si24  1  0.754673  0.698521  0.302227  1
  Si  Si25  1  0.743251  0.200141  0.800270  1
  Si  Si26  1  0.266006  0.400924  0.000000  1
  Si  Si27  1  0.243287  0.897062  0.500000  1
  Si  Si28  1  0.245322  0.301479  0.302227  1
  Si  Si29  1  0.256749  0.799858  0.800270  1
  Si  Si30  1  0.256749  0.799858  0.199730  1
  Si  Si31  1  0.245322  0.301479  0.697773  1
  C  C32  1  0.500003  0.000010  0.000000  1
