# generated using pymatgen
data_Nd15ThCd4(CoIr)2
_symmetry_space_group_name_H-M   'P 1'
_cell_length_a   9.90975786
_cell_length_b   9.90975800
_cell_length_c   9.88364438
_cell_angle_alpha   60.09691963
_cell_angle_beta   60.09692142
_cell_angle_gamma   60.34684298
_symmetry_Int_Tables_number   1
_chemical_formula_structural   Nd15ThCd4(CoIr)2
_chemical_formula_sum   'Nd15 Th1 Cd4 Co2 Ir2'
_cell_volume   689.11500141
_cell_formula_units_Z   1
loop_
 _symmetry_equiv_pos_site_id
 _symmetry_equiv_pos_as_xyz
  1  'x, y, z'
loop_
 _atom_site_type_symbol
 _atom_site_label
 _atom_site_symmetry_multiplicity
 _atom_site_fract_x
 _atom_site_fract_y
 _atom_site_fract_z
 _atom_site_occupancy
  Nd  Nd0  1  0.345260  0.345260  0.955265  1
  Nd  Nd1  1  0.342142  0.957709  0.349887  1
  Nd  Nd2  1  0.957709  0.342142  0.349887  1
  Nd  Nd3  1  0.815292  0.190984  0.188712  1
  Nd  Nd4  1  0.190586  0.814817  0.805115  1
  Nd  Nd5  1  0.190984  0.815292  0.188712  1
  Nd  Nd6  1  0.814817  0.190586  0.805115  1
  Nd  Nd7  1  0.189483  0.189483  0.810802  1
  Nd  Nd8  1  0.809327  0.809327  0.189600  1
  Nd  Nd9  1  0.939438  0.563528  0.560735  1
  Nd  Nd10  1  0.561859  0.939272  0.938850  1
  Nd  Nd11  1  0.563528  0.939438  0.560735  1
  Nd  Nd12  1  0.939272  0.561859  0.938850  1
  Nd  Nd13  1  0.559895  0.559895  0.942157  1
  Nd  Nd14  1  0.936506  0.936506  0.562783  1
  Th  Th15  1  0.339299  0.339299  0.351413  1
  Cd  Cd16  1  0.579329  0.579329  0.578653  1
  Cd  Cd17  1  0.579156  0.579156  0.260556  1
  Cd  Cd18  1  0.579755  0.259557  0.579199  1
  Cd  Cd19  1  0.259557  0.579755  0.579199  1
  Co  Co20  1  0.140458  0.140458  0.142299  1
  Co  Co21  1  0.148870  0.148870  0.570024  1
  Ir  Ir22  1  0.145715  0.571762  0.145725  1
  Ir  Ir23  1  0.571762  0.145715  0.145725  1
