# generated using pymatgen
data_Dy15ErZnIn3Rh4
_symmetry_space_group_name_H-M   'P 1'
_cell_length_a   9.61653890
_cell_length_b   9.61999832
_cell_length_c   9.60908145
_cell_angle_alpha   59.96246960
_cell_angle_beta   59.97432622
_cell_angle_gamma   60.01189800
_symmetry_Int_Tables_number   1
_chemical_formula_structural   Dy15ErZnIn3Rh4
_chemical_formula_sum   'Dy15 Er1 Zn1 In3 Rh4'
_cell_volume   628.33614399
_cell_formula_units_Z   1
loop_
 _symmetry_equiv_pos_site_id
 _symmetry_equiv_pos_as_xyz
  1  'x, y, z'
loop_
 _atom_site_type_symbol
 _atom_site_label
 _atom_site_symmetry_multiplicity
 _atom_site_fract_x
 _atom_site_fract_y
 _atom_site_fract_z
 _atom_site_occupancy
  Dy  Dy0  1  0.688833  0.689404  0.312064  1
  Dy  Dy1  1  0.309699  0.689404  0.312064  1
  Dy  Dy2  1  0.936798  0.937336  0.556820  1
  Dy  Dy3  1  0.150425  0.148558  0.550590  1
  Dy  Dy4  1  0.569045  0.937336  0.556820  1
  Dy  Dy5  1  0.150491  0.149144  0.149993  1
  Dy  Dy6  1  0.309303  0.310855  0.690439  1
  Dy  Dy7  1  0.937953  0.567151  0.556942  1
  Dy  Dy8  1  0.563558  0.562776  0.935845  1
  Dy  Dy9  1  0.564115  0.937316  0.934454  1
  Dy  Dy10  1  0.937820  0.562776  0.935845  1
  Dy  Dy11  1  0.149263  0.552714  0.148759  1
  Dy  Dy12  1  0.309831  0.690011  0.690326  1
  Dy  Dy13  1  0.689403  0.310855  0.690439  1
  Dy  Dy14  1  0.550370  0.149144  0.149993  1
  Er  Er15  1  0.689462  0.310679  0.310397  1
  Zn  Zn16  1  0.915915  0.916940  0.251230  1
  In  In17  1  0.243950  0.917318  0.922230  1
  In  In18  1  0.916480  0.244058  0.922982  1
  In  In19  1  0.916501  0.917318  0.922230  1
  Rh  Rh20  1  0.358500  0.357148  0.356972  1
  Rh  Rh21  1  0.927382  0.357148  0.356972  1
  Rh  Rh22  1  0.357192  0.357476  0.928141  1
  Rh  Rh23  1  0.357709  0.927132  0.357453  1
