# generated using pymatgen
data_Sc7Pa(TcB6)4
_symmetry_space_group_name_H-M   'P 1'
_cell_length_a   3.54827400
_cell_length_b   8.92159631
_cell_length_c   11.24833802
_cell_angle_alpha   90.11603455
_cell_angle_beta   90.00000000
_cell_angle_gamma   90.00000000
_symmetry_Int_Tables_number   1
_chemical_formula_structural   Sc7Pa(TcB6)4
_chemical_formula_sum   'Sc7 Pa1 Tc4 B24'
_cell_volume   356.07967514
_cell_formula_units_Z   1
loop_
 _symmetry_equiv_pos_site_id
 _symmetry_equiv_pos_as_xyz
  1  'x, y, z'
loop_
 _atom_site_type_symbol
 _atom_site_label
 _atom_site_symmetry_multiplicity
 _atom_site_fract_x
 _atom_site_fract_y
 _atom_site_fract_z
 _atom_site_occupancy
  Sc  Sc0  1  0.000000  0.682030  0.588911  1
  Sc  Sc1  1  0.000000  0.821060  0.084623  1
  Sc  Sc2  1  0.000000  0.176643  0.913407  1
  Sc  Sc3  1  0.000000  0.942682  0.371342  1
  Sc  Sc4  1  0.000000  0.053662  0.630418  1
  Sc  Sc5  1  0.000000  0.444839  0.126418  1
  Sc  Sc6  1  0.000000  0.556895  0.871621  1
  Pa  Pa7  1  0.000000  0.322029  0.414326  1
  Tc  Tc8  1  0.000000  0.639753  0.319718  1
  Tc  Tc9  1  0.000000  0.360992  0.680290  1
  Tc  Tc10  1  0.000000  0.140381  0.179712  1
  Tc  Tc11  1  0.000000  0.860562  0.820053  1
  B  B12  1  0.500000  0.555159  0.433636  1
  B  B13  1  0.500000  0.446655  0.568148  1
  B  B14  1  0.500000  0.053210  0.064484  1
  B  B15  1  0.500000  0.946454  0.934960  1
  B  B16  1  0.500000  0.753357  0.420341  1
  B  B17  1  0.500000  0.246129  0.582725  1
  B  B18  1  0.500000  0.252258  0.076899  1
  B  B19  1  0.500000  0.747221  0.921224  1
  B  B20  1  0.500000  0.795342  0.263730  1
  B  B21  1  0.500000  0.204989  0.738003  1
  B  B22  1  0.500000  0.293899  0.232909  1
  B  B23  1  0.500000  0.705156  0.764554  1
  B  B24  1  0.500000  0.631389  0.181121  1
  B  B25  1  0.500000  0.370625  0.818310  1
  B  B26  1  0.500000  0.128550  0.315742  1
  B  B27  1  0.500000  0.869519  0.683143  1
  B  B28  1  0.500000  0.979212  0.211131  1
  B  B29  1  0.500000  0.020005  0.788307  1
  B  B30  1  0.500000  0.482509  0.284954  1
  B  B31  1  0.500000  0.520628  0.714456  1
  B  B32  1  0.500000  0.599573  0.026575  1
  B  B33  1  0.500000  0.401201  0.972201  1
  B  B34  1  0.500000  0.096287  0.473593  1
  B  B35  1  0.500000  0.899146  0.528015  1
