# generated using pymatgen
data_Ni2Sn4IrPd3
_symmetry_space_group_name_H-M   'P 1'
_cell_length_a   5.57616900
_cell_length_b   7.40259036
_cell_length_c   8.45696738
_cell_angle_alpha   89.65058269
_cell_angle_beta   90.00000000
_cell_angle_gamma   90.00000000
_symmetry_Int_Tables_number   1
_chemical_formula_structural   Ni2Sn4IrPd3
_chemical_formula_sum   'Ni4 Sn8 Ir2 Pd6'
_cell_volume   349.08101034
_cell_formula_units_Z   2
loop_
 _symmetry_equiv_pos_site_id
 _symmetry_equiv_pos_as_xyz
  1  'x, y, z'
loop_
 _atom_site_type_symbol
 _atom_site_label
 _atom_site_symmetry_multiplicity
 _atom_site_fract_x
 _atom_site_fract_y
 _atom_site_fract_z
 _atom_site_occupancy
  Ni  Ni0  1  0.252420  0.905696  0.373112  1
  Ni  Ni1  1  0.752420  0.094304  0.626888  1
  Ni  Ni2  1  0.246536  0.410054  0.128966  1
  Ni  Ni3  1  0.746536  0.589946  0.871034  1
  Sn  Sn4  1  0.250806  0.563742  0.399578  1
  Sn  Sn5  1  0.248096  0.090567  0.635014  1
  Sn  Sn6  1  0.748096  0.909433  0.364986  1
  Sn  Sn7  1  0.745074  0.406403  0.136851  1
  Sn  Sn8  1  0.245074  0.593597  0.863149  1
  Sn  Sn9  1  0.259529  0.068722  0.108089  1
  Sn  Sn10  1  0.750806  0.436258  0.600422  1
  Sn  Sn11  1  0.759529  0.931278  0.891911  1
  Ir  Ir12  1  0.497660  0.244241  0.378649  1
  Ir  Ir13  1  0.997660  0.755759  0.621351  1
  Pd  Pd14  1  0.500342  0.257673  0.874865  1
  Pd  Pd15  1  0.997280  0.259208  0.877071  1
  Pd  Pd16  1  0.502257  0.761887  0.626229  1
  Pd  Pd17  1  0.002257  0.238113  0.373771  1
  Pd  Pd18  1  0.497280  0.740792  0.122929  1
  Pd  Pd19  1  0.000342  0.742327  0.125135  1
