# generated using pymatgen
data_PrY3(SeO3)6
_symmetry_space_group_name_H-M   'P 1'
_cell_length_a   7.20073599
_cell_length_b   8.24786878
_cell_length_c   9.19289927
_cell_angle_alpha   71.09500917
_cell_angle_beta   70.12613641
_cell_angle_gamma   66.13468326
_symmetry_Int_Tables_number   1
_chemical_formula_structural   PrY3(SeO3)6
_chemical_formula_sum   'Pr1 Y3 Se6 O18'
_cell_volume   458.38715081
_cell_formula_units_Z   1
loop_
 _symmetry_equiv_pos_site_id
 _symmetry_equiv_pos_as_xyz
  1  'x, y, z'
loop_
 _atom_site_type_symbol
 _atom_site_label
 _atom_site_symmetry_multiplicity
 _atom_site_fract_x
 _atom_site_fract_y
 _atom_site_fract_z
 _atom_site_occupancy
  Pr  Pr0  1  0.332426  0.731148  0.589490  1
  Y  Y1  1  0.664820  0.273772  0.407041  1
  Y  Y2  1  0.740826  0.733973  0.801312  1
  Y  Y3  1  0.259714  0.262626  0.199171  1
  Se  Se4  1  0.429074  0.774343  0.194049  1
  Se  Se5  1  0.577496  0.217968  0.801106  1
  Se  Se6  1  0.148063  0.747921  0.969324  1
  Se  Se7  1  0.848890  0.250563  0.036797  1
  Se  Se8  1  0.884020  0.764751  0.416298  1
  Se  Se9  1  0.110673  0.248962  0.579340  1
  O  O10  1  0.646975  0.792592  0.049217  1
  O  O11  1  0.356429  0.209308  0.947125  1
  O  O12  1  0.363924  0.942383  0.296861  1
  O  O13  1  0.639547  0.049485  0.700835  1
  O  O14  1  0.520857  0.592934  0.343621  1
  O  O15  1  0.491853  0.395325  0.646171  1
  O  O16  1  0.168488  0.564045  0.122028  1
  O  O17  1  0.829895  0.433007  0.882148  1
  O  O18  1  0.404553  0.710753  0.854205  1
  O  O19  1  0.593084  0.289430  0.152891  1
  O  O20  1  0.343683  0.250551  0.433966  1
  O  O21  1  0.660003  0.750989  0.564879  1
  O  O22  1  0.971285  0.289515  0.439891  1
  O  O23  1  0.028795  0.705980  0.555130  1
  O  O24  1  0.150103  0.026575  0.661184  1
  O  O25  1  0.840596  0.990007  0.349760  1
  O  O26  1  0.933688  0.304134  0.166199  1
  O  O27  1  0.060238  0.696961  0.839961  1
