# generated using pymatgen
data_Mn3Al3Pt10
_symmetry_space_group_name_H-M   'P 1'
_cell_length_a   4.04398100
_cell_length_b   5.49698461
_cell_length_c   10.83787640
_cell_angle_alpha   89.44439378
_cell_angle_beta   90.00000000
_cell_angle_gamma   90.00000000
_symmetry_Int_Tables_number   1
_chemical_formula_structural   Mn3Al3Pt10
_chemical_formula_sum   'Mn3 Al3 Pt10'
_cell_volume   240.91142781
_cell_formula_units_Z   1
loop_
 _symmetry_equiv_pos_site_id
 _symmetry_equiv_pos_as_xyz
  1  'x, y, z'
loop_
 _atom_site_type_symbol
 _atom_site_label
 _atom_site_symmetry_multiplicity
 _atom_site_fract_x
 _atom_site_fract_y
 _atom_site_fract_z
 _atom_site_occupancy
  Mn  Mn0  1  0.500000  0.194681  0.637866  1
  Mn  Mn1  1  0.500000  0.811334  0.363200  1
  Mn  Mn2  1  0.500000  0.688785  0.861900  1
  Al  Al3  1  0.500000  0.317991  0.140939  1
  Al  Al4  1  0.000000  0.499376  0.500620  1
  Al  Al5  1  0.000000  0.982862  0.995944  1
  Pt  Pt6  1  0.500000  0.300748  0.389211  1
  Pt  Pt7  1  0.500000  0.701376  0.608698  1
  Pt  Pt8  1  0.500000  0.797725  0.108561  1
  Pt  Pt9  1  0.500000  0.194511  0.895304  1
  Pt  Pt10  1  0.000000  0.443861  0.742650  1
  Pt  Pt11  1  0.000000  0.567192  0.261991  1
  Pt  Pt12  1  0.000000  0.943865  0.757821  1
  Pt  Pt13  1  0.000000  0.068598  0.232773  1
  Pt  Pt14  1  0.000000  0.485332  0.004562  1
  Pt  Pt15  1  0.000000  0.001762  0.497959  1
