# generated using pymatgen
data_Nd3Cd2Bi3O14
_symmetry_space_group_name_H-M   'P 1'
_cell_length_a   7.58842203
_cell_length_b   7.58842528
_cell_length_c   7.58842752
_cell_angle_alpha   117.06610123
_cell_angle_beta   62.93388040
_cell_angle_gamma   117.06605823
_symmetry_Int_Tables_number   1
_chemical_formula_structural   Nd3Cd2Bi3O14
_chemical_formula_sum   'Nd3 Cd2 Bi3 O14'
_cell_volume   329.12271607
_cell_formula_units_Z   1
loop_
 _symmetry_equiv_pos_site_id
 _symmetry_equiv_pos_as_xyz
  1  'x, y, z'
loop_
 _atom_site_type_symbol
 _atom_site_label
 _atom_site_symmetry_multiplicity
 _atom_site_fract_x
 _atom_site_fract_y
 _atom_site_fract_z
 _atom_site_occupancy
  Nd  Nd0  1  0.000000  0.500000  0.000001  1
  Nd  Nd1  1  0.499999  0.000001  0.999998  1
  Nd  Nd2  1  0.499999  0.500000  0.500000  1
  Cd  Cd3  1  0.500002  0.500003  0.000000  1
  Cd  Cd4  1  0.000000  0.999999  0.500000  1
  Bi  Bi5  1  0.500001  0.000000  0.499999  1
  Bi  Bi6  1  0.000000  0.499999  0.500000  1
  Bi  Bi7  1  0.000000  0.000000  0.000000  1
  O  O8  1  0.620729  0.379271  0.120730  1
  O  O9  1  0.379271  0.620730  0.879270  1
  O  O10  1  0.083386  0.327607  0.172393  1
  O  O11  1  0.672392  0.916612  0.172392  1
  O  O12  1  0.672393  0.327607  0.583386  1
  O  O13  1  0.916615  0.672393  0.827608  1
  O  O14  1  0.327607  0.083383  0.827606  1
  O  O15  1  0.327607  0.672393  0.416616  1
  O  O16  1  0.640842  0.898042  0.601957  1
  O  O17  1  0.101957  0.359158  0.601958  1
  O  O18  1  0.101958  0.898042  0.140841  1
  O  O19  1  0.359160  0.101958  0.398041  1
  O  O20  1  0.898043  0.640841  0.398042  1
  O  O21  1  0.898041  0.101959  0.859160  1
