# generated using pymatgen
data_Li3ErTm2Si2Ge
_symmetry_space_group_name_H-M   'P 1'
_cell_length_a   6.91204800
_cell_length_b   6.92282364
_cell_length_c   4.20977800
_cell_angle_alpha   90.00000000
_cell_angle_beta   90.00000000
_cell_angle_gamma   119.94853300
_symmetry_Int_Tables_number   1
_chemical_formula_structural   Li3ErTm2Si2Ge
_chemical_formula_sum   'Li3 Er1 Tm2 Si2 Ge1'
_cell_volume   174.54396524
_cell_formula_units_Z   1
loop_
 _symmetry_equiv_pos_site_id
 _symmetry_equiv_pos_as_xyz
  1  'x, y, z'
loop_
 _atom_site_type_symbol
 _atom_site_label
 _atom_site_symmetry_multiplicity
 _atom_site_fract_x
 _atom_site_fract_y
 _atom_site_fract_z
 _atom_site_occupancy
  Li  Li0  1  0.234902  0.000000  0.500000  1
  Li  Li1  1  0.000088  0.235036  0.500000  1
  Li  Li2  1  0.765052  0.764964  0.500000  1
  Er  Er3  1  0.571847  0.000000  0.000000  1
  Tm  Tm4  1  0.000009  0.572075  0.000000  1
  Tm  Tm5  1  0.427933  0.427925  0.000000  1
  Si  Si6  1  0.332915  0.666077  0.500000  1
  Si  Si7  1  0.666839  0.333923  0.500000  1
  Ge  Ge8  1  0.000414  0.000000  0.000000  1
