# generated using pymatgen
data_Zr8CdCo2PtN2
_symmetry_space_group_name_H-M   'P 1'
_cell_length_a   8.79459357
_cell_length_b   8.79459406
_cell_length_c   8.75034300
_cell_angle_alpha   60.16630932
_cell_angle_beta   60.16630746
_cell_angle_gamma   60.48541784
_symmetry_Int_Tables_number   1
_chemical_formula_structural   Zr8CdCo2PtN2
_chemical_formula_sum   'Zr16 Cd2 Co4 Pt2 N4'
_cell_volume   481.50940108
_cell_formula_units_Z   2
loop_
 _symmetry_equiv_pos_site_id
 _symmetry_equiv_pos_as_xyz
  1  'x, y, z'
loop_
 _atom_site_type_symbol
 _atom_site_label
 _atom_site_symmetry_multiplicity
 _atom_site_fract_x
 _atom_site_fract_y
 _atom_site_fract_z
 _atom_site_occupancy
  Zr  Zr0  1  0.067178  0.640964  0.645929  1
  Zr  Zr1  1  0.640964  0.067178  0.645929  1
  Zr  Zr2  1  0.645954  0.645954  0.057331  1
  Zr  Zr3  1  0.645954  0.645954  0.650760  1
  Zr  Zr4  1  0.817963  0.817963  0.182037  1
  Zr  Zr5  1  0.183896  0.183896  0.816104  1
  Zr  Zr6  1  0.817189  0.181964  0.817561  1
  Zr  Zr7  1  0.181964  0.817189  0.183286  1
  Zr  Zr8  1  0.181964  0.817189  0.817561  1
  Zr  Zr9  1  0.817189  0.181964  0.183286  1
  Zr  Zr10  1  0.434618  0.434618  0.065382  1
  Zr  Zr11  1  0.070309  0.070309  0.429691  1
  Zr  Zr12  1  0.433891  0.071784  0.432588  1
  Zr  Zr13  1  0.071784  0.433891  0.061737  1
  Zr  Zr14  1  0.071784  0.433891  0.432588  1
  Zr  Zr15  1  0.433891  0.071784  0.061737  1
  Cd  Cd16  1  0.741441  0.417261  0.420648  1
  Cd  Cd17  1  0.417261  0.741441  0.420648  1
  Co  Co18  1  0.438347  0.855012  0.853321  1
  Co  Co19  1  0.855012  0.438347  0.853321  1
  Co  Co20  1  0.853509  0.853509  0.440426  1
  Co  Co21  1  0.853509  0.853509  0.852555  1
  Pt  Pt22  1  0.410834  0.410834  0.762606  1
  Pt  Pt23  1  0.410834  0.410834  0.415725  1
  N  N24  1  0.624181  0.125790  0.125015  1
  N  N25  1  0.125790  0.624181  0.125015  1
  N  N26  1  0.126394  0.126394  0.622663  1
  N  N27  1  0.126394  0.126394  0.124549  1
