# generated using pymatgen
data_Y11Er5Cd4IrPd3
_symmetry_space_group_name_H-M   'P 1'
_cell_length_a   9.68161690
_cell_length_b   9.66596008
_cell_length_c   9.66596066
_cell_angle_alpha   59.85884451
_cell_angle_beta   60.15683059
_cell_angle_gamma   60.15683928
_symmetry_Int_Tables_number   1
_chemical_formula_structural   Y11Er5Cd4IrPd3
_chemical_formula_sum   'Y11 Er5 Cd4 Ir1 Pd3'
_cell_volume   640.44341206
_cell_formula_units_Z   1
loop_
 _symmetry_equiv_pos_site_id
 _symmetry_equiv_pos_as_xyz
  1  'x, y, z'
loop_
 _atom_site_type_symbol
 _atom_site_label
 _atom_site_symmetry_multiplicity
 _atom_site_fract_x
 _atom_site_fract_y
 _atom_site_fract_z
 _atom_site_occupancy
  Y  Y0  1  0.190514  0.809585  0.809585  1
  Y  Y1  1  0.191708  0.809287  0.190701  1
  Y  Y2  1  0.807310  0.188779  0.814823  1
  Y  Y3  1  0.191708  0.190701  0.809287  1
  Y  Y4  1  0.807310  0.814823  0.188779  1
  Y  Y5  1  0.935968  0.564821  0.564821  1
  Y  Y6  1  0.564545  0.936901  0.936901  1
  Y  Y7  1  0.566988  0.936402  0.561176  1
  Y  Y8  1  0.936158  0.562359  0.936259  1
  Y  Y9  1  0.566988  0.561176  0.936402  1
  Y  Y10  1  0.936158  0.936259  0.562359  1
  Er  Er11  1  0.354185  0.347691  0.347691  1
  Er  Er12  1  0.357675  0.350288  0.944486  1
  Er  Er13  1  0.357675  0.944486  0.350288  1
  Er  Er14  1  0.934651  0.356493  0.356493  1
  Er  Er15  1  0.805888  0.190136  0.190136  1
  Cd  Cd16  1  0.581077  0.581446  0.581446  1
  Cd  Cd17  1  0.580600  0.581762  0.254732  1
  Cd  Cd18  1  0.580600  0.254732  0.581762  1
  Cd  Cd19  1  0.256159  0.580747  0.580747  1
  Ir  Ir20  1  0.569617  0.144055  0.144055  1
  Pd  Pd21  1  0.141395  0.147483  0.147483  1
  Pd  Pd22  1  0.142561  0.145298  0.564290  1
  Pd  Pd23  1  0.142561  0.564290  0.145298  1
