# generated using pymatgen
data_Ca3Ho5(CdIn)4
_symmetry_space_group_name_H-M   'P 1'
_cell_length_a   7.37264035
_cell_length_b   5.39662500
_cell_length_c   10.76284800
_cell_angle_alpha   90.00000000
_cell_angle_beta   89.95421864
_cell_angle_gamma   90.00000000
_symmetry_Int_Tables_number   1
_chemical_formula_structural   Ca3Ho5(CdIn)4
_chemical_formula_sum   'Ca3 Ho5 Cd4 In4'
_cell_volume   428.22533541
_cell_formula_units_Z   1
loop_
 _symmetry_equiv_pos_site_id
 _symmetry_equiv_pos_as_xyz
  1  'x, y, z'
loop_
 _atom_site_type_symbol
 _atom_site_label
 _atom_site_symmetry_multiplicity
 _atom_site_fract_x
 _atom_site_fract_y
 _atom_site_fract_z
 _atom_site_occupancy
  Ca  Ca0  1  0.499121  0.750000  0.628888  1
  Ca  Ca1  1  0.001243  0.250000  0.873404  1
  Ca  Ca2  1  0.499097  0.250000  0.870467  1
  Ho  Ho3  1  0.500621  0.750000  0.126667  1
  Ho  Ho4  1  0.002232  0.750000  0.126535  1
  Ho  Ho5  1  0.501310  0.250000  0.373922  1
  Ho  Ho6  1  0.997880  0.250000  0.370753  1
  Ho  Ho7  1  0.998374  0.750000  0.629335  1
  Cd  Cd8  1  0.749433  0.250000  0.127359  1
  Cd  Cd9  1  0.248028  0.750000  0.375806  1
  Cd  Cd10  1  0.756745  0.250000  0.613816  1
  Cd  Cd11  1  0.246807  0.750000  0.882728  1
  In  In12  1  0.252170  0.250000  0.128095  1
  In  In13  1  0.751473  0.750000  0.375611  1
  In  In14  1  0.241891  0.250000  0.614479  1
  In  In15  1  0.753574  0.750000  0.882134  1
