# generated using pymatgen
data_PmAl3Pt2
_symmetry_space_group_name_H-M   'P 1'
_cell_length_a   5.48745319
_cell_length_b   5.48745248
_cell_length_c   4.19138200
_cell_angle_alpha   90.00000000
_cell_angle_beta   90.00000000
_cell_angle_gamma   59.96695331
_symmetry_Int_Tables_number   1
_chemical_formula_structural   PmAl3Pt2
_chemical_formula_sum   'Pm1 Al3 Pt2'
_cell_volume   109.26592823
_cell_formula_units_Z   1
loop_
 _symmetry_equiv_pos_site_id
 _symmetry_equiv_pos_as_xyz
  1  'x, y, z'
loop_
 _atom_site_type_symbol
 _atom_site_label
 _atom_site_symmetry_multiplicity
 _atom_site_fract_x
 _atom_site_fract_y
 _atom_site_fract_z
 _atom_site_occupancy
  Pm  Pm0  1  0.000001  0.999999  0.000000  1
  Al  Al1  1  0.500478  0.000002  0.499999  1
  Al  Al2  1  0.999998  0.499521  0.499999  1
  Al  Al3  1  0.499515  0.500484  0.499999  1
  Pt  Pt4  1  0.333327  0.333326  0.000000  1
  Pt  Pt5  1  0.666674  0.666673  0.000000  1
