# generated using pymatgen
data_Dy5YSi4(BRh6)2
_symmetry_space_group_name_H-M   'P 1'
_cell_length_a   5.53326100
_cell_length_b   5.53326024
_cell_length_c   14.63728300
_cell_angle_alpha   90.00000000
_cell_angle_beta   90.00000000
_cell_angle_gamma   119.99999858
_symmetry_Int_Tables_number   1
_chemical_formula_structural   Dy5YSi4(BRh6)2
_chemical_formula_sum   'Dy5 Y1 Si4 B2 Rh12'
_cell_volume   388.10868361
_cell_formula_units_Z   1
loop_
 _symmetry_equiv_pos_site_id
 _symmetry_equiv_pos_as_xyz
  1  'x, y, z'
loop_
 _atom_site_type_symbol
 _atom_site_label
 _atom_site_symmetry_multiplicity
 _atom_site_fract_x
 _atom_site_fract_y
 _atom_site_fract_z
 _atom_site_occupancy
  Dy  Dy0  1  0.666667  0.333333  0.970900  1
  Dy  Dy1  1  0.666667  0.333333  0.529100  1
  Dy  Dy2  1  0.333333  0.666667  0.042042  1
  Dy  Dy3  1  0.333333  0.666667  0.457958  1
  Dy  Dy4  1  0.333333  0.666667  0.250000  1
  Y  Y5  1  0.666667  0.333333  0.750000  1
  Si  Si6  1  0.000000  0.000000  0.488981  1
  Si  Si7  1  0.000000  0.000000  0.750000  1
  Si  Si8  1  0.333333  0.666667  0.750000  1
  Si  Si9  1  0.000000  0.000000  0.011019  1
  B  B10  1  0.666667  0.333333  0.250000  1
  B  B11  1  0.000000  0.000000  0.250000  1
  Rh  Rh12  1  0.166282  0.332564  0.873778  1
  Rh  Rh13  1  0.166282  0.332564  0.626222  1
  Rh  Rh14  1  0.667436  0.833718  0.873778  1
  Rh  Rh15  1  0.332224  0.166112  0.351278  1
  Rh  Rh16  1  0.833888  0.667776  0.351278  1
  Rh  Rh17  1  0.833888  0.166112  0.351278  1
  Rh  Rh18  1  0.833888  0.166112  0.148722  1
  Rh  Rh19  1  0.332224  0.166112  0.148722  1
  Rh  Rh20  1  0.667436  0.833718  0.626222  1
  Rh  Rh21  1  0.166282  0.833718  0.626222  1
  Rh  Rh22  1  0.833888  0.667776  0.148722  1
  Rh  Rh23  1  0.166282  0.833718  0.873778  1
