# generated using pymatgen
data_Tm20Pd7Rh5
_symmetry_space_group_name_H-M   'P 1'
_cell_length_a   11.03881802
_cell_length_b   11.03881804
_cell_length_c   6.33221100
_cell_angle_alpha   90.00361770
_cell_angle_beta   90.00361770
_cell_angle_gamma   90.09759993
_symmetry_Int_Tables_number   1
_chemical_formula_structural   Tm20Pd7Rh5
_chemical_formula_sum   'Tm20 Pd7 Rh5'
_cell_volume   771.61363707
_cell_formula_units_Z   1
loop_
 _symmetry_equiv_pos_site_id
 _symmetry_equiv_pos_as_xyz
  1  'x, y, z'
loop_
 _atom_site_type_symbol
 _atom_site_label
 _atom_site_symmetry_multiplicity
 _atom_site_fract_x
 _atom_site_fract_y
 _atom_site_fract_z
 _atom_site_occupancy
  Tm  Tm0  1  0.296261  0.087516  0.374032  1
  Tm  Tm1  1  0.294806  0.912754  0.873965  1
  Tm  Tm2  1  0.707760  0.089286  0.879313  1
  Tm  Tm3  1  0.706640  0.916024  0.371981  1
  Tm  Tm4  1  0.587725  0.795488  0.872406  1
  Tm  Tm5  1  0.592024  0.204327  0.373219  1
  Tm  Tm6  1  0.413157  0.795567  0.373097  1
  Tm  Tm7  1  0.413537  0.204447  0.872914  1
  Tm  Tm8  1  0.204512  0.412275  0.627594  1
  Tm  Tm9  1  0.204433  0.586843  0.126903  1
  Tm  Tm10  1  0.795673  0.407976  0.126781  1
  Tm  Tm11  1  0.795553  0.586463  0.627086  1
  Tm  Tm12  1  0.912484  0.703739  0.125968  1
  Tm  Tm13  1  0.910714  0.292240  0.620687  1
  Tm  Tm14  1  0.087246  0.705194  0.626035  1
  Tm  Tm15  1  0.083976  0.293360  0.128019  1
  Tm  Tm16  1  0.998241  0.002362  0.499295  1
  Tm  Tm17  1  0.997638  0.001759  0.000705  1
  Tm  Tm18  1  0.500167  0.499953  0.000281  1
  Tm  Tm19  1  0.500047  0.499833  0.499719  1
  Pd  Pd20  1  0.844830  0.845158  0.750521  1
  Pd  Pd21  1  0.154842  0.155170  0.749479  1
  Pd  Pd22  1  0.153509  0.846491  0.250000  1
  Pd  Pd23  1  0.653749  0.346251  0.750000  1
  Pd  Pd24  1  0.654039  0.655113  0.250795  1
  Pd  Pd25  1  0.344887  0.345961  0.249205  1
  Pd  Pd26  1  0.345915  0.654085  0.750000  1
  Rh  Rh27  1  0.846158  0.153842  0.250000  1
  Rh  Rh28  1  0.499380  0.999855  0.121925  1
  Rh  Rh29  1  0.499619  0.999669  0.623233  1
  Rh  Rh30  1  0.000331  0.500381  0.876767  1
  Rh  Rh31  1  0.000145  0.500620  0.378075  1
