# generated using pymatgen
data_HoLu4(CoO6)2
_symmetry_space_group_name_H-M   'P 1'
_cell_length_a   6.63263587
_cell_length_b   6.63263623
_cell_length_c   7.02878186
_cell_angle_alpha   74.58268699
_cell_angle_beta   74.58268323
_cell_angle_gamma   50.57870988
_symmetry_Int_Tables_number   1
_chemical_formula_structural   HoLu4(CoO6)2
_chemical_formula_sum   'Ho1 Lu4 Co2 O12'
_cell_volume   228.30497604
_cell_formula_units_Z   1
loop_
 _symmetry_equiv_pos_site_id
 _symmetry_equiv_pos_as_xyz
  1  'x, y, z'
loop_
 _atom_site_type_symbol
 _atom_site_label
 _atom_site_symmetry_multiplicity
 _atom_site_fract_x
 _atom_site_fract_y
 _atom_site_fract_z
 _atom_site_occupancy
  Ho  Ho0  1  0.000000  0.000000  0.500000  1
  Lu  Lu1  1  0.304629  0.304629  0.356769  1
  Lu  Lu2  1  0.695371  0.695371  0.643231  1
  Lu  Lu3  1  0.307907  0.307907  0.834780  1
  Lu  Lu4  1  0.692093  0.692093  0.165220  1
  Co  Co5  1  0.754912  0.245088  0.000000  1
  Co  Co6  1  0.245088  0.754912  0.000000  1
  O  O7  1  0.901614  0.421474  0.919700  1
  O  O8  1  0.421474  0.901614  0.919700  1
  O  O9  1  0.098386  0.578526  0.080300  1
  O  O10  1  0.578526  0.098386  0.080300  1
  O  O11  1  0.097242  0.593819  0.576904  1
  O  O12  1  0.593819  0.097242  0.576904  1
  O  O13  1  0.902758  0.406181  0.423096  1
  O  O14  1  0.406181  0.902758  0.423096  1
  O  O15  1  0.000272  0.000272  0.826442  1
  O  O16  1  0.999728  0.999728  0.173558  1
  O  O17  1  0.500319  0.500319  0.818880  1
  O  O18  1  0.499681  0.499681  0.181120  1
