# generated using pymatgen
data_SrDy(NbSe2)6
_symmetry_space_group_name_H-M   'P 1'
_cell_length_a   6.13799000
_cell_length_b   6.13799027
_cell_length_c   15.14822700
_cell_angle_alpha   90.00000000
_cell_angle_beta   90.00000000
_cell_angle_gamma   120.00000934
_symmetry_Int_Tables_number   1
_chemical_formula_structural   SrDy(NbSe2)6
_chemical_formula_sum   'Sr1 Dy1 Nb6 Se12'
_cell_volume   494.24782564
_cell_formula_units_Z   1
loop_
 _symmetry_equiv_pos_site_id
 _symmetry_equiv_pos_as_xyz
  1  'x, y, z'
loop_
 _atom_site_type_symbol
 _atom_site_label
 _atom_site_symmetry_multiplicity
 _atom_site_fract_x
 _atom_site_fract_y
 _atom_site_fract_z
 _atom_site_occupancy
  Sr  Sr0  1  0.000000  0.000000  0.500000  1
  Dy  Dy1  1  0.000000  0.000000  0.000000  1
  Nb  Nb2  1  0.000000  0.000000  0.762012  1
  Nb  Nb3  1  0.000000  0.000000  0.237988  1
  Nb  Nb4  1  0.333333  0.666667  0.238386  1
  Nb  Nb5  1  0.666667  0.333333  0.761614  1
  Nb  Nb6  1  0.666667  0.333333  0.238386  1
  Nb  Nb7  1  0.333333  0.666667  0.761614  1
  Se  Se8  1  0.338221  0.000000  0.128301  1
  Se  Se9  1  0.000000  0.338221  0.128301  1
  Se  Se10  1  0.661779  0.661779  0.128301  1
  Se  Se11  1  0.337021  0.337021  0.652204  1
  Se  Se12  1  0.662979  0.662979  0.347796  1
  Se  Se13  1  0.662979  0.000000  0.652204  1
  Se  Se14  1  0.000000  0.662979  0.652204  1
  Se  Se15  1  0.000000  0.661779  0.871699  1
  Se  Se16  1  0.338221  0.338221  0.871699  1
  Se  Se17  1  0.000000  0.337021  0.347796  1
  Se  Se18  1  0.337021  0.000000  0.347796  1
  Se  Se19  1  0.661779  0.000000  0.871699  1
