# generated using pymatgen
data_Rb4Na2ZrMnAs4
_symmetry_space_group_name_H-M   'P 1'
_cell_length_a   9.42369021
_cell_length_b   9.42369069
_cell_length_c   9.42369089
_cell_angle_alpha   138.28765238
_cell_angle_beta   136.43076291
_cell_angle_gamma   61.89837766
_symmetry_Int_Tables_number   1
_chemical_formula_structural   Rb4Na2ZrMnAs4
_chemical_formula_sum   'Rb4 Na2 Zr1 Mn1 As4'
_cell_volume   379.32454101
_cell_formula_units_Z   1
loop_
 _symmetry_equiv_pos_site_id
 _symmetry_equiv_pos_as_xyz
  1  'x, y, z'
loop_
 _atom_site_type_symbol
 _atom_site_label
 _atom_site_symmetry_multiplicity
 _atom_site_fract_x
 _atom_site_fract_y
 _atom_site_fract_z
 _atom_site_occupancy
  Rb  Rb0  1  0.089404  0.316287  0.758380  1
  Rb  Rb1  1  0.442092  0.183713  0.273117  1
  Rb  Rb2  1  0.910596  0.668976  0.226883  1
  Rb  Rb3  1  0.557908  0.831024  0.741620  1
  Na  Na4  1  0.500000  0.750000  0.250000  1
  Na  Na5  1  0.500000  0.250000  0.750000  1
  Zr  Zr6  1  0.000000  0.750000  0.750000  1
  Mn  Mn7  1  0.000000  0.250000  0.250000  1
  As  As8  1  0.116930  0.907345  0.206890  1
  As  As9  1  0.883070  0.089960  0.790416  1
  As  As10  1  0.299545  0.592655  0.709584  1
  As  As11  1  0.700455  0.410040  0.293110  1
