# generated using pymatgen
data_LiNb2Ru3
_symmetry_space_group_name_H-M   'P 1'
_cell_length_a   7.64729200
_cell_length_b   7.64729238
_cell_length_c   5.35060900
_cell_angle_alpha   90.00000000
_cell_angle_beta   90.00000000
_cell_angle_gamma   120.00000702
_symmetry_Int_Tables_number   1
_chemical_formula_structural   LiNb2Ru3
_chemical_formula_sum   'Li3 Nb6 Ru9'
_cell_volume   270.98745411
_cell_formula_units_Z   3
loop_
 _symmetry_equiv_pos_site_id
 _symmetry_equiv_pos_as_xyz
  1  'x, y, z'
loop_
 _atom_site_type_symbol
 _atom_site_label
 _atom_site_symmetry_multiplicity
 _atom_site_fract_x
 _atom_site_fract_y
 _atom_site_fract_z
 _atom_site_occupancy
  Li  Li0  1  0.664960  0.000000  0.225220  1
  Li  Li1  1  0.335040  0.335039  0.225220  1
  Li  Li2  1  0.000000  0.664961  0.225220  1
  Nb  Nb3  1  0.666666  0.333333  0.540072  1
  Nb  Nb4  1  0.333334  0.666667  0.540072  1
  Nb  Nb5  1  0.000000  0.000000  0.540364  1
  Nb  Nb6  1  0.333166  0.000000  0.910790  1
  Nb  Nb7  1  0.000000  0.333165  0.910790  1
  Nb  Nb8  1  0.666835  0.666835  0.910790  1
  Ru  Ru9  1  0.666666  0.333333  0.047968  1
  Ru  Ru10  1  0.333334  0.666667  0.047968  1
  Ru  Ru11  1  0.000000  0.000000  0.048000  1
  Ru  Ru12  1  0.332815  0.000000  0.403023  1
  Ru  Ru13  1  0.000000  0.332814  0.403023  1
  Ru  Ru14  1  0.667186  0.667186  0.403023  1
  Ru  Ru15  1  0.666295  0.000000  0.725433  1
  Ru  Ru16  1  0.333705  0.333705  0.725433  1
  Ru  Ru17  1  0.000000  0.666295  0.725433  1
