# generated using pymatgen
data_Er4Cu3Pt
_symmetry_space_group_name_H-M   'P 1'
_cell_length_a   4.48024000
_cell_length_b   5.41288524
_cell_length_c   7.00136702
_cell_angle_alpha   89.67540390
_cell_angle_beta   90.00000000
_cell_angle_gamma   90.00000000
_symmetry_Int_Tables_number   1
_chemical_formula_structural   Er4Cu3Pt
_chemical_formula_sum   'Er4 Cu3 Pt1'
_cell_volume   169.78760172
_cell_formula_units_Z   1
loop_
 _symmetry_equiv_pos_site_id
 _symmetry_equiv_pos_as_xyz
  1  'x, y, z'
loop_
 _atom_site_type_symbol
 _atom_site_label
 _atom_site_symmetry_multiplicity
 _atom_site_fract_x
 _atom_site_fract_y
 _atom_site_fract_z
 _atom_site_occupancy
  Er  Er0  1  0.250000  0.636152  0.182074  1
  Er  Er1  1  0.750000  0.358459  0.812743  1
  Er  Er2  1  0.750000  0.144790  0.321235  1
  Er  Er3  1  0.250000  0.860663  0.682372  1
  Cu  Cu4  1  0.250000  0.125739  0.033318  1
  Cu  Cu5  1  0.750000  0.869710  0.972239  1
  Cu  Cu6  1  0.750000  0.645087  0.459723  1
  Pt  Pt7  1  0.250000  0.359401  0.536296  1
