# generated using pymatgen
data_YHo3OsI4
_symmetry_space_group_name_H-M   'P 1'
_cell_length_a   11.27484856
_cell_length_b   11.29778973
_cell_length_c   6.16053232
_cell_angle_alpha   89.65386270
_cell_angle_beta   89.69691963
_cell_angle_gamma   88.69023317
_symmetry_Int_Tables_number   1
_chemical_formula_structural   YHo3OsI4
_chemical_formula_sum   'Y2 Ho6 Os2 I8'
_cell_volume   784.50419482
_cell_formula_units_Z   2
loop_
 _symmetry_equiv_pos_site_id
 _symmetry_equiv_pos_as_xyz
  1  'x, y, z'
loop_
 _atom_site_type_symbol
 _atom_site_label
 _atom_site_symmetry_multiplicity
 _atom_site_fract_x
 _atom_site_fract_y
 _atom_site_fract_z
 _atom_site_occupancy
  Y  Y0  1  0.202049  0.915106  0.998733  1
  Y  Y1  1  0.797951  0.084894  0.001267  1
  Ho  Ho2  1  0.082871  0.802709  0.501609  1
  Ho  Ho3  1  0.917129  0.197291  0.498391  1
  Ho  Ho4  1  0.804332  0.921314  0.503564  1
  Ho  Ho5  1  0.195668  0.078686  0.496436  1
  Ho  Ho6  1  0.078737  0.195975  0.996194  1
  Ho  Ho7  1  0.921263  0.804025  0.003806  1
  Os  Os8  1  0.999994  0.000036  0.250325  1
  Os  Os9  1  0.000006  0.999964  0.749675  1
  I  I10  1  0.357818  0.847068  0.499361  1
  I  I11  1  0.642182  0.152932  0.500639  1
  I  I12  1  0.152421  0.642070  0.000010  1
  I  I13  1  0.847579  0.357930  0.999990  1
  I  I14  1  0.354247  0.145999  0.001059  1
  I  I15  1  0.645753  0.854001  0.998941  1
  I  I16  1  0.854677  0.646255  0.499083  1
  I  I17  1  0.145323  0.353745  0.500917  1
