# generated using pymatgen
data_AcNdZn5Pb
_symmetry_space_group_name_H-M   'P 1'
_cell_length_a   8.76933192
_cell_length_b   8.76933138
_cell_length_c   9.31219300
_cell_angle_alpha   90.00000000
_cell_angle_beta   90.00000000
_cell_angle_gamma   149.49235778
_symmetry_Int_Tables_number   1
_chemical_formula_structural   AcNdZn5Pb
_chemical_formula_sum   'Ac2 Nd2 Zn10 Pb2'
_cell_volume   363.53996313
_cell_formula_units_Z   2
loop_
 _symmetry_equiv_pos_site_id
 _symmetry_equiv_pos_as_xyz
  1  'x, y, z'
loop_
 _atom_site_type_symbol
 _atom_site_label
 _atom_site_symmetry_multiplicity
 _atom_site_fract_x
 _atom_site_fract_y
 _atom_site_fract_z
 _atom_site_occupancy
  Ac  Ac0  1  0.000000  0.000000  0.500000  1
  Ac  Ac1  1  0.000000  0.000000  0.000000  1
  Nd  Nd2  1  0.207354  0.792646  0.250000  1
  Nd  Nd3  1  0.792646  0.207354  0.750000  1
  Zn  Zn4  1  0.811742  0.188258  0.388588  1
  Zn  Zn5  1  0.188258  0.811742  0.611412  1
  Zn  Zn6  1  0.811742  0.188258  0.111412  1
  Zn  Zn7  1  0.188258  0.811742  0.888588  1
  Zn  Zn8  1  0.662369  0.337631  0.488080  1
  Zn  Zn9  1  0.337631  0.662369  0.511920  1
  Zn  Zn10  1  0.662369  0.337631  0.011920  1
  Zn  Zn11  1  0.337631  0.662369  0.988080  1
  Zn  Zn12  1  0.392688  0.607312  0.250000  1
  Zn  Zn13  1  0.607312  0.392688  0.750000  1
  Pb  Pb14  1  0.561126  0.438874  0.250000  1
  Pb  Pb15  1  0.438874  0.561126  0.750000  1
