# generated using pymatgen
data_SmHo5(SbO7)2
_symmetry_space_group_name_H-M   'P 1'
_cell_length_a   6.46304270
_cell_length_b   6.46304359
_cell_length_c   7.53723337
_cell_angle_alpha   90.02963060
_cell_angle_beta   89.97036561
_cell_angle_gamma   109.28171998
_symmetry_Int_Tables_number   1
_chemical_formula_structural   SmHo5(SbO7)2
_chemical_formula_sum   'Sm1 Ho5 Sb2 O14'
_cell_volume   297.17679507
_cell_formula_units_Z   1
loop_
 _symmetry_equiv_pos_site_id
 _symmetry_equiv_pos_as_xyz
  1  'x, y, z'
loop_
 _atom_site_type_symbol
 _atom_site_label
 _atom_site_symmetry_multiplicity
 _atom_site_fract_x
 _atom_site_fract_y
 _atom_site_fract_z
 _atom_site_occupancy
  Sm  Sm0  1  0.500000  0.500000  0.000000  1
  Ho  Ho1  1  0.500000  0.500000  0.500000  1
  Ho  Ho2  1  0.531304  0.000609  0.748197  1
  Ho  Ho3  1  0.000609  0.531304  0.251803  1
  Ho  Ho4  1  0.468696  0.999391  0.251803  1
  Ho  Ho5  1  0.999391  0.468696  0.748197  1
  Sb  Sb6  1  0.000000  0.000000  0.500000  1
  Sb  Sb7  1  0.000000  0.000000  0.000000  1
  O  O8  1  0.677517  0.927756  0.470524  1
  O  O9  1  0.927756  0.677517  0.529476  1
  O  O10  1  0.677126  0.929715  0.029666  1
  O  O11  1  0.929715  0.677126  0.970334  1
  O  O12  1  0.322483  0.072244  0.529476  1
  O  O13  1  0.072244  0.322483  0.470524  1
  O  O14  1  0.322874  0.070285  0.970334  1
  O  O15  1  0.070285  0.322874  0.029666  1
  O  O16  1  0.929976  0.070024  0.750152  1
  O  O17  1  0.070024  0.929976  0.249848  1
  O  O18  1  0.367653  0.632347  0.743613  1
  O  O19  1  0.632347  0.367653  0.256387  1
  O  O20  1  0.639060  0.360940  0.744436  1
  O  O21  1  0.360940  0.639060  0.255564  1
