# generated using pymatgen
data_Lu10ZnCd3
_symmetry_space_group_name_H-M   'P 1'
_cell_length_a   9.36802200
_cell_length_b   9.36802147
_cell_length_c   9.80440400
_cell_angle_alpha   90.00000000
_cell_angle_beta   90.00000000
_cell_angle_gamma   119.99999481
_symmetry_Int_Tables_number   1
_chemical_formula_structural   Lu10ZnCd3
_chemical_formula_sum   'Lu20 Zn2 Cd6'
_cell_volume   745.15673690
_cell_formula_units_Z   2
loop_
 _symmetry_equiv_pos_site_id
 _symmetry_equiv_pos_as_xyz
  1  'x, y, z'
loop_
 _atom_site_type_symbol
 _atom_site_label
 _atom_site_symmetry_multiplicity
 _atom_site_fract_x
 _atom_site_fract_y
 _atom_site_fract_z
 _atom_site_occupancy
  Lu  Lu0  1  0.209986  0.790014  0.949912  1
  Lu  Lu1  1  0.209986  0.419973  0.949912  1
  Lu  Lu2  1  0.580027  0.790014  0.949912  1
  Lu  Lu3  1  0.790014  0.209986  0.050088  1
  Lu  Lu4  1  0.790014  0.580027  0.050088  1
  Lu  Lu5  1  0.419973  0.209986  0.050088  1
  Lu  Lu6  1  0.790014  0.209986  0.449912  1
  Lu  Lu7  1  0.790014  0.580027  0.449912  1
  Lu  Lu8  1  0.419973  0.209986  0.449912  1
  Lu  Lu9  1  0.209986  0.790014  0.550088  1
  Lu  Lu10  1  0.209986  0.419973  0.550088  1
  Lu  Lu11  1  0.580027  0.790014  0.550088  1
  Lu  Lu12  1  0.542796  0.457204  0.750000  1
  Lu  Lu13  1  0.542796  0.085593  0.750000  1
  Lu  Lu14  1  0.914407  0.457204  0.750000  1
  Lu  Lu15  1  0.457204  0.542796  0.250000  1
  Lu  Lu16  1  0.457204  0.914407  0.250000  1
  Lu  Lu17  1  0.085593  0.542796  0.250000  1
  Lu  Lu18  1  0.000000  0.000000  0.000000  1
  Lu  Lu19  1  0.000000  0.000000  0.500000  1
  Zn  Zn20  1  0.333333  0.666667  0.750000  1
  Zn  Zn21  1  0.666667  0.333333  0.250000  1
  Cd  Cd22  1  0.886014  0.113986  0.750000  1
  Cd  Cd23  1  0.886014  0.772028  0.750000  1
  Cd  Cd24  1  0.227972  0.113986  0.750000  1
  Cd  Cd25  1  0.113986  0.886014  0.250000  1
  Cd  Cd26  1  0.113986  0.227972  0.250000  1
  Cd  Cd27  1  0.772028  0.886014  0.250000  1
