# generated using pymatgen
data_Lu4Ge5AsIr7
_symmetry_space_group_name_H-M   'P 1'
_cell_length_a   7.20980596
_cell_length_b   7.20980557
_cell_length_c   7.20980606
_cell_angle_alpha   109.38011691
_cell_angle_beta   109.65358520
_cell_angle_gamma   109.38010838
_symmetry_Int_Tables_number   1
_chemical_formula_structural   Lu4Ge5AsIr7
_chemical_formula_sum   'Lu4 Ge5 As1 Ir7'
_cell_volume   288.49982198
_cell_formula_units_Z   1
loop_
 _symmetry_equiv_pos_site_id
 _symmetry_equiv_pos_as_xyz
  1  'x, y, z'
loop_
 _atom_site_type_symbol
 _atom_site_label
 _atom_site_symmetry_multiplicity
 _atom_site_fract_x
 _atom_site_fract_y
 _atom_site_fract_z
 _atom_site_occupancy
  Lu  Lu0  1  0.999109  0.000000  0.497662  1
  Lu  Lu1  1  0.497662  0.000000  0.999109  1
  Lu  Lu2  1  0.999109  0.501445  0.999109  1
  Lu  Lu3  1  0.497662  0.498555  0.497662  1
  Ge  Ge4  1  0.681984  0.683702  0.998282  1
  Ge  Ge5  1  0.314582  0.316298  0.998282  1
  Ge  Ge6  1  0.998282  0.683702  0.681984  1
  Ge  Ge7  1  0.998282  0.316298  0.314582  1
  Ge  Ge8  1  0.688621  0.000000  0.688621  1
  As  As9  1  0.320067  0.000000  0.320067  1
  Ir  Ir10  1  0.002123  0.000000  0.002123  1
  Ir  Ir11  1  0.249019  0.500000  0.749019  1
  Ir  Ir12  1  0.750815  0.249694  0.501120  1
  Ir  Ir13  1  0.501120  0.249694  0.750815  1
  Ir  Ir14  1  0.501120  0.750306  0.251425  1
  Ir  Ir15  1  0.749019  0.500000  0.249019  1
  Ir  Ir16  1  0.251425  0.750306  0.501120  1
