# generated using pymatgen
data_Er16Ga6FeNi
_symmetry_space_group_name_H-M   'P 1'
_cell_length_a   9.94103500
_cell_length_b   9.94113347
_cell_length_c   6.88466600
_cell_angle_alpha   89.99981948
_cell_angle_beta   89.99995436
_cell_angle_gamma   120.00043370
_symmetry_Int_Tables_number   1
_chemical_formula_structural   Er16Ga6FeNi
_chemical_formula_sum   'Er16 Ga6 Fe1 Ni1'
_cell_volume   589.22222138
_cell_formula_units_Z   1
loop_
 _symmetry_equiv_pos_site_id
 _symmetry_equiv_pos_as_xyz
  1  'x, y, z'
loop_
 _atom_site_type_symbol
 _atom_site_label
 _atom_site_symmetry_multiplicity
 _atom_site_fract_x
 _atom_site_fract_y
 _atom_site_fract_z
 _atom_site_occupancy
  Er  Er0  1  0.173120  0.826886  0.509972  1
  Er  Er1  1  0.653759  0.826870  0.509972  1
  Er  Er2  1  0.173126  0.346249  0.509962  1
  Er  Er3  1  0.827456  0.172551  0.011957  1
  Er  Er4  1  0.345077  0.172543  0.011950  1
  Er  Er5  1  0.827452  0.654919  0.011944  1
  Er  Er6  1  0.333327  0.666657  0.829372  1
  Er  Er7  1  0.666674  0.333337  0.329332  1
  Er  Er8  1  0.462373  0.537640  0.208222  1
  Er  Er9  1  0.075264  0.537636  0.208222  1
  Er  Er10  1  0.462358  0.924718  0.208222  1
  Er  Er11  1  0.535018  0.464974  0.705648  1
  Er  Er12  1  0.929956  0.464979  0.705665  1
  Er  Er13  1  0.535024  0.070044  0.705667  1
  Er  Er14  1  0.000007  0.000011  0.231367  1
  Er  Er15  1  0.000002  0.999990  0.733689  1
  Ga  Ga16  1  0.162991  0.837016  0.958763  1
  Ga  Ga17  1  0.674033  0.837029  0.958784  1
  Ga  Ga18  1  0.162977  0.325969  0.958790  1
  Ga  Ga19  1  0.836052  0.163943  0.458691  1
  Ga  Ga20  1  0.327899  0.163946  0.458697  1
  Ga  Ga21  1  0.836052  0.672105  0.458690  1
  Fe  Fe22  1  0.333334  0.666657  0.446370  1
  Ni  Ni23  1  0.666670  0.333335  0.944096  1
