# generated using pymatgen
data_Tb3Y5(GeI6)2
_symmetry_space_group_name_H-M   'P 1'
_cell_length_a   4.23320300
_cell_length_b   14.05180320
_cell_length_c   14.82424221
_cell_angle_alpha   90.01935381
_cell_angle_beta   90.00000000
_cell_angle_gamma   90.00000000
_symmetry_Int_Tables_number   1
_chemical_formula_structural   Tb3Y5(GeI6)2
_chemical_formula_sum   'Tb3 Y5 Ge2 I12'
_cell_volume   881.80718154
_cell_formula_units_Z   1
loop_
 _symmetry_equiv_pos_site_id
 _symmetry_equiv_pos_as_xyz
  1  'x, y, z'
loop_
 _atom_site_type_symbol
 _atom_site_label
 _atom_site_symmetry_multiplicity
 _atom_site_fract_x
 _atom_site_fract_y
 _atom_site_fract_z
 _atom_site_occupancy
  Tb  Tb0  1  0.000000  0.887635  0.424945  1
  Tb  Tb1  1  0.000000  0.612411  0.924919  1
  Tb  Tb2  1  0.000000  0.387593  0.075083  1
  Y  Y3  1  0.500000  0.114803  0.346567  1
  Y  Y4  1  0.500000  0.885242  0.653465  1
  Y  Y5  1  0.500000  0.614777  0.153442  1
  Y  Y6  1  0.500000  0.385233  0.846580  1
  Y  Y7  1  0.000000  0.112312  0.575016  1
  Ge  Ge8  1  0.500000  0.000073  0.500053  1
  Ge  Ge9  1  0.500000  0.500002  0.000002  1
  I  I10  1  0.500000  0.244525  0.161485  1
  I  I11  1  0.500000  0.755477  0.838518  1
  I  I12  1  0.500000  0.744528  0.338519  1
  I  I13  1  0.500000  0.255350  0.661391  1
  I  I14  1  0.000000  0.258217  0.413630  1
  I  I15  1  0.000000  0.741764  0.586422  1
  I  I16  1  0.000000  0.758243  0.086432  1
  I  I17  1  0.000000  0.241764  0.913571  1
  I  I18  1  0.000000  0.999396  0.240794  1
  I  I19  1  0.000000  0.000650  0.759168  1
  I  I20  1  0.000000  0.499406  0.259215  1
  I  I21  1  0.000000  0.500598  0.740785  1
