# generated using pymatgen
data_Th2Ir6Rh
_symmetry_space_group_name_H-M   'P 1'
_cell_length_a   5.35233876
_cell_length_b   5.35233962
_cell_length_c   13.65527432
_cell_angle_alpha   78.69797327
_cell_angle_beta   78.69798222
_cell_angle_gamma   60.00000286
_symmetry_Int_Tables_number   1
_chemical_formula_structural   Th2Ir6Rh
_chemical_formula_sum   'Th4 Ir12 Rh2'
_cell_volume   329.99175306
_cell_formula_units_Z   2
loop_
 _symmetry_equiv_pos_site_id
 _symmetry_equiv_pos_as_xyz
  1  'x, y, z'
loop_
 _atom_site_type_symbol
 _atom_site_label
 _atom_site_symmetry_multiplicity
 _atom_site_fract_x
 _atom_site_fract_y
 _atom_site_fract_z
 _atom_site_occupancy
  Th  Th0  1  0.950179  0.950179  0.149466  1
  Th  Th1  1  0.049821  0.049821  0.850534  1
  Th  Th2  1  0.853140  0.853140  0.440578  1
  Th  Th3  1  0.146860  0.146860  0.559422  1
  Ir  Ir4  1  0.500000  0.500000  0.500000  1
  Ir  Ir5  1  0.611061  0.611061  0.166818  1
  Ir  Ir6  1  0.388939  0.388939  0.833182  1
  Ir  Ir7  1  0.000000  0.500000  0.000000  1
  Ir  Ir8  1  0.500000  0.000000  0.000000  1
  Ir  Ir9  1  0.500000  0.500000  0.000000  1
  Ir  Ir10  1  0.388672  0.388672  0.330011  1
  Ir  Ir11  1  0.892644  0.388672  0.330011  1
  Ir  Ir12  1  0.388672  0.892644  0.330011  1
  Ir  Ir13  1  0.611328  0.611328  0.669989  1
  Ir  Ir14  1  0.107356  0.611328  0.669989  1
  Ir  Ir15  1  0.611328  0.107356  0.669989  1
  Rh  Rh16  1  0.722033  0.722033  0.833899  1
  Rh  Rh17  1  0.277967  0.277967  0.166101  1
