# generated using pymatgen
data_FeBi(NF10)2
_symmetry_space_group_name_H-M   'P 1'
_cell_length_a   5.70426599
_cell_length_b   7.61371208
_cell_length_c   9.04364400
_cell_angle_alpha   88.73113885
_cell_angle_beta   109.67210330
_cell_angle_gamma   96.50458241
_symmetry_Int_Tables_number   1
_chemical_formula_structural   FeBi(NF10)2
_chemical_formula_sum   'Fe1 Bi1 N2 F20'
_cell_volume   367.41251056
_cell_formula_units_Z   1
loop_
 _symmetry_equiv_pos_site_id
 _symmetry_equiv_pos_as_xyz
  1  'x, y, z'
loop_
 _atom_site_type_symbol
 _atom_site_label
 _atom_site_symmetry_multiplicity
 _atom_site_fract_x
 _atom_site_fract_y
 _atom_site_fract_z
 _atom_site_occupancy
  Fe  Fe0  1  0.995088  0.752778  0.292062  1
  Bi  Bi1  1  0.007832  0.245045  0.702946  1
  N  N2  1  0.297482  0.274139  0.217210  1
  N  N3  1  0.701430  0.726519  0.786350  1
  F  F4  1  0.063061  0.234844  0.214601  1
  F  F5  1  0.936002  0.764766  0.786002  1
  F  F6  1  0.371519  0.137367  0.159475  1
  F  F7  1  0.632446  0.862581  0.847509  1
  F  F8  1  0.929217  0.193167  0.906578  1
  F  F9  1  0.066778  0.801039  0.114364  1
  F  F10  1  0.082362  0.303446  0.502347  1
  F  F11  1  0.925271  0.703532  0.466629  1
  F  F12  1  0.765411  0.030559  0.597207  1
  F  F13  1  0.199885  0.943271  0.386571  1
  F  F14  1  0.300205  0.096525  0.788452  1
  F  F15  1  0.738745  0.882832  0.221655  1
  F  F16  1  0.226601  0.469141  0.814080  1
  F  F17  1  0.795503  0.557874  0.196389  1
  F  F18  1  0.711409  0.392497  0.633277  1
  F  F19  1  0.254488  0.623776  0.357865  1
  F  F20  1  0.693207  0.584643  0.875089  1
  F  F21  1  0.310720  0.416018  0.128844  1
  F  F22  1  0.544295  0.695172  0.639510  1
  F  F23  1  0.451041  0.308469  0.364985  1
