# generated using pymatgen
data_Ca4B15C
_symmetry_space_group_name_H-M   'P 1'
_cell_length_a   7.04995524
_cell_length_b   7.04995524
_cell_length_c   4.12095000
_cell_angle_alpha   90.00000000
_cell_angle_beta   90.00000000
_cell_angle_gamma   89.39815204
_symmetry_Int_Tables_number   1
_chemical_formula_structural   Ca4B15C
_chemical_formula_sum   'Ca4 B15 C1'
_cell_volume   204.80761667
_cell_formula_units_Z   1
loop_
 _symmetry_equiv_pos_site_id
 _symmetry_equiv_pos_as_xyz
  1  'x, y, z'
loop_
 _atom_site_type_symbol
 _atom_site_label
 _atom_site_symmetry_multiplicity
 _atom_site_fract_x
 _atom_site_fract_y
 _atom_site_fract_z
 _atom_site_occupancy
  Ca  Ca0  1  0.680793  0.180793  0.500000  1
  Ca  Ca1  1  0.323617  0.823617  0.500000  1
  Ca  Ca2  1  0.184138  0.314118  0.500000  1
  Ca  Ca3  1  0.814118  0.684138  0.500000  1
  B  B4  1  0.002387  0.995277  0.294851  1
  B  B5  1  0.002387  0.995277  0.705149  1
  B  B6  1  0.495277  0.502387  0.705149  1
  B  B7  1  0.495277  0.502387  0.294851  1
  B  B8  1  0.178979  0.030398  0.000000  1
  B  B9  1  0.825805  0.960555  0.000000  1
  B  B10  1  0.040388  0.815099  0.000000  1
  B  B11  1  0.673514  0.468092  0.000000  1
  B  B12  1  0.968092  0.173514  0.000000  1
  B  B13  1  0.315099  0.540388  0.000000  1
  B  B14  1  0.530398  0.678979  0.000000  1
  B  B15  1  0.460555  0.325805  0.000000  1
  B  B16  1  0.922599  0.422599  0.000000  1
  B  B17  1  0.586715  0.915227  0.000000  1
  B  B18  1  0.415227  0.086715  0.000000  1
  C  C19  1  0.084634  0.584634  0.000000  1
