# generated using pymatgen
data_Sr6YErSb6
_symmetry_space_group_name_H-M   'P 1'
_cell_length_a   8.45597060
_cell_length_b   8.45833654
_cell_length_c   8.50402820
_cell_angle_alpha   109.33494471
_cell_angle_beta   109.30003173
_cell_angle_gamma   108.93779667
_symmetry_Int_Tables_number   1
_chemical_formula_structural   Sr6YErSb6
_chemical_formula_sum   'Sr6 Y1 Er1 Sb6'
_cell_volume   473.01278178
_cell_formula_units_Z   1
loop_
 _symmetry_equiv_pos_site_id
 _symmetry_equiv_pos_as_xyz
  1  'x, y, z'
loop_
 _atom_site_type_symbol
 _atom_site_label
 _atom_site_symmetry_multiplicity
 _atom_site_fract_x
 _atom_site_fract_y
 _atom_site_fract_z
 _atom_site_occupancy
  Sr  Sr0  1  0.999829  0.135881  0.495831  1
  Sr  Sr1  1  0.359871  0.357398  0.359741  1
  Sr  Sr2  1  0.635491  0.499675  0.995385  1
  Sr  Sr3  1  0.857217  0.860017  0.859998  1
  Sr  Sr4  1  0.502766  0.004210  0.644754  1
  Sr  Sr5  1  0.503869  0.002225  0.144572  1
  Y  Y6  1  0.999430  0.636428  0.497504  1
  Er  Er7  1  0.135363  0.499401  0.997331  1
  Sb  Sb8  1  0.241309  0.123514  0.870655  1
  Sb  Sb9  1  0.123553  0.850983  0.246416  1
  Sb  Sb10  1  0.775276  0.390812  0.635672  1
  Sb  Sb11  1  0.891288  0.274904  0.134186  1
  Sb  Sb12  1  0.622815  0.741191  0.370313  1
  Sb  Sb13  1  0.351923  0.623358  0.747642  1
