# generated using pymatgen
data_Nd3Sb(AuCl6)4
_symmetry_space_group_name_H-M   'P 1'
_cell_length_a   7.82740916
_cell_length_b   10.16274994
_cell_length_c   14.28972255
_cell_angle_alpha   103.73028200
_cell_angle_beta   96.86964669
_cell_angle_gamma   112.19579836
_symmetry_Int_Tables_number   1
_chemical_formula_structural   Nd3Sb(AuCl6)4
_chemical_formula_sum   'Nd3 Sb1 Au4 Cl24'
_cell_volume   994.34985027
_cell_formula_units_Z   1
loop_
 _symmetry_equiv_pos_site_id
 _symmetry_equiv_pos_as_xyz
  1  'x, y, z'
loop_
 _atom_site_type_symbol
 _atom_site_label
 _atom_site_symmetry_multiplicity
 _atom_site_fract_x
 _atom_site_fract_y
 _atom_site_fract_z
 _atom_site_occupancy
  Nd  Nd0  1  0.026617  0.686860  0.128213  1
  Nd  Nd1  1  0.419304  0.080727  0.378568  1
  Nd  Nd2  1  0.978206  0.316474  0.871554  1
  Sb  Sb3  1  0.587425  0.944184  0.621442  1
  Au  Au4  1  0.293122  0.631471  0.765383  1
  Au  Au5  1  0.498655  0.498655  0.499077  1
  Au  Au6  1  0.707099  0.366502  0.237020  1
  Au  Au7  1  0.999250  0.999123  0.998711  1
  Cl  Cl8  1  0.781666  0.098208  0.970385  1
  Cl  Cl9  1  0.721492  0.153171  0.263116  1
  Cl  Cl10  1  0.275951  0.843902  0.742468  1
  Cl  Cl11  1  0.772125  0.794311  0.026712  1
  Cl  Cl12  1  0.611608  0.188960  0.734656  1
  Cl  Cl13  1  0.306148  0.412962  0.784729  1
  Cl  Cl14  1  0.692718  0.582306  0.215222  1
  Cl  Cl15  1  0.298179  0.615741  0.494890  1
  Cl  Cl16  1  0.227217  0.203574  0.970560  1
  Cl  Cl17  1  0.753899  0.722557  0.521559  1
  Cl  Cl18  1  0.219065  0.902554  0.028648  1
  Cl  Cl19  1  0.734483  0.055427  0.494145  1
  Cl  Cl20  1  0.603875  0.721688  0.751984  1
  Cl  Cl21  1  0.942257  0.057356  0.726083  1
  Cl  Cl22  1  0.242575  0.270659  0.475851  1
  Cl  Cl23  1  0.385379  0.811846  0.257743  1
  Cl  Cl24  1  0.977415  0.538666  0.777895  1
  Cl  Cl25  1  0.760208  0.432534  0.975233  1
  Cl  Cl26  1  0.241102  0.565515  0.023592  1
  Cl  Cl27  1  0.019734  0.459343  0.222724  1
  Cl  Cl28  1  0.394257  0.271615  0.251606  1
  Cl  Cl29  1  0.281684  0.953310  0.519456  1
  Cl  Cl30  1  0.698993  0.376939  0.500792  1
  Cl  Cl31  1  0.048291  0.942858  0.269982  1
