# generated using pymatgen
data_Lu12Ir2OsRh
_symmetry_space_group_name_H-M   'P 1'
_cell_length_a   7.16851930
_cell_length_b   8.92251100
_cell_length_c   6.24941227
_cell_angle_alpha   90.00000000
_cell_angle_beta   90.15970446
_cell_angle_gamma   90.00000000
_symmetry_Int_Tables_number   1
_chemical_formula_structural   Lu12Ir2OsRh
_chemical_formula_sum   'Lu12 Ir2 Os1 Rh1'
_cell_volume   399.71830716
_cell_formula_units_Z   1
loop_
 _symmetry_equiv_pos_site_id
 _symmetry_equiv_pos_as_xyz
  1  'x, y, z'
loop_
 _atom_site_type_symbol
 _atom_site_label
 _atom_site_symmetry_multiplicity
 _atom_site_fract_x
 _atom_site_fract_y
 _atom_site_fract_z
 _atom_site_occupancy
  Lu  Lu0  1  0.675168  0.057507  0.332655  1
  Lu  Lu1  1  0.178516  0.439421  0.171565  1
  Lu  Lu2  1  0.323773  0.561842  0.672106  1
  Lu  Lu3  1  0.820667  0.936507  0.824831  1
  Lu  Lu4  1  0.323773  0.938158  0.672106  1
  Lu  Lu5  1  0.820667  0.563493  0.824831  1
  Lu  Lu6  1  0.675168  0.442493  0.332655  1
  Lu  Lu7  1  0.178516  0.060579  0.171565  1
  Lu  Lu8  1  0.537833  0.250000  0.876240  1
  Lu  Lu9  1  0.034206  0.250000  0.624486  1
  Lu  Lu10  1  0.466259  0.750000  0.120497  1
  Lu  Lu11  1  0.964886  0.750000  0.376023  1
  Ir  Ir12  1  0.384577  0.250000  0.462934  1
  Ir  Ir13  1  0.114689  0.750000  0.962424  1
  Os  Os14  1  0.614409  0.750000  0.534521  1
  Rh  Rh15  1  0.886896  0.250000  0.040560  1
