# generated using pymatgen
data_Y4Hf3GaPt4
_symmetry_space_group_name_H-M   'P 1'
_cell_length_a   4.56814200
_cell_length_b   7.10593397
_cell_length_c   8.18639246
_cell_angle_alpha   92.81123193
_cell_angle_beta   90.00000000
_cell_angle_gamma   90.00000000
_symmetry_Int_Tables_number   1
_chemical_formula_structural   Y4Hf3GaPt4
_chemical_formula_sum   'Y4 Hf3 Ga1 Pt4'
_cell_volume   265.41798906
_cell_formula_units_Z   1
loop_
 _symmetry_equiv_pos_site_id
 _symmetry_equiv_pos_as_xyz
  1  'x, y, z'
loop_
 _atom_site_type_symbol
 _atom_site_label
 _atom_site_symmetry_multiplicity
 _atom_site_fract_x
 _atom_site_fract_y
 _atom_site_fract_z
 _atom_site_occupancy
  Y  Y0  1  0.250000  0.984786  0.313583  1
  Y  Y1  1  0.250000  0.459996  0.170485  1
  Y  Y2  1  0.750000  0.027988  0.689897  1
  Y  Y3  1  0.750000  0.508438  0.835940  1
  Hf  Hf4  1  0.250000  0.363088  0.570415  1
  Hf  Hf5  1  0.250000  0.857212  0.936041  1
  Hf  Hf6  1  0.750000  0.647494  0.422901  1
  Ga  Ga7  1  0.750000  0.144257  0.074628  1
  Pt  Pt8  1  0.250000  0.228767  0.876257  1
  Pt  Pt9  1  0.250000  0.734669  0.602045  1
  Pt  Pt10  1  0.750000  0.769194  0.108714  1
  Pt  Pt11  1  0.750000  0.274112  0.399093  1
