# generated using pymatgen
data_Ho11Tm9Sn3Pb13
_symmetry_space_group_name_H-M   'P 1'
_cell_length_a   8.13540468
_cell_length_b   15.49561902
_cell_length_c   8.18075997
_cell_angle_alpha   90.00568701
_cell_angle_beta   89.87937131
_cell_angle_gamma   90.00035076
_symmetry_Int_Tables_number   1
_chemical_formula_structural   Ho11Tm9Sn3Pb13
_chemical_formula_sum   'Ho11 Tm9 Sn3 Pb13'
_cell_volume   1031.28992957
_cell_formula_units_Z   1
loop_
 _symmetry_equiv_pos_site_id
 _symmetry_equiv_pos_as_xyz
  1  'x, y, z'
loop_
 _atom_site_type_symbol
 _atom_site_label
 _atom_site_symmetry_multiplicity
 _atom_site_fract_x
 _atom_site_fract_y
 _atom_site_fract_z
 _atom_site_occupancy
  Ho  Ho0  1  0.876863  0.121342  0.659549  1
  Ho  Ho1  1  0.620527  0.876715  0.161513  1
  Ho  Ho2  1  0.121311  0.623001  0.338156  1
  Ho  Ho3  1  0.462598  0.601388  0.672794  1
  Ho  Ho4  1  0.962960  0.898462  0.827620  1
  Ho  Ho5  1  0.537122  0.100801  0.327298  1
  Ho  Ho6  1  0.036931  0.400106  0.175881  1
  Ho  Ho7  1  0.537198  0.399329  0.327370  1
  Ho  Ho8  1  0.036915  0.099767  0.175791  1
  Ho  Ho9  1  0.462632  0.898586  0.672581  1
  Ho  Ho10  1  0.962868  0.601474  0.827652  1
  Tm  Tm11  1  0.620806  0.623373  0.161458  1
  Tm  Tm12  1  0.121477  0.876855  0.338274  1
  Tm  Tm13  1  0.381091  0.122412  0.838116  1
  Tm  Tm14  1  0.876655  0.378715  0.659241  1
  Tm  Tm15  1  0.381225  0.377523  0.838039  1
  Tm  Tm16  1  0.788836  0.749967  0.492355  1
  Tm  Tm17  1  0.288532  0.750023  0.007570  1
  Tm  Tm18  1  0.212262  0.250070  0.506001  1
  Tm  Tm19  1  0.708823  0.250126  0.992996  1
  Sn  Sn20  1  0.425337  0.749920  0.375714  1
  Sn  Sn21  1  0.925572  0.750057  0.124869  1
  Sn  Sn22  1  0.574693  0.250114  0.624461  1
  Pb  Pb23  1  0.717592  0.458294  0.967661  1
  Pb  Pb24  1  0.218194  0.041610  0.533039  1
  Pb  Pb25  1  0.282373  0.958078  0.032116  1
  Pb  Pb26  1  0.781961  0.542288  0.466416  1
  Pb  Pb27  1  0.283245  0.541935  0.031706  1
  Pb  Pb28  1  0.782658  0.957394  0.466469  1
  Pb  Pb29  1  0.717489  0.041941  0.967876  1
  Pb  Pb30  1  0.217832  0.457984  0.533555  1
  Pb  Pb31  1  0.073449  0.250212  0.875066  1
  Pb  Pb32  1  0.651946  0.749902  0.847221  1
  Pb  Pb33  1  0.152239  0.750124  0.652852  1
  Pb  Pb34  1  0.349487  0.250006  0.153707  1
  Pb  Pb35  1  0.848306  0.250103  0.347018  1
