# generated using pymatgen
data_MnFeCu(P2O7)2
_symmetry_space_group_name_H-M   'P 1'
_cell_length_a   5.25237500
_cell_length_b   6.69778208
_cell_length_c   16.92278700
_cell_angle_alpha   68.95683060
_cell_angle_beta   90.00000000
_cell_angle_gamma   90.00000000
_symmetry_Int_Tables_number   1
_chemical_formula_structural   MnFeCu(P2O7)2
_chemical_formula_sum   'Mn2 Fe2 Cu2 P8 O28'
_cell_volume   555.62863044
_cell_formula_units_Z   2
loop_
 _symmetry_equiv_pos_site_id
 _symmetry_equiv_pos_as_xyz
  1  'x, y, z'
loop_
 _atom_site_type_symbol
 _atom_site_label
 _atom_site_symmetry_multiplicity
 _atom_site_fract_x
 _atom_site_fract_y
 _atom_site_fract_z
 _atom_site_occupancy
  Mn  Mn0  1  0.246752  0.213608  0.118171  1
  Mn  Mn1  1  0.746752  0.786392  0.381829  1
  Fe  Fe2  1  0.751096  0.782876  0.879716  1
  Fe  Fe3  1  0.251096  0.217124  0.620284  1
  Cu  Cu4  1  0.998934  0.002210  0.997056  1
  Cu  Cu5  1  0.498934  0.997790  0.502944  1
  P  P6  1  0.743152  0.893673  0.165570  1
  P  P7  1  0.243152  0.106327  0.334430  1
  P  P8  1  0.252942  0.113839  0.831020  1
  P  P9  1  0.752942  0.886161  0.668980  1
  P  P10  1  0.736854  0.548164  0.094578  1
  P  P11  1  0.236854  0.451836  0.405422  1
  P  P12  1  0.268850  0.452304  0.901105  1
  P  P13  1  0.768850  0.547696  0.598895  1
  O  O14  1  0.470495  0.465645  0.089492  1
  O  O15  1  0.970495  0.534355  0.410508  1
  O  O16  1  0.537492  0.528231  0.908888  1
  O  O17  1  0.037492  0.471769  0.591112  1
  O  O18  1  0.941382  0.377067  0.121613  1
  O  O19  1  0.441382  0.622933  0.378387  1
  O  O20  1  0.069741  0.626110  0.877727  1
  O  O21  1  0.569741  0.373890  0.622273  1
  O  O22  1  0.772730  0.886362  0.253864  1
  O  O23  1  0.272730  0.113638  0.246136  1
  O  O24  1  0.224048  0.120551  0.741894  1
  O  O25  1  0.724048  0.879449  0.758106  1
  O  O26  1  0.516086  0.018547  0.114140  1
  O  O27  1  0.016086  0.981453  0.385860  1
  O  O28  1  0.697942  0.740584  0.517514  1
  O  O29  1  0.197942  0.259416  0.982486  1
  O  O30  1  0.305129  0.263262  0.488921  1
  O  O31  1  0.805129  0.736738  0.011079  1
  O  O32  1  0.778333  0.641214  0.674798  1
  O  O33  1  0.278333  0.358786  0.825202  1
  O  O34  1  0.221623  0.348346  0.332577  1
  O  O35  1  0.721623  0.651654  0.167423  1
  O  O36  1  0.495344  0.963792  0.620364  1
  O  O37  1  0.995344  0.036208  0.879636  1
  O  O38  1  0.496939  0.025584  0.385753  1
  O  O39  1  0.996939  0.974416  0.114247  1
  O  O40  1  0.974138  0.013985  0.617900  1
  O  O41  1  0.474138  0.986015  0.882100  1
