# generated using pymatgen
data_YHo3(Al8Pt3)3
_symmetry_space_group_name_H-M   'P 1'
_cell_length_a   7.52622204
_cell_length_b   7.54867422
_cell_length_c   13.17067212
_cell_angle_alpha   84.58329171
_cell_angle_beta   79.12735888
_cell_angle_gamma   59.97851176
_symmetry_Int_Tables_number   1
_chemical_formula_structural   YHo3(Al8Pt3)3
_chemical_formula_sum   'Y1 Ho3 Al24 Pt9'
_cell_volume   636.24636158
_cell_formula_units_Z   1
loop_
 _symmetry_equiv_pos_site_id
 _symmetry_equiv_pos_as_xyz
  1  'x, y, z'
loop_
 _atom_site_type_symbol
 _atom_site_label
 _atom_site_symmetry_multiplicity
 _atom_site_fract_x
 _atom_site_fract_y
 _atom_site_fract_z
 _atom_site_occupancy
  Y  Y0  1  0.393362  0.168679  0.808022  1
  Ho  Ho1  1  0.606624  0.831272  0.192220  1
  Ho  Ho2  1  0.734155  0.498552  0.807510  1
  Ho  Ho3  1  0.265798  0.501482  0.192509  1
  Al  Al4  1  0.684589  0.833577  0.944539  1
  Al  Al5  1  0.315567  0.166175  0.055807  1
  Al  Al6  1  0.146560  0.832452  0.561327  1
  Al  Al7  1  0.853463  0.167541  0.438630  1
  Al  Al8  1  0.479461  0.166709  0.558495  1
  Al  Al9  1  0.520570  0.833286  0.441379  1
  Al  Al10  1  0.217459  0.165184  0.329615  1
  Al  Al11  1  0.782737  0.834669  0.670225  1
  Al  Al12  1  0.437712  0.506311  0.670288  1
  Al  Al13  1  0.562322  0.493845  0.329557  1
  Al  Al14  1  0.109356  0.160183  0.669287  1
  Al  Al15  1  0.890553  0.839809  0.330548  1
  Al  Al16  1  0.353060  0.499675  0.944674  1
  Al  Al17  1  0.646868  0.500586  0.055508  1
  Al  Al18  1  0.015283  0.167655  0.952883  1
  Al  Al19  1  0.984413  0.832341  0.047314  1
  Al  Al20  1  0.186858  0.499184  0.441315  1
  Al  Al21  1  0.813150  0.500825  0.558641  1
  Al  Al22  1  0.734087  0.163832  0.183439  1
  Al  Al23  1  0.265921  0.835855  0.816547  1
  Al  Al24  1  0.061458  0.631551  0.815383  1
  Al  Al25  1  0.938246  0.368737  0.184604  1
  Al  Al26  1  0.855470  0.041752  0.815896  1
  Al  Al27  1  0.144843  0.958248  0.184097  1
  Pt  Pt28  1  0.119688  0.492249  0.638778  1
  Pt  Pt29  1  0.880164  0.507962  0.361091  1
  Pt  Pt30  1  0.657178  0.171289  0.999835  1
  Pt  Pt31  1  0.342835  0.828688  0.000229  1
  Pt  Pt32  1  0.538206  0.166726  0.361104  1
  Pt  Pt33  1  0.461814  0.833102  0.638786  1
  Pt  Pt34  1  0.778886  0.174934  0.637087  1
  Pt  Pt35  1  0.221318  0.825041  0.362794  1
  Pt  Pt36  1  0.999965  0.500040  0.000036  1
