# generated using pymatgen
data_Lu12AlNi4Sb
_symmetry_space_group_name_H-M   'P 1'
_cell_length_a   8.18130814
_cell_length_b   8.18130738
_cell_length_c   8.18130698
_cell_angle_alpha   112.19829438
_cell_angle_beta   110.41173129
_cell_angle_gamma   105.86803871
_symmetry_Int_Tables_number   1
_chemical_formula_structural   Lu12AlNi4Sb
_chemical_formula_sum   'Lu12 Al1 Ni4 Sb1'
_cell_volume   420.19769735
_cell_formula_units_Z   1
loop_
 _symmetry_equiv_pos_site_id
 _symmetry_equiv_pos_as_xyz
  1  'x, y, z'
loop_
 _atom_site_type_symbol
 _atom_site_label
 _atom_site_symmetry_multiplicity
 _atom_site_fract_x
 _atom_site_fract_y
 _atom_site_fract_z
 _atom_site_occupancy
  Lu  Lu0  1  0.676773  0.869096  0.192323  1
  Lu  Lu1  1  0.323227  0.515550  0.192323  1
  Lu  Lu2  1  0.820394  0.785987  0.606381  1
  Lu  Lu3  1  0.179606  0.785987  0.965593  1
  Lu  Lu4  1  0.820394  0.214013  0.034407  1
  Lu  Lu5  1  0.179606  0.214013  0.393619  1
  Lu  Lu6  1  0.676773  0.484450  0.807677  1
  Lu  Lu7  1  0.323227  0.130904  0.807677  1
  Lu  Lu8  1  0.566544  0.269151  0.297392  1
  Lu  Lu9  1  0.433456  0.730849  0.702608  1
  Lu  Lu10  1  0.028240  0.730849  0.297392  1
  Lu  Lu11  1  0.971760  0.269151  0.702608  1
  Al  Al12  1  0.000000  0.500000  0.500000  1
  Ni  Ni13  1  0.347955  0.500000  0.847955  1
  Ni  Ni14  1  0.652045  0.500000  0.152045  1
  Ni  Ni15  1  0.875791  0.875791  0.000000  1
  Ni  Ni16  1  0.124209  0.124209  0.000000  1
  Sb  Sb17  1  0.500000  0.000000  0.500000  1
