# generated using pymatgen
data_Pr2Fe2IrN3
_symmetry_space_group_name_H-M   'P 1'
_cell_length_a   6.36702786
_cell_length_b   6.36702850
_cell_length_c   6.36649730
_cell_angle_alpha   89.74451020
_cell_angle_beta   89.74451738
_cell_angle_gamma   117.00920457
_symmetry_Int_Tables_number   1
_chemical_formula_structural   Pr2Fe2IrN3
_chemical_formula_sum   'Pr4 Fe4 Ir2 N6'
_cell_volume   229.93422052
_cell_formula_units_Z   2
loop_
 _symmetry_equiv_pos_site_id
 _symmetry_equiv_pos_as_xyz
  1  'x, y, z'
loop_
 _atom_site_type_symbol
 _atom_site_label
 _atom_site_symmetry_multiplicity
 _atom_site_fract_x
 _atom_site_fract_y
 _atom_site_fract_z
 _atom_site_occupancy
  Pr  Pr0  1  0.828124  0.670037  0.894884  1
  Pr  Pr1  1  0.329963  0.171876  0.605116  1
  Pr  Pr2  1  0.171876  0.329963  0.105116  1
  Pr  Pr3  1  0.670037  0.828124  0.394884  1
  Fe  Fe4  1  0.570706  0.169395  0.105773  1
  Fe  Fe5  1  0.429294  0.830605  0.894227  1
  Fe  Fe6  1  0.830605  0.429294  0.394227  1
  Fe  Fe7  1  0.169395  0.570706  0.605773  1
  Ir  Ir8  1  0.817666  0.182334  0.750000  1
  Ir  Ir9  1  0.182334  0.817666  0.250000  1
  N  N10  1  0.426672  0.573328  0.750000  1
  N  N11  1  0.573328  0.426672  0.250000  1
  N  N12  1  0.998564  0.732922  0.523258  1
  N  N13  1  0.732922  0.998564  0.023258  1
  N  N14  1  0.001436  0.267078  0.476742  1
  N  N15  1  0.267078  0.001436  0.976742  1
