# generated using pymatgen
data_Y8Be(Si5Tc4)3
_symmetry_space_group_name_H-M   'P 1'
_cell_length_a   6.79310900
_cell_length_b   6.79907613
_cell_length_c   12.59449200
_cell_angle_alpha   90.00000000
_cell_angle_beta   90.00000000
_cell_angle_gamma   91.01323883
_symmetry_Int_Tables_number   1
_chemical_formula_structural   Y8Be(Si5Tc4)3
_chemical_formula_sum   'Y8 Be1 Si15 Tc12'
_cell_volume   581.60914801
_cell_formula_units_Z   1
loop_
 _symmetry_equiv_pos_site_id
 _symmetry_equiv_pos_as_xyz
  1  'x, y, z'
loop_
 _atom_site_type_symbol
 _atom_site_label
 _atom_site_symmetry_multiplicity
 _atom_site_fract_x
 _atom_site_fract_y
 _atom_site_fract_z
 _atom_site_occupancy
  Y  Y0  1  0.499240  0.333781  0.093883  1
  Y  Y1  1  0.990281  0.161162  0.406289  1
  Y  Y2  1  0.505301  0.659323  0.596276  1
  Y  Y3  1  0.006980  0.841389  0.904032  1
  Y  Y4  1  0.505301  0.659323  0.903724  1
  Y  Y5  1  0.006980  0.841389  0.595968  1
  Y  Y6  1  0.499240  0.333781  0.406117  1
  Y  Y7  1  0.990281  0.161162  0.093711  1
  Be  Be8  1  0.541938  0.349298  0.750000  1
  Si  Si9  1  0.656921  0.048807  0.551929  1
  Si  Si10  1  0.150911  0.444484  0.946949  1
  Si  Si11  1  0.337036  0.954796  0.045214  1
  Si  Si12  1  0.848879  0.558997  0.448615  1
  Si  Si13  1  0.337036  0.954796  0.454786  1
  Si  Si14  1  0.848879  0.558997  0.051385  1
  Si  Si15  1  0.656921  0.048807  0.948071  1
  Si  Si16  1  0.150911  0.444484  0.553051  1
  Si  Si17  1  0.037724  0.162012  0.750000  1
  Si  Si18  1  0.476049  0.646305  0.250000  1
  Si  Si19  1  0.960562  0.839912  0.250000  1
  Si  Si20  1  0.805421  0.630705  0.750000  1
  Si  Si21  1  0.312950  0.878585  0.750000  1
  Si  Si22  1  0.194096  0.364080  0.250000  1
  Si  Si23  1  0.688450  0.106447  0.250000  1
  Tc  Tc24  1  0.815910  0.351632  0.623455  1
  Tc  Tc25  1  0.344269  0.161282  0.873190  1
  Tc  Tc26  1  0.189317  0.649853  0.123275  1
  Tc  Tc27  1  0.649910  0.841387  0.388188  1
  Tc  Tc28  1  0.189317  0.649853  0.376725  1
  Tc  Tc29  1  0.649910  0.841387  0.111812  1
  Tc  Tc30  1  0.815910  0.351632  0.876545  1
  Tc  Tc31  1  0.344269  0.161282  0.626810  1
  Tc  Tc32  1  0.679760  0.998466  0.750000  1
  Tc  Tc33  1  0.161192  0.517857  0.750000  1
  Tc  Tc34  1  0.319673  0.003479  0.250000  1
  Tc  Tc35  1  0.832279  0.489071  0.250000  1
