# generated using pymatgen
data_YEr19(Bi2Pt)4
_symmetry_space_group_name_H-M   'P 1'
_cell_length_a   8.01385521
_cell_length_b   8.98587800
_cell_length_c   12.34180532
_cell_angle_alpha   90.00000000
_cell_angle_beta   90.02627397
_cell_angle_gamma   90.00000000
_symmetry_Int_Tables_number   1
_chemical_formula_structural   YEr19(Bi2Pt)4
_chemical_formula_sum   'Y1 Er19 Bi8 Pt4'
_cell_volume   888.75213209
_cell_formula_units_Z   1
loop_
 _symmetry_equiv_pos_site_id
 _symmetry_equiv_pos_as_xyz
  1  'x, y, z'
loop_
 _atom_site_type_symbol
 _atom_site_label
 _atom_site_symmetry_multiplicity
 _atom_site_fract_x
 _atom_site_fract_y
 _atom_site_fract_z
 _atom_site_occupancy
  Y  Y0  1  0.666106  0.750000  0.712151  1
  Er  Er1  1  0.334790  0.250000  0.289823  1
  Er  Er2  1  0.164988  0.250000  0.789846  1
  Er  Er3  1  0.834463  0.750000  0.210161  1
  Er  Er4  1  0.129346  0.750000  0.805318  1
  Er  Er5  1  0.871524  0.250000  0.194568  1
  Er  Er6  1  0.628645  0.250000  0.694640  1
  Er  Er7  1  0.371296  0.750000  0.304858  1
  Er  Er8  1  0.550475  0.750000  0.000484  1
  Er  Er9  1  0.448951  0.250000  0.000329  1
  Er  Er10  1  0.051114  0.250000  0.499771  1
  Er  Er11  1  0.949457  0.750000  0.499543  1
  Er  Er12  1  0.823024  0.453081  0.932154  1
  Er  Er13  1  0.176574  0.546700  0.068084  1
  Er  Er14  1  0.323076  0.546622  0.567570  1
  Er  Er15  1  0.176574  0.953300  0.068084  1
  Er  Er16  1  0.676815  0.453399  0.431873  1
  Er  Er17  1  0.823024  0.046919  0.932154  1
  Er  Er18  1  0.676815  0.046601  0.431873  1
  Er  Er19  1  0.323076  0.953378  0.567570  1
  Bi  Bi20  1  0.934912  0.009631  0.672221  1
  Bi  Bi21  1  0.065844  0.990756  0.327336  1
  Bi  Bi22  1  0.433388  0.991341  0.828052  1
  Bi  Bi23  1  0.065844  0.509244  0.327336  1
  Bi  Bi24  1  0.565957  0.009484  0.172579  1
  Bi  Bi25  1  0.934912  0.490369  0.672221  1
  Bi  Bi26  1  0.565957  0.490516  0.172579  1
  Bi  Bi27  1  0.433388  0.508659  0.828052  1
  Pt  Pt28  1  0.922830  0.750000  0.988778  1
  Pt  Pt29  1  0.077569  0.250000  0.010858  1
  Pt  Pt30  1  0.422820  0.250000  0.510978  1
  Pt  Pt31  1  0.576441  0.750000  0.488158  1
