# generated using pymatgen
data_Nd3Al12Ir2OsRh
_symmetry_space_group_name_H-M   'P 1'
_cell_length_a   8.91176917
_cell_length_b   8.88269976
_cell_length_c   9.65002044
_cell_angle_alpha   89.99999969
_cell_angle_beta   89.91608499
_cell_angle_gamma   119.89216200
_symmetry_Int_Tables_number   1
_chemical_formula_structural   Nd3Al12Ir2OsRh
_chemical_formula_sum   'Nd6 Al24 Ir4 Os2 Rh2'
_cell_volume   662.27453667
_cell_formula_units_Z   2
loop_
 _symmetry_equiv_pos_site_id
 _symmetry_equiv_pos_as_xyz
  1  'x, y, z'
loop_
 _atom_site_type_symbol
 _atom_site_label
 _atom_site_symmetry_multiplicity
 _atom_site_fract_x
 _atom_site_fract_y
 _atom_site_fract_z
 _atom_site_occupancy
  Nd  Nd0  1  0.189856  0.381108  0.250478  1
  Nd  Nd1  1  0.810144  0.618892  0.749522  1
  Nd  Nd2  1  0.619326  0.809664  0.250110  1
  Nd  Nd3  1  0.380674  0.190336  0.749890  1
  Nd  Nd4  1  0.189856  0.808750  0.250478  1
  Nd  Nd5  1  0.810144  0.191250  0.749522  1
  Al  Al6  1  0.333058  0.666529  0.024014  1
  Al  Al7  1  0.666942  0.333471  0.975986  1
  Al  Al8  1  0.666619  0.333309  0.524061  1
  Al  Al9  1  0.333381  0.666691  0.475939  1
  Al  Al10  1  0.164427  0.327686  0.575230  1
  Al  Al11  1  0.835573  0.672314  0.424770  1
  Al  Al12  1  0.672161  0.836081  0.573958  1
  Al  Al13  1  0.835811  0.672003  0.075492  1
  Al  Al14  1  0.327839  0.163919  0.426042  1
  Al  Al15  1  0.164189  0.327997  0.924508  1
  Al  Al16  1  0.164427  0.836742  0.575230  1
  Al  Al17  1  0.326976  0.163487  0.075658  1
  Al  Al18  1  0.835573  0.163258  0.424770  1
  Al  Al19  1  0.673024  0.836513  0.924342  1
  Al  Al20  1  0.835811  0.163807  0.075492  1
  Al  Al21  1  0.164189  0.836193  0.924508  1
  Al  Al22  1  0.562662  0.125707  0.249646  1
  Al  Al23  1  0.437338  0.874293  0.750354  1
  Al  Al24  1  0.873009  0.436505  0.250027  1
  Al  Al25  1  0.126991  0.563495  0.749973  1
  Al  Al26  1  0.562662  0.436955  0.249646  1
  Al  Al27  1  0.437338  0.563045  0.750354  1
  Al  Al28  1  0.999271  0.999635  0.250362  1
  Al  Al29  1  0.000729  0.000365  0.749638  1
  Ir  Ir30  1  0.000000  0.500000  0.000000  1
  Ir  Ir31  1  0.500000  0.000000  0.500000  1
  Ir  Ir32  1  0.000000  0.500000  0.500000  1
  Ir  Ir33  1  0.500000  0.500000  0.500000  1
  Os  Os34  1  0.000000  0.000000  0.000000  1
  Os  Os35  1  0.000000  0.000000  0.500000  1
  Rh  Rh36  1  0.500000  0.000000  0.000000  1
  Rh  Rh37  1  0.500000  0.500000  0.000000  1
