# generated using pymatgen
data_Lu8B24IrRu3
_symmetry_space_group_name_H-M   'P 1'
_cell_length_a   3.59644500
_cell_length_b   9.03356528
_cell_length_c   11.37805635
_cell_angle_alpha   90.02852512
_cell_angle_beta   90.00000000
_cell_angle_gamma   90.00000000
_symmetry_Int_Tables_number   1
_chemical_formula_structural   Lu8B24IrRu3
_chemical_formula_sum   'Lu8 B24 Ir1 Ru3'
_cell_volume   369.65844894
_cell_formula_units_Z   1
loop_
 _symmetry_equiv_pos_site_id
 _symmetry_equiv_pos_as_xyz
  1  'x, y, z'
loop_
 _atom_site_type_symbol
 _atom_site_label
 _atom_site_symmetry_multiplicity
 _atom_site_fract_x
 _atom_site_fract_y
 _atom_site_fract_z
 _atom_site_occupancy
  Lu  Lu0  1  0.000000  0.318077  0.414534  1
  Lu  Lu1  1  0.000000  0.679830  0.588788  1
  Lu  Lu2  1  0.000000  0.822359  0.084191  1
  Lu  Lu3  1  0.000000  0.179379  0.913432  1
  Lu  Lu4  1  0.000000  0.946086  0.373572  1
  Lu  Lu5  1  0.000000  0.055880  0.626646  1
  Lu  Lu6  1  0.000000  0.441920  0.125238  1
  Lu  Lu7  1  0.000000  0.555844  0.873486  1
  B  B8  1  0.500000  0.553467  0.434484  1
  B  B9  1  0.500000  0.446275  0.566046  1
  B  B10  1  0.500000  0.053903  0.066174  1
  B  B11  1  0.500000  0.946331  0.933714  1
  B  B12  1  0.500000  0.750377  0.421868  1
  B  B13  1  0.500000  0.250548  0.579272  1
  B  B14  1  0.500000  0.248929  0.079069  1
  B  B15  1  0.500000  0.751008  0.920831  1
  B  B16  1  0.500000  0.793365  0.265010  1
  B  B17  1  0.500000  0.207708  0.734286  1
  B  B18  1  0.500000  0.292655  0.234770  1
  B  B19  1  0.500000  0.707483  0.765636  1
  B  B20  1  0.500000  0.631690  0.183088  1
  B  B21  1  0.500000  0.368718  0.815511  1
  B  B22  1  0.500000  0.131630  0.315782  1
  B  B23  1  0.500000  0.868281  0.684473  1
  B  B24  1  0.500000  0.981696  0.213071  1
  B  B25  1  0.500000  0.018156  0.786860  1
  B  B26  1  0.500000  0.480549  0.286604  1
  B  B27  1  0.500000  0.518196  0.713224  1
  B  B28  1  0.500000  0.607712  0.029938  1
  B  B29  1  0.500000  0.392396  0.970379  1
  B  B30  1  0.500000  0.107439  0.470429  1
  B  B31  1  0.500000  0.892106  0.529332  1
  Ir  Ir32  1  0.000000  0.637691  0.321551  1
  Ru  Ru33  1  0.000000  0.362323  0.678438  1
  Ru  Ru34  1  0.000000  0.138127  0.179315  1
  Ru  Ru35  1  0.000000  0.861867  0.820958  1
