# generated using pymatgen
data_MnAl3SiBO9
_symmetry_space_group_name_H-M   'P 1'
_cell_length_a   5.84844000
_cell_length_b   10.49893100
_cell_length_c   11.30791900
_cell_angle_alpha   90.00000000
_cell_angle_beta   90.00000000
_cell_angle_gamma   90.00000000
_symmetry_Int_Tables_number   1
_chemical_formula_structural   MnAl3SiBO9
_chemical_formula_sum   'Mn4 Al12 Si4 B4 O36'
_cell_volume   694.33300395
_cell_formula_units_Z   4
loop_
 _symmetry_equiv_pos_site_id
 _symmetry_equiv_pos_as_xyz
  1  'x, y, z'
loop_
 _atom_site_type_symbol
 _atom_site_label
 _atom_site_symmetry_multiplicity
 _atom_site_fract_x
 _atom_site_fract_y
 _atom_site_fract_z
 _atom_site_occupancy
  Mn  Mn0  1  0.250000  0.402891  0.280352  1
  Mn  Mn1  1  0.750000  0.597109  0.719648  1
  Mn  Mn2  1  0.750000  0.902891  0.219648  1
  Mn  Mn3  1  0.250000  0.097109  0.780352  1
  Al  Al4  1  0.250000  0.272422  0.050896  1
  Al  Al5  1  0.750000  0.727578  0.949104  1
  Al  Al6  1  0.750000  0.772422  0.449104  1
  Al  Al7  1  0.250000  0.227578  0.550896  1
  Al  Al8  1  0.000000  0.500000  0.000000  1
  Al  Al9  1  0.000000  0.000000  0.500000  1
  Al  Al10  1  0.500000  0.500000  0.000000  1
  Al  Al11  1  0.500000  0.000000  0.500000  1
  Al  Al12  1  0.000000  0.000000  0.000000  1
  Al  Al13  1  0.000000  0.500000  0.500000  1
  Al  Al14  1  0.500000  0.000000  0.000000  1
  Al  Al15  1  0.500000  0.500000  0.500000  1
  Si  Si16  1  0.250000  0.064619  0.234529  1
  Si  Si17  1  0.750000  0.935381  0.765471  1
  Si  Si18  1  0.750000  0.564619  0.265471  1
  Si  Si19  1  0.250000  0.435381  0.734529  1
  B  B20  1  0.250000  0.748955  0.999348  1
  B  B21  1  0.750000  0.251045  0.000652  1
  B  B22  1  0.750000  0.248955  0.500652  1
  B  B23  1  0.250000  0.751045  0.499348  1
  O  O24  1  0.046191  0.680891  0.000110  1
  O  O25  1  0.953809  0.319109  0.999890  1
  O  O26  1  0.953809  0.180891  0.499890  1
  O  O27  1  0.546191  0.319109  0.999890  1
  O  O28  1  0.046191  0.819109  0.500110  1
  O  O29  1  0.453809  0.680891  0.000110  1
  O  O30  1  0.453809  0.819109  0.500110  1
  O  O31  1  0.546191  0.180891  0.499890  1
  O  O32  1  0.025310  0.007612  0.167471  1
  O  O33  1  0.974690  0.992388  0.832529  1
  O  O34  1  0.974690  0.507612  0.332529  1
  O  O35  1  0.525310  0.992388  0.832529  1
  O  O36  1  0.025310  0.492388  0.667471  1
  O  O37  1  0.474690  0.007612  0.167471  1
  O  O38  1  0.474690  0.492388  0.667471  1
  O  O39  1  0.525310  0.507612  0.332529  1
  O  O40  1  0.250000  0.452845  0.093872  1
  O  O41  1  0.750000  0.547155  0.906128  1
  O  O42  1  0.750000  0.952845  0.406128  1
  O  O43  1  0.250000  0.047155  0.593872  1
  O  O44  1  0.250000  0.220982  0.206117  1
  O  O45  1  0.750000  0.779018  0.793883  1
  O  O46  1  0.750000  0.720982  0.293883  1
  O  O47  1  0.250000  0.279018  0.706117  1
  O  O48  1  0.250000  0.026884  0.376233  1
  O  O49  1  0.750000  0.973116  0.623767  1
  O  O50  1  0.750000  0.526884  0.123767  1
  O  O51  1  0.250000  0.473116  0.876233  1
  O  O52  1  0.250000  0.382529  0.480012  1
  O  O53  1  0.750000  0.617471  0.519988  1
  O  O54  1  0.750000  0.882529  0.019988  1
  O  O55  1  0.250000  0.117471  0.980012  1
  O  O56  1  0.250000  0.621800  0.495834  1
  O  O57  1  0.750000  0.378200  0.504166  1
  O  O58  1  0.750000  0.121800  0.004166  1
  O  O59  1  0.250000  0.878200  0.995834  1
