# generated using pymatgen
data_TbGd4Mg(SiGe)2
_symmetry_space_group_name_H-M   'P 1'
_cell_length_a   7.43936956
_cell_length_b   7.45313051
_cell_length_c   4.29550400
_cell_angle_alpha   90.00000000
_cell_angle_beta   90.00000000
_cell_angle_gamma   89.55346664
_symmetry_Int_Tables_number   1
_chemical_formula_structural   TbGd4Mg(SiGe)2
_chemical_formula_sum   'Tb1 Gd4 Mg1 Si2 Ge2'
_cell_volume   238.16382568
_cell_formula_units_Z   1
loop_
 _symmetry_equiv_pos_site_id
 _symmetry_equiv_pos_as_xyz
  1  'x, y, z'
loop_
 _atom_site_type_symbol
 _atom_site_label
 _atom_site_symmetry_multiplicity
 _atom_site_fract_x
 _atom_site_fract_y
 _atom_site_fract_z
 _atom_site_occupancy
  Tb  Tb0  1  0.000000  0.000000  0.000000  1
  Gd  Gd1  1  0.666140  0.182374  0.500000  1
  Gd  Gd2  1  0.333860  0.817626  0.500000  1
  Gd  Gd3  1  0.187453  0.329210  0.500000  1
  Gd  Gd4  1  0.812547  0.670790  0.500000  1
  Mg  Mg5  1  0.500000  0.500000  0.000000  1
  Si  Si6  1  0.619403  0.886139  0.000000  1
  Si  Si7  1  0.380597  0.113861  0.000000  1
  Ge  Ge8  1  0.120055  0.623606  0.000000  1
  Ge  Ge9  1  0.879945  0.376394  0.000000  1
