# generated using pymatgen
data_OsRu2PtPb4O13
_symmetry_space_group_name_H-M   'P 1'
_cell_length_a   7.38744968
_cell_length_b   7.40538619
_cell_length_c   7.35999781
_cell_angle_alpha   59.80133735
_cell_angle_beta   59.87653923
_cell_angle_gamma   60.08008785
_symmetry_Int_Tables_number   1
_chemical_formula_structural   OsRu2PtPb4O13
_chemical_formula_sum   'Os1 Ru2 Pt1 Pb4 O13'
_cell_volume   284.18678399
_cell_formula_units_Z   1
loop_
 _symmetry_equiv_pos_site_id
 _symmetry_equiv_pos_as_xyz
  1  'x, y, z'
loop_
 _atom_site_type_symbol
 _atom_site_label
 _atom_site_symmetry_multiplicity
 _atom_site_fract_x
 _atom_site_fract_y
 _atom_site_fract_z
 _atom_site_occupancy
  Os  Os0  1  0.874068  0.375735  0.876129  1
  Ru  Ru1  1  0.874969  0.873992  0.875829  1
  Ru  Ru2  1  0.375209  0.873992  0.875829  1
  Pt  Pt3  1  0.873949  0.875168  0.376932  1
  Pb  Pb4  1  0.881408  0.372911  0.373740  1
  Pb  Pb5  1  0.371941  0.372911  0.373740  1
  Pb  Pb6  1  0.372335  0.373090  0.882241  1
  Pb  Pb7  1  0.374867  0.877622  0.372644  1
  O  O8  1  0.197981  0.793434  0.810604  1
  O  O9  1  0.207994  0.793350  0.203269  1
  O  O10  1  0.557422  0.950379  0.934777  1
  O  O11  1  0.542464  0.956888  0.550059  1
  O  O12  1  0.950591  0.956888  0.550059  1
  O  O13  1  0.795386  0.793350  0.203269  1
  O  O14  1  0.563331  0.557851  0.932150  1
  O  O15  1  0.800343  0.197994  0.811024  1
  O  O16  1  0.797072  0.208052  0.197804  1
  O  O17  1  0.946668  0.557851  0.932150  1
  O  O18  1  0.950095  0.544840  0.554970  1
  O  O19  1  0.190640  0.197994  0.811024  1
  O  O20  1  0.501267  0.495711  0.501757  1
