# generated using pymatgen
data_K9Rb3(ScSe3)4
_symmetry_space_group_name_H-M   'P 1'
_cell_length_a   14.08917430
_cell_length_b   8.34099635
_cell_length_c   10.68663827
_cell_angle_alpha   52.51863013
_cell_angle_beta   89.87487306
_cell_angle_gamma   89.92540791
_symmetry_Int_Tables_number   1
_chemical_formula_structural   K9Rb3(ScSe3)4
_chemical_formula_sum   'K9 Rb3 Sc4 Se12'
_cell_volume   996.59458242
_cell_formula_units_Z   1
loop_
 _symmetry_equiv_pos_site_id
 _symmetry_equiv_pos_as_xyz
  1  'x, y, z'
loop_
 _atom_site_type_symbol
 _atom_site_label
 _atom_site_symmetry_multiplicity
 _atom_site_fract_x
 _atom_site_fract_y
 _atom_site_fract_z
 _atom_site_occupancy
  K  K0  1  0.889471  0.321526  0.392492  1
  K  K1  1  0.619614  0.384403  0.469016  1
  K  K2  1  0.118500  0.614554  0.032226  1
  K  K3  1  0.379771  0.617651  0.530775  1
  K  K4  1  0.882086  0.383225  0.969014  1
  K  K5  1  0.613883  0.321109  0.893675  1
  K  K6  1  0.114085  0.678585  0.606255  1
  K  K7  1  0.384600  0.681370  0.106273  1
  K  K8  1  0.175468  0.165495  0.552811  1
  Rb  Rb9  1  0.322569  0.172801  0.046825  1
  Rb  Rb10  1  0.675491  0.831232  0.952545  1
  Rb  Rb11  1  0.824758  0.831973  0.452572  1
  Sc  Sc12  1  0.066904  0.946754  0.159872  1
  Sc  Sc13  1  0.564860  0.049919  0.340511  1
  Sc  Sc14  1  0.432623  0.955418  0.657995  1
  Sc  Sc15  1  0.935734  0.049229  0.839237  1
  Se  Se16  1  0.401864  0.188156  0.356094  1
  Se  Se17  1  0.903272  0.815042  0.141268  1
  Se  Se18  1  0.594876  0.814596  0.643071  1
  Se  Se19  1  0.100135  0.179582  0.857264  1
  Se  Se20  1  0.697623  0.310593  0.200750  1
  Se  Se21  1  0.194720  0.675534  0.305650  1
  Se  Se22  1  0.299580  0.696608  0.796992  1
  Se  Se23  1  0.804288  0.312346  0.699621  1
  Se  Se24  1  0.541188  0.856501  0.231425  1
  Se  Se25  1  0.045616  0.141782  0.268372  1
  Se  Se26  1  0.457475  0.147039  0.768286  1
  Se  Se27  1  0.958946  0.856975  0.729106  1
