# generated using pymatgen
data_Li2PrYPb2
_symmetry_space_group_name_H-M   'P 1'
_cell_length_a   4.82372700
_cell_length_b   4.82372664
_cell_length_c   7.58774900
_cell_angle_alpha   90.00000000
_cell_angle_beta   90.00000000
_cell_angle_gamma   119.99999559
_symmetry_Int_Tables_number   1
_chemical_formula_structural   Li2PrYPb2
_chemical_formula_sum   'Li2 Pr1 Y1 Pb2'
_cell_volume   152.90053912
_cell_formula_units_Z   1
loop_
 _symmetry_equiv_pos_site_id
 _symmetry_equiv_pos_as_xyz
  1  'x, y, z'
loop_
 _atom_site_type_symbol
 _atom_site_label
 _atom_site_symmetry_multiplicity
 _atom_site_fract_x
 _atom_site_fract_y
 _atom_site_fract_z
 _atom_site_occupancy
  Li  Li0  1  0.666667  0.333333  0.275141  1
  Li  Li1  1  0.333333  0.666667  0.724859  1
  Pr  Pr2  1  0.000000  0.000000  0.000000  1
  Y  Y3  1  0.000000  0.000000  0.500000  1
  Pb  Pb4  1  0.666667  0.333333  0.739126  1
  Pb  Pb5  1  0.333333  0.666667  0.260874  1
