# generated using pymatgen
data_Pa2Co9Mo3As7
_symmetry_space_group_name_H-M   'P 1'
_cell_length_a   3.86672200
_cell_length_b   9.41087973
_cell_length_c   9.41087900
_cell_angle_alpha   119.99999905
_cell_angle_beta   90.00000000
_cell_angle_gamma   90.00000000
_symmetry_Int_Tables_number   1
_chemical_formula_structural   Pa2Co9Mo3As7
_chemical_formula_sum   'Pa2 Co9 Mo3 As7'
_cell_volume   296.57463062
_cell_formula_units_Z   1
loop_
 _symmetry_equiv_pos_site_id
 _symmetry_equiv_pos_as_xyz
  1  'x, y, z'
loop_
 _atom_site_type_symbol
 _atom_site_label
 _atom_site_symmetry_multiplicity
 _atom_site_fract_x
 _atom_site_fract_y
 _atom_site_fract_z
 _atom_site_occupancy
  Pa  Pa0  1  0.000000  0.666667  0.333333  1
  Pa  Pa1  1  0.500000  0.333333  0.666667  1
  Co  Co2  1  0.000000  0.565350  0.931837  1
  Co  Co3  1  0.000000  0.366487  0.434650  1
  Co  Co4  1  0.000000  0.068163  0.633513  1
  Co  Co5  1  0.000000  0.869562  0.154361  1
  Co  Co6  1  0.000000  0.284799  0.130438  1
  Co  Co7  1  0.000000  0.845639  0.715201  1
  Co  Co8  1  0.500000  0.939873  0.379553  1
  Co  Co9  1  0.500000  0.439679  0.060127  1
  Co  Co10  1  0.500000  0.620447  0.560321  1
  Mo  Mo11  1  0.500000  0.781897  0.895022  1
  Mo  Mo12  1  0.500000  0.113125  0.218103  1
  Mo  Mo13  1  0.500000  0.104978  0.886875  1
  As  As14  1  0.000000  0.000000  0.000000  1
  As  As15  1  0.500000  0.706483  0.111412  1
  As  As16  1  0.500000  0.404929  0.293517  1
  As  As17  1  0.500000  0.888588  0.595071  1
  As  As18  1  0.000000  0.590514  0.696895  1
  As  As19  1  0.000000  0.106382  0.409486  1
  As  As20  1  0.000000  0.303105  0.893618  1
