# generated using pymatgen
data_Ce6Al24Tc4Os3Au
_symmetry_space_group_name_H-M   'P 1'
_cell_length_a   8.96704872
_cell_length_b   8.97226123
_cell_length_c   9.62496192
_cell_angle_alpha   90.12985061
_cell_angle_beta   90.32065086
_cell_angle_gamma   119.62245675
_symmetry_Int_Tables_number   1
_chemical_formula_structural   Ce6Al24Tc4Os3Au
_chemical_formula_sum   'Ce6 Al24 Tc4 Os3 Au1'
_cell_volume   673.14200473
_cell_formula_units_Z   1
loop_
 _symmetry_equiv_pos_site_id
 _symmetry_equiv_pos_as_xyz
  1  'x, y, z'
loop_
 _atom_site_type_symbol
 _atom_site_label
 _atom_site_symmetry_multiplicity
 _atom_site_fract_x
 _atom_site_fract_y
 _atom_site_fract_z
 _atom_site_occupancy
  Ce  Ce0  1  0.187520  0.386500  0.249941  1
  Ce  Ce1  1  0.812480  0.613500  0.750059  1
  Ce  Ce2  1  0.614005  0.812609  0.255886  1
  Ce  Ce3  1  0.385995  0.187391  0.744114  1
  Ce  Ce4  1  0.196065  0.804915  0.255729  1
  Ce  Ce5  1  0.803935  0.195085  0.744271  1
  Al  Al6  1  0.330122  0.672209  0.013444  1
  Al  Al7  1  0.669878  0.327791  0.986556  1
  Al  Al8  1  0.667223  0.335191  0.508008  1
  Al  Al9  1  0.332777  0.664809  0.491992  1
  Al  Al10  1  0.162447  0.323698  0.575968  1
  Al  Al11  1  0.837553  0.676302  0.424032  1
  Al  Al12  1  0.677263  0.836152  0.580071  1
  Al  Al13  1  0.848677  0.681184  0.081345  1
  Al  Al14  1  0.322737  0.163848  0.419929  1
  Al  Al15  1  0.151323  0.318816  0.918655  1
  Al  Al16  1  0.160759  0.835384  0.579303  1
  Al  Al17  1  0.320286  0.151169  0.078396  1
  Al  Al18  1  0.839241  0.164616  0.420697  1
  Al  Al19  1  0.679714  0.848831  0.921604  1
  Al  Al20  1  0.836214  0.160948  0.077764  1
  Al  Al21  1  0.163786  0.839052  0.922236  1
  Al  Al22  1  0.561723  0.126573  0.248595  1
  Al  Al23  1  0.438277  0.873427  0.751405  1
  Al  Al24  1  0.873762  0.438963  0.249277  1
  Al  Al25  1  0.126238  0.561037  0.750723  1
  Al  Al26  1  0.562670  0.437817  0.255345  1
  Al  Al27  1  0.437330  0.562183  0.744655  1
  Al  Al28  1  0.000109  0.000120  0.250310  1
  Al  Al29  1  0.999891  0.999880  0.749690  1
  Tc  Tc30  1  0.000000  0.500000  0.000000  1
  Tc  Tc31  1  0.500000  0.000000  0.500000  1
  Tc  Tc32  1  0.000000  0.000000  0.000000  1
  Tc  Tc33  1  0.000000  0.000000  0.500000  1
  Os  Os34  1  0.500000  0.000000  0.000000  1
  Os  Os35  1  0.000000  0.500000  0.500000  1
  Os  Os36  1  0.500000  0.500000  0.500000  1
  Au  Au37  1  0.500000  0.500000  0.000000  1
