# generated using pymatgen
data_La8TbNdRu4
_symmetry_space_group_name_H-M   'P 1'
_cell_length_a   9.09614076
_cell_length_b   9.09614358
_cell_length_c   7.31978760
_cell_angle_alpha   85.71766277
_cell_angle_beta   85.71766265
_cell_angle_gamma   43.18151350
_symmetry_Int_Tables_number   1
_chemical_formula_structural   La8TbNdRu4
_chemical_formula_sum   'La8 Tb1 Nd1 Ru4'
_cell_volume   413.10657266
_cell_formula_units_Z   1
loop_
 _symmetry_equiv_pos_site_id
 _symmetry_equiv_pos_as_xyz
  1  'x, y, z'
loop_
 _atom_site_type_symbol
 _atom_site_label
 _atom_site_symmetry_multiplicity
 _atom_site_fract_x
 _atom_site_fract_y
 _atom_site_fract_z
 _atom_site_occupancy
  La  La0  1  0.017591  0.799647  0.906010  1
  La  La1  1  0.200353  0.982409  0.593990  1
  La  La2  1  0.982099  0.201028  0.092597  1
  La  La3  1  0.798972  0.017901  0.407403  1
  La  La4  1  0.364063  0.210352  0.817504  1
  La  La5  1  0.789648  0.635937  0.682496  1
  La  La6  1  0.636560  0.790022  0.182090  1
  La  La7  1  0.209978  0.363440  0.317910  1
  Tb  Tb8  1  0.571864  0.428136  0.750000  1
  Nd  Nd9  1  0.426954  0.573046  0.250000  1
  Ru  Ru10  1  0.171680  0.603264  0.582904  1
  Ru  Ru11  1  0.396736  0.828320  0.917096  1
  Ru  Ru12  1  0.829228  0.395727  0.419072  1
  Ru  Ru13  1  0.604273  0.170772  0.080928  1
