# generated using pymatgen
data_Mn5Nb6Si12Pt
_symmetry_space_group_name_H-M   'P 1'
_cell_length_a   9.61833804
_cell_length_b   9.61833799
_cell_length_c   9.61833766
_cell_angle_alpha   149.24310157
_cell_angle_beta   132.66902888
_cell_angle_gamma   57.51307385
_symmetry_Int_Tables_number   1
_chemical_formula_structural   Mn5Nb6Si12Pt
_chemical_formula_sum   'Mn5 Nb6 Si12 Pt1'
_cell_volume   332.14915353
_cell_formula_units_Z   1
loop_
 _symmetry_equiv_pos_site_id
 _symmetry_equiv_pos_as_xyz
  1  'x, y, z'
loop_
 _atom_site_type_symbol
 _atom_site_label
 _atom_site_symmetry_multiplicity
 _atom_site_fract_x
 _atom_site_fract_y
 _atom_site_fract_z
 _atom_site_occupancy
  Mn  Mn0  1  0.503243  0.002545  0.003524  1
  Mn  Mn1  1  0.503243  0.499719  0.500698  1
  Mn  Mn2  1  0.000979  0.997455  0.500698  1
  Mn  Mn3  1  0.000979  0.500281  0.003524  1
  Mn  Mn4  1  0.749297  0.500000  0.249297  1
  Nb  Nb5  1  0.350566  0.094097  0.256469  1
  Nb  Nb6  1  0.648609  0.905154  0.743454  1
  Nb  Nb7  1  0.162375  0.905903  0.256469  1
  Nb  Nb8  1  0.838299  0.094846  0.743454  1
  Nb  Nb9  1  0.644660  0.640676  0.003985  1
  Nb  Nb10  1  0.363309  0.359324  0.003985  1
  Si  Si11  1  0.984655  0.770274  0.754929  1
  Si  Si12  1  0.984655  0.229726  0.214379  1
  Si  Si13  1  0.508395  0.232534  0.740929  1
  Si  Si14  1  0.508395  0.767466  0.275861  1
  Si  Si15  1  0.203010  0.201724  0.001286  1
  Si  Si16  1  0.799562  0.798276  0.001286  1
  Si  Si17  1  0.291929  0.791172  0.500756  1
  Si  Si18  1  0.709584  0.208828  0.500756  1
  Si  Si19  1  0.714928  0.365692  0.349235  1
  Si  Si20  1  0.293771  0.642707  0.651065  1
  Si  Si21  1  0.983543  0.634308  0.349235  1
  Si  Si22  1  0.008358  0.357293  0.651065  1
  Pt  Pt23  1  0.243659  0.500000  0.743659  1
