# generated using pymatgen
data_Dy12Ni4BiRh
_symmetry_space_group_name_H-M   'P 1'
_cell_length_a   8.37676972
_cell_length_b   8.37691706
_cell_length_c   8.37677032
_cell_angle_alpha   111.46854367
_cell_angle_beta   109.82272099
_cell_angle_gamma   107.15075659
_symmetry_Int_Tables_number   1
_chemical_formula_structural   Dy12Ni4BiRh
_chemical_formula_sum   'Dy12 Ni4 Bi1 Rh1'
_cell_volume   451.84967681
_cell_formula_units_Z   1
loop_
 _symmetry_equiv_pos_site_id
 _symmetry_equiv_pos_as_xyz
  1  'x, y, z'
loop_
 _atom_site_type_symbol
 _atom_site_label
 _atom_site_symmetry_multiplicity
 _atom_site_fract_x
 _atom_site_fract_y
 _atom_site_fract_z
 _atom_site_occupancy
  Dy  Dy0  1  0.819778  0.705639  0.525417  1
  Dy  Dy1  1  0.180222  0.294361  0.474583  1
  Dy  Dy2  1  0.180222  0.705639  0.885860  1
  Dy  Dy3  1  0.819778  0.294361  0.114140  1
  Dy  Dy4  1  0.682330  0.374865  0.692535  1
  Dy  Dy5  1  0.317670  0.625135  0.307465  1
  Dy  Dy6  1  0.682328  0.989791  0.307464  1
  Dy  Dy7  1  0.317672  0.010209  0.692536  1
  Dy  Dy8  1  0.598244  0.792150  0.806097  1
  Dy  Dy9  1  0.401756  0.207850  0.193903  1
  Dy  Dy10  1  0.986055  0.792150  0.193906  1
  Dy  Dy11  1  0.013945  0.207850  0.806094  1
  Ni  Ni12  1  0.631060  0.000000  0.631060  1
  Ni  Ni13  1  0.368940  0.000000  0.368940  1
  Ni  Ni14  1  0.122976  0.622966  0.499990  1
  Ni  Ni15  1  0.877024  0.377034  0.500010  1
  Bi  Bi16  1  0.500000  0.500000  0.000000  1
  Rh  Rh17  1  0.000000  0.000000  0.000000  1
