# generated using pymatgen
data_Ca8YbYIr4
_symmetry_space_group_name_H-M   'P 1'
_cell_length_a   6.55546475
_cell_length_b   7.50751544
_cell_length_c   8.58972664
_cell_angle_alpha   97.21059338
_cell_angle_beta   112.43206375
_cell_angle_gamma   89.99999810
_symmetry_Int_Tables_number   1
_chemical_formula_structural   Ca8YbYIr4
_chemical_formula_sum   'Ca8 Yb1 Y1 Ir4'
_cell_volume   387.13810065
_cell_formula_units_Z   1
loop_
 _symmetry_equiv_pos_site_id
 _symmetry_equiv_pos_as_xyz
  1  'x, y, z'
loop_
 _atom_site_type_symbol
 _atom_site_label
 _atom_site_symmetry_multiplicity
 _atom_site_fract_x
 _atom_site_fract_y
 _atom_site_fract_z
 _atom_site_occupancy
  Ca  Ca0  1  0.972020  0.918131  0.172310  1
  Ca  Ca1  1  0.799708  0.581869  0.827690  1
  Ca  Ca2  1  0.024224  0.081205  0.825945  1
  Ca  Ca3  1  0.198280  0.418795  0.174055  1
  Ca  Ca4  1  0.638296  0.821971  0.433663  1
  Ca  Ca5  1  0.204634  0.678029  0.566337  1
  Ca  Ca6  1  0.359514  0.178846  0.562728  1
  Ca  Ca7  1  0.796786  0.321154  0.437272  1
  Yb  Yb8  1  0.432727  0.750000  0.000000  1
  Y  Y9  1  0.564351  0.250000  0.000000  1
  Ir  Ir10  1  0.815445  0.572223  0.213064  1
  Ir  Ir11  1  0.602379  0.927777  0.786936  1
  Ir  Ir12  1  0.189195  0.418218  0.786754  1
  Ir  Ir13  1  0.402442  0.081782  0.213246  1
