# generated using pymatgen
data_Sc2MnCrC3
_symmetry_space_group_name_H-M   'P 1'
_cell_length_a   5.37048910
_cell_length_b   5.37048899
_cell_length_c   5.25940234
_cell_angle_alpha   72.96152080
_cell_angle_beta   72.96151947
_cell_angle_gamma   34.80343123
_symmetry_Int_Tables_number   1
_chemical_formula_structural   Sc2MnCrC3
_chemical_formula_sum   'Sc2 Mn1 Cr1 C3'
_cell_volume   82.39750968
_cell_formula_units_Z   1
loop_
 _symmetry_equiv_pos_site_id
 _symmetry_equiv_pos_as_xyz
  1  'x, y, z'
loop_
 _atom_site_type_symbol
 _atom_site_label
 _atom_site_symmetry_multiplicity
 _atom_site_fract_x
 _atom_site_fract_y
 _atom_site_fract_z
 _atom_site_occupancy
  Sc  Sc0  1  0.388820  0.388820  0.312309  1
  Sc  Sc1  1  0.612987  0.612987  0.688598  1
  Mn  Mn2  1  0.153453  0.153453  0.120689  1
  Cr  Cr3  1  0.847434  0.847434  0.881291  1
  C  C4  1  0.717513  0.717513  0.242643  1
  C  C5  1  0.278842  0.278842  0.753688  1
  C  C6  1  0.000952  0.000952  0.000782  1
