# generated using pymatgen
data_Sr2Al(AsPd2)6
_symmetry_space_group_name_H-M   'P 1'
_cell_length_a   10.14606700
_cell_length_b   10.14606695
_cell_length_c   4.16623100
_cell_angle_alpha   90.00000000
_cell_angle_beta   90.00000000
_cell_angle_gamma   120.00000255
_symmetry_Int_Tables_number   1
_chemical_formula_structural   Sr2Al(AsPd2)6
_chemical_formula_sum   'Sr2 Al1 As6 Pd12'
_cell_volume   371.42353252
_cell_formula_units_Z   1
loop_
 _symmetry_equiv_pos_site_id
 _symmetry_equiv_pos_as_xyz
  1  'x, y, z'
loop_
 _atom_site_type_symbol
 _atom_site_label
 _atom_site_symmetry_multiplicity
 _atom_site_fract_x
 _atom_site_fract_y
 _atom_site_fract_z
 _atom_site_occupancy
  Sr  Sr0  1  0.666667  0.333333  0.257343  1
  Sr  Sr1  1  0.000000  0.000000  0.756565  1
  Al  Al2  1  0.333333  0.666667  0.266038  1
  As  As3  1  0.736800  0.783834  0.257109  1
  As  As4  1  0.047033  0.263200  0.257109  1
  As  As5  1  0.216166  0.952967  0.257109  1
  As  As6  1  0.932394  0.560396  0.758053  1
  As  As7  1  0.628000  0.067606  0.758053  1
  As  As8  1  0.439604  0.372000  0.758053  1
  Pd  Pd9  1  0.773461  0.050100  0.255931  1
  Pd  Pd10  1  0.276639  0.226539  0.255931  1
  Pd  Pd11  1  0.949900  0.723361  0.255931  1
  Pd  Pd12  1  0.907468  0.286023  0.757498  1
  Pd  Pd13  1  0.378554  0.092532  0.757498  1
  Pd  Pd14  1  0.713977  0.621446  0.757498  1
  Pd  Pd15  1  0.490090  0.544146  0.261648  1
  Pd  Pd16  1  0.054054  0.509910  0.261648  1
  Pd  Pd17  1  0.455854  0.945946  0.261648  1
  Pd  Pd18  1  0.218305  0.747926  0.766952  1
  Pd  Pd19  1  0.529623  0.781695  0.766952  1
  Pd  Pd20  1  0.252074  0.470377  0.766952  1
