# generated using pymatgen
data_CaDy3Tm4(B6Ru)4
_symmetry_space_group_name_H-M   'P 1'
_cell_length_a   3.63800900
_cell_length_b   9.10683909
_cell_length_c   11.50207501
_cell_angle_alpha   89.90856992
_cell_angle_beta   90.00000000
_cell_angle_gamma   90.00000000
_symmetry_Int_Tables_number   1
_chemical_formula_structural   CaDy3Tm4(B6Ru)4
_chemical_formula_sum   'Ca1 Dy3 Tm4 B24 Ru4'
_cell_volume   381.07203105
_cell_formula_units_Z   1
loop_
 _symmetry_equiv_pos_site_id
 _symmetry_equiv_pos_as_xyz
  1  'x, y, z'
loop_
 _atom_site_type_symbol
 _atom_site_label
 _atom_site_symmetry_multiplicity
 _atom_site_fract_x
 _atom_site_fract_y
 _atom_site_fract_z
 _atom_site_occupancy
  Ca  Ca0  1  0.000000  0.322134  0.414005  1
  Dy  Dy1  1  0.000000  0.676357  0.585030  1
  Dy  Dy2  1  0.000000  0.822245  0.086251  1
  Dy  Dy3  1  0.000000  0.178250  0.914557  1
  Tm  Tm4  1  0.000000  0.944022  0.371224  1
  Tm  Tm5  1  0.000000  0.057852  0.628026  1
  Tm  Tm6  1  0.000000  0.443018  0.129449  1
  Tm  Tm7  1  0.000000  0.556183  0.872259  1
  B  B8  1  0.500000  0.554770  0.432416  1
  B  B9  1  0.500000  0.445946  0.568052  1
  B  B10  1  0.500000  0.053545  0.066618  1
  B  B11  1  0.500000  0.945523  0.932281  1
  B  B12  1  0.500000  0.749308  0.418830  1
  B  B13  1  0.500000  0.251341  0.581725  1
  B  B14  1  0.500000  0.248480  0.080634  1
  B  B15  1  0.500000  0.750891  0.919239  1
  B  B16  1  0.500000  0.791851  0.265806  1
  B  B17  1  0.500000  0.209266  0.734560  1
  B  B18  1  0.500000  0.290205  0.233353  1
  B  B19  1  0.500000  0.708954  0.766184  1
  B  B20  1  0.500000  0.631340  0.185321  1
  B  B21  1  0.500000  0.369276  0.815776  1
  B  B22  1  0.500000  0.130248  0.314057  1
  B  B23  1  0.500000  0.869196  0.684784  1
  B  B24  1  0.500000  0.982896  0.212042  1
  B  B25  1  0.500000  0.016838  0.786938  1
  B  B26  1  0.500000  0.483651  0.287123  1
  B  B27  1  0.500000  0.516899  0.713346  1
  B  B28  1  0.500000  0.605561  0.029266  1
  B  B29  1  0.500000  0.394692  0.971381  1
  B  B30  1  0.500000  0.102252  0.471747  1
  B  B31  1  0.500000  0.896482  0.528519  1
  Ru  Ru32  1  0.000000  0.640282  0.319694  1
  Ru  Ru33  1  0.000000  0.361695  0.681345  1
  Ru  Ru34  1  0.000000  0.136813  0.177781  1
  Ru  Ru35  1  0.000000  0.861737  0.820384  1
