# generated using pymatgen
data_Tb8Y8Cd4Ir3Pd
_symmetry_space_group_name_H-M   'P 1'
_cell_length_a   9.67841751
_cell_length_b   9.67841683
_cell_length_c   9.68826702
_cell_angle_alpha   60.16999779
_cell_angle_beta   60.17000166
_cell_angle_gamma   60.24526487
_symmetry_Int_Tables_number   1
_chemical_formula_structural   Tb8Y8Cd4Ir3Pd
_chemical_formula_sum   'Tb8 Y8 Cd4 Ir3 Pd1'
_cell_volume   644.54556189
_cell_formula_units_Z   1
loop_
 _symmetry_equiv_pos_site_id
 _symmetry_equiv_pos_as_xyz
  1  'x, y, z'
loop_
 _atom_site_type_symbol
 _atom_site_label
 _atom_site_symmetry_multiplicity
 _atom_site_fract_x
 _atom_site_fract_y
 _atom_site_fract_z
 _atom_site_occupancy
  Tb  Tb0  1  0.346961  0.346961  0.347819  1
  Tb  Tb1  1  0.353619  0.353619  0.947206  1
  Tb  Tb2  1  0.354188  0.947680  0.353409  1
  Tb  Tb3  1  0.947680  0.354188  0.353409  1
  Tb  Tb4  1  0.804072  0.190669  0.190851  1
  Tb  Tb5  1  0.188606  0.810178  0.810118  1
  Tb  Tb6  1  0.190669  0.804072  0.190851  1
  Tb  Tb7  1  0.810178  0.188606  0.810118  1
  Y  Y8  1  0.191195  0.191195  0.803682  1
  Y  Y9  1  0.809815  0.809815  0.188832  1
  Y  Y10  1  0.938634  0.563126  0.563249  1
  Y  Y11  1  0.564728  0.937285  0.937296  1
  Y  Y12  1  0.563126  0.938634  0.563249  1
  Y  Y13  1  0.937285  0.564728  0.937296  1
  Y  Y14  1  0.562699  0.562699  0.939323  1
  Y  Y15  1  0.937504  0.937504  0.564631  1
  Cd  Cd16  1  0.581039  0.581039  0.580297  1
  Cd  Cd17  1  0.580919  0.580919  0.255980  1
  Cd  Cd18  1  0.580253  0.255984  0.580951  1
  Cd  Cd19  1  0.255984  0.580253  0.580951  1
  Ir  Ir20  1  0.141367  0.141367  0.573621  1
  Ir  Ir21  1  0.143014  0.573598  0.141324  1
  Ir  Ir22  1  0.573598  0.143014  0.141324  1
  Pd  Pd23  1  0.142870  0.142870  0.144211  1
