# generated using pymatgen
data_TbEr3(MgRh)4
_symmetry_space_group_name_H-M   'P 1'
_cell_length_a   4.10029700
_cell_length_b   7.09051020
_cell_length_c   8.49410615
_cell_angle_alpha   90.04374922
_cell_angle_beta   90.00000000
_cell_angle_gamma   90.00000000
_symmetry_Int_Tables_number   1
_chemical_formula_structural   TbEr3(MgRh)4
_chemical_formula_sum   'Tb1 Er3 Mg4 Rh4'
_cell_volume   246.95075520
_cell_formula_units_Z   1
loop_
 _symmetry_equiv_pos_site_id
 _symmetry_equiv_pos_as_xyz
  1  'x, y, z'
loop_
 _atom_site_type_symbol
 _atom_site_label
 _atom_site_symmetry_multiplicity
 _atom_site_fract_x
 _atom_site_fract_y
 _atom_site_fract_z
 _atom_site_occupancy
  Tb  Tb0  1  0.750000  0.963545  0.676790  1
  Er  Er1  1  0.250000  0.536570  0.176124  1
  Er  Er2  1  0.750000  0.463473  0.824883  1
  Er  Er3  1  0.250000  0.036412  0.322517  1
  Mg  Mg4  1  0.250000  0.136905  0.938954  1
  Mg  Mg5  1  0.750000  0.863535  0.061990  1
  Mg  Mg6  1  0.250000  0.636438  0.561226  1
  Mg  Mg7  1  0.750000  0.363096  0.437604  1
  Rh  Rh8  1  0.750000  0.749389  0.372187  1
  Rh  Rh9  1  0.250000  0.252615  0.626350  1
  Rh  Rh10  1  0.750000  0.250194  0.126726  1
  Rh  Rh11  1  0.250000  0.747829  0.874652  1
