# generated using pymatgen
data_Y7Mg2PaOs2
_symmetry_space_group_name_H-M   'P 1'
_cell_length_a   9.73890531
_cell_length_b   9.73890608
_cell_length_c   9.89569500
_cell_angle_alpha   59.46600061
_cell_angle_beta   59.46599797
_cell_angle_gamma   59.43961762
_symmetry_Int_Tables_number   1
_chemical_formula_structural   Y7Mg2PaOs2
_chemical_formula_sum   'Y14 Mg4 Pa2 Os4'
_cell_volume   655.47418898
_cell_formula_units_Z   2
loop_
 _symmetry_equiv_pos_site_id
 _symmetry_equiv_pos_as_xyz
  1  'x, y, z'
loop_
 _atom_site_type_symbol
 _atom_site_label
 _atom_site_symmetry_multiplicity
 _atom_site_fract_x
 _atom_site_fract_y
 _atom_site_fract_z
 _atom_site_occupancy
  Y  Y0  1  0.347173  0.959345  0.346740  1
  Y  Y1  1  0.959345  0.347173  0.346740  1
  Y  Y2  1  0.811227  0.187932  0.191509  1
  Y  Y3  1  0.187932  0.811227  0.809332  1
  Y  Y4  1  0.187932  0.811227  0.191509  1
  Y  Y5  1  0.811227  0.187932  0.809332  1
  Y  Y6  1  0.189499  0.189499  0.810501  1
  Y  Y7  1  0.813131  0.813131  0.186869  1
  Y  Y8  1  0.941105  0.558155  0.561748  1
  Y  Y9  1  0.558155  0.941105  0.938992  1
  Y  Y10  1  0.558155  0.941105  0.561748  1
  Y  Y11  1  0.941105  0.558155  0.938992  1
  Y  Y12  1  0.558403  0.558403  0.941597  1
  Y  Y13  1  0.935549  0.935549  0.564451  1
  Mg  Mg14  1  0.576915  0.576915  0.582066  1
  Mg  Mg15  1  0.576915  0.576915  0.264100  1
  Mg  Mg16  1  0.575717  0.261011  0.581636  1
  Mg  Mg17  1  0.261011  0.575717  0.581636  1
  Pa  Pa18  1  0.338214  0.338214  0.343185  1
  Pa  Pa19  1  0.338214  0.338214  0.980387  1
  Os  Os20  1  0.151990  0.151990  0.126200  1
  Os  Os21  1  0.151990  0.151990  0.569816  1
  Os  Os22  1  0.160755  0.568337  0.135452  1
  Os  Os23  1  0.568337  0.160755  0.135452  1
