# generated using pymatgen
data_NdY2Ho2Sn3
_symmetry_space_group_name_H-M   'P 1'
_cell_length_a   9.04974864
_cell_length_b   8.98601229
_cell_length_c   6.61481300
_cell_angle_alpha   90.00000000
_cell_angle_beta   90.00000000
_cell_angle_gamma   119.76729501
_symmetry_Int_Tables_number   1
_chemical_formula_structural   NdY2Ho2Sn3
_chemical_formula_sum   'Nd2 Y4 Ho4 Sn6'
_cell_volume   466.94457252
_cell_formula_units_Z   2
loop_
 _symmetry_equiv_pos_site_id
 _symmetry_equiv_pos_as_xyz
  1  'x, y, z'
loop_
 _atom_site_type_symbol
 _atom_site_label
 _atom_site_symmetry_multiplicity
 _atom_site_fract_x
 _atom_site_fract_y
 _atom_site_fract_z
 _atom_site_occupancy
  Nd  Nd0  1  0.000000  0.763318  0.750000  1
  Nd  Nd1  1  0.000000  0.236682  0.250000  1
  Y  Y2  1  0.758434  0.759262  0.250000  1
  Y  Y3  1  0.758434  0.999172  0.750000  1
  Y  Y4  1  0.241566  0.240738  0.750000  1
  Y  Y5  1  0.241566  0.000828  0.250000  1
  Ho  Ho6  1  0.333081  0.666541  0.500000  1
  Ho  Ho7  1  0.666919  0.333459  0.000000  1
  Ho  Ho8  1  0.666919  0.333459  0.500000  1
  Ho  Ho9  1  0.333081  0.666541  0.000000  1
  Sn  Sn10  1  0.400052  0.002437  0.750000  1
  Sn  Sn11  1  0.400052  0.397615  0.250000  1
  Sn  Sn12  1  0.000000  0.606831  0.250000  1
  Sn  Sn13  1  0.000000  0.393169  0.750000  1
  Sn  Sn14  1  0.599948  0.602385  0.750000  1
  Sn  Sn15  1  0.599948  0.997563  0.250000  1
