# generated using pymatgen
data_Hf2V3W
_symmetry_space_group_name_H-M   'P 1'
_cell_length_a   5.26542900
_cell_length_b   5.26542938
_cell_length_c   8.36304600
_cell_angle_alpha   90.00000000
_cell_angle_beta   90.00000000
_cell_angle_gamma   119.99999135
_symmetry_Int_Tables_number   1
_chemical_formula_structural   Hf2V3W
_chemical_formula_sum   'Hf4 V6 W2'
_cell_volume   200.79953757
_cell_formula_units_Z   2
loop_
 _symmetry_equiv_pos_site_id
 _symmetry_equiv_pos_as_xyz
  1  'x, y, z'
loop_
 _atom_site_type_symbol
 _atom_site_label
 _atom_site_symmetry_multiplicity
 _atom_site_fract_x
 _atom_site_fract_y
 _atom_site_fract_z
 _atom_site_occupancy
  Hf  Hf0  1  0.333333  0.666667  0.436934  1
  Hf  Hf1  1  0.666667  0.333333  0.563066  1
  Hf  Hf2  1  0.666667  0.333333  0.936934  1
  Hf  Hf3  1  0.333333  0.666667  0.063066  1
  V  V4  1  0.827032  0.172968  0.250000  1
  V  V5  1  0.827032  0.654063  0.250000  1
  V  V6  1  0.345937  0.172968  0.250000  1
  V  V7  1  0.172968  0.827032  0.750000  1
  V  V8  1  0.172968  0.345937  0.750000  1
  V  V9  1  0.654063  0.827032  0.750000  1
  W  W10  1  0.000000  0.000000  0.500000  1
  W  W11  1  0.000000  0.000000  0.000000  1
