# generated using pymatgen
data_LiPr3CoC6
_symmetry_space_group_name_H-M   'P 1'
_cell_length_a   8.50256200
_cell_length_b   8.50256177
_cell_length_c   5.33175100
_cell_angle_alpha   90.00000000
_cell_angle_beta   90.00000000
_cell_angle_gamma   119.99999986
_symmetry_Int_Tables_number   1
_chemical_formula_structural   LiPr3CoC6
_chemical_formula_sum   'Li2 Pr6 Co2 C12'
_cell_volume   333.81057782
_cell_formula_units_Z   2
loop_
 _symmetry_equiv_pos_site_id
 _symmetry_equiv_pos_as_xyz
  1  'x, y, z'
loop_
 _atom_site_type_symbol
 _atom_site_label
 _atom_site_symmetry_multiplicity
 _atom_site_fract_x
 _atom_site_fract_y
 _atom_site_fract_z
 _atom_site_occupancy
  Li  Li0  1  0.000000  0.000000  0.500000  1
  Li  Li1  1  0.000000  0.000000  0.000000  1
  Pr  Pr2  1  0.617311  0.675388  0.750000  1
  Pr  Pr3  1  0.941923  0.617311  0.250000  1
  Pr  Pr4  1  0.675388  0.058077  0.250000  1
  Pr  Pr5  1  0.324612  0.941923  0.750000  1
  Pr  Pr6  1  0.058077  0.382689  0.750000  1
  Pr  Pr7  1  0.382689  0.324612  0.250000  1
  Co  Co8  1  0.666667  0.333333  0.750000  1
  Co  Co9  1  0.333333  0.666667  0.250000  1
  C  C10  1  0.978920  0.735833  0.750000  1
  C  C11  1  0.243087  0.978920  0.250000  1
  C  C12  1  0.735833  0.756913  0.250000  1
  C  C13  1  0.264167  0.243087  0.750000  1
  C  C14  1  0.756913  0.021080  0.750000  1
  C  C15  1  0.021080  0.264167  0.250000  1
  C  C16  1  0.857605  0.561271  0.750000  1
  C  C17  1  0.296333  0.857605  0.250000  1
  C  C18  1  0.561271  0.703667  0.250000  1
  C  C19  1  0.438729  0.296333  0.750000  1
  C  C20  1  0.142395  0.438729  0.250000  1
  C  C21  1  0.703667  0.142395  0.750000  1
