# generated using pymatgen
data_NaLaB4Ir5
_symmetry_space_group_name_H-M   'P 1'
_cell_length_a   7.54225082
_cell_length_b   6.30028700
_cell_length_c   5.71771626
_cell_angle_alpha   77.57603168
_cell_angle_beta   54.66367082
_cell_angle_gamma   47.76027837
_symmetry_Int_Tables_number   1
_chemical_formula_structural   NaLaB4Ir5
_chemical_formula_sum   'Na1 La1 B4 Ir5'
_cell_volume   157.16040235
_cell_formula_units_Z   1
loop_
 _symmetry_equiv_pos_site_id
 _symmetry_equiv_pos_as_xyz
  1  'x, y, z'
loop_
 _atom_site_type_symbol
 _atom_site_label
 _atom_site_symmetry_multiplicity
 _atom_site_fract_x
 _atom_site_fract_y
 _atom_site_fract_z
 _atom_site_occupancy
  Na  Na0  1  0.649980  0.649981  0.350020  1
  La  La1  1  0.366616  0.366616  0.633384  1
  B  B2  1  0.288645  0.967595  0.032406  1
  B  B3  1  0.027457  0.705697  0.294303  1
  B  B4  1  0.967594  0.288645  0.711355  1
  B  B5  1  0.705697  0.027457  0.972543  1
  Ir  Ir6  1  0.000503  0.000503  0.999497  1
  Ir  Ir7  1  0.499922  0.499922  0.000078  1
  Ir  Ir8  1  0.246832  0.246832  0.253168  1
  Ir  Ir9  1  0.999922  0.999922  0.500078  1
  Ir  Ir10  1  0.746832  0.746832  0.753168  1
