# generated using pymatgen
data_Ba10Ca4Ta(SbO6)5
_symmetry_space_group_name_H-M   'P 1'
_cell_length_a   10.43835270
_cell_length_b   10.43835317
_cell_length_c   10.43835281
_cell_angle_alpha   99.55236053
_cell_angle_beta   99.55235984
_cell_angle_gamma   131.92076427
_symmetry_Int_Tables_number   1
_chemical_formula_structural   Ba10Ca4Ta(SbO6)5
_chemical_formula_sum   'Ba10 Ca4 Ta1 Sb5 O30'
_cell_volume   772.86876249
_cell_formula_units_Z   1
loop_
 _symmetry_equiv_pos_site_id
 _symmetry_equiv_pos_as_xyz
  1  'x, y, z'
loop_
 _atom_site_type_symbol
 _atom_site_label
 _atom_site_symmetry_multiplicity
 _atom_site_fract_x
 _atom_site_fract_y
 _atom_site_fract_z
 _atom_site_occupancy
  Ba  Ba0  1  0.646191  0.949261  0.101142  1
  Ba  Ba1  1  0.050739  0.151880  0.696930  1
  Ba  Ba2  1  0.454950  0.353809  0.303070  1
  Ba  Ba3  1  0.848120  0.545050  0.898858  1
  Ba  Ba4  1  0.250000  0.750000  0.500000  1
  Ba  Ba5  1  0.750000  0.250000  0.500000  1
  Ba  Ba6  1  0.151880  0.454950  0.101142  1
  Ba  Ba7  1  0.545050  0.646191  0.696930  1
  Ba  Ba8  1  0.949261  0.848120  0.303070  1
  Ba  Ba9  1  0.353809  0.050739  0.898858  1
  Ca  Ca10  1  0.400601  0.200466  0.601067  1
  Ca  Ca11  1  0.799534  0.400601  0.200134  1
  Ca  Ca12  1  0.200466  0.599399  0.799866  1
  Ca  Ca13  1  0.599399  0.799534  0.398933  1
  Ta  Ta14  1  0.000000  0.000000  0.000000  1
  Sb  Sb15  1  0.098270  0.297496  0.395766  1
  Sb  Sb16  1  0.500000  0.500000  0.000000  1
  Sb  Sb17  1  0.901730  0.702504  0.604234  1
  Sb  Sb18  1  0.297496  0.901730  0.199227  1
  Sb  Sb19  1  0.702504  0.098270  0.800773  1
  O  O20  1  0.042647  0.660454  0.703102  1
  O  O21  1  0.438981  0.855816  0.294797  1
  O  O22  1  0.857496  0.046763  0.904259  1
  O  O23  1  0.236809  0.247214  0.484022  1
  O  O24  1  0.637793  0.452411  0.090205  1
  O  O25  1  0.474628  0.864302  0.804842  1
  O  O26  1  0.864302  0.059462  0.389675  1
  O  O27  1  0.240640  0.240640  0.000000  1
  O  O28  1  0.669786  0.474628  0.610325  1
  O  O29  1  0.059462  0.669786  0.195158  1
  O  O30  1  0.144184  0.438981  0.583165  1
  O  O31  1  0.547589  0.637793  0.185381  1
  O  O32  1  0.953237  0.857496  0.810733  1
  O  O33  1  0.339546  0.042647  0.382192  1
  O  O34  1  0.752786  0.236809  0.989595  1
  O  O35  1  0.940538  0.330214  0.804842  1
  O  O36  1  0.330214  0.525372  0.389675  1
  O  O37  1  0.759360  0.759360  0.000000  1
  O  O38  1  0.135698  0.940538  0.610325  1
  O  O39  1  0.525372  0.135698  0.195158  1
  O  O40  1  0.247214  0.763191  0.010405  1
  O  O41  1  0.660454  0.957353  0.617808  1
  O  O42  1  0.046763  0.142504  0.189267  1
  O  O43  1  0.452411  0.362207  0.814619  1
  O  O44  1  0.855816  0.561019  0.416835  1
  O  O45  1  0.362207  0.547589  0.909795  1
  O  O46  1  0.763191  0.752786  0.515978  1
  O  O47  1  0.142504  0.953237  0.095741  1
  O  O48  1  0.561019  0.144184  0.705203  1
  O  O49  1  0.957353  0.339546  0.296898  1
