# generated using pymatgen
data_Tb3DyAgRh
_symmetry_space_group_name_H-M   'P 1'
_cell_length_a   9.56643217
_cell_length_b   9.56643162
_cell_length_c   9.56277621
_cell_angle_alpha   60.01658998
_cell_angle_beta   60.01658710
_cell_angle_gamma   60.02510854
_symmetry_Int_Tables_number   1
_chemical_formula_structural   Tb3DyAgRh
_chemical_formula_sum   'Tb12 Dy4 Ag4 Rh4'
_cell_volume   619.09913169
_cell_formula_units_Z   4
loop_
 _symmetry_equiv_pos_site_id
 _symmetry_equiv_pos_as_xyz
  1  'x, y, z'
loop_
 _atom_site_type_symbol
 _atom_site_label
 _atom_site_symmetry_multiplicity
 _atom_site_fract_x
 _atom_site_fract_y
 _atom_site_fract_z
 _atom_site_occupancy
  Tb  Tb0  1  0.687476  0.312296  0.312832  1
  Tb  Tb1  1  0.687341  0.687341  0.313029  1
  Tb  Tb2  1  0.312296  0.687476  0.312832  1
  Tb  Tb3  1  0.935337  0.935337  0.564872  1
  Tb  Tb4  1  0.147043  0.147043  0.558217  1
  Tb  Tb5  1  0.563726  0.935471  0.564433  1
  Tb  Tb6  1  0.147612  0.147612  0.147433  1
  Tb  Tb7  1  0.313158  0.313158  0.687028  1
  Tb  Tb8  1  0.935471  0.563726  0.564433  1
  Tb  Tb9  1  0.563594  0.563594  0.936115  1
  Tb  Tb10  1  0.564397  0.935650  0.935798  1
  Tb  Tb11  1  0.935650  0.564397  0.935798  1
  Dy  Dy12  1  0.146842  0.558771  0.146960  1
  Dy  Dy13  1  0.312875  0.686974  0.687430  1
  Dy  Dy14  1  0.686974  0.312875  0.687430  1
  Dy  Dy15  1  0.558771  0.146842  0.146960  1
  Ag  Ag16  1  0.917526  0.917526  0.247218  1
  Ag  Ag17  1  0.246962  0.917500  0.917624  1
  Ag  Ag18  1  0.917500  0.246962  0.917624  1
  Ag  Ag19  1  0.917564  0.917564  0.917607  1
  Rh  Rh20  1  0.356784  0.356784  0.354976  1
  Rh  Rh21  1  0.930535  0.357334  0.356322  1
  Rh  Rh22  1  0.357229  0.357229  0.930708  1
  Rh  Rh23  1  0.357334  0.930535  0.356322  1
