# generated using pymatgen
data_Yb4Er2Al17Si7Os8
_symmetry_space_group_name_H-M   'P 1'
_cell_length_a   8.66739027
_cell_length_b   8.64842468
_cell_length_c   9.56977600
_cell_angle_alpha   90.00000000
_cell_angle_beta   90.00000000
_cell_angle_gamma   120.16561118
_symmetry_Int_Tables_number   1
_chemical_formula_structural   Yb4Er2Al17Si7Os8
_chemical_formula_sum   'Yb4 Er2 Al17 Si7 Os8'
_cell_volume   620.19832306
_cell_formula_units_Z   1
loop_
 _symmetry_equiv_pos_site_id
 _symmetry_equiv_pos_as_xyz
  1  'x, y, z'
loop_
 _atom_site_type_symbol
 _atom_site_label
 _atom_site_symmetry_multiplicity
 _atom_site_fract_x
 _atom_site_fract_y
 _atom_site_fract_z
 _atom_site_occupancy
  Yb  Yb0  1  0.192288  0.387400  0.250000  1
  Yb  Yb1  1  0.805961  0.611915  0.750000  1
  Yb  Yb2  1  0.390517  0.191930  0.750000  1
  Yb  Yb3  1  0.800477  0.192604  0.750000  1
  Er  Er4  1  0.609974  0.806994  0.250000  1
  Er  Er5  1  0.195798  0.803656  0.250000  1
  Al  Al6  1  0.166113  0.333141  0.576560  1
  Al  Al7  1  0.833317  0.669555  0.420472  1
  Al  Al8  1  0.668424  0.834330  0.576813  1
  Al  Al9  1  0.833317  0.669555  0.079528  1
  Al  Al10  1  0.332066  0.166870  0.423010  1
  Al  Al11  1  0.166113  0.333141  0.923440  1
  Al  Al12  1  0.165823  0.833427  0.575768  1
  Al  Al13  1  0.332066  0.166870  0.076990  1
  Al  Al14  1  0.834462  0.165237  0.422510  1
  Al  Al15  1  0.668424  0.834330  0.923187  1
  Al  Al16  1  0.834462  0.165237  0.077490  1
  Al  Al17  1  0.165823  0.833427  0.924232  1
  Al  Al18  1  0.125871  0.565692  0.750000  1
  Al  Al19  1  0.563267  0.433833  0.250000  1
  Al  Al20  1  0.438276  0.566178  0.750000  1
  Al  Al21  1  0.999367  0.998095  0.250000  1
  Al  Al22  1  0.000490  0.002258  0.750000  1
  Si  Si23  1  0.333363  0.664102  0.040899  1
  Si  Si24  1  0.666325  0.335633  0.963314  1
  Si  Si25  1  0.666325  0.335633  0.536686  1
  Si  Si26  1  0.333363  0.664102  0.459101  1
  Si  Si27  1  0.565160  0.125676  0.250000  1
  Si  Si28  1  0.434969  0.871735  0.750000  1
  Si  Si29  1  0.874151  0.432625  0.250000  1
  Os  Os30  1  0.500363  0.999589  0.004106  1
  Os  Os31  1  0.999212  0.500908  0.009311  1
  Os  Os32  1  0.500363  0.999589  0.495894  1
  Os  Os33  1  0.501610  0.501719  0.002425  1
  Os  Os34  1  0.999212  0.500908  0.490689  1
  Os  Os35  1  0.501610  0.501719  0.497575  1
  Os  Os36  1  0.000642  0.000193  0.998707  1
  Os  Os37  1  0.000642  0.000193  0.501293  1
