# generated using pymatgen
data_ZrNb3(As2Pd)4
_symmetry_space_group_name_H-M   'P 1'
_cell_length_a   5.91124550
_cell_length_b   3.60547000
_cell_length_c   13.06071006
_cell_angle_alpha   90.00000000
_cell_angle_beta   89.70568481
_cell_angle_gamma   90.00000000
_symmetry_Int_Tables_number   1
_chemical_formula_structural   ZrNb3(As2Pd)4
_chemical_formula_sum   'Zr1 Nb3 As8 Pd4'
_cell_volume   278.35686834
_cell_formula_units_Z   1
loop_
 _symmetry_equiv_pos_site_id
 _symmetry_equiv_pos_as_xyz
  1  'x, y, z'
loop_
 _atom_site_type_symbol
 _atom_site_label
 _atom_site_symmetry_multiplicity
 _atom_site_fract_x
 _atom_site_fract_y
 _atom_site_fract_z
 _atom_site_occupancy
  Zr  Zr0  1  0.982091  0.750001  0.170875  1
  Nb  Nb1  1  0.480654  0.750001  0.332943  1
  Nb  Nb2  1  0.516927  0.249999  0.669900  1
  Nb  Nb3  1  0.015171  0.249999  0.826959  1
  As  As4  1  0.177617  0.249999  0.030726  1
  As  As5  1  0.647303  0.249999  0.204627  1
  As  As6  1  0.161492  0.249999  0.303342  1
  As  As7  1  0.677200  0.249999  0.465459  1
  As  As8  1  0.328545  0.750001  0.536619  1
  As  As9  1  0.841336  0.750001  0.699803  1
  As  As10  1  0.341304  0.750001  0.797330  1
  As  As11  1  0.828289  0.750001  0.961122  1
  Pd  Pd12  1  0.474547  0.750001  0.088749  1
  Pd  Pd13  1  0.970974  0.750001  0.413081  1
  Pd  Pd14  1  0.030391  0.249999  0.592163  1
  Pd  Pd15  1  0.526161  0.249999  0.906305  1
