# generated using pymatgen
data_Zr8ReSi16Mo11
_symmetry_space_group_name_H-M   'P 1'
_cell_length_a   6.62278267
_cell_length_b   6.77879344
_cell_length_c   12.64853600
_cell_angle_alpha   90.00000000
_cell_angle_beta   90.00000000
_cell_angle_gamma   89.85974303
_symmetry_Int_Tables_number   1
_chemical_formula_structural   Zr8ReSi16Mo11
_chemical_formula_sum   'Zr8 Re1 Si16 Mo11'
_cell_volume   567.84769159
_cell_formula_units_Z   1
loop_
 _symmetry_equiv_pos_site_id
 _symmetry_equiv_pos_as_xyz
  1  'x, y, z'
loop_
 _atom_site_type_symbol
 _atom_site_label
 _atom_site_symmetry_multiplicity
 _atom_site_fract_x
 _atom_site_fract_y
 _atom_site_fract_z
 _atom_site_occupancy
  Zr  Zr0  1  0.994174  0.172153  0.093138  1
  Zr  Zr1  1  0.004951  0.828435  0.907050  1
  Zr  Zr2  1  0.508570  0.671843  0.907288  1
  Zr  Zr3  1  0.004951  0.828435  0.592950  1
  Zr  Zr4  1  0.493513  0.328466  0.092411  1
  Zr  Zr5  1  0.994174  0.172153  0.406862  1
  Zr  Zr6  1  0.493513  0.328466  0.407589  1
  Zr  Zr7  1  0.508570  0.671843  0.592712  1
  Re  Re8  1  0.169621  0.517171  0.750000  1
  Si  Si9  1  0.031769  0.123832  0.750000  1
  Si  Si10  1  0.967938  0.875591  0.250000  1
  Si  Si11  1  0.468085  0.623591  0.250000  1
  Si  Si12  1  0.529178  0.378016  0.750000  1
  Si  Si13  1  0.300516  0.860733  0.750000  1
  Si  Si14  1  0.698872  0.137746  0.250000  1
  Si  Si15  1  0.198780  0.362988  0.250000  1
  Si  Si16  1  0.803232  0.634637  0.750000  1
  Si  Si17  1  0.166419  0.458560  0.544843  1
  Si  Si18  1  0.833763  0.540968  0.456713  1
  Si  Si19  1  0.334032  0.958748  0.457017  1
  Si  Si20  1  0.833763  0.540968  0.043287  1
  Si  Si21  1  0.665346  0.041923  0.543441  1
  Si  Si22  1  0.166419  0.458560  0.955157  1
  Si  Si23  1  0.665346  0.041923  0.956559  1
  Si  Si24  1  0.334032  0.958748  0.042983  1
  Mo  Mo25  1  0.833075  0.487808  0.250000  1
  Mo  Mo26  1  0.333391  0.010268  0.250000  1
  Mo  Mo27  1  0.667150  0.986986  0.750000  1
  Mo  Mo28  1  0.328968  0.163041  0.624740  1
  Mo  Mo29  1  0.669785  0.836283  0.376163  1
  Mo  Mo30  1  0.169779  0.664888  0.377029  1
  Mo  Mo31  1  0.669785  0.836283  0.123837  1
  Mo  Mo32  1  0.829895  0.335009  0.624554  1
  Mo  Mo33  1  0.328968  0.163041  0.875260  1
  Mo  Mo34  1  0.829895  0.335009  0.875446  1
  Mo  Mo35  1  0.169779  0.664888  0.122971  1
