# generated using pymatgen
data_Na4PrP12Ir19
_symmetry_space_group_name_H-M   'P 1'
_cell_length_a   12.66660120
_cell_length_b   12.65165217
_cell_length_c   3.97251400
_cell_angle_alpha   90.00000000
_cell_angle_beta   90.00000000
_cell_angle_gamma   119.96096334
_symmetry_Int_Tables_number   1
_chemical_formula_structural   Na4PrP12Ir19
_chemical_formula_sum   'Na4 Pr1 P12 Ir19'
_cell_volume   551.53630867
_cell_formula_units_Z   1
loop_
 _symmetry_equiv_pos_site_id
 _symmetry_equiv_pos_as_xyz
  1  'x, y, z'
loop_
 _atom_site_type_symbol
 _atom_site_label
 _atom_site_symmetry_multiplicity
 _atom_site_fract_x
 _atom_site_fract_y
 _atom_site_fract_z
 _atom_site_occupancy
  Na  Na0  1  0.818302  0.816880  0.500000  1
  Na  Na1  1  0.181698  0.998578  0.500000  1
  Na  Na2  1  0.668096  0.334637  0.000000  1
  Na  Na3  1  0.331904  0.666540  0.000000  1
  Pr  Pr4  1  0.000000  0.178456  0.500000  1
  P  P5  1  0.000000  0.818852  0.000000  1
  P  P6  1  0.185987  0.177973  0.000000  1
  P  P7  1  0.814013  0.991986  0.000000  1
  P  P8  1  0.689451  0.176999  0.500000  1
  P  P9  1  0.823212  0.514266  0.500000  1
  P  P10  1  0.488844  0.311355  0.500000  1
  P  P11  1  0.176788  0.691053  0.500000  1
  P  P12  1  0.511156  0.822510  0.500000  1
  P  P13  1  0.310549  0.487547  0.500000  1
  P  P14  1  0.000000  0.363388  0.000000  1
  P  P15  1  0.639251  0.639428  0.000000  1
  P  P16  1  0.360749  0.000176  0.000000  1
  Ir  Ir17  1  0.000000  0.543407  0.000000  1
  Ir  Ir18  1  0.457037  0.459463  0.000000  1
  Ir  Ir19  1  0.542963  0.002426  0.000000  1
  Ir  Ir20  1  0.000000  0.708695  0.500000  1
  Ir  Ir21  1  0.292841  0.292354  0.500000  1
  Ir  Ir22  1  0.707159  0.999513  0.500000  1
  Ir  Ir23  1  0.801932  0.179830  0.000000  1
  Ir  Ir24  1  0.817538  0.621300  0.000000  1
  Ir  Ir25  1  0.381546  0.197620  0.000000  1
  Ir  Ir26  1  0.182462  0.803760  0.000000  1
  Ir  Ir27  1  0.618454  0.816075  0.000000  1
  Ir  Ir28  1  0.198068  0.377898  0.000000  1
  Ir  Ir29  1  0.870702  0.362270  0.500000  1
  Ir  Ir30  1  0.637931  0.510944  0.500000  1
  Ir  Ir31  1  0.492048  0.130138  0.500000  1
  Ir  Ir32  1  0.362069  0.873012  0.500000  1
  Ir  Ir33  1  0.507952  0.638090  0.500000  1
  Ir  Ir34  1  0.129298  0.491567  0.500000  1
  Ir  Ir35  1  0.000000  0.001015  0.000000  1
