# generated using pymatgen
data_Tb2Si2Ir
_symmetry_space_group_name_H-M   'P 1'
_cell_length_a   5.74196070
_cell_length_b   5.74196126
_cell_length_c   10.10155541
_cell_angle_alpha   63.31108487
_cell_angle_beta   63.31107997
_cell_angle_gamma   43.02680188
_symmetry_Int_Tables_number   1
_chemical_formula_structural   Tb2Si2Ir
_chemical_formula_sum   'Tb4 Si4 Ir2'
_cell_volume   199.01492627
_cell_formula_units_Z   2
loop_
 _symmetry_equiv_pos_site_id
 _symmetry_equiv_pos_as_xyz
  1  'x, y, z'
loop_
 _atom_site_type_symbol
 _atom_site_label
 _atom_site_symmetry_multiplicity
 _atom_site_fract_x
 _atom_site_fract_y
 _atom_site_fract_z
 _atom_site_occupancy
  Tb  Tb0  1  0.815342  0.815342  0.109925  1
  Tb  Tb1  1  0.005726  0.005726  0.323363  1
  Tb  Tb2  1  0.184658  0.184658  0.890075  1
  Tb  Tb3  1  0.994274  0.994274  0.676637  1
  Si  Si4  1  0.489697  0.489697  0.877856  1
  Si  Si5  1  0.356790  0.356790  0.565195  1
  Si  Si6  1  0.510303  0.510303  0.122144  1
  Si  Si7  1  0.643210  0.643210  0.434805  1
  Ir  Ir8  1  0.723766  0.723766  0.629283  1
  Ir  Ir9  1  0.276234  0.276234  0.370717  1
