# generated using pymatgen
data_Tb3Ho13(ZnCo)4
_symmetry_space_group_name_H-M   'P 1'
_cell_length_a   9.31990935
_cell_length_b   9.32694415
_cell_length_c   9.32694500
_cell_angle_alpha   60.00000052
_cell_angle_beta   59.97502835
_cell_angle_gamma   59.97502439
_symmetry_Int_Tables_number   1
_chemical_formula_structural   Tb3Ho13(ZnCo)4
_chemical_formula_sum   'Tb3 Ho13 Zn4 Co4'
_cell_volume   573.07497617
_cell_formula_units_Z   1
loop_
 _symmetry_equiv_pos_site_id
 _symmetry_equiv_pos_as_xyz
  1  'x, y, z'
loop_
 _atom_site_type_symbol
 _atom_site_label
 _atom_site_symmetry_multiplicity
 _atom_site_fract_x
 _atom_site_fract_y
 _atom_site_fract_z
 _atom_site_occupancy
  Tb  Tb0  1  0.350255  0.350578  0.350578  1
  Tb  Tb1  1  0.350255  0.350578  0.948590  1
  Tb  Tb2  1  0.350255  0.948590  0.350578  1
  Ho  Ho3  1  0.949153  0.350282  0.350282  1
  Ho  Ho4  1  0.809788  0.190400  0.190400  1
  Ho  Ho5  1  0.189985  0.809808  0.809808  1
  Ho  Ho6  1  0.189985  0.809808  0.190399  1
  Ho  Ho7  1  0.809788  0.190400  0.809413  1
  Ho  Ho8  1  0.189985  0.190399  0.809808  1
  Ho  Ho9  1  0.809788  0.809413  0.190400  1
  Ho  Ho10  1  0.937601  0.562401  0.562401  1
  Ho  Ho11  1  0.562920  0.937342  0.937342  1
  Ho  Ho12  1  0.562920  0.937342  0.562395  1
  Ho  Ho13  1  0.937601  0.562401  0.937597  1
  Ho  Ho14  1  0.562920  0.562395  0.937342  1
  Ho  Ho15  1  0.937601  0.937597  0.562401  1
  Zn  Zn16  1  0.577877  0.577538  0.577538  1
  Zn  Zn17  1  0.577877  0.577538  0.267047  1
  Zn  Zn18  1  0.577877  0.267047  0.577538  1
  Zn  Zn19  1  0.267101  0.577633  0.577633  1
  Co  Co20  1  0.140883  0.141892  0.141892  1
  Co  Co21  1  0.140883  0.141892  0.575333  1
  Co  Co22  1  0.140883  0.575333  0.141892  1
  Co  Co23  1  0.575820  0.141394  0.141394  1
