# generated using pymatgen
data_RbNa2AgSn4
_symmetry_space_group_name_H-M   'P 1'
_cell_length_a   6.66838000
_cell_length_b   6.66873500
_cell_length_c   11.24973600
_cell_angle_alpha   90.00000000
_cell_angle_beta   90.00000000
_cell_angle_gamma   90.00000000
_symmetry_Int_Tables_number   1
_chemical_formula_structural   RbNa2AgSn4
_chemical_formula_sum   'Rb2 Na4 Ag2 Sn8'
_cell_volume   500.27192488
_cell_formula_units_Z   2
loop_
 _symmetry_equiv_pos_site_id
 _symmetry_equiv_pos_as_xyz
  1  'x, y, z'
loop_
 _atom_site_type_symbol
 _atom_site_label
 _atom_site_symmetry_multiplicity
 _atom_site_fract_x
 _atom_site_fract_y
 _atom_site_fract_z
 _atom_site_occupancy
  Rb  Rb0  1  0.556432  0.000000  0.000000  1
  Rb  Rb1  1  0.443568  0.500000  0.500000  1
  Na  Na2  1  0.836875  0.500000  0.749432  1
  Na  Na3  1  0.836875  0.500000  0.250568  1
  Na  Na4  1  0.163125  0.000000  0.750568  1
  Na  Na5  1  0.163125  0.000000  0.249432  1
  Ag  Ag6  1  0.689219  0.500000  0.000000  1
  Ag  Ag7  1  0.310781  0.000000  0.500000  1
  Sn  Sn8  1  0.330617  0.500000  0.859995  1
  Sn  Sn9  1  0.330617  0.500000  0.140005  1
  Sn  Sn10  1  0.042847  0.253317  0.000000  1
  Sn  Sn11  1  0.042847  0.746683  0.000000  1
  Sn  Sn12  1  0.957153  0.753317  0.500000  1
  Sn  Sn13  1  0.957153  0.246683  0.500000  1
  Sn  Sn14  1  0.669383  0.000000  0.359995  1
  Sn  Sn15  1  0.669383  0.000000  0.640005  1
