# generated using pymatgen
data_Ca2Ce3Sn3Cl
_symmetry_space_group_name_H-M   'P 1'
_cell_length_a   9.32303800
_cell_length_b   9.32159362
_cell_length_c   7.02429900
_cell_angle_alpha   90.00000000
_cell_angle_beta   90.00000000
_cell_angle_gamma   119.99488421
_symmetry_Int_Tables_number   1
_chemical_formula_structural   Ca2Ce3Sn3Cl
_chemical_formula_sum   'Ca4 Ce6 Sn6 Cl2'
_cell_volume   528.69308151
_cell_formula_units_Z   2
loop_
 _symmetry_equiv_pos_site_id
 _symmetry_equiv_pos_as_xyz
  1  'x, y, z'
loop_
 _atom_site_type_symbol
 _atom_site_label
 _atom_site_symmetry_multiplicity
 _atom_site_fract_x
 _atom_site_fract_y
 _atom_site_fract_z
 _atom_site_occupancy
  Ca  Ca0  1  0.255897  0.255526  0.750000  1
  Ca  Ca1  1  0.000000  0.744017  0.750000  1
  Ca  Ca2  1  0.744103  0.999630  0.750000  1
  Ca  Ca3  1  0.000000  0.257420  0.250000  1
  Ce  Ce4  1  0.333074  0.665450  0.501317  1
  Ce  Ce5  1  0.742569  0.743083  0.250000  1
  Ce  Ce6  1  0.666926  0.332376  0.501317  1
  Ce  Ce7  1  0.257431  0.000514  0.250000  1
  Ce  Ce8  1  0.333074  0.665450  0.998683  1
  Ce  Ce9  1  0.666926  0.332376  0.998683  1
  Sn  Sn10  1  0.603872  0.998059  0.250000  1
  Sn  Sn11  1  0.000000  0.396440  0.750000  1
  Sn  Sn12  1  0.394362  0.999375  0.750000  1
  Sn  Sn13  1  0.605638  0.605013  0.750000  1
  Sn  Sn14  1  0.000000  0.607767  0.250000  1
  Sn  Sn15  1  0.396128  0.394187  0.250000  1
  Cl  Cl16  1  0.000000  0.001658  0.999416  1
  Cl  Cl17  1  0.000000  0.001658  0.500584  1
