# generated using pymatgen
data_PrSmMo2F14
_symmetry_space_group_name_H-M   'P 1'
_cell_length_a   5.78709100
_cell_length_b   9.38309588
_cell_length_c   12.51676400
_cell_angle_alpha   62.29229947
_cell_angle_beta   90.00000000
_cell_angle_gamma   90.00000000
_symmetry_Int_Tables_number   1
_chemical_formula_structural   PrSmMo2F14
_chemical_formula_sum   'Pr2 Sm2 Mo4 F28'
_cell_volume   601.73361164
_cell_formula_units_Z   2
loop_
 _symmetry_equiv_pos_site_id
 _symmetry_equiv_pos_as_xyz
  1  'x, y, z'
loop_
 _atom_site_type_symbol
 _atom_site_label
 _atom_site_symmetry_multiplicity
 _atom_site_fract_x
 _atom_site_fract_y
 _atom_site_fract_z
 _atom_site_occupancy
  Pr  Pr0  1  0.242694  0.190461  0.233791  1
  Pr  Pr1  1  0.742694  0.809539  0.266209  1
  Sm  Sm2  1  0.756942  0.813636  0.765655  1
  Sm  Sm3  1  0.256942  0.186364  0.734345  1
  Mo  Mo4  1  0.754964  0.276432  0.952761  1
  Mo  Mo5  1  0.254964  0.723568  0.547239  1
  Mo  Mo6  1  0.246102  0.727275  0.039515  1
  Mo  Mo7  1  0.746102  0.272725  0.460485  1
  F  F8  1  0.453903  0.709817  0.920282  1
  F  F9  1  0.953903  0.290183  0.579718  1
  F  F10  1  0.537398  0.291848  0.076166  1
  F  F11  1  0.037398  0.708152  0.423834  1
  F  F12  1  0.459786  0.283060  0.554343  1
  F  F13  1  0.959786  0.716940  0.945657  1
  F  F14  1  0.530495  0.712363  0.455861  1
  F  F15  1  0.030495  0.287637  0.044139  1
  F  F16  1  0.762933  0.514743  0.857575  1
  F  F17  1  0.262933  0.485257  0.642425  1
  F  F18  1  0.235988  0.489818  0.136841  1
  F  F19  1  0.735988  0.510182  0.363159  1
  F  F20  1  0.763872  0.039495  0.049473  1
  F  F21  1  0.263872  0.960505  0.450527  1
  F  F22  1  0.246496  0.964722  0.944934  1
  F  F23  1  0.746496  0.035278  0.555066  1
  F  F24  1  0.987058  0.736604  0.642167  1
  F  F25  1  0.487058  0.263396  0.857833  1
  F  F26  1  0.022233  0.266556  0.360458  1
  F  F27  1  0.522233  0.733444  0.139542  1
  F  F28  1  0.042216  0.747024  0.160293  1
  F  F29  1  0.542216  0.252976  0.339707  1
  F  F30  1  0.969103  0.255155  0.829777  1
  F  F31  1  0.469103  0.744845  0.670223  1
  F  F32  1  0.420416  0.969893  0.234941  1
  F  F33  1  0.920416  0.030107  0.265059  1
  F  F34  1  0.567401  0.021322  0.767276  1
  F  F35  1  0.067401  0.978678  0.732724  1
