# generated using pymatgen
data_La3Al12Os3Pt
_symmetry_space_group_name_H-M   'P 1'
_cell_length_a   8.96531645
_cell_length_b   8.96531683
_cell_length_c   9.72008600
_cell_angle_alpha   90.00000000
_cell_angle_beta   90.00000000
_cell_angle_gamma   119.30004947
_symmetry_Int_Tables_number   1
_chemical_formula_structural   La3Al12Os3Pt
_chemical_formula_sum   'La6 Al24 Os6 Pt2'
_cell_volume   681.32158273
_cell_formula_units_Z   2
loop_
 _symmetry_equiv_pos_site_id
 _symmetry_equiv_pos_as_xyz
  1  'x, y, z'
loop_
 _atom_site_type_symbol
 _atom_site_label
 _atom_site_symmetry_multiplicity
 _atom_site_fract_x
 _atom_site_fract_y
 _atom_site_fract_z
 _atom_site_occupancy
  La  La0  1  0.183787  0.381916  0.250000  1
  La  La1  1  0.816213  0.618084  0.750000  1
  La  La2  1  0.618084  0.816213  0.250000  1
  La  La3  1  0.381916  0.183787  0.750000  1
  La  La4  1  0.192334  0.807666  0.250000  1
  La  La5  1  0.807666  0.192334  0.750000  1
  Al  Al6  1  0.330847  0.669153  0.007684  1
  Al  Al7  1  0.669153  0.330847  0.992316  1
  Al  Al8  1  0.669153  0.330847  0.507684  1
  Al  Al9  1  0.330847  0.669153  0.492316  1
  Al  Al10  1  0.157408  0.323024  0.575611  1
  Al  Al11  1  0.842592  0.676976  0.424389  1
  Al  Al12  1  0.676976  0.842592  0.575611  1
  Al  Al13  1  0.842592  0.676976  0.075611  1
  Al  Al14  1  0.323024  0.157408  0.424389  1
  Al  Al15  1  0.157408  0.323024  0.924389  1
  Al  Al16  1  0.163711  0.836289  0.575188  1
  Al  Al17  1  0.323024  0.157408  0.075611  1
  Al  Al18  1  0.836289  0.163711  0.424812  1
  Al  Al19  1  0.676976  0.842592  0.924389  1
  Al  Al20  1  0.836289  0.163711  0.075188  1
  Al  Al21  1  0.163711  0.836289  0.924812  1
  Al  Al22  1  0.562144  0.128318  0.250000  1
  Al  Al23  1  0.437856  0.871682  0.750000  1
  Al  Al24  1  0.871682  0.437856  0.250000  1
  Al  Al25  1  0.128318  0.562144  0.750000  1
  Al  Al26  1  0.563652  0.436348  0.250000  1
  Al  Al27  1  0.436348  0.563652  0.750000  1
  Al  Al28  1  0.997935  0.002065  0.250000  1
  Al  Al29  1  0.002065  0.997935  0.750000  1
  Os  Os30  1  0.500000  0.000000  0.000000  1
  Os  Os31  1  0.000000  0.500000  0.000000  1
  Os  Os32  1  0.500000  0.000000  0.500000  1
  Os  Os33  1  0.000000  0.500000  0.500000  1
  Os  Os34  1  0.000000  0.000000  0.000000  1
  Os  Os35  1  0.000000  0.000000  0.500000  1
  Pt  Pt36  1  0.500000  0.500000  0.000000  1
  Pt  Pt37  1  0.500000  0.500000  0.500000  1
