# generated using pymatgen
data_TbNd9(Bi3P)2
_symmetry_space_group_name_H-M   'P 1'
_cell_length_a   9.52298716
_cell_length_b   9.50422276
_cell_length_c   6.84760200
_cell_angle_alpha   90.00000000
_cell_angle_beta   90.00000000
_cell_angle_gamma   119.93483875
_symmetry_Int_Tables_number   1
_chemical_formula_structural   TbNd9(Bi3P)2
_chemical_formula_sum   'Tb1 Nd9 Bi6 P2'
_cell_volume   537.08587933
_cell_formula_units_Z   1
loop_
 _symmetry_equiv_pos_site_id
 _symmetry_equiv_pos_as_xyz
  1  'x, y, z'
loop_
 _atom_site_type_symbol
 _atom_site_label
 _atom_site_symmetry_multiplicity
 _atom_site_fract_x
 _atom_site_fract_y
 _atom_site_fract_z
 _atom_site_occupancy
  Tb  Tb0  1  0.000000  0.766467  0.750000  1
  Nd  Nd1  1  0.666805  0.333435  0.499984  1
  Nd  Nd2  1  0.333195  0.666632  0.499984  1
  Nd  Nd3  1  0.333195  0.666632  0.000016  1
  Nd  Nd4  1  0.666805  0.333435  0.000016  1
  Nd  Nd5  1  0.760864  0.759820  0.250000  1
  Nd  Nd6  1  0.239136  0.998956  0.250000  1
  Nd  Nd7  1  0.000000  0.236740  0.250000  1
  Nd  Nd8  1  0.239539  0.240001  0.750000  1
  Nd  Nd9  1  0.760461  0.000462  0.750000  1
  Bi  Bi10  1  0.396978  0.397049  0.250000  1
  Bi  Bi11  1  0.603022  0.000072  0.250000  1
  Bi  Bi12  1  0.000000  0.602473  0.250000  1
  Bi  Bi13  1  0.605712  0.603943  0.750000  1
  Bi  Bi14  1  0.394288  0.998231  0.750000  1
  Bi  Bi15  1  0.000000  0.400755  0.750000  1
  P  P16  1  0.000000  0.997449  0.501807  1
  P  P17  1  0.000000  0.997449  0.998193  1
