# generated using pymatgen
data_La13NdPdRh5
_symmetry_space_group_name_H-M   'P 1'
_cell_length_a   10.22303800
_cell_length_b   10.22377993
_cell_length_c   6.56100063
_cell_angle_alpha   89.73851844
_cell_angle_beta   90.00000000
_cell_angle_gamma   119.99759945
_symmetry_Int_Tables_number   1
_chemical_formula_structural   La13NdPdRh5
_chemical_formula_sum   'La13 Nd1 Pd1 Rh5'
_cell_volume   593.87720255
_cell_formula_units_Z   1
loop_
 _symmetry_equiv_pos_site_id
 _symmetry_equiv_pos_as_xyz
  1  'x, y, z'
loop_
 _atom_site_type_symbol
 _atom_site_label
 _atom_site_symmetry_multiplicity
 _atom_site_fract_x
 _atom_site_fract_y
 _atom_site_fract_z
 _atom_site_occupancy
  La  La0  1  0.666359  0.332717  0.973058  1
  La  La1  1  0.125027  0.876692  0.242243  1
  La  La2  1  0.751665  0.876692  0.242243  1
  La  La3  1  0.124182  0.248365  0.233589  1
  La  La4  1  0.867420  0.119766  0.741375  1
  La  La5  1  0.252346  0.119766  0.741375  1
  La  La6  1  0.876047  0.752093  0.744015  1
  La  La7  1  0.540565  0.462676  0.438706  1
  La  La8  1  0.922111  0.462676  0.438706  1
  La  La9  1  0.538626  0.077251  0.432923  1
  La  La10  1  0.468559  0.543336  0.940407  1
  La  La11  1  0.074778  0.543336  0.940407  1
  La  La12  1  0.458899  0.917798  0.938838  1
  Nd  Nd13  1  0.335379  0.670759  0.465908  1
  Pd  Pd14  1  0.187942  0.375884  0.691975  1
  Rh  Rh15  1  0.813397  0.188701  0.196432  1
  Rh  Rh16  1  0.375305  0.188701  0.196432  1
  Rh  Rh17  1  0.811123  0.622247  0.193601  1
  Rh  Rh18  1  0.187174  0.810271  0.696777  1
  Rh  Rh19  1  0.623097  0.810271  0.696777  1
