# generated using pymatgen
data_Tb5Y7In2(CoTc)2
_symmetry_space_group_name_H-M   'P 1'
_cell_length_a   8.48893065
_cell_length_b   8.48892982
_cell_length_c   8.47691039
_cell_angle_alpha   112.86981196
_cell_angle_beta   110.80193011
_cell_angle_gamma   104.90850357
_symmetry_Int_Tables_number   1
_chemical_formula_structural   Tb5Y7In2(CoTc)2
_chemical_formula_sum   'Tb5 Y7 In2 Co2 Tc2'
_cell_volume   467.47031930
_cell_formula_units_Z   1
loop_
 _symmetry_equiv_pos_site_id
 _symmetry_equiv_pos_as_xyz
  1  'x, y, z'
loop_
 _atom_site_type_symbol
 _atom_site_label
 _atom_site_symmetry_multiplicity
 _atom_site_fract_x
 _atom_site_fract_y
 _atom_site_fract_z
 _atom_site_occupancy
  Tb  Tb0  1  0.815249  0.286795  0.102044  1
  Tb  Tb1  1  0.326841  0.646196  0.319551  1
  Tb  Tb2  1  0.673362  0.353945  0.680473  1
  Tb  Tb3  1  0.326527  0.007112  0.680473  1
  Tb  Tb4  1  0.673356  0.992709  0.319551  1
  Y  Y5  1  0.443706  0.243758  0.199988  1
  Y  Y6  1  0.556304  0.756205  0.800132  1
  Y  Y7  1  0.043926  0.243828  0.800132  1
  Y  Y8  1  0.956231  0.756282  0.199988  1
  Y  Y9  1  0.184835  0.286470  0.471306  1
  Y  Y10  1  0.815060  0.713535  0.528594  1
  Y  Y11  1  0.184563  0.713292  0.897855  1
  In  In12  1  0.499922  0.500040  0.999962  1
  In  In13  1  0.000071  0.999728  0.999799  1
  Co  Co14  1  0.109511  0.609612  0.499536  1
  Co  Co15  1  0.889925  0.390025  0.499536  1
  Tc  Tc16  1  0.324080  0.000125  0.324204  1
  Tc  Tc17  1  0.676533  0.000343  0.676876  1
