# generated using pymatgen
data_K9Rb3Al3GaSe12
_symmetry_space_group_name_H-M   'P 1'
_cell_length_a   13.48775182
_cell_length_b   8.25608287
_cell_length_c   10.61582428
_cell_angle_alpha   52.44115773
_cell_angle_beta   89.64207953
_cell_angle_gamma   89.72109397
_symmetry_Int_Tables_number   1
_chemical_formula_structural   K9Rb3Al3GaSe12
_chemical_formula_sum   'K9 Rb3 Al3 Ga1 Se12'
_cell_volume   937.09262199
_cell_formula_units_Z   1
loop_
 _symmetry_equiv_pos_site_id
 _symmetry_equiv_pos_as_xyz
  1  'x, y, z'
loop_
 _atom_site_type_symbol
 _atom_site_label
 _atom_site_symmetry_multiplicity
 _atom_site_fract_x
 _atom_site_fract_y
 _atom_site_fract_z
 _atom_site_occupancy
  K  K0  1  0.898276  0.320982  0.399537  1
  K  K1  1  0.618341  0.376203  0.471257  1
  K  K2  1  0.118444  0.624849  0.028599  1
  K  K3  1  0.381347  0.623618  0.529099  1
  K  K4  1  0.882170  0.376086  0.971084  1
  K  K5  1  0.602403  0.320777  0.899150  1
  K  K6  1  0.102648  0.679741  0.600516  1
  K  K7  1  0.397523  0.679091  0.100730  1
  K  K8  1  0.188233  0.150497  0.575350  1
  Rb  Rb9  1  0.311841  0.153132  0.071428  1
  Rb  Rb10  1  0.687262  0.847117  0.928397  1
  Rb  Rb11  1  0.812834  0.846884  0.428692  1
  Al  Al12  1  0.561317  0.055694  0.342872  1
  Al  Al13  1  0.437104  0.946215  0.656698  1
  Al  Al14  1  0.938474  0.056371  0.841478  1
  Ga  Ga15  1  0.063152  0.941667  0.159364  1
  Se  Se16  1  0.400785  0.174714  0.369250  1
  Se  Se17  1  0.901078  0.826080  0.129665  1
  Se  Se18  1  0.597234  0.826252  0.630915  1
  Se  Se19  1  0.098996  0.174024  0.864814  1
  Se  Se20  1  0.683617  0.320652  0.200950  1
  Se  Se21  1  0.185401  0.669898  0.303170  1
  Se  Se22  1  0.313809  0.683907  0.797045  1
  Se  Se23  1  0.815697  0.320911  0.701164  1
  Se  Se24  1  0.547140  0.869659  0.239193  1
  Se  Se25  1  0.047867  0.132635  0.261325  1
  Se  Se26  1  0.452397  0.131403  0.760874  1
  Se  Se27  1  0.954612  0.870936  0.737383  1
