# generated using pymatgen
data_Ho4Ga2As4Ir7
_symmetry_space_group_name_H-M   'P 1'
_cell_length_a   7.27875247
_cell_length_b   7.27875323
_cell_length_c   7.27736167
_cell_angle_alpha   109.23528707
_cell_angle_beta   109.23528639
_cell_angle_gamma   109.95179710
_symmetry_Int_Tables_number   1
_chemical_formula_structural   Ho4Ga2As4Ir7
_chemical_formula_sum   'Ho4 Ga2 As4 Ir7'
_cell_volume   296.75791892
_cell_formula_units_Z   1
loop_
 _symmetry_equiv_pos_site_id
 _symmetry_equiv_pos_as_xyz
  1  'x, y, z'
loop_
 _atom_site_type_symbol
 _atom_site_label
 _atom_site_symmetry_multiplicity
 _atom_site_fract_x
 _atom_site_fract_y
 _atom_site_fract_z
 _atom_site_occupancy
  Ho  Ho0  1  0.999027  0.999027  0.493956  1
  Ho  Ho1  1  0.998082  0.498082  0.996164  1
  Ho  Ho2  1  0.498082  0.998082  0.996164  1
  Ho  Ho3  1  0.494928  0.494928  0.493956  1
  Ga  Ga4  1  0.689249  0.997337  0.686586  1
  Ga  Ga5  1  0.997337  0.689249  0.686586  1
  As  As6  1  0.682214  0.682214  0.995120  1
  As  As7  1  0.327405  0.997260  0.324665  1
  As  As8  1  0.997260  0.327405  0.324665  1
  As  As9  1  0.312906  0.312906  0.995120  1
  Ir  Ir10  1  0.750377  0.250377  0.500754  1
  Ir  Ir11  1  0.746834  0.500891  0.247725  1
  Ir  Ir12  1  0.500403  0.249322  0.749726  1
  Ir  Ir13  1  0.249322  0.500403  0.749726  1
  Ir  Ir14  1  0.250377  0.750377  0.500754  1
  Ir  Ir15  1  0.500891  0.746834  0.247725  1
  Ir  Ir16  1  0.005305  0.005305  0.010610  1
