# generated using pymatgen
data_Mn4AlZnPt10
_symmetry_space_group_name_H-M   'P 1'
_cell_length_a   4.01534800
_cell_length_b   5.48594273
_cell_length_c   10.92161177
_cell_angle_alpha   89.44239176
_cell_angle_beta   90.00000000
_cell_angle_gamma   90.00000000
_symmetry_Int_Tables_number   1
_chemical_formula_structural   Mn4AlZnPt10
_chemical_formula_sum   'Mn4 Al1 Zn1 Pt10'
_cell_volume   240.56953409
_cell_formula_units_Z   1
loop_
 _symmetry_equiv_pos_site_id
 _symmetry_equiv_pos_as_xyz
  1  'x, y, z'
loop_
 _atom_site_type_symbol
 _atom_site_label
 _atom_site_symmetry_multiplicity
 _atom_site_fract_x
 _atom_site_fract_y
 _atom_site_fract_z
 _atom_site_occupancy
  Mn  Mn0  1  0.500000  0.209084  0.632628  1
  Mn  Mn1  1  0.500000  0.790916  0.367372  1
  Mn  Mn2  1  0.500000  0.700052  0.864441  1
  Mn  Mn3  1  0.500000  0.299948  0.135559  1
  Al  Al4  1  0.000000  0.000000  0.000000  1
  Zn  Zn5  1  0.000000  0.500000  0.500000  1
  Pt  Pt6  1  0.500000  0.284801  0.383947  1
  Pt  Pt7  1  0.500000  0.715199  0.616053  1
  Pt  Pt8  1  0.500000  0.795676  0.109375  1
  Pt  Pt9  1  0.500000  0.204324  0.890625  1
  Pt  Pt10  1  0.000000  0.452051  0.744736  1
  Pt  Pt11  1  0.000000  0.547949  0.255264  1
  Pt  Pt12  1  0.000000  0.952441  0.758592  1
  Pt  Pt13  1  0.000000  0.047559  0.241408  1
  Pt  Pt14  1  0.000000  0.500000  0.000000  1
  Pt  Pt15  1  0.000000  0.000000  0.500000  1
