# generated using pymatgen
data_Tb2SmHo3Ta2O14
_symmetry_space_group_name_H-M   'P 1'
_cell_length_a   6.49706425
_cell_length_b   6.50272118
_cell_length_c   7.51680359
_cell_angle_alpha   89.95609726
_cell_angle_beta   90.08708556
_cell_angle_gamma   108.72118909
_symmetry_Int_Tables_number   1
_chemical_formula_structural   Tb2SmHo3Ta2O14
_chemical_formula_sum   'Tb2 Sm1 Ho3 Ta2 O14'
_cell_volume   300.77170759
_cell_formula_units_Z   1
loop_
 _symmetry_equiv_pos_site_id
 _symmetry_equiv_pos_as_xyz
  1  'x, y, z'
loop_
 _atom_site_type_symbol
 _atom_site_label
 _atom_site_symmetry_multiplicity
 _atom_site_fract_x
 _atom_site_fract_y
 _atom_site_fract_z
 _atom_site_occupancy
  Tb  Tb0  1  0.462863  0.462264  0.999455  1
  Tb  Tb1  1  0.999478  0.535306  0.240180  1
  Sm  Sm2  1  0.527740  0.529053  0.500324  1
  Ho  Ho3  1  0.999262  0.465020  0.742480  1
  Ho  Ho4  1  0.534774  0.000127  0.759710  1
  Ho  Ho5  1  0.465734  0.999238  0.257265  1
  Ta  Ta6  1  0.002155  0.001912  0.500418  1
  Ta  Ta7  1  0.997614  0.997483  0.999315  1
  O  O8  1  0.930992  0.067696  0.749841  1
  O  O9  1  0.068035  0.933286  0.250060  1
  O  O10  1  0.360619  0.642493  0.245615  1
  O  O11  1  0.641979  0.357522  0.753979  1
  O  O12  1  0.367960  0.632148  0.754176  1
  O  O13  1  0.628519  0.365949  0.246533  1
  O  O14  1  0.327830  0.080063  0.975285  1
  O  O15  1  0.672986  0.921685  0.474785  1
  O  O16  1  0.309626  0.051397  0.544731  1
  O  O17  1  0.693264  0.952456  0.045110  1
  O  O18  1  0.055361  0.310775  0.458244  1
  O  O19  1  0.950217  0.692876  0.953845  1
  O  O20  1  0.920370  0.673253  0.526327  1
  O  O21  1  0.082624  0.328000  0.022323  1
