# generated using pymatgen
data_LaDy2UO7
_symmetry_space_group_name_H-M   'P 1'
_cell_length_a   6.64196300
_cell_length_b   6.64196311
_cell_length_c   7.80573400
_cell_angle_alpha   90.00000000
_cell_angle_beta   90.00000000
_cell_angle_gamma   109.01479265
_symmetry_Int_Tables_number   1
_chemical_formula_structural   LaDy2UO7
_chemical_formula_sum   'La2 Dy4 U2 O14'
_cell_volume   325.56529245
_cell_formula_units_Z   2
loop_
 _symmetry_equiv_pos_site_id
 _symmetry_equiv_pos_as_xyz
  1  'x, y, z'
loop_
 _atom_site_type_symbol
 _atom_site_label
 _atom_site_symmetry_multiplicity
 _atom_site_fract_x
 _atom_site_fract_y
 _atom_site_fract_z
 _atom_site_occupancy
  La  La0  1  0.500000  0.500000  0.500000  1
  La  La1  1  0.500000  0.500000  0.000000  1
  Dy  Dy2  1  0.532614  0.004928  0.750000  1
  Dy  Dy3  1  0.004928  0.532614  0.250000  1
  Dy  Dy4  1  0.467386  0.995072  0.250000  1
  Dy  Dy5  1  0.995072  0.467386  0.750000  1
  U  U6  1  0.000000  0.000000  0.500000  1
  U  U7  1  0.000000  0.000000  0.000000  1
  O  O8  1  0.667006  0.922043  0.468390  1
  O  O9  1  0.922043  0.667006  0.531610  1
  O  O10  1  0.667006  0.922043  0.031610  1
  O  O11  1  0.922043  0.667006  0.968390  1
  O  O12  1  0.332994  0.077957  0.531610  1
  O  O13  1  0.077957  0.332994  0.468390  1
  O  O14  1  0.332994  0.077957  0.968390  1
  O  O15  1  0.077957  0.332994  0.031610  1
  O  O16  1  0.908440  0.091560  0.750000  1
  O  O17  1  0.091560  0.908440  0.250000  1
  O  O18  1  0.360349  0.639651  0.750000  1
  O  O19  1  0.639651  0.360349  0.250000  1
  O  O20  1  0.641472  0.358528  0.750000  1
  O  O21  1  0.358528  0.641472  0.250000  1
