# generated using pymatgen
data_Tm10GaSi4Bi
_symmetry_space_group_name_H-M   'P 1'
_cell_length_a   8.47082665
_cell_length_b   8.47082583
_cell_length_c   6.30296100
_cell_angle_alpha   90.00000000
_cell_angle_beta   90.00000000
_cell_angle_gamma   120.38137727
_symmetry_Int_Tables_number   1
_chemical_formula_structural   Tm10GaSi4Bi
_chemical_formula_sum   'Tm10 Ga1 Si4 Bi1'
_cell_volume   390.16197356
_cell_formula_units_Z   1
loop_
 _symmetry_equiv_pos_site_id
 _symmetry_equiv_pos_as_xyz
  1  'x, y, z'
loop_
 _atom_site_type_symbol
 _atom_site_label
 _atom_site_symmetry_multiplicity
 _atom_site_fract_x
 _atom_site_fract_y
 _atom_site_fract_z
 _atom_site_occupancy
  Tm  Tm0  1  0.678445  0.329362  0.504738  1
  Tm  Tm1  1  0.329362  0.678445  0.504738  1
  Tm  Tm2  1  0.329362  0.678445  0.995262  1
  Tm  Tm3  1  0.678445  0.329362  0.995262  1
  Tm  Tm4  1  0.771575  0.771575  0.250000  1
  Tm  Tm5  1  0.239572  0.985231  0.250000  1
  Tm  Tm6  1  0.985231  0.239572  0.250000  1
  Tm  Tm7  1  0.235709  0.235709  0.750000  1
  Tm  Tm8  1  0.756034  0.998900  0.750000  1
  Tm  Tm9  1  0.998900  0.756034  0.750000  1
  Ga  Ga10  1  0.602334  0.602334  0.750000  1
  Si  Si11  1  0.603309  0.998446  0.250000  1
  Si  Si12  1  0.998446  0.603309  0.250000  1
  Si  Si13  1  0.393893  0.003521  0.750000  1
  Si  Si14  1  0.003521  0.393893  0.750000  1
  Bi  Bi15  1  0.395864  0.395864  0.250000  1
