# generated using pymatgen
data_SrCa3Sb2(AsO6)2
_symmetry_space_group_name_H-M   'P 1'
_cell_length_a   7.48060149
_cell_length_b   8.16089688
_cell_length_c   5.51459354
_cell_angle_alpha   89.84822213
_cell_angle_beta   89.99028098
_cell_angle_gamma   108.10641216
_symmetry_Int_Tables_number   1
_chemical_formula_structural   SrCa3Sb2(AsO6)2
_chemical_formula_sum   'Sr1 Ca3 Sb2 As2 O12'
_cell_volume   319.98496786
_cell_formula_units_Z   1
loop_
 _symmetry_equiv_pos_site_id
 _symmetry_equiv_pos_as_xyz
  1  'x, y, z'
loop_
 _atom_site_type_symbol
 _atom_site_label
 _atom_site_symmetry_multiplicity
 _atom_site_fract_x
 _atom_site_fract_y
 _atom_site_fract_z
 _atom_site_occupancy
  Sr  Sr0  1  0.294861  0.088608  0.762799  1
  Ca  Ca1  1  0.910433  0.662717  0.749384  1
  Ca  Ca2  1  0.084300  0.335158  0.252304  1
  Ca  Ca3  1  0.707064  0.912809  0.261015  1
  Sb  Sb4  1  0.583159  0.441538  0.256291  1
  Sb  Sb5  1  0.417656  0.579730  0.754775  1
  As  As6  1  0.824124  0.182131  0.809942  1
  As  As7  1  0.175569  0.806020  0.305003  1
  O  O8  1  0.354118  0.368901  0.508877  1
  O  O9  1  0.603742  0.077377  0.920114  1
  O  O10  1  0.086015  0.595725  0.408170  1
  O  O11  1  0.642943  0.646619  0.509498  1
  O  O12  1  0.155700  0.812228  0.996151  1
  O  O13  1  0.649246  0.652087  0.010890  1
  O  O14  1  0.839245  0.166640  0.500501  1
  O  O15  1  0.359699  0.374493  0.011803  1
  O  O16  1  0.038073  0.908454  0.458776  1
  O  O17  1  0.401886  0.904891  0.400562  1
  O  O18  1  0.966639  0.088270  0.971803  1
  O  O19  1  0.905527  0.395606  0.899339  1
