# generated using pymatgen
data_Ba4Sr2Nd2Al4O15
_symmetry_space_group_name_H-M   'P 1'
_cell_length_a   11.59685497
_cell_length_b   11.59685516
_cell_length_c   6.97903990
_cell_angle_alpha   89.77328086
_cell_angle_beta   89.77327899
_cell_angle_gamma   119.85373656
_symmetry_Int_Tables_number   1
_chemical_formula_structural   Ba4Sr2Nd2Al4O15
_chemical_formula_sum   'Ba8 Sr4 Nd4 Al8 O30'
_cell_volume   814.01316772
_cell_formula_units_Z   2
loop_
 _symmetry_equiv_pos_site_id
 _symmetry_equiv_pos_as_xyz
  1  'x, y, z'
loop_
 _atom_site_type_symbol
 _atom_site_label
 _atom_site_symmetry_multiplicity
 _atom_site_fract_x
 _atom_site_fract_y
 _atom_site_fract_z
 _atom_site_occupancy
  Ba  Ba0  1  0.828986  0.171719  0.333200  1
  Ba  Ba1  1  0.832508  0.658431  0.327656  1
  Ba  Ba2  1  0.339618  0.167272  0.334906  1
  Ba  Ba3  1  0.171719  0.828986  0.833200  1
  Ba  Ba4  1  0.167272  0.339618  0.834906  1
  Ba  Ba5  1  0.658431  0.832508  0.827656  1
  Ba  Ba6  1  0.669240  0.332769  0.021323  1
  Ba  Ba7  1  0.332769  0.669240  0.521323  1
  Sr  Sr8  1  0.999714  0.999974  0.523742  1
  Sr  Sr9  1  0.999974  0.999714  0.023742  1
  Sr  Sr10  1  0.519461  0.040045  0.663655  1
  Sr  Sr11  1  0.040045  0.519461  0.163655  1
  Nd  Nd12  1  0.520303  0.479741  0.661923  1
  Nd  Nd13  1  0.958110  0.479183  0.664372  1
  Nd  Nd14  1  0.479741  0.520303  0.161923  1
  Nd  Nd15  1  0.479183  0.958110  0.164372  1
  Al  Al16  1  0.662940  0.330427  0.477922  1
  Al  Al17  1  0.330427  0.662940  0.977922  1
  Al  Al18  1  0.818327  0.178007  0.834729  1
  Al  Al19  1  0.819054  0.642742  0.831088  1
  Al  Al20  1  0.361178  0.181057  0.837650  1
  Al  Al21  1  0.178007  0.818327  0.334729  1
  Al  Al22  1  0.181057  0.361178  0.337650  1
  Al  Al23  1  0.642742  0.819054  0.331088  1
  O  O24  1  0.070511  0.678119  0.478668  1
  O  O25  1  0.328021  0.397361  0.465696  1
  O  O26  1  0.604292  0.927575  0.455244  1
  O  O27  1  0.073164  0.394128  0.478596  1
  O  O28  1  0.323099  0.929957  0.458713  1
  O  O29  1  0.604317  0.672215  0.463513  1
  O  O30  1  0.929957  0.323099  0.958713  1
  O  O31  1  0.672215  0.604317  0.963513  1
  O  O32  1  0.394128  0.073164  0.978596  1
  O  O33  1  0.927575  0.604292  0.955244  1
  O  O34  1  0.678119  0.070511  0.978668  1
  O  O35  1  0.397361  0.328021  0.965696  1
  O  O36  1  0.583132  0.415412  0.342546  1
  O  O37  1  0.584969  0.173244  0.336109  1
  O  O38  1  0.826058  0.414125  0.352046  1
  O  O39  1  0.415412  0.583132  0.842546  1
  O  O40  1  0.414125  0.826058  0.852046  1
  O  O41  1  0.173244  0.584969  0.836109  1
  O  O42  1  0.092633  0.898868  0.245999  1
  O  O43  1  0.098909  0.195895  0.249102  1
  O  O44  1  0.809743  0.900588  0.249466  1
  O  O45  1  0.898868  0.092633  0.745999  1
  O  O46  1  0.900588  0.809743  0.749466  1
  O  O47  1  0.195895  0.098909  0.749102  1
  O  O48  1  0.753005  0.251190  0.664279  1
  O  O49  1  0.749146  0.507091  0.659224  1
  O  O50  1  0.497878  0.254550  0.662831  1
  O  O51  1  0.251190  0.753005  0.164279  1
  O  O52  1  0.254550  0.497878  0.162831  1
  O  O53  1  0.507091  0.749146  0.159224  1
