# generated using pymatgen
data_Zn3CdP6PdN12
_symmetry_space_group_name_H-M   'P 1'
_cell_length_a   7.24369728
_cell_length_b   7.20191891
_cell_length_c   7.24369721
_cell_angle_alpha   109.35441423
_cell_angle_beta   109.58775580
_cell_angle_gamma   109.35443242
_symmetry_Int_Tables_number   1
_chemical_formula_structural   Zn3CdP6PdN12
_chemical_formula_sum   'Zn3 Cd1 P6 Pd1 N12'
_cell_volume   291.32043127
_cell_formula_units_Z   1
loop_
 _symmetry_equiv_pos_site_id
 _symmetry_equiv_pos_as_xyz
  1  'x, y, z'
loop_
 _atom_site_type_symbol
 _atom_site_label
 _atom_site_symmetry_multiplicity
 _atom_site_fract_x
 _atom_site_fract_y
 _atom_site_fract_z
 _atom_site_occupancy
  Zn  Zn0  1  0.631653  0.644035  0.631653  1
  Zn  Zn1  1  0.368347  0.012381  0.000000  1
  Zn  Zn2  1  0.000000  0.012381  0.368347  1
  Cd  Cd3  1  0.000000  0.268613  0.000000  1
  P  P4  1  0.749613  0.259534  0.502634  1
  P  P5  1  0.246979  0.756900  0.497366  1
  P  P6  1  0.497366  0.756900  0.246979  1
  P  P7  1  0.502634  0.259534  0.749613  1
  P  P8  1  0.753021  0.509920  0.250387  1
  P  P9  1  0.250387  0.509920  0.753021  1
  Pd  Pd10  1  0.000000  0.903906  0.000000  1
  N  N11  1  0.560112  0.284775  0.000000  1
  N  N12  1  0.440347  0.449969  0.715377  1
  N  N13  1  0.000000  0.284775  0.560112  1
  N  N14  1  0.275029  0.009622  0.559653  1
  N  N15  1  0.715377  0.449969  0.440347  1
  N  N16  1  0.000000  0.566213  0.275243  1
  N  N17  1  0.559653  0.009622  0.275029  1
  N  N18  1  0.439888  0.724663  0.439888  1
  N  N19  1  0.275243  0.566213  0.000000  1
  N  N20  1  0.724757  0.290969  0.724757  1
  N  N21  1  0.724971  0.734593  0.284623  1
  N  N22  1  0.284623  0.734593  0.724971  1
