# generated using pymatgen
data_Ho3Co7TcNiP6
_symmetry_space_group_name_H-M   'P 1'
_cell_length_a   3.72107300
_cell_length_b   10.49324300
_cell_length_c   12.22080700
_cell_angle_alpha   90.00000000
_cell_angle_beta   90.00000000
_cell_angle_gamma   90.00000000
_symmetry_Int_Tables_number   1
_chemical_formula_structural   Ho3Co7TcNiP6
_chemical_formula_sum   'Ho6 Co14 Tc2 Ni2 P12'
_cell_volume   477.17513584
_cell_formula_units_Z   2
loop_
 _symmetry_equiv_pos_site_id
 _symmetry_equiv_pos_as_xyz
  1  'x, y, z'
loop_
 _atom_site_type_symbol
 _atom_site_label
 _atom_site_symmetry_multiplicity
 _atom_site_fract_x
 _atom_site_fract_y
 _atom_site_fract_z
 _atom_site_occupancy
  Ho  Ho0  1  0.000000  0.500000  0.523096  1
  Ho  Ho1  1  0.500000  0.000000  0.476904  1
  Ho  Ho2  1  0.500000  0.816629  0.205831  1
  Ho  Ho3  1  0.500000  0.183371  0.205831  1
  Ho  Ho4  1  0.000000  0.683371  0.794169  1
  Ho  Ho5  1  0.000000  0.316629  0.794169  1
  Co  Co6  1  0.000000  0.500000  0.987237  1
  Co  Co7  1  0.500000  0.000000  0.012763  1
  Co  Co8  1  0.500000  0.298451  0.431453  1
  Co  Co9  1  0.500000  0.701549  0.431453  1
  Co  Co10  1  0.000000  0.201549  0.568547  1
  Co  Co11  1  0.000000  0.798451  0.568547  1
  Co  Co12  1  0.500000  0.878877  0.708254  1
  Co  Co13  1  0.500000  0.121123  0.708254  1
  Co  Co14  1  0.000000  0.621123  0.291746  1
  Co  Co15  1  0.000000  0.378877  0.291746  1
  Co  Co16  1  0.500000  0.332095  0.989699  1
  Co  Co17  1  0.500000  0.667905  0.989699  1
  Co  Co18  1  0.000000  0.167905  0.010301  1
  Co  Co19  1  0.000000  0.832095  0.010301  1
  Tc  Tc20  1  0.500000  0.500000  0.156571  1
  Tc  Tc21  1  0.000000  0.000000  0.843429  1
  Ni  Ni22  1  0.500000  0.500000  0.702869  1
  Ni  Ni23  1  0.000000  0.000000  0.297131  1
  P  P24  1  0.500000  0.310979  0.615676  1
  P  P25  1  0.500000  0.689021  0.615676  1
  P  P26  1  0.000000  0.189021  0.384324  1
  P  P27  1  0.000000  0.810979  0.384324  1
  P  P28  1  0.500000  0.500000  0.881738  1
  P  P29  1  0.000000  0.000000  0.118262  1
  P  P30  1  0.500000  0.846145  0.892654  1
  P  P31  1  0.500000  0.153855  0.892654  1
  P  P32  1  0.000000  0.653855  0.107346  1
  P  P33  1  0.000000  0.346145  0.107346  1
  P  P34  1  0.500000  0.500000  0.348831  1
  P  P35  1  0.000000  0.000000  0.651169  1
