# generated using pymatgen
data_Eu5GeIr2
_symmetry_space_group_name_H-M   'P 1'
_cell_length_a   8.90449244
_cell_length_b   8.90449166
_cell_length_c   8.90449200
_cell_angle_alpha   128.23213295
_cell_angle_beta   128.23213722
_cell_angle_gamma   76.24928324
_symmetry_Int_Tables_number   1
_chemical_formula_structural   Eu5GeIr2
_chemical_formula_sum   'Eu10 Ge2 Ir4'
_cell_volume   423.39604671
_cell_formula_units_Z   2
loop_
 _symmetry_equiv_pos_site_id
 _symmetry_equiv_pos_as_xyz
  1  'x, y, z'
loop_
 _atom_site_type_symbol
 _atom_site_label
 _atom_site_symmetry_multiplicity
 _atom_site_fract_x
 _atom_site_fract_y
 _atom_site_fract_z
 _atom_site_occupancy
  Eu  Eu0  1  0.532080  0.032080  0.841903  1
  Eu  Eu1  1  0.190178  0.690178  0.158097  1
  Eu  Eu2  1  0.032080  0.190178  0.500000  1
  Eu  Eu3  1  0.690178  0.532080  0.500000  1
  Eu  Eu4  1  0.467920  0.967920  0.158097  1
  Eu  Eu5  1  0.809822  0.309822  0.841903  1
  Eu  Eu6  1  0.967920  0.809822  0.500000  1
  Eu  Eu7  1  0.309822  0.467920  0.500000  1
  Eu  Eu8  1  0.500000  0.500000  0.000000  1
  Eu  Eu9  1  0.000000  0.000000  0.000000  1
  Ge  Ge10  1  0.250000  0.250000  0.000000  1
  Ge  Ge11  1  0.750000  0.750000  0.000000  1
  Ir  Ir12  1  0.874745  0.374745  0.249490  1
  Ir  Ir13  1  0.125255  0.625255  0.750510  1
  Ir  Ir14  1  0.374745  0.125255  0.500000  1
  Ir  Ir15  1  0.625255  0.874745  0.500000  1
