# generated using pymatgen
data_Tm6AlFePd
_symmetry_space_group_name_H-M   'P 1'
_cell_length_a   8.28041017
_cell_length_b   8.28040960
_cell_length_c   8.28041100
_cell_angle_alpha   112.75606901
_cell_angle_beta   110.83732249
_cell_angle_gamma   104.92032393
_symmetry_Int_Tables_number   1
_chemical_formula_structural   Tm6AlFePd
_chemical_formula_sum   'Tm12 Al2 Fe2 Pd2'
_cell_volume   434.87323350
_cell_formula_units_Z   2
loop_
 _symmetry_equiv_pos_site_id
 _symmetry_equiv_pos_as_xyz
  1  'x, y, z'
loop_
 _atom_site_type_symbol
 _atom_site_label
 _atom_site_symmetry_multiplicity
 _atom_site_fract_x
 _atom_site_fract_y
 _atom_site_fract_z
 _atom_site_occupancy
  Tm  Tm0  1  0.440922  0.244976  0.195945  1
  Tm  Tm1  1  0.559078  0.755024  0.804055  1
  Tm  Tm2  1  0.049030  0.244976  0.804055  1
  Tm  Tm3  1  0.950970  0.755024  0.195945  1
  Tm  Tm4  1  0.184203  0.286268  0.470471  1
  Tm  Tm5  1  0.815797  0.713732  0.529529  1
  Tm  Tm6  1  0.184203  0.713732  0.897936  1
  Tm  Tm7  1  0.815797  0.286268  0.102064  1
  Tm  Tm8  1  0.307201  0.613401  0.306199  1
  Tm  Tm9  1  0.692799  0.386599  0.693801  1
  Tm  Tm10  1  0.307201  0.001002  0.693801  1
  Tm  Tm11  1  0.692799  0.998998  0.306199  1
  Al  Al12  1  0.500000  0.500000  0.000000  1
  Al  Al13  1  0.000000  0.000000  0.000000  1
  Fe  Fe14  1  0.107775  0.607775  0.500000  1
  Fe  Fe15  1  0.892225  0.392225  0.500000  1
  Pd  Pd16  1  0.343444  0.000000  0.343444  1
  Pd  Pd17  1  0.656556  0.000000  0.656556  1
