# generated using pymatgen
data_CaPr6FeI12
_symmetry_space_group_name_H-M   'P 1'
_cell_length_a   10.12114347
_cell_length_b   10.12114408
_cell_length_c   10.12114422
_cell_angle_alpha   107.03184475
_cell_angle_beta   107.03185196
_cell_angle_gamma   107.03183648
_symmetry_Int_Tables_number   1
_chemical_formula_structural   CaPr6FeI12
_chemical_formula_sum   'Ca1 Pr6 Fe1 I12'
_cell_volume   862.69350840
_cell_formula_units_Z   1
loop_
 _symmetry_equiv_pos_site_id
 _symmetry_equiv_pos_as_xyz
  1  'x, y, z'
loop_
 _atom_site_type_symbol
 _atom_site_label
 _atom_site_symmetry_multiplicity
 _atom_site_fract_x
 _atom_site_fract_y
 _atom_site_fract_z
 _atom_site_occupancy
  Ca  Ca0  1  0.000000  0.000000  0.000000  1
  Pr  Pr1  1  0.797598  0.525320  0.597124  1
  Pr  Pr2  1  0.525320  0.597124  0.797598  1
  Pr  Pr3  1  0.202402  0.474680  0.402876  1
  Pr  Pr4  1  0.474680  0.402876  0.202402  1
  Pr  Pr5  1  0.597124  0.797598  0.525320  1
  Pr  Pr6  1  0.402876  0.202402  0.474680  1
  Fe  Fe7  1  0.500000  0.500000  0.500000  1
  I  I8  1  0.724635  0.183610  0.573471  1
  I  I9  1  0.958389  0.881652  0.659064  1
  I  I10  1  0.573471  0.724635  0.183610  1
  I  I11  1  0.118348  0.340936  0.041611  1
  I  I12  1  0.659064  0.958389  0.881652  1
  I  I13  1  0.881652  0.659064  0.958389  1
  I  I14  1  0.041611  0.118348  0.340936  1
  I  I15  1  0.816390  0.426529  0.275365  1
  I  I16  1  0.340936  0.041611  0.118348  1
  I  I17  1  0.275365  0.816390  0.426529  1
  I  I18  1  0.183610  0.573471  0.724635  1
  I  I19  1  0.426529  0.275365  0.816390  1
