# generated using pymatgen
data_Th2Ga12Ir
_symmetry_space_group_name_H-M   'P 1'
_cell_length_a   6.12821200
_cell_length_b   6.12821200
_cell_length_c   15.62470400
_cell_angle_alpha   90.00000000
_cell_angle_beta   90.00000000
_cell_angle_gamma   90.00000000
_symmetry_Int_Tables_number   1
_chemical_formula_structural   Th2Ga12Ir
_chemical_formula_sum   'Th4 Ga24 Ir2'
_cell_volume   586.78548243
_cell_formula_units_Z   2
loop_
 _symmetry_equiv_pos_site_id
 _symmetry_equiv_pos_as_xyz
  1  'x, y, z'
loop_
 _atom_site_type_symbol
 _atom_site_label
 _atom_site_symmetry_multiplicity
 _atom_site_fract_x
 _atom_site_fract_y
 _atom_site_fract_z
 _atom_site_occupancy
  Th  Th0  1  0.000000  0.500000  0.757070  1
  Th  Th1  1  0.500000  0.000000  0.757070  1
  Th  Th2  1  0.000000  0.500000  0.242930  1
  Th  Th3  1  0.500000  0.000000  0.242930  1
  Ga  Ga4  1  0.670257  0.170257  0.429408  1
  Ga  Ga5  1  0.670257  0.829743  0.570592  1
  Ga  Ga6  1  0.170257  0.670257  0.570592  1
  Ga  Ga7  1  0.829743  0.329743  0.570592  1
  Ga  Ga8  1  0.500000  0.500000  0.187382  1
  Ga  Ga9  1  0.500000  0.500000  0.812618  1
  Ga  Ga10  1  0.000000  0.000000  0.812618  1
  Ga  Ga11  1  0.000000  0.000000  0.187382  1
  Ga  Ga12  1  0.500000  0.500000  0.343650  1
  Ga  Ga13  1  0.500000  0.500000  0.656350  1
  Ga  Ga14  1  0.000000  0.000000  0.656350  1
  Ga  Ga15  1  0.000000  0.000000  0.343650  1
  Ga  Ga16  1  0.250490  0.750490  0.912860  1
  Ga  Ga17  1  0.249510  0.250490  0.912860  1
  Ga  Ga18  1  0.750490  0.749510  0.912860  1
  Ga  Ga19  1  0.250490  0.249510  0.087140  1
  Ga  Ga20  1  0.749510  0.750490  0.087140  1
  Ga  Ga21  1  0.749510  0.249510  0.912860  1
  Ga  Ga22  1  0.750490  0.250490  0.087140  1
  Ga  Ga23  1  0.249510  0.749510  0.087140  1
  Ga  Ga24  1  0.329743  0.829743  0.429408  1
  Ga  Ga25  1  0.170257  0.329743  0.429408  1
  Ga  Ga26  1  0.829743  0.670257  0.429408  1
  Ga  Ga27  1  0.329743  0.170257  0.570592  1
  Ir  Ir28  1  0.500000  0.000000  0.000000  1
  Ir  Ir29  1  0.000000  0.500000  0.000000  1
