# generated using pymatgen
data_YHo5MnB14Os
_symmetry_space_group_name_H-M   'P 1'
_cell_length_a   8.01690908
_cell_length_b   8.01691016
_cell_length_c   9.28846900
_cell_angle_alpha   90.00000000
_cell_angle_beta   90.00000000
_cell_angle_gamma   154.95814653
_symmetry_Int_Tables_number   1
_chemical_formula_structural   YHo5MnB14Os
_chemical_formula_sum   'Y1 Ho5 Mn1 B14 Os1'
_cell_volume   252.68883531
_cell_formula_units_Z   1
loop_
 _symmetry_equiv_pos_site_id
 _symmetry_equiv_pos_as_xyz
  1  'x, y, z'
loop_
 _atom_site_type_symbol
 _atom_site_label
 _atom_site_symmetry_multiplicity
 _atom_site_fract_x
 _atom_site_fract_y
 _atom_site_fract_z
 _atom_site_occupancy
  Y  Y0  1  0.244758  0.755242  0.250000  1
  Ho  Ho1  1  0.894775  0.105225  0.442942  1
  Ho  Ho2  1  0.104734  0.895266  0.563570  1
  Ho  Ho3  1  0.894775  0.105225  0.057058  1
  Ho  Ho4  1  0.104734  0.895266  0.936430  1
  Ho  Ho5  1  0.759245  0.240755  0.750000  1
  Mn  Mn6  1  0.947076  0.052924  0.750000  1
  B  B7  1  0.727150  0.272850  0.466965  1
  B  B8  1  0.272273  0.727727  0.534329  1
  B  B9  1  0.727150  0.272850  0.033035  1
  B  B10  1  0.272273  0.727727  0.965671  1
  B  B11  1  0.631762  0.368238  0.149943  1
  B  B12  1  0.369899  0.630101  0.846409  1
  B  B13  1  0.631762  0.368238  0.350057  1
  B  B14  1  0.369899  0.630101  0.653591  1
  B  B15  1  0.520194  0.479806  0.095342  1
  B  B16  1  0.478497  0.521503  0.901676  1
  B  B17  1  0.520194  0.479806  0.404658  1
  B  B18  1  0.478497  0.521503  0.598324  1
  B  B19  1  0.455858  0.544142  0.250000  1
  B  B20  1  0.540890  0.459110  0.750000  1
  Os  Os21  1  0.053602  0.946398  0.250000  1
