# generated using pymatgen
data_Ba2Sr3Si6Ir
_symmetry_space_group_name_H-M   'P 1'
_cell_length_a   9.52422200
_cell_length_b   9.52422096
_cell_length_c   4.08883300
_cell_angle_alpha   90.00000000
_cell_angle_beta   90.00000000
_cell_angle_gamma   120.00000362
_symmetry_Int_Tables_number   1
_chemical_formula_structural   Ba2Sr3Si6Ir
_chemical_formula_sum   'Ba2 Sr3 Si6 Ir1'
_cell_volume   321.20992872
_cell_formula_units_Z   1
loop_
 _symmetry_equiv_pos_site_id
 _symmetry_equiv_pos_as_xyz
  1  'x, y, z'
loop_
 _atom_site_type_symbol
 _atom_site_label
 _atom_site_symmetry_multiplicity
 _atom_site_fract_x
 _atom_site_fract_y
 _atom_site_fract_z
 _atom_site_occupancy
  Ba  Ba0  1  0.333333  0.666667  0.000000  1
  Ba  Ba1  1  0.666667  0.333333  0.000000  1
  Sr  Sr2  1  0.000000  0.745407  0.500000  1
  Sr  Sr3  1  0.254593  0.254593  0.500000  1
  Sr  Sr4  1  0.745407  0.000000  0.500000  1
  Si  Si5  1  0.000000  0.256020  0.000000  1
  Si  Si6  1  0.743980  0.743980  0.000000  1
  Si  Si7  1  0.256020  0.000000  0.000000  1
  Si  Si8  1  0.000000  0.400813  0.500000  1
  Si  Si9  1  0.599187  0.599187  0.500000  1
  Si  Si10  1  0.400813  0.000000  0.500000  1
  Ir  Ir11  1  0.000000  0.000000  0.000000  1
