# generated using pymatgen
data_Np6TiNbSb10
_symmetry_space_group_name_H-M   'P 1'
_cell_length_a   9.19578400
_cell_length_b   9.19578352
_cell_length_c   6.09992300
_cell_angle_alpha   90.00000000
_cell_angle_beta   90.00000000
_cell_angle_gamma   120.00000172
_symmetry_Int_Tables_number   1
_chemical_formula_structural   Np6TiNbSb10
_chemical_formula_sum   'Np6 Ti1 Nb1 Sb10'
_cell_volume   446.71699752
_cell_formula_units_Z   1
loop_
 _symmetry_equiv_pos_site_id
 _symmetry_equiv_pos_as_xyz
  1  'x, y, z'
loop_
 _atom_site_type_symbol
 _atom_site_label
 _atom_site_symmetry_multiplicity
 _atom_site_fract_x
 _atom_site_fract_y
 _atom_site_fract_z
 _atom_site_occupancy
  Np  Np0  1  0.387993  0.000000  0.748517  1
  Np  Np1  1  0.387993  0.387993  0.251483  1
  Np  Np2  1  0.000000  0.612007  0.251483  1
  Np  Np3  1  0.000000  0.387993  0.748517  1
  Np  Np4  1  0.612007  0.612007  0.748517  1
  Np  Np5  1  0.612007  0.000000  0.251483  1
  Ti  Ti6  1  0.000000  0.000000  0.500000  1
  Nb  Nb7  1  0.000000  0.000000  0.000000  1
  Sb  Sb8  1  0.666667  0.333333  0.500000  1
  Sb  Sb9  1  0.333333  0.666667  0.000000  1
  Sb  Sb10  1  0.737319  0.000000  0.748544  1
  Sb  Sb11  1  0.737319  0.737319  0.251456  1
  Sb  Sb12  1  0.333333  0.666667  0.500000  1
  Sb  Sb13  1  0.666667  0.333333  0.000000  1
  Sb  Sb14  1  0.262681  0.000000  0.251456  1
  Sb  Sb15  1  0.262681  0.262681  0.748544  1
  Sb  Sb16  1  0.000000  0.737319  0.748544  1
  Sb  Sb17  1  0.000000  0.262681  0.251456  1
