# generated using pymatgen
data_Np4Ga15Sn
_symmetry_space_group_name_H-M   'P 1'
_cell_length_a   12.76177297
_cell_length_b   12.76177327
_cell_length_c   12.76177206
_cell_angle_alpha   27.57372627
_cell_angle_beta   27.57372465
_cell_angle_gamma   27.57372271
_symmetry_Int_Tables_number   1
_chemical_formula_structural   Np4Ga15Sn
_chemical_formula_sum   'Np4 Ga15 Sn1'
_cell_volume   393.10823487
_cell_formula_units_Z   1
loop_
 _symmetry_equiv_pos_site_id
 _symmetry_equiv_pos_as_xyz
  1  'x, y, z'
loop_
 _atom_site_type_symbol
 _atom_site_label
 _atom_site_symmetry_multiplicity
 _atom_site_fract_x
 _atom_site_fract_y
 _atom_site_fract_z
 _atom_site_occupancy
  Np  Np0  1  0.130865  0.130865  0.130865  1
  Np  Np1  1  0.869135  0.869135  0.869135  1
  Np  Np2  1  0.401193  0.401193  0.401193  1
  Np  Np3  1  0.598807  0.598807  0.598807  1
  Ga  Ga4  1  0.420729  0.890444  0.890444  1
  Ga  Ga5  1  0.890444  0.890444  0.420729  1
  Ga  Ga6  1  0.890444  0.420729  0.890444  1
  Ga  Ga7  1  0.109556  0.579271  0.109556  1
  Ga  Ga8  1  0.109556  0.109556  0.579271  1
  Ga  Ga9  1  0.579271  0.109556  0.109556  1
  Ga  Ga10  1  0.135791  0.634476  0.634476  1
  Ga  Ga11  1  0.634476  0.634476  0.135791  1
  Ga  Ga12  1  0.634476  0.135791  0.634476  1
  Ga  Ga13  1  0.365524  0.864209  0.365524  1
  Ga  Ga14  1  0.365524  0.365524  0.864209  1
  Ga  Ga15  1  0.864209  0.365524  0.365524  1
  Ga  Ga16  1  0.500000  0.500000  0.000000  1
  Ga  Ga17  1  0.500000  0.000000  0.500000  1
  Ga  Ga18  1  0.000000  0.500000  0.500000  1
  Sn  Sn19  1  0.000000  0.000000  0.000000  1
