# generated using pymatgen
data_Dy4ReTc5B12
_symmetry_space_group_name_H-M   'P 1'
_cell_length_a   6.19740239
_cell_length_b   6.20319279
_cell_length_c   7.50328155
_cell_angle_alpha   90.62405049
_cell_angle_beta   90.66788480
_cell_angle_gamma   113.69498926
_symmetry_Int_Tables_number   1
_chemical_formula_structural   Dy4ReTc5B12
_chemical_formula_sum   'Dy4 Re1 Tc5 B12'
_cell_volume   264.08030179
_cell_formula_units_Z   1
loop_
 _symmetry_equiv_pos_site_id
 _symmetry_equiv_pos_as_xyz
  1  'x, y, z'
loop_
 _atom_site_type_symbol
 _atom_site_label
 _atom_site_symmetry_multiplicity
 _atom_site_fract_x
 _atom_site_fract_y
 _atom_site_fract_z
 _atom_site_occupancy
  Dy  Dy0  1  0.100622  0.442179  0.322244  1
  Dy  Dy1  1  0.559037  0.899648  0.177101  1
  Dy  Dy2  1  0.899154  0.554886  0.677656  1
  Dy  Dy3  1  0.439184  0.099924  0.822515  1
  Re  Re4  1  0.805819  0.990006  0.589911  1
  Tc  Tc5  1  0.588205  0.411719  0.249566  1
  Tc  Tc6  1  0.411839  0.587936  0.749722  1
  Tc  Tc7  1  0.990421  0.805078  0.089136  1
  Tc  Tc8  1  0.194598  0.010065  0.410807  1
  Tc  Tc9  1  0.009892  0.195948  0.911751  1
  B  B10  1  0.247160  0.151833  0.129870  1
  B  B11  1  0.847493  0.753370  0.371239  1
  B  B12  1  0.755170  0.848265  0.868813  1
  B  B13  1  0.152027  0.249871  0.629372  1
  B  B14  1  0.585540  0.158218  0.482125  1
  B  B15  1  0.841168  0.415269  0.019014  1
  B  B16  1  0.414127  0.840781  0.518136  1
  B  B17  1  0.158998  0.585684  0.981673  1
  B  B18  1  0.442627  0.349873  0.534402  1
  B  B19  1  0.649705  0.557093  0.965238  1
  B  B20  1  0.556551  0.648911  0.465067  1
  B  B21  1  0.350666  0.443444  0.034642  1
