# generated using pymatgen
data_Zr10GaGe(BiPb)3
_symmetry_space_group_name_H-M   'P 1'
_cell_length_a   8.87760923
_cell_length_b   8.87760818
_cell_length_c   5.95632100
_cell_angle_alpha   90.00052346
_cell_angle_beta   90.00052115
_cell_angle_gamma   119.97432639
_symmetry_Int_Tables_number   1
_chemical_formula_structural   Zr10GaGe(BiPb)3
_chemical_formula_sum   'Zr10 Ga1 Ge1 Bi3 Pb3'
_cell_volume   406.64273710
_cell_formula_units_Z   1
loop_
 _symmetry_equiv_pos_site_id
 _symmetry_equiv_pos_as_xyz
  1  'x, y, z'
loop_
 _atom_site_type_symbol
 _atom_site_label
 _atom_site_symmetry_multiplicity
 _atom_site_fract_x
 _atom_site_fract_y
 _atom_site_fract_z
 _atom_site_occupancy
  Zr  Zr0  1  0.666645  0.333320  0.003542  1
  Zr  Zr1  1  0.333318  0.666643  0.003542  1
  Zr  Zr2  1  0.333308  0.666682  0.495903  1
  Zr  Zr3  1  0.666684  0.333310  0.495903  1
  Zr  Zr4  1  0.741063  0.741064  0.749057  1
  Zr  Zr5  1  0.259053  0.000127  0.749140  1
  Zr  Zr6  1  0.000129  0.259052  0.749140  1
  Zr  Zr7  1  0.266976  0.266976  0.250999  1
  Zr  Zr8  1  0.732925  0.999887  0.250972  1
  Zr  Zr9  1  0.999885  0.732924  0.250972  1
  Ga  Ga10  1  0.000000  0.000000  0.004536  1
  Ge  Ge11  1  0.000014  0.000014  0.495530  1
  Bi  Bi12  1  0.394799  0.394801  0.750302  1
  Bi  Bi13  1  0.605253  0.000005  0.750306  1
  Bi  Bi14  1  0.000004  0.605250  0.750306  1
  Pb  Pb15  1  0.613412  0.613412  0.249960  1
  Pb  Pb16  1  0.386560  0.999968  0.249946  1
  Pb  Pb17  1  0.999970  0.386564  0.249946  1
