# generated using pymatgen
data_Sr10Re3IrN14
_symmetry_space_group_name_H-M   'P 1'
_cell_length_a   6.43340800
_cell_length_b   9.33130671
_cell_length_c   9.46525025
_cell_angle_alpha   114.57250228
_cell_angle_beta   98.75375520
_cell_angle_gamma   89.37801030
_symmetry_Int_Tables_number   1
_chemical_formula_structural   Sr10Re3IrN14
_chemical_formula_sum   'Sr10 Re3 Ir1 N14'
_cell_volume   509.86948354
_cell_formula_units_Z   1
loop_
 _symmetry_equiv_pos_site_id
 _symmetry_equiv_pos_as_xyz
  1  'x, y, z'
loop_
 _atom_site_type_symbol
 _atom_site_label
 _atom_site_symmetry_multiplicity
 _atom_site_fract_x
 _atom_site_fract_y
 _atom_site_fract_z
 _atom_site_occupancy
  Sr  Sr0  1  0.848642  0.571650  0.325491  1
  Sr  Sr1  1  0.272030  0.989402  0.562730  1
  Sr  Sr2  1  0.678284  0.392923  0.829287  1
  Sr  Sr3  1  0.292643  0.585361  0.142559  1
  Sr  Sr4  1  0.398674  0.788469  0.920336  1
  Sr  Sr5  1  0.615694  0.208003  0.105132  1
  Sr  Sr6  1  0.129621  0.397059  0.646922  1
  Sr  Sr7  1  0.902822  0.844998  0.759340  1
  Sr  Sr8  1  0.129134  0.157329  0.251923  1
  Sr  Sr9  1  0.734442  0.043682  0.442666  1
  Re  Re10  1  0.422202  0.639803  0.526464  1
  Re  Re11  1  0.124897  0.216771  0.918272  1
  Re  Re12  1  0.879175  0.777124  0.077400  1
  Ir  Ir13  1  0.568302  0.370989  0.480274  1
  N  N14  1  0.485156  0.557540  0.682561  1
  N  N15  1  0.483017  0.482813  0.328921  1
  N  N16  1  0.150888  0.703134  0.540280  1
  N  N17  1  0.827090  0.265261  0.375747  1
  N  N18  1  0.447305  0.207259  0.546928  1
  N  N19  1  0.587720  0.814589  0.561320  1
  N  N20  1  0.965802  0.145520  0.719796  1
  N  N21  1  0.058206  0.858417  0.267477  1
  N  N22  1  0.229018  0.050487  0.961457  1
  N  N23  1  0.768619  0.934984  0.026253  1
  N  N24  1  0.354703  0.331693  0.923025  1
  N  N25  1  0.971382  0.344747  0.068771  1
  N  N26  1  0.025212  0.652248  0.918749  1
  N  N27  1  0.649321  0.667744  0.089919  1
