# generated using pymatgen
data_HoTm3Al4(NiRh)2
_symmetry_space_group_name_H-M   'P 1'
_cell_length_a   4.19383200
_cell_length_b   6.70070680
_cell_length_c   7.79170255
_cell_angle_alpha   89.86307432
_cell_angle_beta   90.00000000
_cell_angle_gamma   90.00000000
_symmetry_Int_Tables_number   1
_chemical_formula_structural   HoTm3Al4(NiRh)2
_chemical_formula_sum   'Ho1 Tm3 Al4 Ni2 Rh2'
_cell_volume   218.95898370
_cell_formula_units_Z   1
loop_
 _symmetry_equiv_pos_site_id
 _symmetry_equiv_pos_as_xyz
  1  'x, y, z'
loop_
 _atom_site_type_symbol
 _atom_site_label
 _atom_site_symmetry_multiplicity
 _atom_site_fract_x
 _atom_site_fract_y
 _atom_site_fract_z
 _atom_site_occupancy
  Ho  Ho0  1  0.250000  0.967750  0.320171  1
  Tm  Tm1  1  0.750000  0.536426  0.826520  1
  Tm  Tm2  1  0.250000  0.467227  0.179507  1
  Tm  Tm3  1  0.750000  0.036645  0.674166  1
  Al  Al4  1  0.750000  0.632053  0.436537  1
  Al  Al5  1  0.750000  0.133370  0.063304  1
  Al  Al6  1  0.250000  0.360613  0.554000  1
  Al  Al7  1  0.250000  0.859660  0.945769  1
  Ni  Ni8  1  0.750000  0.766122  0.126717  1
  Ni  Ni9  1  0.750000  0.269271  0.371870  1
  Rh  Rh10  1  0.250000  0.235599  0.877418  1
  Rh  Rh11  1  0.250000  0.735266  0.624021  1
