# generated using pymatgen
data_TbTm5Al24Ru5Pt3
_symmetry_space_group_name_H-M   'P 1'
_cell_length_a   8.78286531
_cell_length_b   8.81293050
_cell_length_c   9.51427458
_cell_angle_alpha   89.84474693
_cell_angle_beta   90.14976622
_cell_angle_gamma   119.63006926
_symmetry_Int_Tables_number   1
_chemical_formula_structural   TbTm5Al24Ru5Pt3
_chemical_formula_sum   'Tb1 Tm5 Al24 Ru5 Pt3'
_cell_volume   640.12926917
_cell_formula_units_Z   1
loop_
 _symmetry_equiv_pos_site_id
 _symmetry_equiv_pos_as_xyz
  1  'x, y, z'
loop_
 _atom_site_type_symbol
 _atom_site_label
 _atom_site_symmetry_multiplicity
 _atom_site_fract_x
 _atom_site_fract_y
 _atom_site_fract_z
 _atom_site_occupancy
  Tb  Tb0  1  0.807395  0.190213  0.748849  1
  Tm  Tm1  1  0.195347  0.809083  0.251242  1
  Tm  Tm2  1  0.389177  0.191272  0.750213  1
  Tm  Tm3  1  0.610383  0.809087  0.249870  1
  Tm  Tm4  1  0.806446  0.613499  0.750218  1
  Tm  Tm5  1  0.192980  0.386092  0.249850  1
  Al  Al6  1  0.664103  0.327593  0.970385  1
  Al  Al7  1  0.335309  0.672523  0.031360  1
  Al  Al8  1  0.338184  0.669482  0.469940  1
  Al  Al9  1  0.661274  0.330429  0.528511  1
  Al  Al10  1  0.832393  0.158619  0.420941  1
  Al  Al11  1  0.167575  0.841506  0.577560  1
  Al  Al12  1  0.326781  0.164402  0.422798  1
  Al  Al13  1  0.167363  0.841876  0.921578  1
  Al  Al14  1  0.672408  0.834854  0.576136  1
  Al  Al15  1  0.832611  0.158138  0.079847  1
  Al  Al16  1  0.831542  0.675498  0.423469  1
  Al  Al17  1  0.673634  0.840833  0.922416  1
  Al  Al18  1  0.169179  0.325050  0.575541  1
  Al  Al19  1  0.325461  0.158388  0.078730  1
  Al  Al20  1  0.162796  0.323684  0.922199  1
  Al  Al21  1  0.838158  0.677171  0.078897  1
  Al  Al22  1  0.438364  0.562588  0.746489  1
  Al  Al23  1  0.561459  0.437719  0.253279  1
  Al  Al24  1  0.128693  0.564530  0.750427  1
  Al  Al25  1  0.872128  0.436914  0.249606  1
  Al  Al26  1  0.439422  0.876986  0.750549  1
  Al  Al27  1  0.559617  0.122778  0.249441  1
  Al  Al28  1  0.000189  0.994997  0.749836  1
  Al  Al29  1  0.001040  0.002870  0.250166  1
  Ru  Ru30  1  0.499908  0.500131  0.499849  1
  Ru  Ru31  1  0.499291  0.999661  0.000681  1
  Ru  Ru32  1  0.499174  0.999575  0.499265  1
  Ru  Ru33  1  0.999897  0.000156  0.000012  1
  Ru  Ru34  1  0.999816  0.000130  0.499983  1
  Pt  Pt35  1  0.499898  0.500194  0.999900  1
  Pt  Pt36  1  0.000156  0.500418  0.000422  1
  Pt  Pt37  1  0.000448  0.501064  0.499546  1
