# generated using pymatgen
data_ErLu3(HfPt)4
_symmetry_space_group_name_H-M   'P 1'
_cell_length_a   4.63563100
_cell_length_b   6.97951530
_cell_length_c   8.17615783
_cell_angle_alpha   89.93928172
_cell_angle_beta   90.00000000
_cell_angle_gamma   90.00000000
_symmetry_Int_Tables_number   1
_chemical_formula_structural   ErLu3(HfPt)4
_chemical_formula_sum   'Er1 Lu3 Hf4 Pt4'
_cell_volume   264.53500226
_cell_formula_units_Z   1
loop_
 _symmetry_equiv_pos_site_id
 _symmetry_equiv_pos_as_xyz
  1  'x, y, z'
loop_
 _atom_site_type_symbol
 _atom_site_label
 _atom_site_symmetry_multiplicity
 _atom_site_fract_x
 _atom_site_fract_y
 _atom_site_fract_z
 _atom_site_occupancy
  Er  Er0  1  0.250000  0.983142  0.322258  1
  Lu  Lu1  1  0.750000  0.517396  0.822188  1
  Lu  Lu2  1  0.250000  0.482870  0.177163  1
  Lu  Lu3  1  0.750000  0.017451  0.678076  1
  Hf  Hf4  1  0.750000  0.645277  0.422720  1
  Hf  Hf5  1  0.250000  0.354733  0.577941  1
  Hf  Hf6  1  0.750000  0.145907  0.076477  1
  Hf  Hf7  1  0.250000  0.854023  0.921961  1
  Pt  Pt8  1  0.750000  0.265359  0.404322  1
  Pt  Pt9  1  0.250000  0.734866  0.597411  1
  Pt  Pt10  1  0.750000  0.763935  0.095258  1
  Pt  Pt11  1  0.250000  0.235041  0.904224  1
