# generated using pymatgen
data_LaPr(FeB)8
_symmetry_space_group_name_H-M   'P 1'
_cell_length_a   7.10277000
_cell_length_b   7.10277000
_cell_length_c   3.80841400
_cell_angle_alpha   90.00000000
_cell_angle_beta   90.00000000
_cell_angle_gamma   90.00000000
_symmetry_Int_Tables_number   1
_chemical_formula_structural   LaPr(FeB)8
_chemical_formula_sum   'La1 Pr1 Fe8 B8'
_cell_volume   192.13197912
_cell_formula_units_Z   1
loop_
 _symmetry_equiv_pos_site_id
 _symmetry_equiv_pos_as_xyz
  1  'x, y, z'
loop_
 _atom_site_type_symbol
 _atom_site_label
 _atom_site_symmetry_multiplicity
 _atom_site_fract_x
 _atom_site_fract_y
 _atom_site_fract_z
 _atom_site_occupancy
  La  La0  1  0.000000  0.000000  0.000000  1
  Pr  Pr1  1  0.500000  0.500000  0.500000  1
  Fe  Fe2  1  0.131952  0.388168  0.894994  1
  Fe  Fe3  1  0.868048  0.611832  0.894994  1
  Fe  Fe4  1  0.888056  0.369555  0.393893  1
  Fe  Fe5  1  0.111944  0.630445  0.393893  1
  Fe  Fe6  1  0.369555  0.111944  0.606107  1
  Fe  Fe7  1  0.630445  0.888056  0.606107  1
  Fe  Fe8  1  0.611832  0.131952  0.105006  1
  Fe  Fe9  1  0.388168  0.868048  0.105006  1
  B  B10  1  0.664719  0.797295  0.106037  1
  B  B11  1  0.335281  0.202705  0.106037  1
  B  B12  1  0.299098  0.834073  0.604579  1
  B  B13  1  0.700902  0.165927  0.604579  1
  B  B14  1  0.834073  0.700902  0.395421  1
  B  B15  1  0.165927  0.299098  0.395421  1
  B  B16  1  0.202705  0.664719  0.893963  1
  B  B17  1  0.797295  0.335281  0.893963  1
