# generated using pymatgen
data_Na2Li3AlO4
_symmetry_space_group_name_H-M   'P 1'
_cell_length_a   7.99357600
_cell_length_b   7.69777600
_cell_length_c   6.35093800
_cell_angle_alpha   90.00000000
_cell_angle_beta   90.00000000
_cell_angle_gamma   90.00000000
_symmetry_Int_Tables_number   1
_chemical_formula_structural   Na2Li3AlO4
_chemical_formula_sum   'Na8 Li12 Al4 O16'
_cell_volume   390.79072777
_cell_formula_units_Z   4
loop_
 _symmetry_equiv_pos_site_id
 _symmetry_equiv_pos_as_xyz
  1  'x, y, z'
loop_
 _atom_site_type_symbol
 _atom_site_label
 _atom_site_symmetry_multiplicity
 _atom_site_fract_x
 _atom_site_fract_y
 _atom_site_fract_z
 _atom_site_occupancy
  Na  Na0  1  0.754415  0.259340  0.000000  1
  Na  Na1  1  0.245585  0.740659  0.000000  1
  Na  Na2  1  0.500000  0.000000  0.240234  1
  Na  Na3  1  0.000000  0.500000  0.259765  1
  Na  Na4  1  0.254415  0.240659  0.500000  1
  Na  Na5  1  0.745585  0.759340  0.500000  1
  Na  Na6  1  0.000000  0.500000  0.740234  1
  Na  Na7  1  0.500000  0.000000  0.759765  1
  Li  Li8  1  0.421036  0.266412  0.000000  1
  Li  Li9  1  0.578964  0.733587  0.000000  1
  Li  Li10  1  0.350656  0.483403  0.244584  1
  Li  Li11  1  0.649344  0.516596  0.244584  1
  Li  Li12  1  0.850656  0.016596  0.255417  1
  Li  Li13  1  0.149344  0.983403  0.255417  1
  Li  Li14  1  0.921036  0.233588  0.500000  1
  Li  Li15  1  0.078964  0.766412  0.500000  1
  Li  Li16  1  0.850656  0.016596  0.744584  1
  Li  Li17  1  0.149344  0.983403  0.744584  1
  Li  Li18  1  0.350656  0.483403  0.755417  1
  Li  Li19  1  0.649344  0.516596  0.755417  1
  Al  Al20  1  0.125937  0.224137  0.000000  1
  Al  Al21  1  0.874063  0.775863  0.000000  1
  Al  Al22  1  0.625937  0.275862  0.500000  1
  Al  Al23  1  0.374063  0.724137  0.500000  1
  O  O24  1  0.276996  0.052635  0.000000  1
  O  O25  1  0.222827  0.431951  0.000000  1
  O  O26  1  0.777173  0.568050  0.000000  1
  O  O27  1  0.723004  0.947364  0.000000  1
  O  O28  1  0.012835  0.197991  0.235934  1
  O  O29  1  0.987165  0.802008  0.235934  1
  O  O30  1  0.512835  0.302009  0.264066  1
  O  O31  1  0.487165  0.697992  0.264066  1
  O  O32  1  0.722827  0.068049  0.500000  1
  O  O33  1  0.776996  0.447364  0.500000  1
  O  O34  1  0.223004  0.552635  0.500000  1
  O  O35  1  0.277173  0.931951  0.500000  1
  O  O36  1  0.512835  0.302009  0.735934  1
  O  O37  1  0.487165  0.697992  0.735934  1
  O  O38  1  0.012835  0.197991  0.764066  1
  O  O39  1  0.987165  0.802008  0.764066  1
