# generated using pymatgen
data_Sm2Co3Si3P4Ru9
_symmetry_space_group_name_H-M   'P 1'
_cell_length_a   9.37678014
_cell_length_b   9.37757451
_cell_length_c   3.85301400
_cell_angle_alpha   90.00000000
_cell_angle_beta   90.00000000
_cell_angle_gamma   119.74253484
_symmetry_Int_Tables_number   1
_chemical_formula_structural   Sm2Co3Si3P4Ru9
_chemical_formula_sum   'Sm2 Co3 Si3 P4 Ru9'
_cell_volume   294.16863719
_cell_formula_units_Z   1
loop_
 _symmetry_equiv_pos_site_id
 _symmetry_equiv_pos_as_xyz
  1  'x, y, z'
loop_
 _atom_site_type_symbol
 _atom_site_label
 _atom_site_symmetry_multiplicity
 _atom_site_fract_x
 _atom_site_fract_y
 _atom_site_fract_z
 _atom_site_occupancy
  Sm  Sm0  1  0.335431  0.668141  0.500000  1
  Sm  Sm1  1  0.999805  0.000455  0.000000  1
  Co  Co2  1  0.824832  0.604249  0.000000  1
  Co  Co3  1  0.391829  0.218997  0.000000  1
  Co  Co4  1  0.782824  0.175642  0.000000  1
  Si  Si5  1  0.777010  0.724665  0.500000  1
  Si  Si6  1  0.273092  0.050887  0.500000  1
  Si  Si7  1  0.664368  0.332531  0.000000  1
  P  P8  1  0.948987  0.222992  0.500000  1
  P  P9  1  0.077503  0.638411  0.000000  1
  P  P10  1  0.363479  0.439735  0.000000  1
  P  P11  1  0.562767  0.925775  0.000000  1
  Ru  Ru12  1  0.088608  0.395914  0.000000  1
  Ru  Ru13  1  0.604351  0.695398  0.000000  1
  Ru  Ru14  1  0.307572  0.910319  0.000000  1
  Ru  Ru15  1  0.052581  0.764871  0.500000  1
  Ru  Ru16  1  0.228506  0.285317  0.500000  1
  Ru  Ru17  1  0.719307  0.952078  0.500000  1
  Ru  Ru18  1  0.869038  0.420362  0.500000  1
  Ru  Ru19  1  0.571674  0.442396  0.500000  1
  Ru  Ru20  1  0.556435  0.130862  0.500000  1
