# generated using pymatgen
data_Nd2Th2SiI6
_symmetry_space_group_name_H-M   'P 1'
_cell_length_a   4.34113900
_cell_length_b   14.38888500
_cell_length_c   15.23705500
_cell_angle_alpha   90.00000000
_cell_angle_beta   90.00000000
_cell_angle_gamma   90.00000000
_symmetry_Int_Tables_number   1
_chemical_formula_structural   Nd2Th2SiI6
_chemical_formula_sum   'Nd4 Th4 Si2 I12'
_cell_volume   951.76968664
_cell_formula_units_Z   2
loop_
 _symmetry_equiv_pos_site_id
 _symmetry_equiv_pos_as_xyz
  1  'x, y, z'
loop_
 _atom_site_type_symbol
 _atom_site_label
 _atom_site_symmetry_multiplicity
 _atom_site_fract_x
 _atom_site_fract_y
 _atom_site_fract_z
 _atom_site_occupancy
  Nd  Nd0  1  0.500000  0.113036  0.348684  1
  Nd  Nd1  1  0.500000  0.886964  0.651316  1
  Nd  Nd2  1  0.500000  0.613036  0.151316  1
  Nd  Nd3  1  0.500000  0.386964  0.848684  1
  Th  Th4  1  0.000000  0.108512  0.572343  1
  Th  Th5  1  0.000000  0.891488  0.427657  1
  Th  Th6  1  0.000000  0.608512  0.927657  1
  Th  Th7  1  0.000000  0.391488  0.072343  1
  Si  Si8  1  0.500000  0.000000  0.500000  1
  Si  Si9  1  0.500000  0.500000  0.000000  1
  I  I10  1  0.500000  0.245767  0.161356  1
  I  I11  1  0.500000  0.754233  0.838644  1
  I  I12  1  0.500000  0.745767  0.338644  1
  I  I13  1  0.500000  0.254233  0.661356  1
  I  I14  1  0.000000  0.259845  0.415161  1
  I  I15  1  0.000000  0.740155  0.584839  1
  I  I16  1  0.000000  0.759845  0.084839  1
  I  I17  1  0.000000  0.240155  0.915161  1
  I  I18  1  0.000000  0.997565  0.239625  1
  I  I19  1  0.000000  0.002435  0.760375  1
  I  I20  1  0.000000  0.497565  0.260375  1
  I  I21  1  0.000000  0.502435  0.739625  1
