# generated using pymatgen
data_Nd4Ga(SiIr2)2
_symmetry_space_group_name_H-M   'P 1'
_cell_length_a   11.00004522
_cell_length_b   11.00004505
_cell_length_c   7.92866834
_cell_angle_alpha   71.25828230
_cell_angle_beta   71.25828174
_cell_angle_gamma   30.31346903
_symmetry_Int_Tables_number   1
_chemical_formula_structural   Nd4Ga(SiIr2)2
_chemical_formula_sum   'Nd8 Ga2 Si4 Ir8'
_cell_volume   456.61056498
_cell_formula_units_Z   2
loop_
 _symmetry_equiv_pos_site_id
 _symmetry_equiv_pos_as_xyz
  1  'x, y, z'
loop_
 _atom_site_type_symbol
 _atom_site_label
 _atom_site_symmetry_multiplicity
 _atom_site_fract_x
 _atom_site_fract_y
 _atom_site_fract_z
 _atom_site_occupancy
  Nd  Nd0  1  0.212425  0.444952  0.400159  1
  Nd  Nd1  1  0.555048  0.787575  0.099841  1
  Nd  Nd2  1  0.444952  0.212425  0.900159  1
  Nd  Nd3  1  0.921983  0.216359  0.334768  1
  Nd  Nd4  1  0.783641  0.078017  0.165232  1
  Nd  Nd5  1  0.078017  0.783641  0.665232  1
  Nd  Nd6  1  0.216359  0.921983  0.834768  1
  Nd  Nd7  1  0.787575  0.555048  0.599841  1
  Ga  Ga8  1  0.618877  0.381123  0.750000  1
  Ga  Ga9  1  0.381123  0.618877  0.250000  1
  Si  Si10  1  0.304831  0.047286  0.433733  1
  Si  Si11  1  0.952714  0.695169  0.066267  1
  Si  Si12  1  0.695169  0.952714  0.566267  1
  Si  Si13  1  0.047286  0.304831  0.933733  1
  Ir  Ir14  1  0.276598  0.590346  0.030886  1
  Ir  Ir15  1  0.590346  0.276598  0.530886  1
  Ir  Ir16  1  0.723402  0.409654  0.969114  1
  Ir  Ir17  1  0.077578  0.360002  0.183810  1
  Ir  Ir18  1  0.639998  0.922422  0.316190  1
  Ir  Ir19  1  0.409654  0.723402  0.469114  1
  Ir  Ir20  1  0.922422  0.639998  0.816190  1
  Ir  Ir21  1  0.360002  0.077578  0.683810  1
