# generated using pymatgen
data_LiCa2LuCd2Sn3
_symmetry_space_group_name_H-M   'P 1'
_cell_length_a   7.50853043
_cell_length_b   7.59332951
_cell_length_c   4.65646700
_cell_angle_alpha   90.00000000
_cell_angle_beta   90.00000000
_cell_angle_gamma   119.85793775
_symmetry_Int_Tables_number   1
_chemical_formula_structural   LiCa2LuCd2Sn3
_chemical_formula_sum   'Li1 Ca2 Lu1 Cd2 Sn3'
_cell_volume   230.24715529
_cell_formula_units_Z   1
loop_
 _symmetry_equiv_pos_site_id
 _symmetry_equiv_pos_as_xyz
  1  'x, y, z'
loop_
 _atom_site_type_symbol
 _atom_site_label
 _atom_site_symmetry_multiplicity
 _atom_site_fract_x
 _atom_site_fract_y
 _atom_site_fract_z
 _atom_site_occupancy
  Li  Li0  1  0.238653  0.000151  0.000000  1
  Ca  Ca1  1  0.568328  0.000403  0.500000  1
  Ca  Ca2  1  0.431825  0.434412  0.500000  1
  Lu  Lu3  1  0.998340  0.570369  0.500000  1
  Cd  Cd4  1  0.753511  0.754565  0.000000  1
  Cd  Cd5  1  0.004357  0.243470  0.000000  1
  Sn  Sn6  1  0.016519  0.991520  0.500000  1
  Sn  Sn7  1  0.667868  0.332080  0.000000  1
  Sn  Sn8  1  0.320597  0.673029  0.000000  1
