# generated using pymatgen
data_TmLu7Sc11Si16W
_symmetry_space_group_name_H-M   'P 1'
_cell_length_a   7.01340738
_cell_length_b   7.26122998
_cell_length_c   13.78533884
_cell_angle_alpha   90.17798328
_cell_angle_beta   89.56459924
_cell_angle_gamma   89.67180659
_symmetry_Int_Tables_number   1
_chemical_formula_structural   TmLu7Sc11Si16W
_chemical_formula_sum   'Tm1 Lu7 Sc11 Si16 W1'
_cell_volume   701.99639832
_cell_formula_units_Z   1
loop_
 _symmetry_equiv_pos_site_id
 _symmetry_equiv_pos_as_xyz
  1  'x, y, z'
loop_
 _atom_site_type_symbol
 _atom_site_label
 _atom_site_symmetry_multiplicity
 _atom_site_fract_x
 _atom_site_fract_y
 _atom_site_fract_z
 _atom_site_occupancy
  Tm  Tm0  1  0.487877  0.676432  0.595457  1
  Lu  Lu1  1  0.011851  0.175367  0.096713  1
  Lu  Lu2  1  0.989107  0.825026  0.899148  1
  Lu  Lu3  1  0.487076  0.678894  0.899912  1
  Lu  Lu4  1  0.993330  0.829214  0.595606  1
  Lu  Lu5  1  0.513178  0.322520  0.096299  1
  Lu  Lu6  1  0.010002  0.175590  0.404142  1
  Lu  Lu7  1  0.507050  0.322713  0.410167  1
  Sc  Sc8  1  0.162342  0.497356  0.745532  1
  Sc  Sc9  1  0.838446  0.496658  0.251654  1
  Sc  Sc10  1  0.337576  0.004015  0.252376  1
  Sc  Sc11  1  0.658781  0.000865  0.747293  1
  Sc  Sc12  1  0.666258  0.825482  0.379101  1
  Sc  Sc13  1  0.167981  0.678692  0.378404  1
  Sc  Sc14  1  0.669423  0.824112  0.124542  1
  Sc  Sc15  1  0.832123  0.322907  0.623513  1
  Sc  Sc16  1  0.332639  0.176241  0.874904  1
  Sc  Sc17  1  0.829693  0.322863  0.872220  1
  Sc  Sc18  1  0.170374  0.676946  0.125617  1
  Si  Si19  1  0.041313  0.118658  0.744977  1
  Si  Si20  1  0.964811  0.888249  0.251252  1
  Si  Si21  1  0.467702  0.614071  0.250769  1
  Si  Si22  1  0.530348  0.377408  0.746054  1
  Si  Si23  1  0.286509  0.876746  0.745748  1
  Si  Si24  1  0.711978  0.129840  0.250857  1
  Si  Si25  1  0.216084  0.370438  0.250592  1
  Si  Si26  1  0.783739  0.627244  0.746884  1
  Si  Si27  1  0.176806  0.451496  0.540213  1
  Si  Si28  1  0.840988  0.530985  0.460812  1
  Si  Si29  1  0.331252  0.970553  0.470866  1
  Si  Si30  1  0.843736  0.533997  0.039099  1
  Si  Si31  1  0.648483  0.034698  0.544612  1
  Si  Si32  1  0.156092  0.467096  0.959069  1
  Si  Si33  1  0.662496  0.034706  0.958981  1
  Si  Si34  1  0.339650  0.964182  0.038527  1
  W  W35  1  0.332904  0.177741  0.628088  1
