# generated using pymatgen
data_Sm2Al4ZnCu5
_symmetry_space_group_name_H-M   'P 1'
_cell_length_a   4.13571700
_cell_length_b   5.32091100
_cell_length_c   9.05387200
_cell_angle_alpha   90.00000000
_cell_angle_beta   90.00000000
_cell_angle_gamma   90.00000000
_symmetry_Int_Tables_number   1
_chemical_formula_structural   Sm2Al4ZnCu5
_chemical_formula_sum   'Sm2 Al4 Zn1 Cu5'
_cell_volume   199.23753420
_cell_formula_units_Z   1
loop_
 _symmetry_equiv_pos_site_id
 _symmetry_equiv_pos_as_xyz
  1  'x, y, z'
loop_
 _atom_site_type_symbol
 _atom_site_label
 _atom_site_symmetry_multiplicity
 _atom_site_fract_x
 _atom_site_fract_y
 _atom_site_fract_z
 _atom_site_occupancy
  Sm  Sm0  1  0.000000  0.500000  0.000000  1
  Sm  Sm1  1  0.000000  0.000000  0.500000  1
  Al  Al2  1  0.500000  0.749063  0.256911  1
  Al  Al3  1  0.500000  0.250937  0.743089  1
  Al  Al4  1  0.500000  0.250937  0.256911  1
  Al  Al5  1  0.500000  0.749063  0.743089  1
  Zn  Zn6  1  0.500000  0.000000  0.000000  1
  Cu  Cu7  1  0.000000  0.500000  0.335769  1
  Cu  Cu8  1  0.000000  0.000000  0.832996  1
  Cu  Cu9  1  0.000000  0.000000  0.167004  1
  Cu  Cu10  1  0.000000  0.500000  0.664231  1
  Cu  Cu11  1  0.500000  0.500000  0.500000  1
