# generated using pymatgen
data_Tb4DyLu3(P3Ir4)4
_symmetry_space_group_name_H-M   'P 1'
_cell_length_a   12.94750600
_cell_length_b   12.94659919
_cell_length_c   3.99727600
_cell_angle_alpha   90.00000000
_cell_angle_beta   90.00000000
_cell_angle_gamma   120.00231702
_symmetry_Int_Tables_number   1
_chemical_formula_structural   Tb4DyLu3(P3Ir4)4
_chemical_formula_sum   'Tb4 Dy1 Lu3 P12 Ir16'
_cell_volume   580.26510064
_cell_formula_units_Z   1
loop_
 _symmetry_equiv_pos_site_id
 _symmetry_equiv_pos_as_xyz
  1  'x, y, z'
loop_
 _atom_site_type_symbol
 _atom_site_label
 _atom_site_symmetry_multiplicity
 _atom_site_fract_x
 _atom_site_fract_y
 _atom_site_fract_z
 _atom_site_occupancy
  Tb  Tb0  1  0.333342  0.666670  0.500000  1
  Tb  Tb1  1  0.666673  0.333330  0.500000  1
  Tb  Tb2  1  0.000002  0.814109  0.000000  1
  Tb  Tb3  1  0.185893  0.185891  0.000000  1
  Dy  Dy4  1  0.814056  0.000000  0.000000  1
  Lu  Lu5  1  0.000009  0.446334  0.500000  1
  Lu  Lu6  1  0.553674  0.553666  0.500000  1
  Lu  Lu7  1  0.446394  0.000000  0.500000  1
  P  P8  1  0.000002  0.651342  0.500000  1
  P  P9  1  0.348660  0.348658  0.500000  1
  P  P10  1  0.651563  0.000000  0.500000  1
  P  P11  1  0.516816  0.687855  0.000000  1
  P  P12  1  0.312141  0.828979  0.000000  1
  P  P13  1  0.171038  0.483139  0.000000  1
  P  P14  1  0.483163  0.171021  0.000000  1
  P  P15  1  0.687900  0.516861  0.000000  1
  P  P16  1  0.828962  0.312145  0.000000  1
  P  P17  1  0.999900  0.176716  0.500000  1
  P  P18  1  0.823184  0.823284  0.500000  1
  P  P19  1  0.176772  0.000000  0.500000  1
  Ir  Ir20  1  0.509760  0.866539  0.000000  1
  Ir  Ir21  1  0.133445  0.643186  0.000000  1
  Ir  Ir22  1  0.356790  0.490228  0.000000  1
  Ir  Ir23  1  0.490260  0.356814  0.000000  1
  Ir  Ir24  1  0.866563  0.509772  0.000000  1
  Ir  Ir25  1  0.643222  0.133461  0.000000  1
  Ir  Ir26  1  0.999881  0.276141  0.000000  1
  Ir  Ir27  1  0.723740  0.723859  0.000000  1
  Ir  Ir28  1  0.276312  0.000000  0.000000  1
  Ir  Ir29  1  0.629652  0.808183  0.500000  1
  Ir  Ir30  1  0.192036  0.821478  0.500000  1
  Ir  Ir31  1  0.178469  0.370553  0.500000  1
  Ir  Ir32  1  0.370558  0.178522  0.500000  1
  Ir  Ir33  1  0.807916  0.629447  0.500000  1
  Ir  Ir34  1  0.821470  0.191817  0.500000  1
  Ir  Ir35  1  0.999783  0.000000  0.500000  1
