# generated using pymatgen
data_Gd7Tm(Pt2Pb)4
_symmetry_space_group_name_H-M   'P 1'
_cell_length_a   8.01045900
_cell_length_b   8.01046021
_cell_length_c   7.38897000
_cell_angle_alpha   90.00000000
_cell_angle_beta   90.00000000
_cell_angle_gamma   89.79115733
_symmetry_Int_Tables_number   1
_chemical_formula_structural   Gd7Tm(Pt2Pb)4
_chemical_formula_sum   'Gd7 Tm1 Pt8 Pb4'
_cell_volume   474.12831025
_cell_formula_units_Z   1
loop_
 _symmetry_equiv_pos_site_id
 _symmetry_equiv_pos_as_xyz
  1  'x, y, z'
loop_
 _atom_site_type_symbol
 _atom_site_label
 _atom_site_symmetry_multiplicity
 _atom_site_fract_x
 _atom_site_fract_y
 _atom_site_fract_z
 _atom_site_occupancy
  Gd  Gd0  1  0.673017  0.670440  0.000000  1
  Gd  Gd1  1  0.334333  0.336219  0.500000  1
  Gd  Gd2  1  0.829314  0.170686  0.500000  1
  Gd  Gd3  1  0.663781  0.665667  0.500000  1
  Gd  Gd4  1  0.329560  0.326983  0.000000  1
  Gd  Gd5  1  0.173479  0.826521  0.500000  1
  Gd  Gd6  1  0.833803  0.166197  0.000000  1
  Tm  Tm7  1  0.161829  0.838171  0.000000  1
  Pt  Pt8  1  0.875178  0.871177  0.745336  1
  Pt  Pt9  1  0.128823  0.124822  0.745336  1
  Pt  Pt10  1  0.626236  0.373764  0.755504  1
  Pt  Pt11  1  0.626236  0.373764  0.244496  1
  Pt  Pt12  1  0.369247  0.630753  0.233769  1
  Pt  Pt13  1  0.128823  0.124822  0.254664  1
  Pt  Pt14  1  0.875178  0.871177  0.254664  1
  Pt  Pt15  1  0.369247  0.630753  0.766231  1
  Pb  Pb16  1  0.499387  0.998430  0.751938  1
  Pb  Pb17  1  0.499387  0.998430  0.248062  1
  Pb  Pb18  1  0.001570  0.500613  0.751938  1
  Pb  Pb19  1  0.001570  0.500613  0.248062  1
