# generated using pymatgen
data_Mn2BeCo(BIr2)2
_symmetry_space_group_name_H-M   'P 1'
_cell_length_a   9.00005600
_cell_length_b   9.00005600
_cell_length_c   2.86238400
_cell_angle_alpha   90.00000000
_cell_angle_beta   90.00000000
_cell_angle_gamma   90.00000000
_symmetry_Int_Tables_number   1
_chemical_formula_structural   Mn2BeCo(BIr2)2
_chemical_formula_sum   'Mn4 Be2 Co2 B4 Ir8'
_cell_volume   231.85598929
_cell_formula_units_Z   2
loop_
 _symmetry_equiv_pos_site_id
 _symmetry_equiv_pos_as_xyz
  1  'x, y, z'
loop_
 _atom_site_type_symbol
 _atom_site_label
 _atom_site_symmetry_multiplicity
 _atom_site_fract_x
 _atom_site_fract_y
 _atom_site_fract_z
 _atom_site_occupancy
  Mn  Mn0  1  0.672231  0.172231  0.000000  1
  Mn  Mn1  1  0.327769  0.827769  0.000000  1
  Mn  Mn2  1  0.172231  0.327769  0.000000  1
  Mn  Mn3  1  0.827769  0.672231  0.000000  1
  Be  Be4  1  0.000000  0.000000  0.000000  1
  Be  Be5  1  0.500000  0.500000  0.000000  1
  Co  Co6  1  0.500000  0.000000  0.500000  1
  Co  Co7  1  0.000000  0.500000  0.500000  1
  B  B8  1  0.119667  0.619667  0.000000  1
  B  B9  1  0.880333  0.380333  0.000000  1
  B  B10  1  0.619667  0.880333  0.000000  1
  B  B11  1  0.380333  0.119667  0.000000  1
  Ir  Ir12  1  0.209667  0.064358  0.500000  1
  Ir  Ir13  1  0.790333  0.935642  0.500000  1
  Ir  Ir14  1  0.064358  0.790333  0.500000  1
  Ir  Ir15  1  0.709667  0.435642  0.500000  1
  Ir  Ir16  1  0.935642  0.209667  0.500000  1
  Ir  Ir17  1  0.290333  0.564358  0.500000  1
  Ir  Ir18  1  0.564358  0.709667  0.500000  1
  Ir  Ir19  1  0.435642  0.290333  0.500000  1
