# generated using pymatgen
data_BaCrTcP2
_symmetry_space_group_name_H-M   'P 1'
_cell_length_a   6.92022204
_cell_length_b   6.92022174
_cell_length_c   6.92022218
_cell_angle_alpha   146.05318490
_cell_angle_beta   146.05319836
_cell_angle_gamma   48.76777166
_symmetry_Int_Tables_number   1
_chemical_formula_structural   BaCrTcP2
_chemical_formula_sum   'Ba1 Cr1 Tc1 P2'
_cell_volume   102.89489372
_cell_formula_units_Z   1
loop_
 _symmetry_equiv_pos_site_id
 _symmetry_equiv_pos_as_xyz
  1  'x, y, z'
loop_
 _atom_site_type_symbol
 _atom_site_label
 _atom_site_symmetry_multiplicity
 _atom_site_fract_x
 _atom_site_fract_y
 _atom_site_fract_z
 _atom_site_occupancy
  Ba  Ba0  1  0.000000  0.000000  0.000000  1
  Cr  Cr1  1  0.250000  0.750000  0.500000  1
  Tc  Tc2  1  0.750000  0.250000  0.500000  1
  P  P3  1  0.652305  0.652305  0.000000  1
  P  P4  1  0.347695  0.347695  0.000000  1
