# generated using pymatgen
data_La3Nd6TmC4I15
_symmetry_space_group_name_H-M   'P 1'
_cell_length_a   9.81456491
_cell_length_b   10.70677196
_cell_length_c   11.79392459
_cell_angle_alpha   93.64165827
_cell_angle_beta   114.17161164
_cell_angle_gamma   109.56921314
_symmetry_Int_Tables_number   1
_chemical_formula_structural   La3Nd6TmC4I15
_chemical_formula_sum   'La3 Nd6 Tm1 C4 I15'
_cell_volume   1035.92824073
_cell_formula_units_Z   1
loop_
 _symmetry_equiv_pos_site_id
 _symmetry_equiv_pos_as_xyz
  1  'x, y, z'
loop_
 _atom_site_type_symbol
 _atom_site_label
 _atom_site_symmetry_multiplicity
 _atom_site_fract_x
 _atom_site_fract_y
 _atom_site_fract_z
 _atom_site_occupancy
  La  La0  1  0.706953  0.569299  0.045364  1
  La  La1  1  0.292923  0.432108  0.955346  1
  La  La2  1  0.659056  0.252820  0.831782  1
  Nd  Nd3  1  0.347113  0.747382  0.165466  1
  Nd  Nd4  1  0.775305  0.882598  0.257968  1
  Nd  Nd5  1  0.526980  0.184281  0.101012  1
  Nd  Nd6  1  0.226062  0.116210  0.744076  1
  Nd  Nd7  1  0.402824  0.458016  0.658036  1
  Nd  Nd8  1  0.472699  0.814389  0.900683  1
  Tm  Tm9  1  0.592594  0.546472  0.334178  1
  C  C10  1  0.483505  0.299683  0.937509  1
  C  C11  1  0.518646  0.699399  0.063754  1
  C  C12  1  0.453910  0.361688  0.833857  1
  C  C13  1  0.546746  0.636836  0.167343  1
  I  I14  1  0.207230  0.906373  0.937931  1
  I  I15  1  0.105029  0.187704  0.470961  1
  I  I16  1  0.155004  0.558723  0.701293  1
  I  I17  1  0.399739  0.964223  0.646061  1
  I  I18  1  0.709372  0.736252  0.817781  1
  I  I19  1  0.301933  0.274033  0.190179  1
  I  I20  1  0.833908  0.444451  0.303601  1
  I  I21  1  0.881262  0.797647  0.524448  1
  I  I22  1  0.368597  0.626521  0.410361  1
  I  I23  1  0.056111  0.837336  0.223271  1
  I  I24  1  0.793491  0.093943  0.065515  1
  I  I25  1  0.639305  0.376564  0.580617  1
  I  I26  1  0.944743  0.161298  0.777212  1
  I  I27  1  0.594959  0.030245  0.351999  1
  I  I28  1  0.004000  0.503503  0.002396  1
