# generated using pymatgen
data_Pr2Th5P12Pd17
_symmetry_space_group_name_H-M   'P 1'
_cell_length_a   12.39801821
_cell_length_b   12.39801828
_cell_length_c   13.72039482
_cell_angle_alpha   68.60056161
_cell_angle_beta   68.60056084
_cell_angle_gamma   19.06797692
_symmetry_Int_Tables_number   1
_chemical_formula_structural   Pr2Th5P12Pd17
_chemical_formula_sum   'Pr2 Th5 P12 Pd17'
_cell_volume   640.09032425
_cell_formula_units_Z   1
loop_
 _symmetry_equiv_pos_site_id
 _symmetry_equiv_pos_as_xyz
  1  'x, y, z'
loop_
 _atom_site_type_symbol
 _atom_site_label
 _atom_site_symmetry_multiplicity
 _atom_site_fract_x
 _atom_site_fract_y
 _atom_site_fract_z
 _atom_site_occupancy
  Pr  Pr0  1  0.417090  0.417090  0.263633  1
  Pr  Pr1  1  0.582910  0.582910  0.736367  1
  Th  Th2  1  0.500000  0.500000  0.500000  1
  Th  Th3  1  0.363862  0.363862  0.000944  1
  Th  Th4  1  0.636138  0.636138  0.999056  1
  Th  Th5  1  0.234305  0.234305  0.312279  1
  Th  Th6  1  0.765695  0.765695  0.687721  1
  P  P7  1  0.061627  0.061627  0.924949  1
  P  P8  1  0.938373  0.938373  0.075051  1
  P  P9  1  0.885845  0.885845  0.829689  1
  P  P10  1  0.114155  0.114155  0.170311  1
  P  P11  1  0.189534  0.189534  0.619647  1
  P  P12  1  0.810466  0.810466  0.380353  1
  P  P13  1  0.365777  0.365777  0.577799  1
  P  P14  1  0.634223  0.634223  0.422201  1
  P  P15  1  0.010338  0.010338  0.665625  1
  P  P16  1  0.989662  0.989662  0.334375  1
  P  P17  1  0.233262  0.233262  0.885259  1
  P  P18  1  0.766738  0.766738  0.114741  1
  Pd  Pd19  1  0.838245  0.838245  0.193968  1
  Pd  Pd20  1  0.161755  0.161755  0.806032  1
  Pd  Pd21  1  0.026518  0.026518  0.124090  1
  Pd  Pd22  1  0.973482  0.973482  0.875910  1
  Pd  Pd23  1  0.890247  0.890247  0.458491  1
  Pd  Pd24  1  0.109753  0.109753  0.541509  1
  Pd  Pd25  1  0.500000  0.500000  0.000000  1
  Pd  Pd26  1  0.545861  0.545861  0.253233  1
  Pd  Pd27  1  0.454139  0.454139  0.746767  1
  Pd  Pd28  1  0.296062  0.296062  0.487900  1
  Pd  Pd29  1  0.703938  0.703938  0.512100  1
  Pd  Pd30  1  0.665168  0.665168  0.227180  1
  Pd  Pd31  1  0.334832  0.334832  0.772820  1
  Pd  Pd32  1  0.907725  0.907725  0.644166  1
  Pd  Pd33  1  0.092275  0.092275  0.355834  1
  Pd  Pd34  1  0.218854  0.218854  0.075404  1
  Pd  Pd35  1  0.781146  0.781146  0.924596  1
