# generated using pymatgen
data_Y2Ga9NiIrRu
_symmetry_space_group_name_H-M   'P 1'
_cell_length_a   7.54801755
_cell_length_b   7.54801697
_cell_length_c   9.51702922
_cell_angle_alpha   90.10274872
_cell_angle_beta   90.10275195
_cell_angle_gamma   120.43654378
_symmetry_Int_Tables_number   1
_chemical_formula_structural   Y2Ga9NiIrRu
_chemical_formula_sum   'Y4 Ga18 Ni2 Ir2 Ru2'
_cell_volume   467.48501662
_cell_formula_units_Z   2
loop_
 _symmetry_equiv_pos_site_id
 _symmetry_equiv_pos_as_xyz
  1  'x, y, z'
loop_
 _atom_site_type_symbol
 _atom_site_label
 _atom_site_symmetry_multiplicity
 _atom_site_fract_x
 _atom_site_fract_y
 _atom_site_fract_z
 _atom_site_occupancy
  Y  Y0  1  0.995772  0.660310  0.250066  1
  Y  Y1  1  0.004228  0.339690  0.749934  1
  Y  Y2  1  0.660310  0.995772  0.250066  1
  Y  Y3  1  0.339690  0.004228  0.749934  1
  Ga  Ga4  1  0.112684  0.112684  0.250292  1
  Ga  Ga5  1  0.887316  0.887316  0.749708  1
  Ga  Ga6  1  0.999841  0.328285  0.076624  1
  Ga  Ga7  1  0.000159  0.671715  0.923376  1
  Ga  Ga8  1  0.000294  0.673059  0.578009  1
  Ga  Ga9  1  0.326941  0.999706  0.421991  1
  Ga  Ga10  1  0.999706  0.326941  0.421991  1
  Ga  Ga11  1  0.673059  0.000294  0.578009  1
  Ga  Ga12  1  0.671715  0.000159  0.923376  1
  Ga  Ga13  1  0.328285  0.999841  0.076624  1
  Ga  Ga14  1  0.328984  0.328984  0.563302  1
  Ga  Ga15  1  0.671016  0.671016  0.436698  1
  Ga  Ga16  1  0.667469  0.667469  0.060961  1
  Ga  Ga17  1  0.332531  0.332531  0.939039  1
  Ga  Ga18  1  0.336343  0.542483  0.248589  1
  Ga  Ga19  1  0.663657  0.457517  0.751411  1
  Ga  Ga20  1  0.542483  0.336343  0.248589  1
  Ga  Ga21  1  0.457517  0.663657  0.751411  1
  Ni  Ni22  1  0.000000  0.000000  0.000000  1
  Ni  Ni23  1  0.000000  0.000000  0.500000  1
  Ir  Ir24  1  0.328204  0.671796  0.500000  1
  Ir  Ir25  1  0.671796  0.328204  0.500000  1
  Ru  Ru26  1  0.672560  0.327440  0.000000  1
  Ru  Ru27  1  0.327440  0.672560  0.000000  1
