# generated using pymatgen
data_DyNi4MoAs3
_symmetry_space_group_name_H-M   'P 1'
_cell_length_a   3.82165200
_cell_length_b   10.91864000
_cell_length_c   12.55093700
_cell_angle_alpha   90.00000000
_cell_angle_beta   90.00000000
_cell_angle_gamma   90.00000000
_symmetry_Int_Tables_number   1
_chemical_formula_structural   DyNi4MoAs3
_chemical_formula_sum   'Dy4 Ni16 Mo4 As12'
_cell_volume   523.71599046
_cell_formula_units_Z   4
loop_
 _symmetry_equiv_pos_site_id
 _symmetry_equiv_pos_as_xyz
  1  'x, y, z'
loop_
 _atom_site_type_symbol
 _atom_site_label
 _atom_site_symmetry_multiplicity
 _atom_site_fract_x
 _atom_site_fract_y
 _atom_site_fract_z
 _atom_site_occupancy
  Dy  Dy0  1  0.250000  0.582913  0.706405  1
  Dy  Dy1  1  0.250000  0.917087  0.206405  1
  Dy  Dy2  1  0.750000  0.417087  0.293595  1
  Dy  Dy3  1  0.750000  0.082913  0.793595  1
  Ni  Ni4  1  0.250000  0.407135  0.487071  1
  Ni  Ni5  1  0.250000  0.092865  0.987071  1
  Ni  Ni6  1  0.750000  0.592865  0.512929  1
  Ni  Ni7  1  0.750000  0.907135  0.012929  1
  Ni  Ni8  1  0.250000  0.215763  0.174642  1
  Ni  Ni9  1  0.250000  0.284237  0.674642  1
  Ni  Ni10  1  0.750000  0.784237  0.825358  1
  Ni  Ni11  1  0.750000  0.715763  0.325358  1
  Ni  Ni12  1  0.250000  0.881697  0.701771  1
  Ni  Ni13  1  0.250000  0.618303  0.201771  1
  Ni  Ni14  1  0.750000  0.118303  0.298229  1
  Ni  Ni15  1  0.750000  0.381697  0.798229  1
  Ni  Ni16  1  0.250000  0.465072  0.932891  1
  Ni  Ni17  1  0.250000  0.034928  0.432891  1
  Ni  Ni18  1  0.750000  0.534928  0.067109  1
  Ni  Ni19  1  0.750000  0.965072  0.567109  1
  Mo  Mo20  1  0.250000  0.705830  0.988289  1
  Mo  Mo21  1  0.250000  0.794170  0.488289  1
  Mo  Mo22  1  0.750000  0.294170  0.011711  1
  Mo  Mo23  1  0.750000  0.205830  0.511711  1
  As  As24  1  0.250000  0.419282  0.117042  1
  As  As25  1  0.250000  0.080718  0.617042  1
  As  As26  1  0.750000  0.580718  0.882958  1
  As  As27  1  0.750000  0.919282  0.382958  1
  As  As28  1  0.250000  0.265495  0.865651  1
  As  As29  1  0.250000  0.234505  0.365651  1
  As  As30  1  0.750000  0.734505  0.134349  1
  As  As31  1  0.750000  0.765495  0.634349  1
  As  As32  1  0.250000  0.596318  0.390121  1
  As  As33  1  0.250000  0.903682  0.890121  1
  As  As34  1  0.750000  0.403682  0.609879  1
  As  As35  1  0.750000  0.096318  0.109879  1
