# generated using pymatgen
data_Er4HfRh5
_symmetry_space_group_name_H-M   'P 1'
_cell_length_a   3.37021400
_cell_length_b   3.37021400
_cell_length_c   16.89732800
_cell_angle_alpha   90.00000000
_cell_angle_beta   90.00000000
_cell_angle_gamma   90.00000000
_symmetry_Int_Tables_number   1
_chemical_formula_structural   Er4HfRh5
_chemical_formula_sum   'Er4 Hf1 Rh5'
_cell_volume   191.92563717
_cell_formula_units_Z   1
loop_
 _symmetry_equiv_pos_site_id
 _symmetry_equiv_pos_as_xyz
  1  'x, y, z'
loop_
 _atom_site_type_symbol
 _atom_site_label
 _atom_site_symmetry_multiplicity
 _atom_site_fract_x
 _atom_site_fract_y
 _atom_site_fract_z
 _atom_site_occupancy
  Er  Er0  1  0.000000  0.000000  0.197894  1
  Er  Er1  1  0.000000  0.000000  0.399146  1
  Er  Er2  1  0.000000  0.000000  0.600854  1
  Er  Er3  1  0.000000  0.000000  0.802106  1
  Hf  Hf4  1  0.000000  0.000000  0.000000  1
  Rh  Rh5  1  0.500000  0.500000  0.088348  1
  Rh  Rh6  1  0.500000  0.500000  0.295914  1
  Rh  Rh7  1  0.500000  0.500000  0.500000  1
  Rh  Rh8  1  0.500000  0.500000  0.704086  1
  Rh  Rh9  1  0.500000  0.500000  0.911652  1
