# generated using pymatgen
data_Tm3In3RhAu2
_symmetry_space_group_name_H-M   'P 1'
_cell_length_a   7.71674300
_cell_length_b   7.71674284
_cell_length_c   3.84385400
_cell_angle_alpha   90.00000000
_cell_angle_beta   90.00000000
_cell_angle_gamma   120.00000497
_symmetry_Int_Tables_number   1
_chemical_formula_structural   Tm3In3RhAu2
_chemical_formula_sum   'Tm3 In3 Rh1 Au2'
_cell_volume   198.22825502
_cell_formula_units_Z   1
loop_
 _symmetry_equiv_pos_site_id
 _symmetry_equiv_pos_as_xyz
  1  'x, y, z'
loop_
 _atom_site_type_symbol
 _atom_site_label
 _atom_site_symmetry_multiplicity
 _atom_site_fract_x
 _atom_site_fract_y
 _atom_site_fract_z
 _atom_site_occupancy
  Tm  Tm0  1  0.000000  0.398252  0.500000  1
  Tm  Tm1  1  0.601748  0.601748  0.500000  1
  Tm  Tm2  1  0.398252  0.000000  0.500000  1
  In  In3  1  0.256039  0.256039  0.000000  1
  In  In4  1  0.000000  0.743961  0.000000  1
  In  In5  1  0.743961  0.000000  0.000000  1
  Rh  Rh6  1  0.000000  0.000000  0.500000  1
  Au  Au7  1  0.333333  0.666667  0.000000  1
  Au  Au8  1  0.666667  0.333333  0.000000  1
