# generated using pymatgen
data_TbHo2Co5(P3Ir2)2
_symmetry_space_group_name_H-M   'P 1'
_cell_length_a   3.79534100
_cell_length_b   10.83462300
_cell_length_c   12.54145400
_cell_angle_alpha   90.00000000
_cell_angle_beta   90.00000000
_cell_angle_gamma   90.00000000
_symmetry_Int_Tables_number   1
_chemical_formula_structural   TbHo2Co5(P3Ir2)2
_chemical_formula_sum   'Tb2 Ho4 Co10 P12 Ir8'
_cell_volume   515.71824476
_cell_formula_units_Z   2
loop_
 _symmetry_equiv_pos_site_id
 _symmetry_equiv_pos_as_xyz
  1  'x, y, z'
loop_
 _atom_site_type_symbol
 _atom_site_label
 _atom_site_symmetry_multiplicity
 _atom_site_fract_x
 _atom_site_fract_y
 _atom_site_fract_z
 _atom_site_occupancy
  Tb  Tb0  1  0.000000  0.500000  0.521347  1
  Tb  Tb1  1  0.500000  0.000000  0.478653  1
  Ho  Ho2  1  0.500000  0.815503  0.197270  1
  Ho  Ho3  1  0.500000  0.184497  0.197270  1
  Ho  Ho4  1  0.000000  0.684497  0.802730  1
  Ho  Ho5  1  0.000000  0.315503  0.802730  1
  Co  Co6  1  0.000000  0.500000  0.991956  1
  Co  Co7  1  0.500000  0.000000  0.008044  1
  Co  Co8  1  0.500000  0.879049  0.716700  1
  Co  Co9  1  0.500000  0.120951  0.716700  1
  Co  Co10  1  0.000000  0.620951  0.283300  1
  Co  Co11  1  0.000000  0.379049  0.283300  1
  Co  Co12  1  0.500000  0.332777  0.995464  1
  Co  Co13  1  0.500000  0.667223  0.995464  1
  Co  Co14  1  0.000000  0.167223  0.004536  1
  Co  Co15  1  0.000000  0.832777  0.004536  1
  P  P16  1  0.500000  0.309748  0.625412  1
  P  P17  1  0.500000  0.690252  0.625412  1
  P  P18  1  0.000000  0.190252  0.374588  1
  P  P19  1  0.000000  0.809748  0.374588  1
  P  P20  1  0.500000  0.500000  0.894604  1
  P  P21  1  0.000000  0.000000  0.105396  1
  P  P22  1  0.500000  0.842908  0.897016  1
  P  P23  1  0.500000  0.157092  0.897016  1
  P  P24  1  0.000000  0.657092  0.102984  1
  P  P25  1  0.000000  0.342908  0.102984  1
  P  P26  1  0.500000  0.500000  0.343917  1
  P  P27  1  0.000000  0.000000  0.656083  1
  Ir  Ir28  1  0.500000  0.298212  0.425768  1
  Ir  Ir29  1  0.500000  0.701788  0.425768  1
  Ir  Ir30  1  0.000000  0.201788  0.574232  1
  Ir  Ir31  1  0.000000  0.798212  0.574232  1
  Ir  Ir32  1  0.500000  0.500000  0.159378  1
  Ir  Ir33  1  0.000000  0.000000  0.840622  1
  Ir  Ir34  1  0.500000  0.500000  0.709514  1
  Ir  Ir35  1  0.000000  0.000000  0.290486  1
