# generated using pymatgen
data_Dy12Cu3Si8Ni
_symmetry_space_group_name_H-M   'P 1'
_cell_length_a   4.15011000
_cell_length_b   11.30577337
_cell_length_c   11.28557243
_cell_angle_alpha   89.94300637
_cell_angle_beta   90.00000000
_cell_angle_gamma   90.00000000
_symmetry_Int_Tables_number   1
_chemical_formula_structural   Dy12Cu3Si8Ni
_chemical_formula_sum   'Dy12 Cu3 Si8 Ni1'
_cell_volume   529.52108851
_cell_formula_units_Z   1
loop_
 _symmetry_equiv_pos_site_id
 _symmetry_equiv_pos_as_xyz
  1  'x, y, z'
loop_
 _atom_site_type_symbol
 _atom_site_label
 _atom_site_symmetry_multiplicity
 _atom_site_fract_x
 _atom_site_fract_y
 _atom_site_fract_z
 _atom_site_occupancy
  Dy  Dy0  1  0.250000  0.058921  0.877658  1
  Dy  Dy1  1  0.250000  0.437141  0.377780  1
  Dy  Dy2  1  0.750000  0.935792  0.118238  1
  Dy  Dy3  1  0.750000  0.561554  0.621018  1
  Dy  Dy4  1  0.250000  0.120950  0.558221  1
  Dy  Dy5  1  0.250000  0.379692  0.058477  1
  Dy  Dy6  1  0.750000  0.878271  0.440919  1
  Dy  Dy7  1  0.750000  0.626133  0.940637  1
  Dy  Dy8  1  0.250000  0.804924  0.713320  1
  Dy  Dy9  1  0.250000  0.697017  0.209523  1
  Dy  Dy10  1  0.750000  0.196260  0.290112  1
  Dy  Dy11  1  0.750000  0.303063  0.791207  1
  Cu  Cu12  1  0.250000  0.364063  0.631296  1
  Cu  Cu13  1  0.250000  0.135036  0.130267  1
  Cu  Cu14  1  0.750000  0.635542  0.368973  1
  Si  Si15  1  0.250000  0.814772  0.974519  1
  Si  Si16  1  0.250000  0.685628  0.476722  1
  Si  Si17  1  0.750000  0.187179  0.024568  1
  Si  Si18  1  0.750000  0.313343  0.524019  1
  Si  Si19  1  0.250000  0.495399  0.806700  1
  Si  Si20  1  0.250000  0.004737  0.305751  1
  Si  Si21  1  0.750000  0.505210  0.194283  1
  Si  Si22  1  0.750000  0.992627  0.694884  1
  Ni  Ni23  1  0.750000  0.866746  0.870910  1
