# generated using pymatgen
data_HoLu7Sb20
_symmetry_space_group_name_H-M   'P 1'
_cell_length_a   4.19361500
_cell_length_b   13.06984690
_cell_length_c   14.44952420
_cell_angle_alpha   78.54119634
_cell_angle_beta   90.00000000
_cell_angle_gamma   90.00000000
_symmetry_Int_Tables_number   1
_chemical_formula_structural   HoLu7Sb20
_chemical_formula_sum   'Ho1 Lu7 Sb20'
_cell_volume   776.19121738
_cell_formula_units_Z   1
loop_
 _symmetry_equiv_pos_site_id
 _symmetry_equiv_pos_as_xyz
  1  'x, y, z'
loop_
 _atom_site_type_symbol
 _atom_site_label
 _atom_site_symmetry_multiplicity
 _atom_site_fract_x
 _atom_site_fract_y
 _atom_site_fract_z
 _atom_site_occupancy
  Ho  Ho0  1  0.750000  0.046220  0.641191  1
  Lu  Lu1  1  0.250000  0.395369  0.770421  1
  Lu  Lu2  1  0.750000  0.605079  0.229586  1
  Lu  Lu3  1  0.250000  0.661177  0.856133  1
  Lu  Lu4  1  0.750000  0.338371  0.144164  1
  Lu  Lu5  1  0.250000  0.668694  0.576435  1
  Lu  Lu6  1  0.750000  0.330869  0.423319  1
  Lu  Lu7  1  0.250000  0.953902  0.359983  1
  Sb  Sb8  1  0.250000  0.144363  0.778345  1
  Sb  Sb9  1  0.750000  0.857004  0.222481  1
  Sb  Sb10  1  0.250000  0.144391  0.482815  1
  Sb  Sb11  1  0.750000  0.855769  0.515732  1
  Sb  Sb12  1  0.250000  0.153877  0.169467  1
  Sb  Sb13  1  0.750000  0.845464  0.830508  1
  Sb  Sb14  1  0.250000  0.420683  0.975677  1
  Sb  Sb15  1  0.750000  0.579076  0.024500  1
  Sb  Sb16  1  0.750000  0.029364  0.912113  1
  Sb  Sb17  1  0.250000  0.970503  0.087700  1
  Sb  Sb18  1  0.750000  0.139035  0.321791  1
  Sb  Sb19  1  0.250000  0.859293  0.678007  1
  Sb  Sb20  1  0.750000  0.278328  0.936802  1
  Sb  Sb21  1  0.250000  0.721623  0.063209  1
  Sb  Sb22  1  0.750000  0.285468  0.653340  1
  Sb  Sb23  1  0.250000  0.715707  0.346693  1
  Sb  Sb24  1  0.750000  0.576449  0.734387  1
  Sb  Sb25  1  0.250000  0.423624  0.265553  1
  Sb  Sb26  1  0.750000  0.572147  0.447317  1
  Sb  Sb27  1  0.250000  0.428151  0.552329  1
