# generated using pymatgen
data_Mn3V(SiOs)2
_symmetry_space_group_name_H-M   'P 1'
_cell_length_a   7.11713582
_cell_length_b   7.11713593
_cell_length_c   7.11713447
_cell_angle_alpha   33.61924706
_cell_angle_beta   33.61924143
_cell_angle_gamma   33.61925560
_symmetry_Int_Tables_number   1
_chemical_formula_structural   Mn3V(SiOs)2
_chemical_formula_sum   'Mn3 V1 Si2 Os2'
_cell_volume   98.44801475
_cell_formula_units_Z   1
loop_
 _symmetry_equiv_pos_site_id
 _symmetry_equiv_pos_as_xyz
  1  'x, y, z'
loop_
 _atom_site_type_symbol
 _atom_site_label
 _atom_site_symmetry_multiplicity
 _atom_site_fract_x
 _atom_site_fract_y
 _atom_site_fract_z
 _atom_site_occupancy
  Mn  Mn0  1  0.999918  0.999918  0.999918  1
  Mn  Mn1  1  0.875910  0.875910  0.875910  1
  Mn  Mn2  1  0.373972  0.373972  0.373972  1
  V  V3  1  0.500074  0.500074  0.500074  1
  Si  Si4  1  0.250234  0.250234  0.250234  1
  Si  Si5  1  0.749887  0.749887  0.749887  1
  Os  Os6  1  0.625631  0.625631  0.625631  1
  Os  Os7  1  0.124374  0.124374  0.124374  1
