# generated using pymatgen
data_La2Pr3SmOsBr10
_symmetry_space_group_name_H-M   'P 1'
_cell_length_a   7.74200170
_cell_length_b   9.47677881
_cell_length_c   9.80613299
_cell_angle_alpha   108.79441677
_cell_angle_beta   96.87291149
_cell_angle_gamma   105.09921669
_symmetry_Int_Tables_number   1
_chemical_formula_structural   La2Pr3SmOsBr10
_chemical_formula_sum   'La2 Pr3 Sm1 Os1 Br10'
_cell_volume   641.07124344
_cell_formula_units_Z   1
loop_
 _symmetry_equiv_pos_site_id
 _symmetry_equiv_pos_as_xyz
  1  'x, y, z'
loop_
 _atom_site_type_symbol
 _atom_site_label
 _atom_site_symmetry_multiplicity
 _atom_site_fract_x
 _atom_site_fract_y
 _atom_site_fract_z
 _atom_site_occupancy
  La  La0  1  0.533260  0.214508  0.412034  1
  La  La1  1  0.465139  0.784836  0.586633  1
  Pr  Pr2  1  0.871165  0.643419  0.687791  1
  Pr  Pr3  1  0.629381  0.549793  0.247471  1
  Pr  Pr4  1  0.367838  0.448262  0.751442  1
  Sm  Sm5  1  0.134023  0.359942  0.315553  1
  Os  Os6  1  0.499391  0.499621  0.499893  1
  Br  Br7  1  0.145353  0.049118  0.228177  1
  Br  Br8  1  0.850068  0.957141  0.771774  1
  Br  Br9  1  0.246974  0.414558  0.052384  1
  Br  Br10  1  0.747379  0.582681  0.950418  1
  Br  Br11  1  0.715867  0.248031  0.155167  1
  Br  Br12  1  0.293401  0.754232  0.848787  1
  Br  Br13  1  0.046073  0.669384  0.416777  1
  Br  Br14  1  0.954983  0.325069  0.576324  1
  Br  Br15  1  0.412352  0.131262  0.672869  1
  Br  Br16  1  0.587352  0.868144  0.326508  1
