# generated using pymatgen
data_Dy2Er3Mg3(P3Ir4)4
_symmetry_space_group_name_H-M   'P 1'
_cell_length_a   12.79779400
_cell_length_b   12.79779425
_cell_length_c   3.97810300
_cell_angle_alpha   90.00000000
_cell_angle_beta   90.00000000
_cell_angle_gamma   119.99999937
_symmetry_Int_Tables_number   1
_chemical_formula_structural   Dy2Er3Mg3(P3Ir4)4
_chemical_formula_sum   'Dy2 Er3 Mg3 P12 Ir16'
_cell_volume   564.25692385
_cell_formula_units_Z   1
loop_
 _symmetry_equiv_pos_site_id
 _symmetry_equiv_pos_as_xyz
  1  'x, y, z'
loop_
 _atom_site_type_symbol
 _atom_site_label
 _atom_site_symmetry_multiplicity
 _atom_site_fract_x
 _atom_site_fract_y
 _atom_site_fract_z
 _atom_site_occupancy
  Dy  Dy0  1  0.333333  0.666667  0.500000  1
  Dy  Dy1  1  0.666667  0.333333  0.500000  1
  Er  Er2  1  0.000000  0.809676  0.000000  1
  Er  Er3  1  0.190324  0.190324  0.000000  1
  Er  Er4  1  0.809676  0.000000  0.000000  1
  Mg  Mg5  1  0.000000  0.445065  0.500000  1
  Mg  Mg6  1  0.554935  0.554935  0.500000  1
  Mg  Mg7  1  0.445065  0.000000  0.500000  1
  P  P8  1  0.000000  0.641805  0.500000  1
  P  P9  1  0.358195  0.358195  0.500000  1
  P  P10  1  0.641805  0.000000  0.500000  1
  P  P11  1  0.516157  0.688204  0.000000  1
  P  P12  1  0.311796  0.827953  0.000000  1
  P  P13  1  0.172047  0.483843  0.000000  1
  P  P14  1  0.483843  0.172047  0.000000  1
  P  P15  1  0.688204  0.516157  0.000000  1
  P  P16  1  0.827953  0.311796  0.000000  1
  P  P17  1  0.000000  0.176965  0.500000  1
  P  P18  1  0.823035  0.823035  0.500000  1
  P  P19  1  0.176965  0.000000  0.500000  1
  Ir  Ir20  1  0.508977  0.868229  0.000000  1
  Ir  Ir21  1  0.131771  0.640749  0.000000  1
  Ir  Ir22  1  0.359251  0.491023  0.000000  1
  Ir  Ir23  1  0.491023  0.359251  0.000000  1
  Ir  Ir24  1  0.868229  0.508977  0.000000  1
  Ir  Ir25  1  0.640749  0.131771  0.000000  1
  Ir  Ir26  1  0.000000  0.278902  0.000000  1
  Ir  Ir27  1  0.721098  0.721098  0.000000  1
  Ir  Ir28  1  0.278902  0.000000  0.000000  1
  Ir  Ir29  1  0.628527  0.806981  0.500000  1
  Ir  Ir30  1  0.193019  0.821546  0.500000  1
  Ir  Ir31  1  0.178454  0.371473  0.500000  1
  Ir  Ir32  1  0.371473  0.178454  0.500000  1
  Ir  Ir33  1  0.806981  0.628527  0.500000  1
  Ir  Ir34  1  0.821546  0.193019  0.500000  1
  Ir  Ir35  1  0.000000  0.000000  0.500000  1
