# generated using pymatgen
data_Li24Dy3Ho(BO3)12
_symmetry_space_group_name_H-M   'P 1'
_cell_length_a   16.46388503
_cell_length_b   6.68920929
_cell_length_c   7.22325007
_cell_angle_alpha   74.68607558
_cell_angle_beta   90.00260729
_cell_angle_gamma   89.99477542
_symmetry_Int_Tables_number   1
_chemical_formula_structural   Li24Dy3Ho(BO3)12
_chemical_formula_sum   'Li24 Dy3 Ho1 B12 O36'
_cell_volume   767.25363442
_cell_formula_units_Z   1
loop_
 _symmetry_equiv_pos_site_id
 _symmetry_equiv_pos_as_xyz
  1  'x, y, z'
loop_
 _atom_site_type_symbol
 _atom_site_label
 _atom_site_symmetry_multiplicity
 _atom_site_fract_x
 _atom_site_fract_y
 _atom_site_fract_z
 _atom_site_occupancy
  Li  Li0  1  0.030272  0.329650  0.545958  1
  Li  Li1  1  0.530205  0.170342  0.454048  1
  Li  Li2  1  0.969829  0.670370  0.453964  1
  Li  Li3  1  0.469765  0.829665  0.545946  1
  Li  Li4  1  0.205015  0.045750  0.437996  1
  Li  Li5  1  0.705004  0.454041  0.561829  1
  Li  Li6  1  0.794989  0.954026  0.561831  1
  Li  Li7  1  0.294949  0.546152  0.437964  1
  Li  Li8  1  0.947004  0.414534  0.137040  1
  Li  Li9  1  0.446942  0.085415  0.862985  1
  Li  Li10  1  0.053063  0.585576  0.862996  1
  Li  Li11  1  0.552960  0.914486  0.137041  1
  Li  Li12  1  0.206198  0.634780  0.714514  1
  Li  Li13  1  0.706172  0.865423  0.285511  1
  Li  Li14  1  0.793820  0.365429  0.285503  1
  Li  Li15  1  0.293780  0.134444  0.714761  1
  Li  Li16  1  0.035552  0.056129  0.306413  1
  Li  Li17  1  0.535434  0.443829  0.693521  1
  Li  Li18  1  0.964537  0.943791  0.693496  1
  Li  Li19  1  0.464554  0.556198  0.306494  1
  Li  Li20  1  0.995932  0.823440  0.071717  1
  Li  Li21  1  0.495824  0.676568  0.928251  1
  Li  Li22  1  0.004194  0.176435  0.928338  1
  Li  Li23  1  0.504114  0.323465  0.071769  1
  Dy  Dy24  1  0.309957  0.347366  0.079639  1
  Dy  Dy25  1  0.810054  0.152661  0.920330  1
  Dy  Dy26  1  0.689945  0.652674  0.920322  1
  Ho  Ho27  1  0.189858  0.847177  0.079671  1
  B  B28  1  0.879074  0.000438  0.286788  1
  B  B29  1  0.379037  0.499601  0.713199  1
  B  B30  1  0.121073  0.999314  0.713870  1
  B  B31  1  0.620935  0.500439  0.286795  1
  B  B32  1  0.135383  0.338302  0.084019  1
  B  B33  1  0.635359  0.161561  0.916000  1
  B  B34  1  0.864646  0.661591  0.915969  1
  B  B35  1  0.364395  0.838551  0.083940  1
  B  B36  1  0.384693  0.189185  0.439786  1
  B  B37  1  0.884744  0.310813  0.560221  1
  B  B38  1  0.615274  0.810820  0.560205  1
  B  B39  1  0.115407  0.689391  0.439242  1
  O  O40  1  0.926077  0.042260  0.120190  1
  O  O41  1  0.426034  0.457724  0.879836  1
  O  O42  1  0.074183  0.957517  0.880599  1
  O  O43  1  0.573922  0.542304  0.120182  1
  O  O44  1  0.797218  0.057362  0.260784  1
  O  O45  1  0.297167  0.442801  0.739168  1
  O  O46  1  0.202886  0.942066  0.740337  1
  O  O47  1  0.702789  0.557359  0.260774  1
  O  O48  1  0.911490  0.912603  0.464274  1
  O  O49  1  0.411461  0.587355  0.535718  1
  O  O50  1  0.088672  0.087092  0.536269  1
  O  O51  1  0.588545  0.412611  0.464286  1
  O  O52  1  0.052805  0.324423  0.088266  1
  O  O53  1  0.552770  0.175600  0.911742  1
  O  O54  1  0.947230  0.675692  0.911649  1
  O  O55  1  0.447014  0.824194  0.088332  1
  O  O56  1  0.325796  0.028416  0.007023  1
  O  O57  1  0.826002  0.471728  0.992952  1
  O  O58  1  0.674024  0.971709  0.992961  1
  O  O59  1  0.174051  0.528523  0.008162  1
  O  O60  1  0.185167  0.164893  0.145553  1
  O  O61  1  0.685232  0.334429  0.853373  1
  O  O62  1  0.814761  0.834453  0.853359  1
  O  O63  1  0.314311  0.666104  0.146311  1
  O  O64  1  0.421379  0.076211  0.606414  1
  O  O65  1  0.921396  0.423824  0.393577  1
  O  O66  1  0.578622  0.923806  0.393537  1
  O  O67  1  0.078782  0.576521  0.606078  1
  O  O68  1  0.301552  0.228408  0.421689  1
  O  O69  1  0.801626  0.271498  0.578313  1
  O  O70  1  0.698398  0.771486  0.578312  1
  O  O71  1  0.198493  0.729022  0.420714  1
  O  O72  1  0.431547  0.271474  0.276350  1
  O  O73  1  0.931627  0.228581  0.723656  1
  O  O74  1  0.568414  0.728643  0.723647  1
  O  O75  1  0.068616  0.771487  0.275736  1
