# generated using pymatgen
data_Ho8Lu2Ir5Rh
_symmetry_space_group_name_H-M   'P 1'
_cell_length_a   10.81676100
_cell_length_b   10.81676100
_cell_length_c   6.33308200
_cell_angle_alpha   90.00000000
_cell_angle_beta   90.00000000
_cell_angle_gamma   90.00000000
_symmetry_Int_Tables_number   1
_chemical_formula_structural   Ho8Lu2Ir5Rh
_chemical_formula_sum   'Ho16 Lu4 Ir10 Rh2'
_cell_volume   740.98527745
_cell_formula_units_Z   2
loop_
 _symmetry_equiv_pos_site_id
 _symmetry_equiv_pos_as_xyz
  1  'x, y, z'
loop_
 _atom_site_type_symbol
 _atom_site_label
 _atom_site_symmetry_multiplicity
 _atom_site_fract_x
 _atom_site_fract_y
 _atom_site_fract_z
 _atom_site_occupancy
  Ho  Ho0  1  0.289993  0.087823  0.378185  1
  Ho  Ho1  1  0.289993  0.912177  0.878185  1
  Ho  Ho2  1  0.710007  0.087823  0.878185  1
  Ho  Ho3  1  0.710007  0.912177  0.378185  1
  Ho  Ho4  1  0.587823  0.789993  0.878185  1
  Ho  Ho5  1  0.587823  0.210007  0.378185  1
  Ho  Ho6  1  0.412177  0.789993  0.378185  1
  Ho  Ho7  1  0.412177  0.210007  0.878185  1
  Ho  Ho8  1  0.209440  0.412286  0.622059  1
  Ho  Ho9  1  0.209440  0.587714  0.122059  1
  Ho  Ho10  1  0.790560  0.412286  0.122059  1
  Ho  Ho11  1  0.790560  0.587714  0.622059  1
  Ho  Ho12  1  0.912286  0.709440  0.122059  1
  Ho  Ho13  1  0.912286  0.290560  0.622059  1
  Ho  Ho14  1  0.087714  0.709440  0.622059  1
  Ho  Ho15  1  0.087714  0.290560  0.122059  1
  Lu  Lu16  1  0.000000  0.000000  0.500118  1
  Lu  Lu17  1  0.000000  0.000000  0.000118  1
  Lu  Lu18  1  0.500000  0.500000  0.000118  1
  Lu  Lu19  1  0.500000  0.500000  0.500118  1
  Ir  Ir20  1  0.847771  0.151503  0.249722  1
  Ir  Ir21  1  0.847771  0.848497  0.749722  1
  Ir  Ir22  1  0.152229  0.151503  0.749722  1
  Ir  Ir23  1  0.152229  0.848497  0.249722  1
  Ir  Ir24  1  0.651503  0.347771  0.749722  1
  Ir  Ir25  1  0.651503  0.652229  0.249722  1
  Ir  Ir26  1  0.348497  0.347771  0.249722  1
  Ir  Ir27  1  0.348497  0.652229  0.749722  1
  Ir  Ir28  1  0.000000  0.500000  0.877742  1
  Ir  Ir29  1  0.000000  0.500000  0.377742  1
  Rh  Rh30  1  0.500000  0.000000  0.122154  1
  Rh  Rh31  1  0.500000  0.000000  0.622154  1
