# generated using pymatgen
data_Zr3V3CrRe2
_symmetry_space_group_name_H-M   'P 1'
_cell_length_a   5.24998226
_cell_length_b   5.25998346
_cell_length_c   12.87655700
_cell_angle_alpha   89.99769073
_cell_angle_beta   89.63204819
_cell_angle_gamma   120.03072783
_symmetry_Int_Tables_number   1
_chemical_formula_structural   Zr3V3CrRe2
_chemical_formula_sum   'Zr6 V6 Cr2 Re4'
_cell_volume   307.84068797
_cell_formula_units_Z   2
loop_
 _symmetry_equiv_pos_site_id
 _symmetry_equiv_pos_as_xyz
  1  'x, y, z'
loop_
 _atom_site_type_symbol
 _atom_site_label
 _atom_site_symmetry_multiplicity
 _atom_site_fract_x
 _atom_site_fract_y
 _atom_site_fract_z
 _atom_site_occupancy
  Zr  Zr0  1  0.334993  0.666258  0.915751  1
  Zr  Zr1  1  0.000770  0.001567  0.250061  1
  Zr  Zr2  1  0.667898  0.334605  0.583085  1
  Zr  Zr3  1  0.332102  0.665395  0.666915  1
  Zr  Zr4  1  0.999230  0.998433  0.999938  1
  Zr  Zr5  1  0.665007  0.333742  0.334249  1
  V  V6  1  0.330381  0.664358  0.294702  1
  V  V7  1  0.000000  0.000000  0.625000  1
  V  V8  1  0.669619  0.335642  0.955298  1
  V  V9  1  0.000000  0.500000  0.125000  1
  V  V10  1  0.666201  0.833942  0.459104  1
  V  V11  1  0.333799  0.166058  0.790896  1
  Cr  Cr12  1  0.166358  0.333957  0.458662  1
  Cr  Cr13  1  0.833642  0.666043  0.791338  1
  Re  Re14  1  0.500000  0.500000  0.125000  1
  Re  Re15  1  0.165946  0.834486  0.458891  1
  Re  Re16  1  0.834054  0.165514  0.791109  1
  Re  Re17  1  0.500000  0.000000  0.125000  1
