# generated using pymatgen
data_Nd4Zr3AlIr4
_symmetry_space_group_name_H-M   'P 1'
_cell_length_a   4.51917700
_cell_length_b   7.32396323
_cell_length_c   8.32339205
_cell_angle_alpha   93.47888828
_cell_angle_beta   90.00000000
_cell_angle_gamma   90.00000000
_symmetry_Int_Tables_number   1
_chemical_formula_structural   Nd4Zr3AlIr4
_chemical_formula_sum   'Nd4 Zr3 Al1 Ir4'
_cell_volume   274.98234582
_cell_formula_units_Z   1
loop_
 _symmetry_equiv_pos_site_id
 _symmetry_equiv_pos_as_xyz
  1  'x, y, z'
loop_
 _atom_site_type_symbol
 _atom_site_label
 _atom_site_symmetry_multiplicity
 _atom_site_fract_x
 _atom_site_fract_y
 _atom_site_fract_z
 _atom_site_occupancy
  Nd  Nd0  1  0.250000  0.983004  0.315107  1
  Nd  Nd1  1  0.250000  0.458593  0.168678  1
  Nd  Nd2  1  0.750000  0.032588  0.686513  1
  Nd  Nd3  1  0.750000  0.509925  0.835054  1
  Zr  Zr4  1  0.250000  0.368935  0.572448  1
  Zr  Zr5  1  0.250000  0.862475  0.935873  1
  Zr  Zr6  1  0.750000  0.638955  0.425912  1
  Al  Al7  1  0.750000  0.136418  0.070510  1
  Ir  Ir8  1  0.250000  0.222650  0.883571  1
  Ir  Ir9  1  0.250000  0.731764  0.598682  1
  Ir  Ir10  1  0.750000  0.778187  0.110213  1
  Ir  Ir11  1  0.750000  0.276507  0.397438  1
