# generated using pymatgen
data_Sm8NbSi16Mo11
_symmetry_space_group_name_H-M   'P 1'
_cell_length_a   6.87713541
_cell_length_b   7.05137076
_cell_length_c   13.07046700
_cell_angle_alpha   90.00000000
_cell_angle_beta   90.00000000
_cell_angle_gamma   90.08026113
_symmetry_Int_Tables_number   1
_chemical_formula_structural   Sm8NbSi16Mo11
_chemical_formula_sum   'Sm8 Nb1 Si16 Mo11'
_cell_volume   633.82856081
_cell_formula_units_Z   1
loop_
 _symmetry_equiv_pos_site_id
 _symmetry_equiv_pos_as_xyz
  1  'x, y, z'
loop_
 _atom_site_type_symbol
 _atom_site_label
 _atom_site_symmetry_multiplicity
 _atom_site_fract_x
 _atom_site_fract_y
 _atom_site_fract_z
 _atom_site_occupancy
  Sm  Sm0  1  0.499106  0.333842  0.094046  1
  Sm  Sm1  1  0.996953  0.166668  0.405871  1
  Sm  Sm2  1  0.503049  0.665277  0.594756  1
  Sm  Sm3  1  0.003379  0.835632  0.905445  1
  Sm  Sm4  1  0.503049  0.665277  0.905244  1
  Sm  Sm5  1  0.003379  0.835632  0.594555  1
  Sm  Sm6  1  0.499106  0.333842  0.405954  1
  Sm  Sm7  1  0.996953  0.166668  0.094129  1
  Nb  Nb8  1  0.836201  0.506755  0.250000  1
  Si  Si9  1  0.807826  0.623252  0.750000  1
  Si  Si10  1  0.306958  0.877689  0.750000  1
  Si  Si11  1  0.199731  0.374911  0.250000  1
  Si  Si12  1  0.693186  0.118687  0.250000  1
  Si  Si13  1  0.535470  0.360610  0.750000  1
  Si  Si14  1  0.037181  0.140517  0.750000  1
  Si  Si15  1  0.458802  0.639599  0.250000  1
  Si  Si16  1  0.965662  0.867623  0.250000  1
  Si  Si17  1  0.656250  0.044283  0.548748  1
  Si  Si18  1  0.156568  0.454742  0.951228  1
  Si  Si19  1  0.342266  0.954569  0.048341  1
  Si  Si20  1  0.842542  0.545149  0.455616  1
  Si  Si21  1  0.342266  0.954569  0.451659  1
  Si  Si22  1  0.842542  0.545149  0.044384  1
  Si  Si23  1  0.656250  0.044283  0.951252  1
  Si  Si24  1  0.156568  0.454742  0.548772  1
  Mo  Mo25  1  0.666342  0.002365  0.750000  1
  Mo  Mo26  1  0.165494  0.497933  0.750000  1
  Mo  Mo27  1  0.333211  0.995763  0.250000  1
  Mo  Mo28  1  0.830734  0.335567  0.627321  1
  Mo  Mo29  1  0.332168  0.164740  0.873667  1
  Mo  Mo30  1  0.166782  0.664039  0.125570  1
  Mo  Mo31  1  0.667170  0.832642  0.374520  1
  Mo  Mo32  1  0.166782  0.664039  0.374430  1
  Mo  Mo33  1  0.667170  0.832642  0.125480  1
  Mo  Mo34  1  0.830734  0.335567  0.872679  1
  Mo  Mo35  1  0.332168  0.164740  0.626333  1
