# generated using pymatgen
data_Sc2Al8SiRh3
_symmetry_space_group_name_H-M   'P 1'
_cell_length_a   7.43362355
_cell_length_b   7.43362303
_cell_length_c   9.19995900
_cell_angle_alpha   90.00000000
_cell_angle_beta   90.00000000
_cell_angle_gamma   119.57968127
_symmetry_Int_Tables_number   1
_chemical_formula_structural   Sc2Al8SiRh3
_chemical_formula_sum   'Sc4 Al16 Si2 Rh6'
_cell_volume   442.12136211
_cell_formula_units_Z   2
loop_
 _symmetry_equiv_pos_site_id
 _symmetry_equiv_pos_as_xyz
  1  'x, y, z'
loop_
 _atom_site_type_symbol
 _atom_site_label
 _atom_site_symmetry_multiplicity
 _atom_site_fract_x
 _atom_site_fract_y
 _atom_site_fract_z
 _atom_site_occupancy
  Sc  Sc0  1  0.995107  0.675577  0.250000  1
  Sc  Sc1  1  0.004893  0.324423  0.750000  1
  Sc  Sc2  1  0.675577  0.995107  0.250000  1
  Sc  Sc3  1  0.324423  0.004893  0.750000  1
  Al  Al4  1  0.998008  0.335784  0.079270  1
  Al  Al5  1  0.001992  0.664216  0.920730  1
  Al  Al6  1  0.001992  0.664216  0.579270  1
  Al  Al7  1  0.335784  0.998008  0.420730  1
  Al  Al8  1  0.998008  0.335784  0.420730  1
  Al  Al9  1  0.664216  0.001992  0.579270  1
  Al  Al10  1  0.664216  0.001992  0.920730  1
  Al  Al11  1  0.335784  0.998008  0.079270  1
  Al  Al12  1  0.332814  0.332814  0.561170  1
  Al  Al13  1  0.667186  0.667186  0.438830  1
  Al  Al14  1  0.667186  0.667186  0.061170  1
  Al  Al15  1  0.332814  0.332814  0.938830  1
  Al  Al16  1  0.335676  0.553698  0.250000  1
  Al  Al17  1  0.664324  0.446302  0.750000  1
  Al  Al18  1  0.553698  0.335676  0.250000  1
  Al  Al19  1  0.446302  0.664324  0.750000  1
  Si  Si20  1  0.124273  0.124273  0.250000  1
  Si  Si21  1  0.875727  0.875727  0.750000  1
  Rh  Rh22  1  0.672220  0.327780  0.000000  1
  Rh  Rh23  1  0.327780  0.672220  0.000000  1
  Rh  Rh24  1  0.327780  0.672220  0.500000  1
  Rh  Rh25  1  0.672220  0.327780  0.500000  1
  Rh  Rh26  1  0.000000  0.000000  0.000000  1
  Rh  Rh27  1  0.000000  0.000000  0.500000  1
