# generated using pymatgen
data_La7Pr(B2Rh5)4
_symmetry_space_group_name_H-M   'P 1'
_cell_length_a   5.55985001
_cell_length_b   5.55985077
_cell_length_c   21.25412200
_cell_angle_alpha   90.00031348
_cell_angle_beta   89.99968638
_cell_angle_gamma   119.99888706
_symmetry_Int_Tables_number   1
_chemical_formula_structural   La7Pr(B2Rh5)4
_chemical_formula_sum   'La7 Pr1 B8 Rh20'
_cell_volume   568.99032430
_cell_formula_units_Z   1
loop_
 _symmetry_equiv_pos_site_id
 _symmetry_equiv_pos_as_xyz
  1  'x, y, z'
loop_
 _atom_site_type_symbol
 _atom_site_label
 _atom_site_symmetry_multiplicity
 _atom_site_fract_x
 _atom_site_fract_y
 _atom_site_fract_z
 _atom_site_occupancy
  La  La0  1  0.666661  0.333339  0.521388  1
  La  La1  1  0.333328  0.666672  0.478826  1
  La  La2  1  0.333314  0.666686  0.020922  1
  La  La3  1  0.666687  0.333313  0.978734  1
  La  La4  1  0.666740  0.333260  0.673590  1
  La  La5  1  0.333254  0.666746  0.326139  1
  La  La6  1  0.333254  0.666746  0.173746  1
  Pr  Pr7  1  0.666781  0.333219  0.825566  1
  B  B8  1  0.000071  0.999929  0.677996  1
  B  B9  1  0.999926  0.000074  0.322323  1
  B  B10  1  0.999924  0.000076  0.177676  1
  B  B11  1  0.000075  0.999925  0.822357  1
  B  B12  1  0.666591  0.333409  0.325421  1
  B  B13  1  0.333407  0.666593  0.674876  1
  B  B14  1  0.333409  0.666591  0.825517  1
  B  B15  1  0.666590  0.333410  0.174590  1
  Rh  Rh16  1  0.999997  0.000003  0.500031  1
  Rh  Rh17  1  0.999997  0.000003  0.999938  1
  Rh  Rh18  1  0.167587  0.334980  0.750210  1
  Rh  Rh19  1  0.167586  0.832414  0.750213  1
  Rh  Rh20  1  0.665020  0.832413  0.750210  1
  Rh  Rh21  1  0.832356  0.664923  0.249996  1
  Rh  Rh22  1  0.832367  0.167633  0.249996  1
  Rh  Rh23  1  0.335077  0.167644  0.249996  1
  Rh  Rh24  1  0.163283  0.326328  0.609782  1
  Rh  Rh25  1  0.163275  0.836725  0.609777  1
  Rh  Rh26  1  0.673672  0.836717  0.609782  1
  Rh  Rh27  1  0.836727  0.673695  0.390228  1
  Rh  Rh28  1  0.836734  0.163266  0.390235  1
  Rh  Rh29  1  0.326305  0.163273  0.390228  1
  Rh  Rh30  1  0.836725  0.673690  0.109778  1
  Rh  Rh31  1  0.836733  0.163267  0.109772  1
  Rh  Rh32  1  0.326310  0.163275  0.109778  1
  Rh  Rh33  1  0.163264  0.326279  0.890124  1
  Rh  Rh34  1  0.163256  0.836744  0.890135  1
  Rh  Rh35  1  0.673721  0.836736  0.890124  1
