# generated using pymatgen
data_Tm5Lu5Si5As
_symmetry_space_group_name_H-M   'P 1'
_cell_length_a   8.27719943
_cell_length_b   8.28873564
_cell_length_c   6.15588700
_cell_angle_alpha   90.00000000
_cell_angle_beta   90.00000000
_cell_angle_gamma   119.91717094
_symmetry_Int_Tables_number   1
_chemical_formula_structural   Tm5Lu5Si5As
_chemical_formula_sum   'Tm5 Lu5 Si5 As1'
_cell_volume   366.06217294
_cell_formula_units_Z   1
loop_
 _symmetry_equiv_pos_site_id
 _symmetry_equiv_pos_as_xyz
  1  'x, y, z'
loop_
 _atom_site_type_symbol
 _atom_site_label
 _atom_site_symmetry_multiplicity
 _atom_site_fract_x
 _atom_site_fract_y
 _atom_site_fract_z
 _atom_site_occupancy
  Tm  Tm0  1  0.759286  0.000038  0.750000  1
  Tm  Tm1  1  0.757016  0.756621  0.250000  1
  Tm  Tm2  1  0.000509  0.243178  0.250000  1
  Tm  Tm3  1  0.996556  0.754639  0.750000  1
  Tm  Tm4  1  0.242271  0.000138  0.250000  1
  Lu  Lu5  1  0.668817  0.335931  0.001135  1
  Lu  Lu6  1  0.332956  0.663946  0.498864  1
  Lu  Lu7  1  0.332956  0.663946  0.001136  1
  Lu  Lu8  1  0.668817  0.335931  0.498865  1
  Lu  Lu9  1  0.241966  0.245585  0.750000  1
  Si  Si10  1  0.395039  0.393813  0.250000  1
  Si  Si11  1  0.001229  0.606282  0.250000  1
  Si  Si12  1  0.000009  0.394663  0.750000  1
  Si  Si13  1  0.604545  0.604875  0.750000  1
  Si  Si14  1  0.606192  0.000011  0.250000  1
  As  As15  1  0.391836  0.000403  0.750000  1
