# generated using pymatgen
data_HoLu3(CuP)6
_symmetry_space_group_name_H-M   'P 1'
_cell_length_a   3.81152400
_cell_length_b   10.59367700
_cell_length_c   12.81108600
_cell_angle_alpha   90.00000000
_cell_angle_beta   90.00000000
_cell_angle_gamma   90.00000000
_symmetry_Int_Tables_number   1
_chemical_formula_structural   HoLu3(CuP)6
_chemical_formula_sum   'Ho2 Lu6 Cu12 P12'
_cell_volume   517.28672402
_cell_formula_units_Z   2
loop_
 _symmetry_equiv_pos_site_id
 _symmetry_equiv_pos_as_xyz
  1  'x, y, z'
loop_
 _atom_site_type_symbol
 _atom_site_label
 _atom_site_symmetry_multiplicity
 _atom_site_fract_x
 _atom_site_fract_y
 _atom_site_fract_z
 _atom_site_occupancy
  Ho  Ho0  1  0.250000  0.929055  0.794120  1
  Ho  Ho1  1  0.750000  0.429055  0.705880  1
  Lu  Lu2  1  0.250000  0.571432  0.293752  1
  Lu  Lu3  1  0.750000  0.071432  0.206248  1
  Lu  Lu4  1  0.250000  0.842583  0.503250  1
  Lu  Lu5  1  0.750000  0.342583  0.996750  1
  Lu  Lu6  1  0.250000  0.657124  0.003762  1
  Lu  Lu7  1  0.750000  0.157124  0.496238  1
  Cu  Cu8  1  0.250000  0.398300  0.514535  1
  Cu  Cu9  1  0.750000  0.898300  0.985465  1
  Cu  Cu10  1  0.250000  0.101495  0.015341  1
  Cu  Cu11  1  0.750000  0.601495  0.484659  1
  Cu  Cu12  1  0.250000  0.274040  0.333355  1
  Cu  Cu13  1  0.750000  0.774040  0.166645  1
  Cu  Cu14  1  0.250000  0.226299  0.833577  1
  Cu  Cu15  1  0.750000  0.726299  0.666423  1
  Cu  Cu16  1  0.250000  0.861010  0.279315  1
  Cu  Cu17  1  0.750000  0.361010  0.220685  1
  Cu  Cu18  1  0.250000  0.639292  0.779639  1
  Cu  Cu19  1  0.750000  0.139292  0.720361  1
  P  P20  1  0.250000  0.237626  0.641806  1
  P  P21  1  0.750000  0.737626  0.858194  1
  P  P22  1  0.250000  0.260784  0.142537  1
  P  P23  1  0.750000  0.760784  0.357463  1
  P  P24  1  0.250000  0.604624  0.599151  1
  P  P25  1  0.750000  0.104624  0.900849  1
  P  P26  1  0.250000  0.896239  0.099415  1
  P  P27  1  0.750000  0.396239  0.400585  1
  P  P28  1  0.250000  0.057325  0.368475  1
  P  P29  1  0.750000  0.557325  0.131525  1
  P  P30  1  0.250000  0.442772  0.870467  1
  P  P31  1  0.750000  0.942772  0.629533  1
