# generated using pymatgen
data_Pr3TlCd3HgPb
_symmetry_space_group_name_H-M   'P 1'
_cell_length_a   7.76533800
_cell_length_b   7.76533665
_cell_length_c   4.76603000
_cell_angle_alpha   90.00000000
_cell_angle_beta   90.00000000
_cell_angle_gamma   119.99999721
_symmetry_Int_Tables_number   1
_chemical_formula_structural   Pr3TlCd3HgPb
_chemical_formula_sum   'Pr3 Tl1 Cd3 Hg1 Pb1'
_cell_volume   248.89035556
_cell_formula_units_Z   1
loop_
 _symmetry_equiv_pos_site_id
 _symmetry_equiv_pos_as_xyz
  1  'x, y, z'
loop_
 _atom_site_type_symbol
 _atom_site_label
 _atom_site_symmetry_multiplicity
 _atom_site_fract_x
 _atom_site_fract_y
 _atom_site_fract_z
 _atom_site_occupancy
  Pr  Pr0  1  0.583533  0.995863  0.000000  1
  Pr  Pr1  1  0.004137  0.587671  0.000000  1
  Pr  Pr2  1  0.412329  0.416467  0.000000  1
  Tl  Tl3  1  0.333333  0.666667  0.500000  1
  Cd  Cd4  1  0.237312  0.993398  0.500000  1
  Cd  Cd5  1  0.006602  0.243915  0.500000  1
  Cd  Cd6  1  0.756085  0.762688  0.500000  1
  Hg  Hg7  1  0.000000  0.000000  0.000000  1
  Pb  Pb8  1  0.666667  0.333333  0.500000  1
