# generated using pymatgen
data_Ti6SiPb2
_symmetry_space_group_name_H-M   'P 1'
_cell_length_a   7.26229900
_cell_length_b   7.26229788
_cell_length_c   3.69164800
_cell_angle_alpha   90.00000000
_cell_angle_beta   90.00000000
_cell_angle_gamma   119.99999142
_symmetry_Int_Tables_number   1
_chemical_formula_structural   Ti6SiPb2
_chemical_formula_sum   'Ti6 Si1 Pb2'
_cell_volume   168.61613788
_cell_formula_units_Z   1
loop_
 _symmetry_equiv_pos_site_id
 _symmetry_equiv_pos_as_xyz
  1  'x, y, z'
loop_
 _atom_site_type_symbol
 _atom_site_label
 _atom_site_symmetry_multiplicity
 _atom_site_fract_x
 _atom_site_fract_y
 _atom_site_fract_z
 _atom_site_occupancy
  Ti  Ti0  1  0.000000  0.231957  0.500000  1
  Ti  Ti1  1  0.231957  0.000000  0.500000  1
  Ti  Ti2  1  0.768043  0.768043  0.500000  1
  Ti  Ti3  1  0.630725  0.000000  0.000000  1
  Ti  Ti4  1  0.369275  0.369275  0.000000  1
  Ti  Ti5  1  0.000000  0.630725  0.000000  1
  Si  Si6  1  0.000000  0.000000  0.000000  1
  Pb  Pb7  1  0.666667  0.333333  0.500000  1
  Pb  Pb8  1  0.333333  0.666667  0.500000  1
