# generated using pymatgen
data_Tb8Ta8Ti4Si15As
_symmetry_space_group_name_H-M   'P 1'
_cell_length_a   7.06514955
_cell_length_b   7.05995483
_cell_length_c   13.01107120
_cell_angle_alpha   89.93901164
_cell_angle_beta   89.84177156
_cell_angle_gamma   89.95710406
_symmetry_Int_Tables_number   1
_chemical_formula_structural   Tb8Ta8Ti4Si15As
_chemical_formula_sum   'Tb8 Ta8 Ti4 Si15 As1'
_cell_volume   648.98448170
_cell_formula_units_Z   1
loop_
 _symmetry_equiv_pos_site_id
 _symmetry_equiv_pos_as_xyz
  1  'x, y, z'
loop_
 _atom_site_type_symbol
 _atom_site_label
 _atom_site_symmetry_multiplicity
 _atom_site_fract_x
 _atom_site_fract_y
 _atom_site_fract_z
 _atom_site_occupancy
  Tb  Tb0  1  0.341079  0.001384  0.466565  1
  Tb  Tb1  1  0.497659  0.841697  0.718268  1
  Tb  Tb2  1  0.501586  0.158438  0.217268  1
  Tb  Tb3  1  0.840133  0.498238  0.282702  1
  Tb  Tb4  1  0.159851  0.500796  0.781889  1
  Tb  Tb5  1  0.661266  0.996117  0.968743  1
  Tb  Tb6  1  0.999354  0.342381  0.531124  1
  Tb  Tb7  1  0.997261  0.660692  0.032334  1
  Ta  Ta8  1  0.328690  0.329229  0.999946  1
  Ta  Ta9  1  0.173197  0.826555  0.249711  1
  Ta  Ta10  1  0.824582  0.174447  0.750090  1
  Ta  Ta11  1  0.670653  0.669660  0.500367  1
  Ta  Ta12  1  0.155708  0.009405  0.875126  1
  Ta  Ta13  1  0.490533  0.653833  0.124835  1
  Ta  Ta14  1  0.509671  0.348266  0.625653  1
  Ta  Ta15  1  0.654940  0.493733  0.875910  1
  Ti  Ti16  1  0.345558  0.508383  0.375455  1
  Ti  Ti17  1  0.845648  0.991893  0.374415  1
  Ti  Ti18  1  0.009013  0.153241  0.125129  1
  Ti  Ti19  1  0.988498  0.842152  0.624548  1
  Si  Si20  1  0.367086  0.704022  0.932967  1
  Si  Si21  1  0.629928  0.296935  0.433904  1
  Si  Si22  1  0.703872  0.367018  0.067768  1
  Si  Si23  1  0.297043  0.632988  0.565950  1
  Si  Si24  1  0.799340  0.869352  0.184893  1
  Si  Si25  1  0.130819  0.200707  0.315672  1
  Si  Si26  1  0.868563  0.798820  0.816350  1
  Si  Si27  1  0.292525  0.955462  0.064767  1
  Si  Si28  1  0.546414  0.792042  0.314604  1
  Si  Si29  1  0.461010  0.207891  0.817718  1
  Si  Si30  1  0.795598  0.547626  0.685231  1
  Si  Si31  1  0.205716  0.452705  0.186668  1
  Si  Si32  1  0.709438  0.044328  0.562541  1
  Si  Si33  1  0.954898  0.293575  0.937385  1
  Si  Si34  1  0.045391  0.708114  0.435256  1
  As  As35  1  0.197477  0.127877  0.678248  1
