# generated using pymatgen
data_Pr2Zn2Rh5
_symmetry_space_group_name_H-M   'P 1'
_cell_length_a   12.77563311
_cell_length_b   12.77563320
_cell_length_c   12.77563371
_cell_angle_alpha   24.94923064
_cell_angle_beta   24.94922914
_cell_angle_gamma   24.94922897
_symmetry_Int_Tables_number   1
_chemical_formula_structural   Pr2Zn2Rh5
_chemical_formula_sum   'Pr4 Zn4 Rh10'
_cell_volume   326.38190431
_cell_formula_units_Z   2
loop_
 _symmetry_equiv_pos_site_id
 _symmetry_equiv_pos_as_xyz
  1  'x, y, z'
loop_
 _atom_site_type_symbol
 _atom_site_label
 _atom_site_symmetry_multiplicity
 _atom_site_fract_x
 _atom_site_fract_y
 _atom_site_fract_z
 _atom_site_occupancy
  Pr  Pr0  1  0.950719  0.950719  0.950719  1
  Pr  Pr1  1  0.049281  0.049281  0.049281  1
  Pr  Pr2  1  0.853183  0.853183  0.853183  1
  Pr  Pr3  1  0.146817  0.146817  0.146817  1
  Zn  Zn4  1  0.721108  0.721108  0.721108  1
  Zn  Zn5  1  0.278892  0.278892  0.278892  1
  Zn  Zn6  1  0.611408  0.611408  0.611408  1
  Zn  Zn7  1  0.388592  0.388592  0.388592  1
  Rh  Rh8  1  0.500000  0.500000  0.500000  1
  Rh  Rh9  1  0.500000  0.500000  0.000000  1
  Rh  Rh10  1  0.000000  0.500000  0.500000  1
  Rh  Rh11  1  0.500000  0.000000  0.500000  1
  Rh  Rh12  1  0.388663  0.893470  0.388663  1
  Rh  Rh13  1  0.388663  0.388663  0.893470  1
  Rh  Rh14  1  0.893470  0.388663  0.388663  1
  Rh  Rh15  1  0.611337  0.106530  0.611337  1
  Rh  Rh16  1  0.611337  0.611337  0.106530  1
  Rh  Rh17  1  0.106530  0.611337  0.611337  1
