# generated using pymatgen
data_Ho6Th2SiPd24
_symmetry_space_group_name_H-M   'P 1'
_cell_length_a   8.35470175
_cell_length_b   8.35470150
_cell_length_c   8.35470100
_cell_angle_alpha   89.97568186
_cell_angle_beta   89.97568186
_cell_angle_gamma   89.97567839
_symmetry_Int_Tables_number   1
_chemical_formula_structural   Ho6Th2SiPd24
_chemical_formula_sum   'Ho6 Th2 Si1 Pd24'
_cell_volume   583.16665531
_cell_formula_units_Z   1
loop_
 _symmetry_equiv_pos_site_id
 _symmetry_equiv_pos_as_xyz
  1  'x, y, z'
loop_
 _atom_site_type_symbol
 _atom_site_label
 _atom_site_symmetry_multiplicity
 _atom_site_fract_x
 _atom_site_fract_y
 _atom_site_fract_z
 _atom_site_occupancy
  Ho  Ho0  1  0.746051  0.746051  0.253557  1
  Ho  Ho1  1  0.746051  0.253557  0.746051  1
  Ho  Ho2  1  0.253949  0.253949  0.746443  1
  Ho  Ho3  1  0.253949  0.746443  0.253949  1
  Ho  Ho4  1  0.253557  0.746051  0.746051  1
  Ho  Ho5  1  0.746443  0.253949  0.253949  1
  Th  Th6  1  0.254288  0.254288  0.254288  1
  Th  Th7  1  0.745712  0.745712  0.745712  1
  Si  Si8  1  0.000000  0.000000  0.000000  1
  Pd  Pd9  1  0.256720  0.500212  0.999548  1
  Pd  Pd10  1  0.743280  0.499788  0.000452  1
  Pd  Pd11  1  0.999548  0.256720  0.500212  1
  Pd  Pd12  1  0.500212  0.256720  0.999548  1
  Pd  Pd13  1  0.000452  0.743280  0.499788  1
  Pd  Pd14  1  0.499788  0.743280  0.000452  1
  Pd  Pd15  1  0.500212  0.999548  0.256720  1
  Pd  Pd16  1  0.256720  0.999548  0.500212  1
  Pd  Pd17  1  0.499788  0.000452  0.743280  1
  Pd  Pd18  1  0.743280  0.000452  0.499788  1
  Pd  Pd19  1  0.999548  0.500212  0.256720  1
  Pd  Pd20  1  0.000452  0.499788  0.743280  1
  Pd  Pd21  1  0.251740  0.501012  0.501012  1
  Pd  Pd22  1  0.748260  0.498988  0.498988  1
  Pd  Pd23  1  0.501012  0.251740  0.501012  1
  Pd  Pd24  1  0.498988  0.748260  0.498988  1
  Pd  Pd25  1  0.501012  0.501012  0.251740  1
  Pd  Pd26  1  0.498988  0.498988  0.748260  1
  Pd  Pd27  1  0.279456  0.998383  0.998383  1
  Pd  Pd28  1  0.720544  0.001617  0.001617  1
  Pd  Pd29  1  0.998383  0.279456  0.998383  1
  Pd  Pd30  1  0.001617  0.720544  0.001617  1
  Pd  Pd31  1  0.998383  0.998383  0.279456  1
  Pd  Pd32  1  0.001617  0.001617  0.720544  1
