# generated using pymatgen
data_Ca3Ac5(CdRu)2
_symmetry_space_group_name_H-M   'P 1'
_cell_length_a   10.38412334
_cell_length_b   10.38412196
_cell_length_c   10.38412300
_cell_angle_alpha   59.99999989
_cell_angle_beta   60.00000428
_cell_angle_gamma   60.00000030
_symmetry_Int_Tables_number   1
_chemical_formula_structural   Ca3Ac5(CdRu)2
_chemical_formula_sum   'Ca6 Ac10 Cd4 Ru4'
_cell_volume   791.76164399
_cell_formula_units_Z   2
loop_
 _symmetry_equiv_pos_site_id
 _symmetry_equiv_pos_as_xyz
  1  'x, y, z'
loop_
 _atom_site_type_symbol
 _atom_site_label
 _atom_site_symmetry_multiplicity
 _atom_site_fract_x
 _atom_site_fract_y
 _atom_site_fract_z
 _atom_site_occupancy
  Ca  Ca0  1  0.563371  0.563371  0.936629  1
  Ca  Ca1  1  0.936629  0.563371  0.936629  1
  Ca  Ca2  1  0.563371  0.936629  0.936629  1
  Ca  Ca3  1  0.936629  0.936629  0.563371  1
  Ca  Ca4  1  0.563371  0.936629  0.563371  1
  Ca  Ca5  1  0.936629  0.563371  0.563371  1
  Ac  Ac6  1  0.192495  0.192495  0.807505  1
  Ac  Ac7  1  0.807505  0.192495  0.807505  1
  Ac  Ac8  1  0.192494  0.807506  0.807505  1
  Ac  Ac9  1  0.807505  0.807506  0.192495  1
  Ac  Ac10  1  0.192494  0.807505  0.192494  1
  Ac  Ac11  1  0.807505  0.192495  0.192495  1
  Ac  Ac12  1  0.345085  0.345085  0.964744  1
  Ac  Ac13  1  0.345085  0.964744  0.345085  1
  Ac  Ac14  1  0.964744  0.345085  0.345085  1
  Ac  Ac15  1  0.345085  0.345085  0.345085  1
  Cd  Cd16  1  0.579689  0.579689  0.260933  1
  Cd  Cd17  1  0.579689  0.260933  0.579689  1
  Cd  Cd18  1  0.260933  0.579689  0.579689  1
  Cd  Cd19  1  0.579689  0.579689  0.579689  1
  Ru  Ru20  1  0.134998  0.134998  0.595006  1
  Ru  Ru21  1  0.134998  0.595006  0.134998  1
  Ru  Ru22  1  0.595006  0.134998  0.134998  1
  Ru  Ru23  1  0.134998  0.134998  0.134998  1
