# generated using pymatgen
data_Mn2BeB2Rh5
_symmetry_space_group_name_H-M   'P 1'
_cell_length_a   2.88221000
_cell_length_b   9.14145400
_cell_length_c   9.14145400
_cell_angle_alpha   90.00000000
_cell_angle_beta   90.00000000
_cell_angle_gamma   90.00000000
_symmetry_Int_Tables_number   1
_chemical_formula_structural   Mn2BeB2Rh5
_chemical_formula_sum   'Mn4 Be2 B4 Rh10'
_cell_volume   240.85528321
_cell_formula_units_Z   2
loop_
 _symmetry_equiv_pos_site_id
 _symmetry_equiv_pos_as_xyz
  1  'x, y, z'
loop_
 _atom_site_type_symbol
 _atom_site_label
 _atom_site_symmetry_multiplicity
 _atom_site_fract_x
 _atom_site_fract_y
 _atom_site_fract_z
 _atom_site_occupancy
  Mn  Mn0  1  0.000000  0.823587  0.176414  1
  Mn  Mn1  1  0.000000  0.323587  0.323587  1
  Mn  Mn2  1  0.000000  0.676413  0.676413  1
  Mn  Mn3  1  0.000000  0.176414  0.823587  1
  Be  Be4  1  0.000000  0.500000  0.000000  1
  Be  Be5  1  0.000000  0.000000  0.500000  1
  B  B6  1  0.000000  0.131003  0.131003  1
  B  B7  1  0.000000  0.631003  0.368998  1
  B  B8  1  0.000000  0.368998  0.631003  1
  B  B9  1  0.000000  0.868998  0.868998  1
  Rh  Rh10  1  0.499999  0.000000  0.000000  1
  Rh  Rh11  1  0.499999  0.294155  0.068626  1
  Rh  Rh12  1  0.499999  0.568627  0.205847  1
  Rh  Rh13  1  0.499999  0.068626  0.294155  1
  Rh  Rh14  1  0.499999  0.794155  0.431375  1
  Rh  Rh15  1  0.499999  0.500000  0.500000  1
  Rh  Rh16  1  0.499999  0.205847  0.568627  1
  Rh  Rh17  1  0.499999  0.931375  0.705847  1
  Rh  Rh18  1  0.499999  0.431375  0.794155  1
  Rh  Rh19  1  0.499999  0.705847  0.931375  1
