# generated using pymatgen
data_PuUB6W
_symmetry_space_group_name_H-M   'P 1'
_cell_length_a   3.66783400
_cell_length_b   9.36182500
_cell_length_c   11.44688100
_cell_angle_alpha   90.00000000
_cell_angle_beta   90.00000000
_cell_angle_gamma   90.00000000
_symmetry_Int_Tables_number   1
_chemical_formula_structural   PuUB6W
_chemical_formula_sum   'Pu4 U4 B24 W4'
_cell_volume   393.05865039
_cell_formula_units_Z   4
loop_
 _symmetry_equiv_pos_site_id
 _symmetry_equiv_pos_as_xyz
  1  'x, y, z'
loop_
 _atom_site_type_symbol
 _atom_site_label
 _atom_site_symmetry_multiplicity
 _atom_site_fract_x
 _atom_site_fract_y
 _atom_site_fract_z
 _atom_site_occupancy
  Pu  Pu0  1  0.000000  0.335773  0.406476  1
  Pu  Pu1  1  0.000000  0.664227  0.593524  1
  Pu  Pu2  1  0.000000  0.835773  0.093524  1
  Pu  Pu3  1  0.000000  0.164227  0.906476  1
  U  U4  1  0.000000  0.955844  0.394903  1
  U  U5  1  0.000000  0.044156  0.605097  1
  U  U6  1  0.000000  0.455844  0.105097  1
  U  U7  1  0.000000  0.544156  0.894903  1
  B  B8  1  0.500000  0.551130  0.432799  1
  B  B9  1  0.500000  0.448870  0.567201  1
  B  B10  1  0.500000  0.051130  0.067201  1
  B  B11  1  0.500000  0.948870  0.932799  1
  B  B12  1  0.500000  0.744301  0.424396  1
  B  B13  1  0.500000  0.255699  0.575604  1
  B  B14  1  0.500000  0.244301  0.075604  1
  B  B15  1  0.500000  0.755699  0.924396  1
  B  B16  1  0.500000  0.803822  0.273884  1
  B  B17  1  0.500000  0.196178  0.726116  1
  B  B18  1  0.500000  0.303822  0.226116  1
  B  B19  1  0.500000  0.696178  0.773884  1
  B  B20  1  0.500000  0.643591  0.187129  1
  B  B21  1  0.500000  0.356409  0.812871  1
  B  B22  1  0.500000  0.143591  0.312871  1
  B  B23  1  0.500000  0.856409  0.687129  1
  B  B24  1  0.500000  0.986693  0.219747  1
  B  B25  1  0.500000  0.013307  0.780253  1
  B  B26  1  0.500000  0.486693  0.280253  1
  B  B27  1  0.500000  0.513307  0.719747  1
  B  B28  1  0.500000  0.640523  0.039163  1
  B  B29  1  0.500000  0.359477  0.960837  1
  B  B30  1  0.500000  0.140523  0.460837  1
  B  B31  1  0.500000  0.859477  0.539163  1
  W  W32  1  0.000000  0.645837  0.319354  1
  W  W33  1  0.000000  0.354163  0.680646  1
  W  W34  1  0.000000  0.145837  0.180646  1
  W  W35  1  0.000000  0.854163  0.819354  1
