# generated using pymatgen
data_Tb2Y2ZnPt3
_symmetry_space_group_name_H-M   'P 1'
_cell_length_a   4.55954600
_cell_length_b   5.61370523
_cell_length_c   7.13879384
_cell_angle_alpha   90.02779187
_cell_angle_beta   90.00000000
_cell_angle_gamma   90.00000000
_symmetry_Int_Tables_number   1
_chemical_formula_structural   Tb2Y2ZnPt3
_chemical_formula_sum   'Tb2 Y2 Zn1 Pt3'
_cell_volume   182.72416881
_cell_formula_units_Z   1
loop_
 _symmetry_equiv_pos_site_id
 _symmetry_equiv_pos_as_xyz
  1  'x, y, z'
loop_
 _atom_site_type_symbol
 _atom_site_label
 _atom_site_symmetry_multiplicity
 _atom_site_fract_x
 _atom_site_fract_y
 _atom_site_fract_z
 _atom_site_occupancy
  Tb  Tb0  1  0.000000  0.639920  0.312881  1
  Tb  Tb1  1  0.000000  0.851511  0.822001  1
  Y  Y2  1  0.500000  0.368758  0.692504  1
  Y  Y3  1  0.500000  0.138732  0.171991  1
  Zn  Zn4  1  0.000000  0.135185  0.466299  1
  Pt  Pt5  1  0.000000  0.338015  0.956961  1
  Pt  Pt6  1  0.500000  0.873608  0.531611  1
  Pt  Pt7  1  0.500000  0.654273  0.045752  1
