# generated using pymatgen
data_Pr8Sc12Si15Ge
_symmetry_space_group_name_H-M   'P 1'
_cell_length_a   7.26584676
_cell_length_b   7.54638118
_cell_length_c   14.27136214
_cell_angle_alpha   90.00329376
_cell_angle_beta   89.92409049
_cell_angle_gamma   90.02464046
_symmetry_Int_Tables_number   1
_chemical_formula_structural   Pr8Sc12Si15Ge
_chemical_formula_sum   'Pr8 Sc12 Si15 Ge1'
_cell_volume   782.51014547
_cell_formula_units_Z   1
loop_
 _symmetry_equiv_pos_site_id
 _symmetry_equiv_pos_as_xyz
  1  'x, y, z'
loop_
 _atom_site_type_symbol
 _atom_site_label
 _atom_site_symmetry_multiplicity
 _atom_site_fract_x
 _atom_site_fract_y
 _atom_site_fract_z
 _atom_site_occupancy
  Pr  Pr0  1  0.011585  0.171557  0.401847  1
  Pr  Pr1  1  0.512612  0.327161  0.401861  1
  Pr  Pr2  1  0.487870  0.672295  0.902240  1
  Pr  Pr3  1  0.489485  0.673257  0.597999  1
  Pr  Pr4  1  0.987185  0.828767  0.597879  1
  Pr  Pr5  1  0.987834  0.827768  0.902268  1
  Pr  Pr6  1  0.512195  0.327775  0.097714  1
  Pr  Pr7  1  0.012230  0.172284  0.097688  1
  Sc  Sc8  1  0.331015  0.174200  0.625847  1
  Sc  Sc9  1  0.669799  0.824430  0.374569  1
  Sc  Sc10  1  0.660117  0.001056  0.750056  1
  Sc  Sc11  1  0.169823  0.676439  0.374149  1
  Sc  Sc12  1  0.829936  0.324288  0.874608  1
  Sc  Sc13  1  0.828538  0.323955  0.625552  1
  Sc  Sc14  1  0.840030  0.501072  0.249971  1
  Sc  Sc15  1  0.340035  0.998994  0.249976  1
  Sc  Sc16  1  0.329850  0.175637  0.874622  1
  Sc  Sc17  1  0.170035  0.675728  0.125302  1
  Sc  Sc18  1  0.670135  0.824258  0.125293  1
  Sc  Sc19  1  0.160199  0.499026  0.751022  1
  Si  Si20  1  0.287919  0.883213  0.750032  1
  Si  Si21  1  0.465259  0.625512  0.249987  1
  Si  Si22  1  0.034629  0.125671  0.750008  1
  Si  Si23  1  0.534333  0.374567  0.749977  1
  Si  Si24  1  0.965277  0.874614  0.249866  1
  Si  Si25  1  0.712062  0.116523  0.249956  1
  Si  Si26  1  0.848576  0.536960  0.039714  1
  Si  Si27  1  0.348607  0.962950  0.039730  1
  Si  Si28  1  0.151375  0.463036  0.960253  1
  Si  Si29  1  0.651491  0.037259  0.539820  1
  Si  Si30  1  0.348383  0.962878  0.460246  1
  Si  Si31  1  0.844702  0.538055  0.459358  1
  Si  Si32  1  0.788206  0.616599  0.749965  1
  Si  Si33  1  0.212086  0.383389  0.250019  1
  Si  Si34  1  0.651317  0.037056  0.960244  1
  Ge  Ge35  1  0.155267  0.461772  0.540360  1
