# generated using pymatgen
data_Y6Er10MgZn3Co4
_symmetry_space_group_name_H-M   'P 1'
_cell_length_a   9.39592671
_cell_length_b   9.36683918
_cell_length_c   9.36683800
_cell_angle_alpha   60.00001121
_cell_angle_beta   60.10236536
_cell_angle_gamma   60.10236496
_symmetry_Int_Tables_number   1
_chemical_formula_structural   Y6Er10MgZn3Co4
_chemical_formula_sum   'Y6 Er10 Mg1 Zn3 Co4'
_cell_volume   583.82268268
_cell_formula_units_Z   1
loop_
 _symmetry_equiv_pos_site_id
 _symmetry_equiv_pos_as_xyz
  1  'x, y, z'
loop_
 _atom_site_type_symbol
 _atom_site_label
 _atom_site_symmetry_multiplicity
 _atom_site_fract_x
 _atom_site_fract_y
 _atom_site_fract_z
 _atom_site_occupancy
  Y  Y0  1  0.935015  0.561014  0.561014  1
  Y  Y1  1  0.559707  0.939021  0.939021  1
  Y  Y2  1  0.559707  0.939021  0.562252  1
  Y  Y3  1  0.935015  0.561014  0.942959  1
  Y  Y4  1  0.559707  0.562252  0.939021  1
  Y  Y5  1  0.935015  0.942959  0.561014  1
  Er  Er6  1  0.348495  0.345987  0.345987  1
  Er  Er7  1  0.348495  0.345987  0.959531  1
  Er  Er8  1  0.348495  0.959531  0.345987  1
  Er  Er9  1  0.949359  0.350213  0.350213  1
  Er  Er10  1  0.808585  0.190317  0.190317  1
  Er  Er11  1  0.186048  0.813132  0.813132  1
  Er  Er12  1  0.186048  0.813132  0.187690  1
  Er  Er13  1  0.808585  0.190317  0.810780  1
  Er  Er14  1  0.186048  0.187690  0.813132  1
  Er  Er15  1  0.808585  0.810780  0.190317  1
  Mg  Mg16  1  0.289294  0.570236  0.570236  1
  Zn  Zn17  1  0.585198  0.577552  0.577552  1
  Zn  Zn18  1  0.585198  0.577552  0.259699  1
  Zn  Zn19  1  0.585198  0.259699  0.577552  1
  Co  Co20  1  0.139072  0.142987  0.142987  1
  Co  Co21  1  0.139072  0.142987  0.574955  1
  Co  Co22  1  0.139072  0.574955  0.142987  1
  Co  Co23  1  0.574998  0.141667  0.141667  1
