# generated using pymatgen
data_Ti2AlSnRh3
_symmetry_space_group_name_H-M   'P 1'
_cell_length_a   7.55836662
_cell_length_b   7.55836594
_cell_length_c   7.55836574
_cell_angle_alpha   33.23092357
_cell_angle_beta   33.23093240
_cell_angle_gamma   33.23091994
_symmetry_Int_Tables_number   1
_chemical_formula_structural   Ti2AlSnRh3
_chemical_formula_sum   'Ti2 Al1 Sn1 Rh3'
_cell_volume   115.44608005
_cell_formula_units_Z   1
loop_
 _symmetry_equiv_pos_site_id
 _symmetry_equiv_pos_as_xyz
  1  'x, y, z'
loop_
 _atom_site_type_symbol
 _atom_site_label
 _atom_site_symmetry_multiplicity
 _atom_site_fract_x
 _atom_site_fract_y
 _atom_site_fract_z
 _atom_site_occupancy
  Ti  Ti0  1  0.752560  0.752560  0.752560  1
  Ti  Ti1  1  0.249549  0.249549  0.249549  1
  Al  Al2  1  0.995498  0.995498  0.995498  1
  Sn  Sn3  1  0.505126  0.505126  0.505126  1
  Rh  Rh4  1  0.119710  0.119710  0.119710  1
  Rh  Rh5  1  0.630410  0.630410  0.630410  1
  Rh  Rh6  1  0.372147  0.372147  0.372147  1
