# generated using pymatgen
data_Nd2Ga2NiRh
_symmetry_space_group_name_H-M   'P 1'
_cell_length_a   4.47200700
_cell_length_b   7.09476600
_cell_length_c   7.54961000
_cell_angle_alpha   90.00000000
_cell_angle_beta   90.00000000
_cell_angle_gamma   90.00000000
_symmetry_Int_Tables_number   1
_chemical_formula_structural   Nd2Ga2NiRh
_chemical_formula_sum   'Nd4 Ga4 Ni2 Rh2'
_cell_volume   239.53284242
_cell_formula_units_Z   2
loop_
 _symmetry_equiv_pos_site_id
 _symmetry_equiv_pos_as_xyz
  1  'x, y, z'
loop_
 _atom_site_type_symbol
 _atom_site_label
 _atom_site_symmetry_multiplicity
 _atom_site_fract_x
 _atom_site_fract_y
 _atom_site_fract_z
 _atom_site_occupancy
  Nd  Nd0  1  0.250000  0.027833  0.809598  1
  Nd  Nd1  1  0.250000  0.527833  0.690402  1
  Nd  Nd2  1  0.750000  0.979074  0.195744  1
  Nd  Nd3  1  0.750000  0.479074  0.304256  1
  Ga  Ga4  1  0.250000  0.172420  0.427074  1
  Ga  Ga5  1  0.250000  0.672420  0.072926  1
  Ga  Ga6  1  0.750000  0.830386  0.588696  1
  Ga  Ga7  1  0.750000  0.330386  0.911304  1
  Ni  Ni8  1  0.750000  0.197242  0.593795  1
  Ni  Ni9  1  0.750000  0.697242  0.906205  1
  Rh  Rh10  1  0.250000  0.793045  0.405107  1
  Rh  Rh11  1  0.250000  0.293045  0.094893  1
