# generated using pymatgen
data_Na(PuB8)3
_symmetry_space_group_name_H-M   'P 1'
_cell_length_a   7.11945913
_cell_length_b   7.11945924
_cell_length_c   5.85461600
_cell_angle_alpha   90.00000000
_cell_angle_beta   90.00000000
_cell_angle_gamma   109.22064240
_symmetry_Int_Tables_number   1
_chemical_formula_structural   Na(PuB8)3
_chemical_formula_sum   'Na1 Pu3 B24'
_cell_volume   280.20960449
_cell_formula_units_Z   1
loop_
 _symmetry_equiv_pos_site_id
 _symmetry_equiv_pos_as_xyz
  1  'x, y, z'
loop_
 _atom_site_type_symbol
 _atom_site_label
 _atom_site_symmetry_multiplicity
 _atom_site_fract_x
 _atom_site_fract_y
 _atom_site_fract_z
 _atom_site_occupancy
  Na  Na0  1  0.000000  0.000000  0.000000  1
  Pu  Pu1  1  0.751850  0.248150  0.500000  1
  Pu  Pu2  1  0.500000  0.500000  0.000000  1
  Pu  Pu3  1  0.248150  0.751850  0.500000  1
  B  B4  1  0.175225  0.325574  0.650062  1
  B  B5  1  0.924073  0.575228  0.149242  1
  B  B6  1  0.674426  0.824775  0.650062  1
  B  B7  1  0.424772  0.075927  0.149242  1
  B  B8  1  0.175225  0.325574  0.349938  1
  B  B9  1  0.924073  0.575228  0.850758  1
  B  B10  1  0.674426  0.824775  0.349938  1
  B  B11  1  0.424772  0.075927  0.850758  1
  B  B12  1  0.400646  0.400646  0.500000  1
  B  B13  1  0.149218  0.651244  0.000000  1
  B  B14  1  0.899684  0.899684  0.500000  1
  B  B15  1  0.651244  0.149218  0.000000  1
  B  B16  1  0.325574  0.175225  0.650062  1
  B  B17  1  0.075927  0.424772  0.149242  1
  B  B18  1  0.824775  0.674426  0.650062  1
  B  B19  1  0.575228  0.924073  0.149242  1
  B  B20  1  0.100316  0.100316  0.500000  1
  B  B21  1  0.850782  0.348756  0.000000  1
  B  B22  1  0.599354  0.599354  0.500000  1
  B  B23  1  0.348756  0.850782  0.000000  1
  B  B24  1  0.325574  0.175225  0.349938  1
  B  B25  1  0.075927  0.424772  0.850758  1
  B  B26  1  0.824775  0.674426  0.349938  1
  B  B27  1  0.575228  0.924073  0.850758  1
