# generated using pymatgen
data_TbCuPdO4
_symmetry_space_group_name_H-M   'P 1'
_cell_length_a   6.38058724
_cell_length_b   6.38058763
_cell_length_c   6.40637890
_cell_angle_alpha   125.50281615
_cell_angle_beta   127.28313961
_cell_angle_gamma   78.97173279
_symmetry_Int_Tables_number   1
_chemical_formula_structural   TbCuPdO4
_chemical_formula_sum   'Tb2 Cu2 Pd2 O8'
_cell_volume   163.67007163
_cell_formula_units_Z   2
loop_
 _symmetry_equiv_pos_site_id
 _symmetry_equiv_pos_as_xyz
  1  'x, y, z'
loop_
 _atom_site_type_symbol
 _atom_site_label
 _atom_site_symmetry_multiplicity
 _atom_site_fract_x
 _atom_site_fract_y
 _atom_site_fract_z
 _atom_site_occupancy
  Tb  Tb0  1  0.749613  0.249613  0.500000  1
  Tb  Tb1  1  0.000387  0.000387  0.000000  1
  Cu  Cu2  1  0.375000  0.625000  0.250000  1
  Cu  Cu3  1  0.375000  0.125000  0.750000  1
  Pd  Pd4  1  0.875000  0.625000  0.250000  1
  Pd  Pd5  1  0.375000  0.625000  0.750000  1
  O  O6  1  0.013437  0.965478  0.366463  1
  O  O7  1  0.693707  0.853255  0.452079  1
  O  O8  1  0.401178  0.241629  0.547921  1
  O  O9  1  0.599016  0.646975  0.633537  1
  O  O10  1  0.736563  0.284522  0.133537  1
  O  O11  1  0.056293  0.396745  0.047921  1
  O  O12  1  0.150984  0.603025  0.866463  1
  O  O13  1  0.348822  0.008371  0.952079  1
