# generated using pymatgen
data_Pr17Sm3Si15Tc
_symmetry_space_group_name_H-M   'P 1'
_cell_length_a   7.92745867
_cell_length_b   7.91879076
_cell_length_c   15.22664057
_cell_angle_alpha   90.11934230
_cell_angle_beta   89.98397770
_cell_angle_gamma   90.23877344
_symmetry_Int_Tables_number   1
_chemical_formula_structural   Pr17Sm3Si15Tc
_chemical_formula_sum   'Pr17 Sm3 Si15 Tc1'
_cell_volume   955.85545131
_cell_formula_units_Z   1
loop_
 _symmetry_equiv_pos_site_id
 _symmetry_equiv_pos_as_xyz
  1  'x, y, z'
loop_
 _atom_site_type_symbol
 _atom_site_label
 _atom_site_symmetry_multiplicity
 _atom_site_fract_x
 _atom_site_fract_y
 _atom_site_fract_z
 _atom_site_occupancy
  Pr  Pr0  1  0.696057  0.689872  0.502501  1
  Pr  Pr1  1  0.370888  0.012117  0.451178  1
  Pr  Pr2  1  0.484543  0.881516  0.696560  1
  Pr  Pr3  1  0.511063  0.123950  0.198980  1
  Pr  Pr4  1  0.876225  0.488399  0.300688  1
  Pr  Pr5  1  0.128132  0.502681  0.798133  1
  Pr  Pr6  1  0.625976  0.988495  0.949013  1
  Pr  Pr7  1  0.007433  0.377458  0.551513  1
  Pr  Pr8  1  0.988826  0.625421  0.050810  1
  Pr  Pr9  1  0.131385  0.983213  0.872248  1
  Pr  Pr10  1  0.517063  0.629566  0.126414  1
  Pr  Pr11  1  0.472524  0.361393  0.629011  1
  Pr  Pr12  1  0.628176  0.516152  0.875160  1
  Pr  Pr13  1  0.374987  0.483003  0.373446  1
  Pr  Pr14  1  0.873128  0.020497  0.376404  1
  Pr  Pr15  1  0.982065  0.127411  0.124227  1
  Pr  Pr16  1  0.025158  0.881328  0.627396  1
  Sm  Sm17  1  0.307569  0.306349  0.997920  1
  Sm  Sm18  1  0.191075  0.809574  0.250520  1
  Sm  Sm19  1  0.822253  0.189880  0.748760  1
  Si  Si20  1  0.332056  0.693096  0.952128  1
  Si  Si21  1  0.664640  0.301877  0.451059  1
  Si  Si22  1  0.695493  0.332675  0.049670  1
  Si  Si23  1  0.303416  0.668668  0.546817  1
  Si  Si24  1  0.807207  0.831523  0.203145  1
  Si  Si25  1  0.168692  0.195522  0.297394  1
  Si  Si26  1  0.830256  0.803609  0.799550  1
  Si  Si27  1  0.288304  0.922823  0.059754  1
  Si  Si28  1  0.577851  0.788085  0.310196  1
  Si  Si29  1  0.422514  0.211229  0.813316  1
  Si  Si30  1  0.779269  0.581072  0.692241  1
  Si  Si31  1  0.212141  0.423170  0.189028  1
  Si  Si32  1  0.706148  0.076190  0.559734  1
  Si  Si33  1  0.921594  0.287020  0.940481  1
  Si  Si34  1  0.080091  0.715531  0.439025  1
  Tc  Tc35  1  0.195801  0.169632  0.695578  1
