# generated using pymatgen
data_Y5HgIO12
_symmetry_space_group_name_H-M   'P 1'
_cell_length_a   6.58993950
_cell_length_b   6.44716052
_cell_length_c   6.61970921
_cell_angle_alpha   98.42572736
_cell_angle_beta   99.51121837
_cell_angle_gamma   96.46714754
_symmetry_Int_Tables_number   1
_chemical_formula_structural   Y5HgIO12
_chemical_formula_sum   'Y5 Hg1 I1 O12'
_cell_volume   271.67480783
_cell_formula_units_Z   1
loop_
 _symmetry_equiv_pos_site_id
 _symmetry_equiv_pos_as_xyz
  1  'x, y, z'
loop_
 _atom_site_type_symbol
 _atom_site_label
 _atom_site_symmetry_multiplicity
 _atom_site_fract_x
 _atom_site_fract_y
 _atom_site_fract_z
 _atom_site_occupancy
  Y  Y0  1  0.394480  0.695033  0.856952  1
  Y  Y1  1  0.857202  0.384362  0.677450  1
  Y  Y2  1  0.678599  0.850160  0.386453  1
  Y  Y3  1  0.609509  0.316840  0.136779  1
  Y  Y4  1  0.145138  0.606235  0.317715  1
  Hg  Hg5  1  0.323630  0.151672  0.592041  1
  I  I6  1  0.991598  0.991617  0.001647  1
  O  O7  1  0.188027  0.437660  0.602962  1
  O  O8  1  0.633276  0.180858  0.422130  1
  O  O9  1  0.428508  0.597542  0.177210  1
  O  O10  1  0.828633  0.563930  0.398690  1
  O  O11  1  0.398108  0.831345  0.562020  1
  O  O12  1  0.601908  0.446565  0.838534  1
  O  O13  1  0.907633  0.021846  0.720085  1
  O  O14  1  0.966870  0.286756  0.076387  1
  O  O15  1  0.281542  0.058501  0.002348  1
  O  O16  1  0.036365  0.942211  0.282230  1
  O  O17  1  0.031816  0.701044  0.923382  1
  O  O18  1  0.697157  0.935823  0.024985  1
