# generated using pymatgen
data_Ac4Ga10CuPt5
_symmetry_space_group_name_H-M   'P 1'
_cell_length_a   8.88167757
_cell_length_b   8.88167752
_cell_length_c   8.88167600
_cell_angle_alpha   139.49951752
_cell_angle_beta   106.46361318
_cell_angle_gamma   87.48924338
_symmetry_Int_Tables_number   1
_chemical_formula_structural   Ac4Ga10CuPt5
_chemical_formula_sum   'Ac4 Ga10 Cu1 Pt5'
_cell_volume   419.45893274
_cell_formula_units_Z   1
loop_
 _symmetry_equiv_pos_site_id
 _symmetry_equiv_pos_as_xyz
  1  'x, y, z'
loop_
 _atom_site_type_symbol
 _atom_site_label
 _atom_site_symmetry_multiplicity
 _atom_site_fract_x
 _atom_site_fract_y
 _atom_site_fract_z
 _atom_site_occupancy
  Ac  Ac0  1  0.862492  0.629998  0.223591  1
  Ac  Ac1  1  0.137508  0.361100  0.767507  1
  Ac  Ac2  1  0.406408  0.138900  0.276409  1
  Ac  Ac3  1  0.593592  0.870002  0.732493  1
  Ga  Ga4  1  0.500000  0.750000  0.250000  1
  Ga  Ga5  1  0.500000  0.250000  0.750000  1
  Ga  Ga6  1  0.222181  0.972181  0.750000  1
  Ga  Ga7  1  0.777819  0.527819  0.750000  1
  Ga  Ga8  1  0.781436  0.031436  0.250000  1
  Ga  Ga9  1  0.218564  0.468564  0.250000  1
  Ga  Ga10  1  0.047632  0.890034  0.142266  1
  Ga  Ga11  1  0.952368  0.094633  0.842402  1
  Ga  Ga12  1  0.747767  0.405367  0.357734  1
  Ga  Ga13  1  0.252233  0.609966  0.657598  1
  Cu  Cu14  1  0.000000  0.750000  0.750000  1
  Pt  Pt15  1  0.000000  0.250000  0.250000  1
  Pt  Pt16  1  0.251836  0.856080  0.386740  1
  Pt  Pt17  1  0.748164  0.134902  0.604241  1
  Pt  Pt18  1  0.469339  0.365098  0.113260  1
  Pt  Pt19  1  0.530661  0.643920  0.895759  1
