# generated using pymatgen
data_CaLa6ReBr12
_symmetry_space_group_name_H-M   'P 1'
_cell_length_a   9.58090794
_cell_length_b   9.90627950
_cell_length_c   9.75221032
_cell_angle_alpha   107.70519763
_cell_angle_beta   106.84393051
_cell_angle_gamma   106.89799645
_symmetry_Int_Tables_number   1
_chemical_formula_structural   CaLa6ReBr12
_chemical_formula_sum   'Ca1 La6 Re1 Br12'
_cell_volume   767.64544503
_cell_formula_units_Z   1
loop_
 _symmetry_equiv_pos_site_id
 _symmetry_equiv_pos_as_xyz
  1  'x, y, z'
loop_
 _atom_site_type_symbol
 _atom_site_label
 _atom_site_symmetry_multiplicity
 _atom_site_fract_x
 _atom_site_fract_y
 _atom_site_fract_z
 _atom_site_occupancy
  Ca  Ca0  1  0.500000  0.500000  0.500000  1
  La  La1  1  0.305581  0.104021  0.025518  1
  La  La2  1  0.024606  0.328347  0.116047  1
  La  La3  1  0.110847  0.028119  0.315806  1
  La  La4  1  0.889152  0.971881  0.684194  1
  La  La5  1  0.975394  0.671653  0.883952  1
  La  La6  1  0.694419  0.895979  0.974481  1
  Re  Re7  1  0.000000  0.000000  0.000000  1
  Br  Br8  1  0.680431  0.216150  0.069807  1
  Br  Br9  1  0.378515  0.456795  0.171828  1
  Br  Br10  1  0.071766  0.686558  0.216447  1
  Br  Br11  1  0.782023  0.928452  0.316240  1
  Br  Br12  1  0.463769  0.175845  0.382136  1
  Br  Br13  1  0.168513  0.379001  0.461557  1
  Br  Br14  1  0.831488  0.620999  0.538444  1
  Br  Br15  1  0.536231  0.824156  0.617864  1
  Br  Br16  1  0.217976  0.071548  0.683760  1
  Br  Br17  1  0.928234  0.313442  0.783552  1
  Br  Br18  1  0.621486  0.543206  0.828172  1
  Br  Br19  1  0.319569  0.783849  0.930193  1
