# generated using pymatgen
data_SmY9(In2Pd)4
_symmetry_space_group_name_H-M   'P 1'
_cell_length_a   3.64806800
_cell_length_b   8.17309634
_cell_length_c   18.42038079
_cell_angle_alpha   90.03318272
_cell_angle_beta   90.00000000
_cell_angle_gamma   90.00000000
_symmetry_Int_Tables_number   1
_chemical_formula_structural   SmY9(In2Pd)4
_chemical_formula_sum   'Sm1 Y9 In8 Pd4'
_cell_volume   549.22218784
_cell_formula_units_Z   1
loop_
 _symmetry_equiv_pos_site_id
 _symmetry_equiv_pos_as_xyz
  1  'x, y, z'
loop_
 _atom_site_type_symbol
 _atom_site_label
 _atom_site_symmetry_multiplicity
 _atom_site_fract_x
 _atom_site_fract_y
 _atom_site_fract_z
 _atom_site_occupancy
  Sm  Sm0  1  0.500000  0.000000  0.000000  1
  Y  Y1  1  0.500000  0.240739  0.781011  1
  Y  Y2  1  0.500000  0.759261  0.218989  1
  Y  Y3  1  0.500000  0.259321  0.281175  1
  Y  Y4  1  0.500000  0.740679  0.718825  1
  Y  Y5  1  0.500000  0.118849  0.582763  1
  Y  Y6  1  0.500000  0.881151  0.417237  1
  Y  Y7  1  0.500000  0.379881  0.082741  1
  Y  Y8  1  0.500000  0.620119  0.917259  1
  Y  Y9  1  0.500000  0.500000  0.500000  1
  In  In10  1  0.000000  0.080293  0.151946  1
  In  In11  1  0.000000  0.919707  0.848054  1
  In  In12  1  0.000000  0.420162  0.650915  1
  In  In13  1  0.000000  0.579838  0.349085  1
  In  In14  1  0.000000  0.207709  0.431928  1
  In  In15  1  0.000000  0.792291  0.568072  1
  In  In16  1  0.000000  0.294985  0.931257  1
  In  In17  1  0.000000  0.705015  0.068743  1
  Pd  Pd18  1  0.000000  0.025165  0.695481  1
  Pd  Pd19  1  0.000000  0.974835  0.304519  1
  Pd  Pd20  1  0.000000  0.474742  0.195912  1
  Pd  Pd21  1  0.000000  0.525258  0.804088  1
