# generated using pymatgen
data_Mn7Nb4Ge
_symmetry_space_group_name_H-M   'P 1'
_cell_length_a   4.83510200
_cell_length_b   4.83510099
_cell_length_c   7.97935400
_cell_angle_alpha   90.00000000
_cell_angle_beta   90.00000000
_cell_angle_gamma   120.00000688
_symmetry_Int_Tables_number   1
_chemical_formula_structural   Mn7Nb4Ge
_chemical_formula_sum   'Mn7 Nb4 Ge1'
_cell_volume   161.55095307
_cell_formula_units_Z   1
loop_
 _symmetry_equiv_pos_site_id
 _symmetry_equiv_pos_as_xyz
  1  'x, y, z'
loop_
 _atom_site_type_symbol
 _atom_site_label
 _atom_site_symmetry_multiplicity
 _atom_site_fract_x
 _atom_site_fract_y
 _atom_site_fract_z
 _atom_site_occupancy
  Mn  Mn0  1  0.172374  0.344748  0.745258  1
  Mn  Mn1  1  0.827626  0.172374  0.254742  1
  Mn  Mn2  1  0.344748  0.172374  0.254742  1
  Mn  Mn3  1  0.655252  0.827626  0.745258  1
  Mn  Mn4  1  0.000000  0.000000  0.500000  1
  Mn  Mn5  1  0.827626  0.655252  0.254742  1
  Mn  Mn6  1  0.172374  0.827626  0.745258  1
  Nb  Nb7  1  0.333333  0.666667  0.439885  1
  Nb  Nb8  1  0.666667  0.333333  0.928978  1
  Nb  Nb9  1  0.666667  0.333333  0.560115  1
  Nb  Nb10  1  0.333333  0.666667  0.071022  1
  Ge  Ge11  1  0.000000  0.000000  0.000000  1
