# generated using pymatgen
data_Nd7Er(Si3Au)4
_symmetry_space_group_name_H-M   'P 1'
_cell_length_a   8.28391800
_cell_length_b   8.28391840
_cell_length_c   8.64379000
_cell_angle_alpha   90.00000000
_cell_angle_beta   90.00000000
_cell_angle_gamma   119.95807017
_symmetry_Int_Tables_number   1
_chemical_formula_structural   Nd7Er(Si3Au)4
_chemical_formula_sum   'Nd7 Er1 Si12 Au4'
_cell_volume   513.91321151
_cell_formula_units_Z   1
loop_
 _symmetry_equiv_pos_site_id
 _symmetry_equiv_pos_as_xyz
  1  'x, y, z'
loop_
 _atom_site_type_symbol
 _atom_site_label
 _atom_site_symmetry_multiplicity
 _atom_site_fract_x
 _atom_site_fract_y
 _atom_site_fract_z
 _atom_site_occupancy
  Nd  Nd0  1  0.500113  0.499887  0.250000  1
  Nd  Nd1  1  0.000097  0.500044  0.750000  1
  Nd  Nd2  1  0.999913  0.499985  0.250000  1
  Nd  Nd3  1  0.499956  0.999903  0.750000  1
  Nd  Nd4  1  0.500015  0.000087  0.250000  1
  Nd  Nd5  1  0.999995  0.000005  0.750000  1
  Nd  Nd6  1  0.000016  0.999984  0.250000  1
  Er  Er7  1  0.499809  0.500191  0.750000  1
  Si  Si8  1  0.835619  0.164381  0.999588  1
  Si  Si9  1  0.164393  0.835607  0.000530  1
  Si  Si10  1  0.328141  0.164384  0.998032  1
  Si  Si11  1  0.164393  0.835607  0.499470  1
  Si  Si12  1  0.671883  0.835632  0.999028  1
  Si  Si13  1  0.835619  0.164381  0.500412  1
  Si  Si14  1  0.835616  0.671859  0.998032  1
  Si  Si15  1  0.671883  0.835632  0.500972  1
  Si  Si16  1  0.164368  0.328117  0.999028  1
  Si  Si17  1  0.328141  0.164384  0.501968  1
  Si  Si18  1  0.164368  0.328117  0.500972  1
  Si  Si19  1  0.835616  0.671859  0.501968  1
  Au  Au20  1  0.665277  0.334723  0.995512  1
  Au  Au21  1  0.334747  0.665253  0.995669  1
  Au  Au22  1  0.334747  0.665253  0.504331  1
  Au  Au23  1  0.665277  0.334723  0.504488  1
