# generated using pymatgen
data_Sr2Al16Pt8Rh
_symmetry_space_group_name_H-M   'P 1'
_cell_length_a   11.18664100
_cell_length_b   11.18664191
_cell_length_c   11.18664200
_cell_angle_alpha   158.39708788
_cell_angle_beta   115.71428521
_cell_angle_gamma   68.67599608
_symmetry_Int_Tables_number   1
_chemical_formula_structural   Sr2Al16Pt8Rh
_chemical_formula_sum   'Sr2 Al16 Pt8 Rh1'
_cell_volume   461.01625072
_cell_formula_units_Z   1
loop_
 _symmetry_equiv_pos_site_id
 _symmetry_equiv_pos_as_xyz
  1  'x, y, z'
loop_
 _atom_site_type_symbol
 _atom_site_label
 _atom_site_symmetry_multiplicity
 _atom_site_fract_x
 _atom_site_fract_y
 _atom_site_fract_z
 _atom_site_occupancy
  Sr  Sr0  1  0.228585  0.228531  0.000055  1
  Sr  Sr1  1  0.771524  0.771469  0.000055  1
  Al  Al2  1  0.276091  0.393037  0.883054  1
  Al  Al3  1  0.092041  0.922415  0.169625  1
  Al  Al4  1  0.507040  0.203648  0.303391  1
  Al  Al5  1  0.247209  0.077585  0.169625  1
  Al  Al6  1  0.913208  0.416446  0.496762  1
  Al  Al7  1  0.722166  0.601685  0.120481  1
  Al  Al8  1  0.901430  0.205819  0.695612  1
  Al  Al9  1  0.489793  0.794181  0.695612  1
  Al  Al10  1  0.386014  0.000000  0.386014  1
  Al  Al11  1  0.622237  0.000000  0.622237  1
  Al  Al12  1  0.490017  0.606963  0.883054  1
  Al  Al13  1  0.099743  0.796352  0.303391  1
  Al  Al14  1  0.903581  0.080025  0.823555  1
  Al  Al15  1  0.743530  0.919975  0.823555  1
  Al  Al16  1  0.518796  0.398315  0.120481  1
  Al  Al17  1  0.080316  0.583554  0.496762  1
  Pt  Pt18  1  0.030617  0.342687  0.687929  1
  Pt  Pt19  1  0.622939  0.121736  0.501203  1
  Pt  Pt20  1  0.252629  0.500000  0.752629  1
  Pt  Pt21  1  0.379467  0.878264  0.501203  1
  Pt  Pt22  1  0.994006  0.000000  0.994006  1
  Pt  Pt23  1  0.649109  0.340224  0.308885  1
  Pt  Pt24  1  0.345241  0.657313  0.687929  1
  Pt  Pt25  1  0.968660  0.659776  0.308885  1
  Rh  Rh26  1  0.764012  0.500000  0.264012  1
