# generated using pymatgen
data_Nd4TlCdIrAu3
_symmetry_space_group_name_H-M   'P 1'
_cell_length_a   3.88959100
_cell_length_b   8.05369727
_cell_length_c   8.05940400
_cell_angle_alpha   90.19630307
_cell_angle_beta   90.00000000
_cell_angle_gamma   90.00000000
_symmetry_Int_Tables_number   1
_chemical_formula_structural   Nd4TlCdIrAu3
_chemical_formula_sum   'Nd4 Tl1 Cd1 Ir1 Au3'
_cell_volume   252.46409079
_cell_formula_units_Z   1
loop_
 _symmetry_equiv_pos_site_id
 _symmetry_equiv_pos_as_xyz
  1  'x, y, z'
loop_
 _atom_site_type_symbol
 _atom_site_label
 _atom_site_symmetry_multiplicity
 _atom_site_fract_x
 _atom_site_fract_y
 _atom_site_fract_z
 _atom_site_occupancy
  Nd  Nd0  1  0.500000  0.169787  0.670636  1
  Nd  Nd1  1  0.500000  0.813781  0.312228  1
  Nd  Nd2  1  0.500000  0.348155  0.179845  1
  Nd  Nd3  1  0.500000  0.679279  0.848759  1
  Tl  Tl4  1  0.000000  0.000401  0.002013  1
  Cd  Cd5  1  0.000000  0.502045  0.500065  1
  Ir  Ir6  1  0.000000  0.619679  0.125826  1
  Au  Au7  1  0.000000  0.375303  0.867712  1
  Au  Au8  1  0.000000  0.865004  0.619554  1
  Au  Au9  1  0.000000  0.126562  0.373362  1
