# generated using pymatgen
data_Er20Mg3Ni2Pd3
_symmetry_space_group_name_H-M   'P 1'
_cell_length_a   9.47809900
_cell_length_b   9.47809917
_cell_length_c   9.46337400
_cell_angle_alpha   90.00000000
_cell_angle_beta   90.00000000
_cell_angle_gamma   119.99999591
_symmetry_Int_Tables_number   1
_chemical_formula_structural   Er20Mg3Ni2Pd3
_chemical_formula_sum   'Er20 Mg3 Ni2 Pd3'
_cell_volume   736.23954873
_cell_formula_units_Z   1
loop_
 _symmetry_equiv_pos_site_id
 _symmetry_equiv_pos_as_xyz
  1  'x, y, z'
loop_
 _atom_site_type_symbol
 _atom_site_label
 _atom_site_symmetry_multiplicity
 _atom_site_fract_x
 _atom_site_fract_y
 _atom_site_fract_z
 _atom_site_occupancy
  Er  Er0  1  0.000000  0.000000  0.441181  1
  Er  Er1  1  0.000000  0.000000  0.058819  1
  Er  Er2  1  0.542845  0.457155  0.250000  1
  Er  Er3  1  0.542845  0.085691  0.250000  1
  Er  Er4  1  0.914309  0.457155  0.250000  1
  Er  Er5  1  0.456958  0.543042  0.750000  1
  Er  Er6  1  0.456958  0.913915  0.750000  1
  Er  Er7  1  0.086085  0.543042  0.750000  1
  Er  Er8  1  0.210253  0.789747  0.437235  1
  Er  Er9  1  0.210253  0.420507  0.437235  1
  Er  Er10  1  0.579493  0.789747  0.437235  1
  Er  Er11  1  0.790136  0.209864  0.557832  1
  Er  Er12  1  0.790136  0.580271  0.557832  1
  Er  Er13  1  0.419729  0.209864  0.557832  1
  Er  Er14  1  0.790136  0.209864  0.942168  1
  Er  Er15  1  0.790136  0.580271  0.942168  1
  Er  Er16  1  0.419729  0.209864  0.942168  1
  Er  Er17  1  0.210253  0.789747  0.062765  1
  Er  Er18  1  0.210253  0.420507  0.062765  1
  Er  Er19  1  0.579493  0.789747  0.062765  1
  Mg  Mg20  1  0.106349  0.893651  0.750000  1
  Mg  Mg21  1  0.106349  0.212700  0.750000  1
  Mg  Mg22  1  0.787300  0.893651  0.750000  1
  Ni  Ni23  1  0.333333  0.666667  0.250000  1
  Ni  Ni24  1  0.666667  0.333333  0.750000  1
  Pd  Pd25  1  0.867396  0.132604  0.250000  1
  Pd  Pd26  1  0.867396  0.734791  0.250000  1
  Pd  Pd27  1  0.265209  0.132604  0.250000  1
