# generated using pymatgen
data_Sm2AlPt6
_symmetry_space_group_name_H-M   'P 1'
_cell_length_a   6.88772994
_cell_length_b   6.88772959
_cell_length_c   6.88773051
_cell_angle_alpha   48.64916556
_cell_angle_beta   48.64916715
_cell_angle_gamma   48.64916400
_symmetry_Int_Tables_number   1
_chemical_formula_structural   Sm2AlPt6
_chemical_formula_sum   'Sm2 Al1 Pt6'
_cell_volume   168.93600490
_cell_formula_units_Z   1
loop_
 _symmetry_equiv_pos_site_id
 _symmetry_equiv_pos_as_xyz
  1  'x, y, z'
loop_
 _atom_site_type_symbol
 _atom_site_label
 _atom_site_symmetry_multiplicity
 _atom_site_fract_x
 _atom_site_fract_y
 _atom_site_fract_z
 _atom_site_occupancy
  Sm  Sm0  1  0.218051  0.218051  0.218051  1
  Sm  Sm1  1  0.781949  0.781949  0.781949  1
  Al  Al2  1  0.500000  0.500000  0.500000  1
  Pt  Pt3  1  0.733510  0.228979  0.228980  1
  Pt  Pt4  1  0.228979  0.733510  0.228980  1
  Pt  Pt5  1  0.771021  0.771021  0.266489  1
  Pt  Pt6  1  0.228979  0.228979  0.733511  1
  Pt  Pt7  1  0.771021  0.266490  0.771020  1
  Pt  Pt8  1  0.266490  0.771021  0.771020  1
