# generated using pymatgen
data_HoEr2Sn3Ir2Rh
_symmetry_space_group_name_H-M   'P 1'
_cell_length_a   7.66082125
_cell_length_b   7.66082029
_cell_length_c   3.70998100
_cell_angle_alpha   90.00000000
_cell_angle_beta   90.00000000
_cell_angle_gamma   120.06558243
_symmetry_Int_Tables_number   1
_chemical_formula_structural   HoEr2Sn3Ir2Rh
_chemical_formula_sum   'Ho1 Er2 Sn3 Ir2 Rh1'
_cell_volume   188.43672051
_cell_formula_units_Z   1
loop_
 _symmetry_equiv_pos_site_id
 _symmetry_equiv_pos_as_xyz
  1  'x, y, z'
loop_
 _atom_site_type_symbol
 _atom_site_label
 _atom_site_symmetry_multiplicity
 _atom_site_fract_x
 _atom_site_fract_y
 _atom_site_fract_z
 _atom_site_occupancy
  Ho  Ho0  1  0.403636  0.403636  0.000000  1
  Er  Er1  1  0.000011  0.596428  0.000000  1
  Er  Er2  1  0.596428  0.000011  0.000000  1
  Sn  Sn3  1  0.734585  0.734585  0.500000  1
  Sn  Sn4  1  0.999456  0.265692  0.500000  1
  Sn  Sn5  1  0.265692  0.999456  0.500000  1
  Ir  Ir6  1  0.667314  0.333156  0.500000  1
  Ir  Ir7  1  0.333156  0.667314  0.500000  1
  Rh  Rh8  1  0.999722  0.999722  0.000000  1
