# generated using pymatgen
data_NaPr7(Ho3Sn4)4
_symmetry_space_group_name_H-M   'P 1'
_cell_length_a   8.07807124
_cell_length_b   8.33701606
_cell_length_c   15.71809700
_cell_angle_alpha   90.01504381
_cell_angle_beta   90.08183623
_cell_angle_gamma   89.78484285
_symmetry_Int_Tables_number   1
_chemical_formula_structural   NaPr7(Ho3Sn4)4
_chemical_formula_sum   'Na1 Pr7 Ho12 Sn16'
_cell_volume   1058.55825178
_cell_formula_units_Z   1
loop_
 _symmetry_equiv_pos_site_id
 _symmetry_equiv_pos_as_xyz
  1  'x, y, z'
loop_
 _atom_site_type_symbol
 _atom_site_label
 _atom_site_symmetry_multiplicity
 _atom_site_fract_x
 _atom_site_fract_y
 _atom_site_fract_z
 _atom_site_occupancy
  Na  Na0  1  0.680831  0.001296  0.250246  1
  Pr  Pr1  1  0.993598  0.822084  0.901335  1
  Pr  Pr2  1  0.506802  0.317164  0.096768  1
  Pr  Pr3  1  0.001205  0.177863  0.405547  1
  Pr  Pr4  1  0.508328  0.318472  0.404070  1
  Pr  Pr5  1  0.002073  0.176840  0.095413  1
  Pr  Pr6  1  0.494300  0.676347  0.903561  1
  Pr  Pr7  1  0.994395  0.821165  0.596950  1
  Ho  Ho8  1  0.652272  0.169394  0.626337  1
  Ho  Ho9  1  0.153851  0.334671  0.875527  1
  Ho  Ho10  1  0.352223  0.833234  0.124592  1
  Ho  Ho11  1  0.848690  0.669293  0.377741  1
  Ho  Ho12  1  0.353843  0.832058  0.375577  1
  Ho  Ho13  1  0.847209  0.670603  0.123283  1
  Ho  Ho14  1  0.652355  0.168059  0.872986  1
  Ho  Ho15  1  0.152969  0.336078  0.622871  1
  Ho  Ho16  1  0.491155  0.677079  0.598549  1
  Ho  Ho17  1  0.817210  0.501095  0.748597  1
  Ho  Ho18  1  0.318657  0.001382  0.749324  1
  Ho  Ho19  1  0.181768  0.500556  0.250674  1
  Sn  Sn20  1  0.681472  0.955634  0.464718  1
  Sn  Sn21  1  0.185363  0.539033  0.042238  1
  Sn  Sn22  1  0.317249  0.039929  0.959174  1
  Sn  Sn23  1  0.806015  0.464205  0.542969  1
  Sn  Sn24  1  0.319780  0.036937  0.541548  1
  Sn  Sn25  1  0.815191  0.459443  0.958395  1
  Sn  Sn26  1  0.683498  0.957828  0.035924  1
  Sn  Sn27  1  0.191572  0.540870  0.459037  1
  Sn  Sn28  1  0.452801  0.380539  0.749667  1
  Sn  Sn29  1  0.955827  0.123614  0.749358  1
  Sn  Sn30  1  0.549505  0.614696  0.249734  1
  Sn  Sn31  1  0.049218  0.878165  0.250581  1
  Sn  Sn32  1  0.682775  0.855062  0.747737  1
  Sn  Sn33  1  0.188199  0.643045  0.748483  1
  Sn  Sn34  1  0.302932  0.139785  0.250377  1
  Sn  Sn35  1  0.814869  0.366479  0.250113  1
