# generated using pymatgen
data_LaIn(ReH9)2
_symmetry_space_group_name_H-M   'P 1'
_cell_length_a   4.96898600
_cell_length_b   4.96898541
_cell_length_c   9.88230100
_cell_angle_alpha   90.00000000
_cell_angle_beta   90.00000000
_cell_angle_gamma   119.99999063
_symmetry_Int_Tables_number   1
_chemical_formula_structural   LaIn(ReH9)2
_chemical_formula_sum   'La1 In1 Re2 H18'
_cell_volume   211.31204105
_cell_formula_units_Z   1
loop_
 _symmetry_equiv_pos_site_id
 _symmetry_equiv_pos_as_xyz
  1  'x, y, z'
loop_
 _atom_site_type_symbol
 _atom_site_label
 _atom_site_symmetry_multiplicity
 _atom_site_fract_x
 _atom_site_fract_y
 _atom_site_fract_z
 _atom_site_occupancy
  La  La0  1  0.000000  0.000000  0.500000  1
  In  In1  1  0.000000  0.000000  0.000000  1
  Re  Re2  1  0.333333  0.666667  0.281229  1
  Re  Re3  1  0.666667  0.333333  0.718771  1
  H  H4  1  0.481217  0.518783  0.400378  1
  H  H5  1  0.481217  0.962434  0.400378  1
  H  H6  1  0.037566  0.518783  0.400378  1
  H  H7  1  0.935225  0.467612  0.842959  1
  H  H8  1  0.138412  0.276826  0.268802  1
  H  H9  1  0.861588  0.138412  0.731198  1
  H  H10  1  0.276826  0.138412  0.731198  1
  H  H11  1  0.723174  0.861588  0.268802  1
  H  H12  1  0.138412  0.861588  0.268802  1
  H  H13  1  0.861588  0.723174  0.731198  1
  H  H14  1  0.467612  0.935225  0.157041  1
  H  H15  1  0.518783  0.481217  0.599622  1
  H  H16  1  0.962434  0.481217  0.599622  1
  H  H17  1  0.064775  0.532388  0.157041  1
  H  H18  1  0.467612  0.532388  0.157041  1
  H  H19  1  0.532388  0.064775  0.842959  1
  H  H20  1  0.532388  0.467612  0.842959  1
  H  H21  1  0.518783  0.037566  0.599622  1
