# generated using pymatgen
data_DyHoCo9CuP6
_symmetry_space_group_name_H-M   'P 1'
_cell_length_a   3.67087900
_cell_length_b   10.25742100
_cell_length_c   11.80463800
_cell_angle_alpha   90.00000000
_cell_angle_beta   90.00000000
_cell_angle_gamma   90.00000000
_symmetry_Int_Tables_number   1
_chemical_formula_structural   DyHoCo9CuP6
_chemical_formula_sum   'Dy2 Ho2 Co18 Cu2 P12'
_cell_volume   444.48890395
_cell_formula_units_Z   2
loop_
 _symmetry_equiv_pos_site_id
 _symmetry_equiv_pos_as_xyz
  1  'x, y, z'
loop_
 _atom_site_type_symbol
 _atom_site_label
 _atom_site_symmetry_multiplicity
 _atom_site_fract_x
 _atom_site_fract_y
 _atom_site_fract_z
 _atom_site_occupancy
  Dy  Dy0  1  0.750000  0.418094  0.296936  1
  Dy  Dy1  1  0.750000  0.081906  0.796936  1
  Ho  Ho2  1  0.250000  0.579342  0.701780  1
  Ho  Ho3  1  0.250000  0.920658  0.201780  1
  Co  Co4  1  0.750000  0.287133  0.008830  1
  Co  Co5  1  0.750000  0.212867  0.508830  1
  Co  Co6  1  0.250000  0.405033  0.487261  1
  Co  Co7  1  0.250000  0.094967  0.987261  1
  Co  Co8  1  0.750000  0.592038  0.515242  1
  Co  Co9  1  0.750000  0.907962  0.015242  1
  Co  Co10  1  0.250000  0.222633  0.175466  1
  Co  Co11  1  0.250000  0.277367  0.675466  1
  Co  Co12  1  0.750000  0.778040  0.825817  1
  Co  Co13  1  0.750000  0.721960  0.325817  1
  Co  Co14  1  0.250000  0.881726  0.698508  1
  Co  Co15  1  0.250000  0.618274  0.198508  1
  Co  Co16  1  0.750000  0.119901  0.300093  1
  Co  Co17  1  0.750000  0.380099  0.800093  1
  Co  Co18  1  0.250000  0.465812  0.931562  1
  Co  Co19  1  0.250000  0.034188  0.431562  1
  Co  Co20  1  0.750000  0.534366  0.066444  1
  Co  Co21  1  0.750000  0.965634  0.566444  1
  Cu  Cu22  1  0.250000  0.712117  0.990688  1
  Cu  Cu23  1  0.250000  0.787883  0.490688  1
  P  P24  1  0.250000  0.420148  0.111697  1
  P  P25  1  0.250000  0.079852  0.611697  1
  P  P26  1  0.750000  0.576557  0.883901  1
  P  P27  1  0.750000  0.923443  0.383901  1
  P  P28  1  0.250000  0.269403  0.868177  1
  P  P29  1  0.250000  0.230597  0.368177  1
  P  P30  1  0.750000  0.729989  0.138489  1
  P  P31  1  0.750000  0.770011  0.638489  1
  P  P32  1  0.250000  0.598888  0.391329  1
  P  P33  1  0.250000  0.901112  0.891329  1
  P  P34  1  0.750000  0.396353  0.607784  1
  P  P35  1  0.750000  0.103647  0.107784  1
