# generated using pymatgen
data_Rb8Ho6GaBr20
_symmetry_space_group_name_H-M   'P 1'
_cell_length_a   12.35242848
_cell_length_b   12.35242868
_cell_length_c   12.35242900
_cell_angle_alpha   60.00000183
_cell_angle_beta   60.00000128
_cell_angle_gamma   60.00000140
_symmetry_Int_Tables_number   1
_chemical_formula_structural   Rb8Ho6GaBr20
_chemical_formula_sum   'Rb8 Ho6 Ga1 Br20'
_cell_volume   1332.72973179
_cell_formula_units_Z   1
loop_
 _symmetry_equiv_pos_site_id
 _symmetry_equiv_pos_as_xyz
  1  'x, y, z'
loop_
 _atom_site_type_symbol
 _atom_site_label
 _atom_site_symmetry_multiplicity
 _atom_site_fract_x
 _atom_site_fract_y
 _atom_site_fract_z
 _atom_site_occupancy
  Rb  Rb0  1  0.358643  0.358643  0.358643  1
  Rb  Rb1  1  0.641357  0.641357  0.641357  1
  Rb  Rb2  1  0.358643  0.358643  0.924069  1
  Rb  Rb3  1  0.358643  0.924069  0.358643  1
  Rb  Rb4  1  0.641357  0.641357  0.075931  1
  Rb  Rb5  1  0.641357  0.075931  0.641357  1
  Rb  Rb6  1  0.924069  0.358643  0.358643  1
  Rb  Rb7  1  0.075931  0.641357  0.641357  1
  Ho  Ho8  1  0.841236  0.158764  0.158764  1
  Ho  Ho9  1  0.158764  0.841236  0.841236  1
  Ho  Ho10  1  0.158764  0.841236  0.158764  1
  Ho  Ho11  1  0.841236  0.158764  0.841236  1
  Ho  Ho12  1  0.158764  0.158764  0.841236  1
  Ho  Ho13  1  0.841236  0.841236  0.158764  1
  Ga  Ga14  1  0.000000  0.000000  0.000000  1
  Br  Br15  1  0.330502  0.000000  0.000000  1
  Br  Br16  1  0.669498  0.000000  0.000000  1
  Br  Br17  1  0.000000  0.330502  0.669498  1
  Br  Br18  1  0.000000  0.669498  0.330502  1
  Br  Br19  1  0.000000  0.330502  0.000000  1
  Br  Br20  1  0.669498  0.000000  0.330502  1
  Br  Br21  1  0.000000  0.669498  0.000000  1
  Br  Br22  1  0.330502  0.000000  0.669498  1
  Br  Br23  1  0.000000  0.000000  0.330502  1
  Br  Br24  1  0.000000  0.000000  0.669498  1
  Br  Br25  1  0.669498  0.330502  0.000000  1
  Br  Br26  1  0.330502  0.669498  0.000000  1
  Br  Br27  1  0.678339  0.321661  0.321661  1
  Br  Br28  1  0.321661  0.678339  0.678339  1
  Br  Br29  1  0.321661  0.678339  0.321661  1
  Br  Br30  1  0.678339  0.321661  0.678339  1
  Br  Br31  1  0.321661  0.321661  0.678339  1
  Br  Br32  1  0.678339  0.678339  0.321661  1
  Br  Br33  1  0.250000  0.250000  0.250000  1
  Br  Br34  1  0.750000  0.750000  0.750000  1
