# generated using pymatgen
data_Tb4Al18CuRe2Pd3
_symmetry_space_group_name_H-M   'P 1'
_cell_length_a   7.59467768
_cell_length_b   7.59467816
_cell_length_c   9.52487074
_cell_angle_alpha   89.94825893
_cell_angle_beta   89.94826061
_cell_angle_gamma   118.70802044
_symmetry_Int_Tables_number   1
_chemical_formula_structural   Tb4Al18CuRe2Pd3
_chemical_formula_sum   'Tb4 Al18 Cu1 Re2 Pd3'
_cell_volume   481.85437838
_cell_formula_units_Z   1
loop_
 _symmetry_equiv_pos_site_id
 _symmetry_equiv_pos_as_xyz
  1  'x, y, z'
loop_
 _atom_site_type_symbol
 _atom_site_label
 _atom_site_symmetry_multiplicity
 _atom_site_fract_x
 _atom_site_fract_y
 _atom_site_fract_z
 _atom_site_occupancy
  Tb  Tb0  1  0.993968  0.679461  0.249574  1
  Tb  Tb1  1  0.005348  0.320192  0.750489  1
  Tb  Tb2  1  0.679808  0.994652  0.249511  1
  Tb  Tb3  1  0.320539  0.006032  0.750426  1
  Al  Al4  1  0.132857  0.132700  0.249718  1
  Al  Al5  1  0.867300  0.867143  0.750282  1
  Al  Al6  1  0.000703  0.334735  0.076120  1
  Al  Al7  1  0.998195  0.665283  0.923717  1
  Al  Al8  1  0.998452  0.665076  0.575959  1
  Al  Al9  1  0.334924  0.001548  0.424041  1
  Al  Al10  1  0.001725  0.334774  0.423689  1
  Al  Al11  1  0.665226  0.998275  0.576311  1
  Al  Al12  1  0.665265  0.999297  0.923880  1
  Al  Al13  1  0.334717  0.001805  0.076283  1
  Al  Al14  1  0.329699  0.329674  0.549297  1
  Al  Al15  1  0.670326  0.670301  0.450703  1
  Al  Al16  1  0.669305  0.668482  0.049828  1
  Al  Al17  1  0.331518  0.330695  0.950172  1
  Al  Al18  1  0.344778  0.552358  0.250138  1
  Al  Al19  1  0.655240  0.446796  0.751029  1
  Al  Al20  1  0.553204  0.344760  0.248971  1
  Al  Al21  1  0.447642  0.655222  0.749862  1
  Cu  Cu22  1  0.671440  0.328560  0.000000  1
  Re  Re23  1  0.999529  0.000471  0.000000  1
  Re  Re24  1  0.000028  0.999972  0.500000  1
  Pd  Pd25  1  0.328264  0.671736  0.000000  1
  Pd  Pd26  1  0.328312  0.671688  0.500000  1
  Pd  Pd27  1  0.671688  0.328312  0.500000  1
