# generated using pymatgen
data_Lu7(NiSe)2
_symmetry_space_group_name_H-M   'P 1'
_cell_length_a   8.76167749
_cell_length_b   8.76167757
_cell_length_c   8.76167790
_cell_angle_alpha   154.85497470
_cell_angle_beta   117.99192007
_cell_angle_gamma   68.00150926
_symmetry_Int_Tables_number   1
_chemical_formula_structural   Lu7(NiSe)2
_chemical_formula_sum   'Lu7 Ni2 Se2'
_cell_volume   250.08696769
_cell_formula_units_Z   1
loop_
 _symmetry_equiv_pos_site_id
 _symmetry_equiv_pos_as_xyz
  1  'x, y, z'
loop_
 _atom_site_type_symbol
 _atom_site_label
 _atom_site_symmetry_multiplicity
 _atom_site_fract_x
 _atom_site_fract_y
 _atom_site_fract_z
 _atom_site_occupancy
  Lu  Lu0  1  0.312419  0.686580  0.625838  1
  Lu  Lu1  1  0.939259  0.313420  0.625838  1
  Lu  Lu2  1  0.009190  0.000000  0.009190  1
  Lu  Lu3  1  0.542775  0.127150  0.415625  1
  Lu  Lu4  1  0.288475  0.872850  0.415625  1
  Lu  Lu5  1  0.628670  0.361003  0.267667  1
  Lu  Lu6  1  0.906662  0.638997  0.267667  1
  Ni  Ni7  1  0.166894  0.237708  0.929186  1
  Ni  Ni8  1  0.691477  0.762292  0.929186  1
  Se  Se9  1  0.662520  0.000000  0.662520  1
  Se  Se10  1  0.263458  0.500000  0.763458  1
