# generated using pymatgen
data_BAsH8
_symmetry_space_group_name_H-M   'P 1'
_cell_length_a   5.02124835
_cell_length_b   3.45464121
_cell_length_c   7.73273008
_cell_angle_alpha   102.56775363
_cell_angle_beta   105.56163886
_cell_angle_gamma   91.46294258
_symmetry_Int_Tables_number   1
_chemical_formula_structural   BAsH8
_chemical_formula_sum   'B1 As1 H8'
_cell_volume   125.62018416
_cell_formula_units_Z   1
loop_
 _symmetry_equiv_pos_site_id
 _symmetry_equiv_pos_as_xyz
  1  'x, y, z'
loop_
 _atom_site_type_symbol
 _atom_site_label
 _atom_site_symmetry_multiplicity
 _atom_site_fract_x
 _atom_site_fract_y
 _atom_site_fract_z
 _atom_site_occupancy
  B  B0  1  0.135722  0.398978  0.157287  1
  As  As1  1  0.362950  0.914930  0.172373  1
  H  H2  1  0.039080  0.460323  0.287033  1
  H  H3  1  0.962641  0.316902  0.009021  1
  H  H4  1  0.828641  0.586386  0.649737  1
  H  H5  1  0.522220  0.855677  0.028400  1
  H  H6  1  0.609341  0.006285  0.344062  1
  H  H7  1  0.345770  0.092951  0.647808  1
  H  H8  1  0.874215  0.478923  0.725800  1
  H  H9  1  0.242728  0.915663  0.599733  1
