# generated using pymatgen
data_CePr3Er4(ReB6)4
_symmetry_space_group_name_H-M   'P 1'
_cell_length_a   3.71987100
_cell_length_b   9.21775310
_cell_length_c   11.66850638
_cell_angle_alpha   89.94419372
_cell_angle_beta   90.00000000
_cell_angle_gamma   90.00000000
_symmetry_Int_Tables_number   1
_chemical_formula_structural   CePr3Er4(ReB6)4
_chemical_formula_sum   'Ce1 Pr3 Er4 Re4 B24'
_cell_volume   400.09950352
_cell_formula_units_Z   1
loop_
 _symmetry_equiv_pos_site_id
 _symmetry_equiv_pos_as_xyz
  1  'x, y, z'
loop_
 _atom_site_type_symbol
 _atom_site_label
 _atom_site_symmetry_multiplicity
 _atom_site_fract_x
 _atom_site_fract_y
 _atom_site_fract_z
 _atom_site_occupancy
  Ce  Ce0  1  0.000000  0.176886  0.914615  1
  Pr  Pr1  1  0.000000  0.322699  0.414466  1
  Pr  Pr2  1  0.000000  0.677410  0.585454  1
  Pr  Pr3  1  0.000000  0.822106  0.085417  1
  Er  Er4  1  0.000000  0.942696  0.368434  1
  Er  Er5  1  0.000000  0.057316  0.630491  1
  Er  Er6  1  0.000000  0.442918  0.130593  1
  Er  Er7  1  0.000000  0.557531  0.869654  1
  Re  Re8  1  0.000000  0.639271  0.318899  1
  Re  Re9  1  0.000000  0.358770  0.683564  1
  Re  Re10  1  0.000000  0.139066  0.178467  1
  Re  Re11  1  0.000000  0.863008  0.819830  1
  B  B12  1  0.500000  0.554998  0.430050  1
  B  B13  1  0.500000  0.443942  0.571206  1
  B  B14  1  0.500000  0.056548  0.067798  1
  B  B15  1  0.500000  0.946824  0.930050  1
  B  B16  1  0.500000  0.750411  0.415027  1
  B  B17  1  0.500000  0.249617  0.585811  1
  B  B18  1  0.500000  0.250410  0.082402  1
  B  B19  1  0.500000  0.750268  0.915084  1
  B  B20  1  0.500000  0.791244  0.265316  1
  B  B21  1  0.500000  0.207819  0.736315  1
  B  B22  1  0.500000  0.290973  0.233118  1
  B  B23  1  0.500000  0.709180  0.766321  1
  B  B24  1  0.500000  0.628951  0.185748  1
  B  B25  1  0.500000  0.369205  0.816084  1
  B  B26  1  0.500000  0.129048  0.313017  1
  B  B27  1  0.500000  0.871415  0.686341  1
  B  B28  1  0.500000  0.984491  0.212832  1
  B  B29  1  0.500000  0.017413  0.787497  1
  B  B30  1  0.500000  0.483844  0.286251  1
  B  B31  1  0.500000  0.515060  0.714561  1
  B  B32  1  0.500000  0.596213  0.026611  1
  B  B33  1  0.500000  0.402163  0.973191  1
  B  B34  1  0.500000  0.095302  0.473415  1
  B  B35  1  0.500000  0.904981  0.526071  1
