# generated using pymatgen
data_La4Ga9GePd6
_symmetry_space_group_name_H-M   'P 1'
_cell_length_a   8.71143710
_cell_length_b   8.71143748
_cell_length_c   8.71143720
_cell_angle_alpha   138.80149214
_cell_angle_beta   106.76322862
_cell_angle_gamma   87.65884715
_symmetry_Int_Tables_number   1
_chemical_formula_structural   La4Ga9GePd6
_chemical_formula_sum   'La4 Ga9 Ge1 Pd6'
_cell_volume   400.34856134
_cell_formula_units_Z   1
loop_
 _symmetry_equiv_pos_site_id
 _symmetry_equiv_pos_as_xyz
  1  'x, y, z'
loop_
 _atom_site_type_symbol
 _atom_site_label
 _atom_site_symmetry_multiplicity
 _atom_site_fract_x
 _atom_site_fract_y
 _atom_site_fract_z
 _atom_site_occupancy
  La  La0  1  0.099101  0.865087  0.227846  1
  La  La1  1  0.637241  0.371254  0.272154  1
  La  La2  1  0.900899  0.128746  0.765987  1
  La  La3  1  0.362759  0.634913  0.734013  1
  Ga  Ga4  1  0.277372  0.027372  0.750000  1
  Ga  Ga5  1  0.275651  0.525651  0.250000  1
  Ga  Ga6  1  0.000000  0.250000  0.250000  1
  Ga  Ga7  1  0.242184  0.391896  0.846769  1
  Ga  Ga8  1  0.757816  0.604585  0.149712  1
  Ga  Ga9  1  0.722628  0.472628  0.750000  1
  Ga  Ga10  1  0.545127  0.895415  0.653231  1
  Ga  Ga11  1  0.724349  0.974349  0.250000  1
  Ga  Ga12  1  0.454873  0.108104  0.350288  1
  Ge  Ge13  1  0.000000  0.750000  0.750000  1
  Pd  Pd14  1  0.028821  0.637525  0.391818  1
  Pd  Pd15  1  0.754293  0.862475  0.891296  1
  Pd  Pd16  1  0.971179  0.362998  0.608704  1
  Pd  Pd17  1  0.245707  0.137002  0.108182  1
  Pd  Pd18  1  0.500000  0.750000  0.250000  1
  Pd  Pd19  1  0.500000  0.250000  0.750000  1
