# generated using pymatgen
data_Sm2Co2Tc
_symmetry_space_group_name_H-M   'P 1'
_cell_length_a   5.65377526
_cell_length_b   5.65377585
_cell_length_c   7.09161900
_cell_angle_alpha   90.00000000
_cell_angle_beta   90.00000000
_cell_angle_gamma   122.13949170
_symmetry_Int_Tables_number   1
_chemical_formula_structural   Sm2Co2Tc
_chemical_formula_sum   'Sm4 Co4 Tc2'
_cell_volume   191.94664352
_cell_formula_units_Z   2
loop_
 _symmetry_equiv_pos_site_id
 _symmetry_equiv_pos_as_xyz
  1  'x, y, z'
loop_
 _atom_site_type_symbol
 _atom_site_label
 _atom_site_symmetry_multiplicity
 _atom_site_fract_x
 _atom_site_fract_y
 _atom_site_fract_z
 _atom_site_occupancy
  Sm  Sm0  1  0.835199  0.164802  0.097454  1
  Sm  Sm1  1  0.335199  0.664803  0.402547  1
  Sm  Sm2  1  0.664803  0.335199  0.597454  1
  Sm  Sm3  1  0.164802  0.835199  0.902546  1
  Co  Co4  1  0.331787  0.168214  0.250000  1
  Co  Co5  1  0.831786  0.668213  0.250000  1
  Co  Co6  1  0.168214  0.331787  0.750000  1
  Co  Co7  1  0.668213  0.831786  0.750000  1
  Tc  Tc8  1  0.500001  0.500001  0.000000  1
  Tc  Tc9  1  0.000000  0.000000  0.500000  1
