# generated using pymatgen
data_Tb3Er5(HgPd)2
_symmetry_space_group_name_H-M   'P 1'
_cell_length_a   9.60625623
_cell_length_b   9.60625689
_cell_length_c   9.60625700
_cell_angle_alpha   60.00000306
_cell_angle_beta   60.00000080
_cell_angle_gamma   59.99999882
_symmetry_Int_Tables_number   1
_chemical_formula_structural   Tb3Er5(HgPd)2
_chemical_formula_sum   'Tb6 Er10 Hg4 Pd4'
_cell_volume   626.82682695
_cell_formula_units_Z   2
loop_
 _symmetry_equiv_pos_site_id
 _symmetry_equiv_pos_as_xyz
  1  'x, y, z'
loop_
 _atom_site_type_symbol
 _atom_site_label
 _atom_site_symmetry_multiplicity
 _atom_site_fract_x
 _atom_site_fract_y
 _atom_site_fract_z
 _atom_site_occupancy
  Tb  Tb0  1  0.936479  0.563521  0.563521  1
  Tb  Tb1  1  0.563521  0.936479  0.936479  1
  Tb  Tb2  1  0.563521  0.936479  0.563521  1
  Tb  Tb3  1  0.936479  0.563521  0.936479  1
  Tb  Tb4  1  0.563521  0.563521  0.936479  1
  Tb  Tb5  1  0.936479  0.936479  0.563521  1
  Er  Er6  1  0.355966  0.355966  0.355966  1
  Er  Er7  1  0.355966  0.355966  0.932102  1
  Er  Er8  1  0.355966  0.932102  0.355966  1
  Er  Er9  1  0.932102  0.355966  0.355966  1
  Er  Er10  1  0.811187  0.188813  0.188813  1
  Er  Er11  1  0.188813  0.811187  0.811187  1
  Er  Er12  1  0.188813  0.811187  0.188813  1
  Er  Er13  1  0.811187  0.188813  0.811187  1
  Er  Er14  1  0.188813  0.188813  0.811187  1
  Er  Er15  1  0.811187  0.811187  0.188813  1
  Hg  Hg16  1  0.586005  0.586005  0.586005  1
  Hg  Hg17  1  0.586005  0.586005  0.241984  1
  Hg  Hg18  1  0.586005  0.241984  0.586005  1
  Hg  Hg19  1  0.241984  0.586005  0.586005  1
  Pd  Pd20  1  0.145106  0.145106  0.145106  1
  Pd  Pd21  1  0.145106  0.145106  0.564683  1
  Pd  Pd22  1  0.145106  0.564683  0.145106  1
  Pd  Pd23  1  0.564683  0.145106  0.145106  1
