# generated using pymatgen
data_Er11Tm3(LuBi2)6
_symmetry_space_group_name_H-M   'P 1'
_cell_length_a   8.16231135
_cell_length_b   9.42249756
_cell_length_c   11.90499448
_cell_angle_alpha   90.00190245
_cell_angle_beta   89.96744739
_cell_angle_gamma   90.01645861
_symmetry_Int_Tables_number   1
_chemical_formula_structural   Er11Tm3(LuBi2)6
_chemical_formula_sum   'Er11 Tm3 Lu6 Bi12'
_cell_volume   915.60530556
_cell_formula_units_Z   1
loop_
 _symmetry_equiv_pos_site_id
 _symmetry_equiv_pos_as_xyz
  1  'x, y, z'
loop_
 _atom_site_type_symbol
 _atom_site_label
 _atom_site_symmetry_multiplicity
 _atom_site_fract_x
 _atom_site_fract_y
 _atom_site_fract_z
 _atom_site_occupancy
  Er  Er0  1  0.525224  0.249889  0.988733  1
  Er  Er1  1  0.355133  0.249995  0.283120  1
  Er  Er2  1  0.644499  0.750687  0.716902  1
  Er  Er3  1  0.144710  0.750431  0.782784  1
  Er  Er4  1  0.855918  0.250119  0.216947  1
  Er  Er5  1  0.187619  0.249856  0.781784  1
  Er  Er6  1  0.812376  0.750207  0.218194  1
  Er  Er7  1  0.312447  0.750158  0.282085  1
  Er  Er8  1  0.687744  0.250005  0.718051  1
  Er  Er9  1  0.806762  0.565451  0.940280  1
  Er  Er10  1  0.693831  0.065252  0.440302  1
  Tm  Tm11  1  0.193027  0.434326  0.059773  1
  Tm  Tm12  1  0.693478  0.434324  0.440289  1
  Tm  Tm13  1  0.306315  0.565722  0.559780  1
  Lu  Lu14  1  0.025362  0.250206  0.511085  1
  Lu  Lu15  1  0.975363  0.750100  0.489053  1
  Lu  Lu16  1  0.474889  0.750282  0.010938  1
  Lu  Lu17  1  0.193506  0.066300  0.059910  1
  Lu  Lu18  1  0.806294  0.933614  0.940082  1
  Lu  Lu19  1  0.306253  0.933505  0.559834  1
  Bi  Bi20  1  0.405893  0.249172  0.542802  1
  Bi  Bi21  1  0.593595  0.749821  0.457605  1
  Bi  Bi22  1  0.094137  0.751266  0.042762  1
  Bi  Bi23  1  0.907012  0.248447  0.957301  1
  Bi  Bi24  1  0.066595  0.003657  0.326483  1
  Bi  Bi25  1  0.933372  0.996513  0.673443  1
  Bi  Bi26  1  0.432962  0.995927  0.826142  1
  Bi  Bi27  1  0.933353  0.503790  0.673363  1
  Bi  Bi28  1  0.566258  0.003353  0.173769  1
  Bi  Bi29  1  0.066701  0.496532  0.326535  1
  Bi  Bi30  1  0.566561  0.496818  0.173768  1
  Bi  Bi31  1  0.432812  0.504273  0.826100  1
