# generated using pymatgen
data_ThSiOsPt
_symmetry_space_group_name_H-M   'P 1'
_cell_length_a   9.50514800
_cell_length_b   9.50514687
_cell_length_c   4.13333200
_cell_angle_alpha   90.00000000
_cell_angle_beta   90.00000000
_cell_angle_gamma   155.58691530
_symmetry_Int_Tables_number   1
_chemical_formula_structural   ThSiOsPt
_chemical_formula_sum   'Th2 Si2 Os2 Pt2'
_cell_volume   154.34637476
_cell_formula_units_Z   2
loop_
 _symmetry_equiv_pos_site_id
 _symmetry_equiv_pos_as_xyz
  1  'x, y, z'
loop_
 _atom_site_type_symbol
 _atom_site_label
 _atom_site_symmetry_multiplicity
 _atom_site_fract_x
 _atom_site_fract_y
 _atom_site_fract_z
 _atom_site_occupancy
  Th  Th0  1  0.110181  0.889819  0.750000  1
  Th  Th1  1  0.889819  0.110181  0.250000  1
  Si  Si2  1  0.317710  0.682290  0.750000  1
  Si  Si3  1  0.682290  0.317710  0.250000  1
  Os  Os4  1  0.250298  0.749702  0.250000  1
  Os  Os5  1  0.749702  0.250298  0.750000  1
  Pt  Pt6  1  0.551791  0.448209  0.250000  1
  Pt  Pt7  1  0.448209  0.551791  0.750000  1
