# generated using pymatgen
data_Gd2Er2TmSi4
_symmetry_space_group_name_H-M   'P 1'
_cell_length_a   7.72478900
_cell_length_b   7.72478900
_cell_length_c   14.21159300
_cell_angle_alpha   90.00000000
_cell_angle_beta   90.00000000
_cell_angle_gamma   90.00000000
_symmetry_Int_Tables_number   1
_chemical_formula_structural   Gd2Er2TmSi4
_chemical_formula_sum   'Gd8 Er8 Tm4 Si16'
_cell_volume   848.03936607
_cell_formula_units_Z   4
loop_
 _symmetry_equiv_pos_site_id
 _symmetry_equiv_pos_as_xyz
  1  'x, y, z'
loop_
 _atom_site_type_symbol
 _atom_site_label
 _atom_site_symmetry_multiplicity
 _atom_site_fract_x
 _atom_site_fract_y
 _atom_site_fract_z
 _atom_site_occupancy
  Gd  Gd0  1  0.640142  0.993044  0.458462  1
  Gd  Gd1  1  0.359858  0.006956  0.958462  1
  Gd  Gd2  1  0.993044  0.640142  0.541538  1
  Gd  Gd3  1  0.493044  0.859858  0.208462  1
  Gd  Gd4  1  0.506956  0.140142  0.708462  1
  Gd  Gd5  1  0.859858  0.493044  0.791538  1
  Gd  Gd6  1  0.140142  0.506956  0.291538  1
  Gd  Gd7  1  0.006956  0.359858  0.041538  1
  Er  Er8  1  0.491258  0.360701  0.124108  1
  Er  Er9  1  0.991258  0.139299  0.625892  1
  Er  Er10  1  0.860701  0.008742  0.874108  1
  Er  Er11  1  0.139299  0.991258  0.374108  1
  Er  Er12  1  0.508742  0.639299  0.624108  1
  Er  Er13  1  0.360701  0.491258  0.875892  1
  Er  Er14  1  0.639299  0.508742  0.375892  1
  Er  Er15  1  0.008742  0.860701  0.125892  1
  Tm  Tm16  1  0.317461  0.317461  0.500000  1
  Tm  Tm17  1  0.182539  0.817461  0.750000  1
  Tm  Tm18  1  0.817461  0.182539  0.250000  1
  Tm  Tm19  1  0.682539  0.682539  0.000000  1
  Si  Si20  1  0.292406  0.938384  0.562461  1
  Si  Si21  1  0.707594  0.061616  0.062461  1
  Si  Si22  1  0.938384  0.292406  0.437539  1
  Si  Si23  1  0.438384  0.207594  0.312461  1
  Si  Si24  1  0.561616  0.792406  0.812461  1
  Si  Si25  1  0.207594  0.438384  0.687539  1
  Si  Si26  1  0.792406  0.561616  0.187539  1
  Si  Si27  1  0.061616  0.707594  0.937539  1
  Si  Si28  1  0.796902  0.846375  0.688002  1
  Si  Si29  1  0.203098  0.153625  0.188002  1
  Si  Si30  1  0.846375  0.796902  0.311998  1
  Si  Si31  1  0.346375  0.703098  0.438002  1
  Si  Si32  1  0.653625  0.296902  0.938002  1
  Si  Si33  1  0.703098  0.346375  0.561998  1
  Si  Si34  1  0.296902  0.653625  0.061998  1
  Si  Si35  1  0.153625  0.203098  0.811998  1
