# generated using pymatgen
data_Tb3Y7FeHg3
_symmetry_space_group_name_H-M   'P 1'
_cell_length_a   9.62411500
_cell_length_b   9.62411641
_cell_length_c   9.66265400
_cell_angle_alpha   90.00000000
_cell_angle_beta   90.00000000
_cell_angle_gamma   119.99999170
_symmetry_Int_Tables_number   1
_chemical_formula_structural   Tb3Y7FeHg3
_chemical_formula_sum   'Tb6 Y14 Fe2 Hg6'
_cell_volume   775.08399315
_cell_formula_units_Z   2
loop_
 _symmetry_equiv_pos_site_id
 _symmetry_equiv_pos_as_xyz
  1  'x, y, z'
loop_
 _atom_site_type_symbol
 _atom_site_label
 _atom_site_symmetry_multiplicity
 _atom_site_fract_x
 _atom_site_fract_y
 _atom_site_fract_z
 _atom_site_occupancy
  Tb  Tb0  1  0.212098  0.787902  0.435520  1
  Tb  Tb1  1  0.212098  0.424198  0.435520  1
  Tb  Tb2  1  0.575802  0.787902  0.435520  1
  Tb  Tb3  1  0.787902  0.212098  0.564480  1
  Tb  Tb4  1  0.787902  0.575802  0.564480  1
  Tb  Tb5  1  0.424198  0.212098  0.564480  1
  Y  Y6  1  0.000000  0.000000  0.500000  1
  Y  Y7  1  0.000000  0.000000  0.000000  1
  Y  Y8  1  0.541849  0.458151  0.250032  1
  Y  Y9  1  0.541849  0.083699  0.250032  1
  Y  Y10  1  0.916301  0.458151  0.250032  1
  Y  Y11  1  0.458151  0.541849  0.749968  1
  Y  Y12  1  0.458151  0.916301  0.749968  1
  Y  Y13  1  0.083699  0.541849  0.749968  1
  Y  Y14  1  0.788119  0.211881  0.936066  1
  Y  Y15  1  0.788119  0.576237  0.936066  1
  Y  Y16  1  0.423763  0.211881  0.936066  1
  Y  Y17  1  0.211881  0.788119  0.063934  1
  Y  Y18  1  0.211881  0.423763  0.063934  1
  Y  Y19  1  0.576237  0.788119  0.063934  1
  Fe  Fe20  1  0.333333  0.666667  0.252053  1
  Fe  Fe21  1  0.666667  0.333333  0.747947  1
  Hg  Hg22  1  0.881855  0.118145  0.249616  1
  Hg  Hg23  1  0.881855  0.763711  0.249616  1
  Hg  Hg24  1  0.236289  0.118145  0.249616  1
  Hg  Hg25  1  0.118145  0.881855  0.750384  1
  Hg  Hg26  1  0.118145  0.236289  0.750384  1
  Hg  Hg27  1  0.763711  0.881855  0.750384  1
