# generated using pymatgen
data_Sr3Pu4PbO16
_symmetry_space_group_name_H-M   'P 1'
_cell_length_a   5.46545500
_cell_length_b   7.83525992
_cell_length_c   8.00751800
_cell_angle_alpha   90.00000000
_cell_angle_beta   90.00000000
_cell_angle_gamma   89.86759142
_symmetry_Int_Tables_number   1
_chemical_formula_structural   Sr3Pu4PbO16
_chemical_formula_sum   'Sr3 Pu4 Pb1 O16'
_cell_volume   342.90711376
_cell_formula_units_Z   1
loop_
 _symmetry_equiv_pos_site_id
 _symmetry_equiv_pos_as_xyz
  1  'x, y, z'
loop_
 _atom_site_type_symbol
 _atom_site_label
 _atom_site_symmetry_multiplicity
 _atom_site_fract_x
 _atom_site_fract_y
 _atom_site_fract_z
 _atom_site_occupancy
  Sr  Sr0  1  0.474733  0.304300  0.750000  1
  Sr  Sr1  1  0.527272  0.696607  0.250000  1
  Sr  Sr2  1  0.528342  0.802195  0.750000  1
  Pu  Pu3  1  0.000119  0.999597  0.998811  1
  Pu  Pu4  1  0.001160  0.500911  0.999287  1
  Pu  Pu5  1  0.001160  0.500911  0.500713  1
  Pu  Pu6  1  0.000119  0.999597  0.501189  1
  Pb  Pb7  1  0.483367  0.199552  0.250000  1
  O  O8  1  0.137926  0.963817  0.750000  1
  O  O9  1  0.135101  0.535213  0.250000  1
  O  O10  1  0.859684  0.472684  0.750000  1
  O  O11  1  0.856546  0.034252  0.250000  1
  O  O12  1  0.170572  0.250727  0.508522  1
  O  O13  1  0.825910  0.750171  0.000334  1
  O  O14  1  0.825910  0.750171  0.499666  1
  O  O15  1  0.170572  0.250727  0.991478  1
  O  O16  1  0.300323  0.914310  0.075566  1
  O  O17  1  0.303972  0.581242  0.921095  1
  O  O18  1  0.697746  0.418458  0.421990  1
  O  O19  1  0.698712  0.080273  0.580844  1
  O  O20  1  0.698712  0.080273  0.919156  1
  O  O21  1  0.697746  0.418458  0.078010  1
  O  O22  1  0.303972  0.581242  0.578905  1
  O  O23  1  0.300323  0.914310  0.424434  1
