# generated using pymatgen
data_PrSmErTaO7
_symmetry_space_group_name_H-M   'P 1'
_cell_length_a   6.55383311
_cell_length_b   6.55383337
_cell_length_c   7.63960400
_cell_angle_alpha   90.00000000
_cell_angle_beta   90.00000000
_cell_angle_gamma   109.02515879
_symmetry_Int_Tables_number   1
_chemical_formula_structural   PrSmErTaO7
_chemical_formula_sum   'Pr2 Sm2 Er2 Ta2 O14'
_cell_volume   310.21727335
_cell_formula_units_Z   2
loop_
 _symmetry_equiv_pos_site_id
 _symmetry_equiv_pos_as_xyz
  1  'x, y, z'
loop_
 _atom_site_type_symbol
 _atom_site_label
 _atom_site_symmetry_multiplicity
 _atom_site_fract_x
 _atom_site_fract_y
 _atom_site_fract_z
 _atom_site_occupancy
  Pr  Pr0  1  0.517071  0.517071  0.500000  1
  Pr  Pr1  1  0.517071  0.517071  0.000000  1
  Sm  Sm2  1  0.463784  0.002200  0.250000  1
  Sm  Sm3  1  0.002200  0.463784  0.750000  1
  Er  Er4  1  0.530606  0.002580  0.750000  1
  Er  Er5  1  0.002580  0.530606  0.250000  1
  Ta  Ta6  1  0.000807  0.000807  0.500000  1
  Ta  Ta7  1  0.000807  0.000807  0.000000  1
  O  O8  1  0.677244  0.927440  0.475173  1
  O  O9  1  0.927440  0.677244  0.524827  1
  O  O10  1  0.677244  0.927440  0.024827  1
  O  O11  1  0.927440  0.677244  0.975173  1
  O  O12  1  0.312348  0.060477  0.538632  1
  O  O13  1  0.060477  0.312348  0.461368  1
  O  O14  1  0.312348  0.060477  0.961368  1
  O  O15  1  0.060477  0.312348  0.038632  1
  O  O16  1  0.938026  0.062001  0.750000  1
  O  O17  1  0.062001  0.938026  0.250000  1
  O  O18  1  0.371766  0.644479  0.750000  1
  O  O19  1  0.644479  0.371766  0.250000  1
  O  O20  1  0.639799  0.353987  0.750000  1
  O  O21  1  0.353987  0.639799  0.250000  1
