# generated using pymatgen
data_U4Ga5SiRu7
_symmetry_space_group_name_H-M   'P 1'
_cell_length_a   7.18427031
_cell_length_b   7.18427075
_cell_length_c   7.18427060
_cell_angle_alpha   109.42111491
_cell_angle_beta   109.57147010
_cell_angle_gamma   109.42112292
_symmetry_Int_Tables_number   1
_chemical_formula_structural   U4Ga5SiRu7
_chemical_formula_sum   'U4 Ga5 Si1 Ru7'
_cell_volume   285.44678271
_cell_formula_units_Z   1
loop_
 _symmetry_equiv_pos_site_id
 _symmetry_equiv_pos_as_xyz
  1  'x, y, z'
loop_
 _atom_site_type_symbol
 _atom_site_label
 _atom_site_symmetry_multiplicity
 _atom_site_fract_x
 _atom_site_fract_y
 _atom_site_fract_z
 _atom_site_occupancy
  U  U0  1  0.487355  0.486169  0.487355  1
  U  U1  1  0.001186  0.513831  0.001186  1
  U  U2  1  0.487355  0.000000  0.001186  1
  U  U3  1  0.001186  0.000000  0.487355  1
  Ga  Ga4  1  0.711177  0.000000  0.711177  1
  Ga  Ga5  1  0.685149  0.693916  0.991234  1
  Ga  Ga6  1  0.297319  0.306084  0.991234  1
  Ga  Ga7  1  0.991234  0.693916  0.685149  1
  Ga  Ga8  1  0.991234  0.306084  0.297319  1
  Si  Si9  1  0.326612  0.000000  0.326612  1
  Ru  Ru10  1  0.499556  0.751444  0.250999  1
  Ru  Ru11  1  0.748113  0.248556  0.499556  1
  Ru  Ru12  1  0.250999  0.751444  0.499556  1
  Ru  Ru13  1  0.245271  0.500000  0.745271  1
  Ru  Ru14  1  0.031428  0.000000  0.031428  1
  Ru  Ru15  1  0.499556  0.248556  0.748113  1
  Ru  Ru16  1  0.745271  0.500000  0.245271  1
