# generated using pymatgen
data_Er6Ti7Al9Os7
_symmetry_space_group_name_H-M   'P 1'
_cell_length_a   9.05023824
_cell_length_b   9.05023964
_cell_length_c   9.05023945
_cell_angle_alpha   59.48097037
_cell_angle_beta   59.48096438
_cell_angle_gamma   59.48096408
_symmetry_Int_Tables_number   1
_chemical_formula_structural   Er6Ti7Al9Os7
_chemical_formula_sum   'Er6 Ti7 Al9 Os7'
_cell_volume   517.97352157
_cell_formula_units_Z   1
loop_
 _symmetry_equiv_pos_site_id
 _symmetry_equiv_pos_as_xyz
  1  'x, y, z'
loop_
 _atom_site_type_symbol
 _atom_site_label
 _atom_site_symmetry_multiplicity
 _atom_site_fract_x
 _atom_site_fract_y
 _atom_site_fract_z
 _atom_site_occupancy
  Er  Er0  1  0.704709  0.704709  0.293697  1
  Er  Er1  1  0.294796  0.709594  0.294796  1
  Er  Er2  1  0.709594  0.294796  0.294796  1
  Er  Er3  1  0.294796  0.294796  0.709594  1
  Er  Er4  1  0.704709  0.293697  0.704709  1
  Er  Er5  1  0.293697  0.704709  0.704709  1
  Ti  Ti6  1  0.879853  0.879853  0.360544  1
  Ti  Ti7  1  0.879853  0.360544  0.879853  1
  Ti  Ti8  1  0.360544  0.879853  0.879853  1
  Ti  Ti9  1  0.877502  0.877502  0.877502  1
  Ti  Ti10  1  0.122628  0.122628  0.634644  1
  Ti  Ti11  1  0.122628  0.634644  0.122628  1
  Ti  Ti12  1  0.634644  0.122628  0.122628  1
  Al  Al13  1  0.117629  0.117629  0.117629  1
  Al  Al14  1  0.669003  0.669003  0.991768  1
  Al  Al15  1  0.669003  0.991768  0.669003  1
  Al  Al16  1  0.991768  0.669003  0.669003  1
  Al  Al17  1  0.669333  0.669333  0.669333  1
  Al  Al18  1  0.329769  0.329769  0.008831  1
  Al  Al19  1  0.329769  0.008831  0.329769  1
  Al  Al20  1  0.008831  0.329769  0.329769  1
  Al  Al21  1  0.332689  0.332689  0.332689  1
  Os  Os22  1  0.996794  0.996794  0.996794  1
  Os  Os23  1  0.000630  0.000630  0.504062  1
  Os  Os24  1  0.500460  0.999217  0.500460  1
  Os  Os25  1  0.999217  0.500460  0.500460  1
  Os  Os26  1  0.500460  0.500460  0.999217  1
  Os  Os27  1  0.000630  0.504062  0.000630  1
  Os  Os28  1  0.504062  0.000630  0.000630  1
