# generated using pymatgen
data_TbGdMn2Al2O10
_symmetry_space_group_name_H-M   'P 1'
_cell_length_a   5.66382500
_cell_length_b   7.28985857
_cell_length_c   8.48696895
_cell_angle_alpha   89.73401074
_cell_angle_beta   90.00000000
_cell_angle_gamma   90.00000000
_symmetry_Int_Tables_number   1
_chemical_formula_structural   TbGdMn2Al2O10
_chemical_formula_sum   'Tb2 Gd2 Mn4 Al4 O20'
_cell_volume   350.41029877
_cell_formula_units_Z   2
loop_
 _symmetry_equiv_pos_site_id
 _symmetry_equiv_pos_as_xyz
  1  'x, y, z'
loop_
 _atom_site_type_symbol
 _atom_site_label
 _atom_site_symmetry_multiplicity
 _atom_site_fract_x
 _atom_site_fract_y
 _atom_site_fract_z
 _atom_site_occupancy
  Tb  Tb0  1  0.000000  0.869186  0.829578  1
  Tb  Tb1  1  0.000000  0.130814  0.170422  1
  Gd  Gd2  1  0.000000  0.365397  0.669291  1
  Gd  Gd3  1  0.000000  0.634603  0.330709  1
  Mn  Mn4  1  0.254182  0.500000  0.000000  1
  Mn  Mn5  1  0.746987  0.000000  0.500000  1
  Mn  Mn6  1  0.745818  0.500000  0.000000  1
  Mn  Mn7  1  0.253013  0.000000  0.500000  1
  Al  Al8  1  0.500000  0.106998  0.858914  1
  Al  Al9  1  0.500000  0.893002  0.141086  1
  Al  Al10  1  0.500000  0.607677  0.642116  1
  Al  Al11  1  0.500000  0.392323  0.357884  1
  O  O12  1  0.253052  0.897836  0.289270  1
  O  O13  1  0.253052  0.102164  0.710730  1
  O  O14  1  0.747554  0.393788  0.209856  1
  O  O15  1  0.747554  0.606212  0.790144  1
  O  O16  1  0.746948  0.102164  0.710730  1
  O  O17  1  0.746948  0.897836  0.289270  1
  O  O18  1  0.252446  0.606212  0.790144  1
  O  O19  1  0.252446  0.393788  0.209856  1
  O  O20  1  0.500000  0.341866  0.928766  1
  O  O21  1  0.500000  0.658134  0.071234  1
  O  O22  1  0.500000  0.841925  0.567737  1
  O  O23  1  0.500000  0.158075  0.432263  1
  O  O24  1  0.280304  0.000000  0.000000  1
  O  O25  1  0.717455  0.500000  0.500000  1
  O  O26  1  0.719696  0.000000  0.000000  1
  O  O27  1  0.282545  0.500000  0.500000  1
  O  O28  1  0.000000  0.160666  0.444236  1
  O  O29  1  0.000000  0.839334  0.555764  1
  O  O30  1  0.000000  0.663515  0.054150  1
  O  O31  1  0.000000  0.336485  0.945850  1
