# generated using pymatgen
data_Nd16Cd4IrPd3
_symmetry_space_group_name_H-M   'P 1'
_cell_length_a   10.01337778
_cell_length_b   10.00457957
_cell_length_c   10.00458000
_cell_angle_alpha   59.99999856
_cell_angle_beta   60.02905967
_cell_angle_gamma   60.02906158
_symmetry_Int_Tables_number   1
_chemical_formula_structural   Nd16Cd4IrPd3
_chemical_formula_sum   'Nd16 Cd4 Ir1 Pd3'
_cell_volume   709.01255751
_cell_formula_units_Z   1
loop_
 _symmetry_equiv_pos_site_id
 _symmetry_equiv_pos_as_xyz
  1  'x, y, z'
loop_
 _atom_site_type_symbol
 _atom_site_label
 _atom_site_symmetry_multiplicity
 _atom_site_fract_x
 _atom_site_fract_y
 _atom_site_fract_z
 _atom_site_occupancy
  Nd  Nd0  1  0.352345  0.347368  0.347368  1
  Nd  Nd1  1  0.352345  0.347368  0.952919  1
  Nd  Nd2  1  0.352345  0.952919  0.347368  1
  Nd  Nd3  1  0.942688  0.352437  0.352437  1
  Nd  Nd4  1  0.805730  0.190322  0.190322  1
  Nd  Nd5  1  0.195861  0.806631  0.806631  1
  Nd  Nd6  1  0.195861  0.806631  0.190876  1
  Nd  Nd7  1  0.805730  0.190322  0.813625  1
  Nd  Nd8  1  0.195861  0.190876  0.806631  1
  Nd  Nd9  1  0.805730  0.813625  0.190322  1
  Nd  Nd10  1  0.935981  0.565563  0.565563  1
  Nd  Nd11  1  0.568044  0.935906  0.935906  1
  Nd  Nd12  1  0.568044  0.935906  0.560144  1
  Nd  Nd13  1  0.935981  0.565563  0.932893  1
  Nd  Nd14  1  0.568044  0.560144  0.935906  1
  Nd  Nd15  1  0.935981  0.932893  0.565563  1
  Cd  Cd16  1  0.577934  0.580711  0.580711  1
  Cd  Cd17  1  0.577934  0.580711  0.260642  1
  Cd  Cd18  1  0.577934  0.260642  0.580711  1
  Cd  Cd19  1  0.261741  0.579419  0.579419  1
  Ir  Ir20  1  0.571753  0.142749  0.142749  1
  Pd  Pd21  1  0.138710  0.144938  0.144938  1
  Pd  Pd22  1  0.138710  0.144938  0.571413  1
  Pd  Pd23  1  0.138710  0.571413  0.144938  1
