# generated using pymatgen
data_P6Pb5O24
_symmetry_space_group_name_H-M   'P 1'
_cell_length_a   9.48022870
_cell_length_b   9.48022834
_cell_length_c   9.48022895
_cell_angle_alpha   54.39834244
_cell_angle_beta   54.39834711
_cell_angle_gamma   54.39833760
_symmetry_Int_Tables_number   1
_chemical_formula_structural   P6Pb5O24
_chemical_formula_sum   'P6 Pb5 O24'
_cell_volume   523.76746135
_cell_formula_units_Z   1
loop_
 _symmetry_equiv_pos_site_id
 _symmetry_equiv_pos_as_xyz
  1  'x, y, z'
loop_
 _atom_site_type_symbol
 _atom_site_label
 _atom_site_symmetry_multiplicity
 _atom_site_fract_x
 _atom_site_fract_y
 _atom_site_fract_z
 _atom_site_occupancy
  P  P0  1  0.751677  0.453181  0.041315  1
  P  P1  1  0.958685  0.248323  0.546819  1
  P  P2  1  0.248323  0.546819  0.958685  1
  P  P3  1  0.041315  0.751677  0.453181  1
  P  P4  1  0.546819  0.958685  0.248323  1
  P  P5  1  0.453181  0.041315  0.751677  1
  Pb  Pb6  1  0.849300  0.849300  0.849300  1
  Pb  Pb7  1  0.150700  0.150700  0.150700  1
  Pb  Pb8  1  0.348313  0.348313  0.348313  1
  Pb  Pb9  1  0.651687  0.651687  0.651687  1
  Pb  Pb10  1  0.000000  0.000000  0.000000  1
  O  O11  1  0.872726  0.117352  0.750030  1
  O  O12  1  0.149642  0.204835  0.536152  1
  O  O13  1  0.117352  0.750030  0.872726  1
  O  O14  1  0.486995  0.170861  0.545514  1
  O  O15  1  0.408401  0.974445  0.198216  1
  O  O16  1  0.801784  0.591599  0.025555  1
  O  O17  1  0.750030  0.872726  0.117352  1
  O  O18  1  0.198216  0.408401  0.974445  1
  O  O19  1  0.882648  0.249970  0.127274  1
  O  O20  1  0.795165  0.463848  0.850358  1
  O  O21  1  0.974445  0.198216  0.408401  1
  O  O22  1  0.025555  0.801784  0.591599  1
  O  O23  1  0.454486  0.513005  0.829139  1
  O  O24  1  0.127274  0.882648  0.249970  1
  O  O25  1  0.545514  0.486995  0.170861  1
  O  O26  1  0.591599  0.025555  0.801784  1
  O  O27  1  0.463848  0.850358  0.795165  1
  O  O28  1  0.170861  0.545514  0.486995  1
  O  O29  1  0.829139  0.454486  0.513005  1
  O  O30  1  0.204835  0.536152  0.149642  1
  O  O31  1  0.850358  0.795165  0.463848  1
  O  O32  1  0.249970  0.127274  0.882648  1
  O  O33  1  0.536152  0.149642  0.204835  1
  O  O34  1  0.513005  0.829139  0.454486  1
