# generated using pymatgen
data_CaEr(Al5Os)4
_symmetry_space_group_name_H-M   'P 1'
_cell_length_a   6.87203403
_cell_length_b   6.87203319
_cell_length_c   9.14971000
_cell_angle_alpha   90.00000000
_cell_angle_beta   90.00000000
_cell_angle_gamma   96.43172454
_symmetry_Int_Tables_number   1
_chemical_formula_structural   CaEr(Al5Os)4
_chemical_formula_sum   'Ca1 Er1 Al20 Os4'
_cell_volume   429.37406836
_cell_formula_units_Z   1
loop_
 _symmetry_equiv_pos_site_id
 _symmetry_equiv_pos_as_xyz
  1  'x, y, z'
loop_
 _atom_site_type_symbol
 _atom_site_label
 _atom_site_symmetry_multiplicity
 _atom_site_fract_x
 _atom_site_fract_y
 _atom_site_fract_z
 _atom_site_occupancy
  Ca  Ca0  1  0.873003  0.126997  0.750000  1
  Er  Er1  1  0.128480  0.871520  0.250000  1
  Al  Al2  1  0.522129  0.783213  0.750000  1
  Al  Al3  1  0.782098  0.519777  0.250000  1
  Al  Al4  1  0.480223  0.217902  0.250000  1
  Al  Al5  1  0.216787  0.477871  0.750000  1
  Al  Al6  1  0.623665  0.376335  0.960062  1
  Al  Al7  1  0.376282  0.623718  0.049171  1
  Al  Al8  1  0.623665  0.376335  0.539938  1
  Al  Al9  1  0.376282  0.623718  0.450829  1
  Al  Al10  1  0.413274  0.144725  0.750000  1
  Al  Al11  1  0.146164  0.418574  0.250000  1
  Al  Al12  1  0.581426  0.853836  0.250000  1
  Al  Al13  1  0.855275  0.586726  0.750000  1
  Al  Al14  1  0.846467  0.153533  0.399136  1
  Al  Al15  1  0.157974  0.842026  0.600619  1
  Al  Al16  1  0.846467  0.153533  0.100864  1
  Al  Al17  1  0.157974  0.842026  0.899381  1
  Al  Al18  1  0.775255  0.776583  0.001541  1
  Al  Al19  1  0.775255  0.776583  0.498459  1
  Al  Al20  1  0.223417  0.224745  0.001541  1
  Al  Al21  1  0.223417  0.224745  0.498459  1
  Os  Os22  1  0.497879  0.000369  0.000535  1
  Os  Os23  1  0.999631  0.502121  0.000535  1
  Os  Os24  1  0.497879  0.000369  0.499465  1
  Os  Os25  1  0.999631  0.502121  0.499465  1
