# generated using pymatgen
data_Hf9NbGe6N
_symmetry_space_group_name_H-M   'P 1'
_cell_length_a   7.92830400
_cell_length_b   7.92830292
_cell_length_c   5.52463000
_cell_angle_alpha   90.00000000
_cell_angle_beta   90.00000000
_cell_angle_gamma   119.99999617
_symmetry_Int_Tables_number   1
_chemical_formula_structural   Hf9NbGe6N
_chemical_formula_sum   'Hf9 Nb1 Ge6 N1'
_cell_volume   300.74220182
_cell_formula_units_Z   1
loop_
 _symmetry_equiv_pos_site_id
 _symmetry_equiv_pos_as_xyz
  1  'x, y, z'
loop_
 _atom_site_type_symbol
 _atom_site_label
 _atom_site_symmetry_multiplicity
 _atom_site_fract_x
 _atom_site_fract_y
 _atom_site_fract_z
 _atom_site_occupancy
  Hf  Hf0  1  0.000403  0.759555  0.257916  1
  Hf  Hf1  1  0.240445  0.240848  0.257916  1
  Hf  Hf2  1  0.759152  0.999597  0.257916  1
  Hf  Hf3  1  0.000403  0.240848  0.742084  1
  Hf  Hf4  1  0.759152  0.759555  0.742084  1
  Hf  Hf5  1  0.240445  0.999597  0.742084  1
  Hf  Hf6  1  0.333333  0.666667  0.000000  1
  Hf  Hf7  1  0.666667  0.333333  0.000000  1
  Hf  Hf8  1  0.666667  0.333333  0.500000  1
  Nb  Nb9  1  0.333333  0.666667  0.500000  1
  Ge  Ge10  1  0.001385  0.398064  0.248458  1
  Ge  Ge11  1  0.601936  0.603321  0.248458  1
  Ge  Ge12  1  0.396679  0.998615  0.248458  1
  Ge  Ge13  1  0.001385  0.603321  0.751542  1
  Ge  Ge14  1  0.396679  0.398064  0.751542  1
  Ge  Ge15  1  0.601936  0.998615  0.751542  1
  N  N16  1  0.000000  0.000000  0.500000  1
