# generated using pymatgen
data_Tb3YBi3Sb
_symmetry_space_group_name_H-M   'P 1'
_cell_length_a   7.72561226
_cell_length_b   7.72561249
_cell_length_c   7.72560207
_cell_angle_alpha   131.73432072
_cell_angle_beta   131.73433140
_cell_angle_gamma   70.64892958
_symmetry_Int_Tables_number   1
_chemical_formula_structural   Tb3YBi3Sb
_chemical_formula_sum   'Tb3 Y1 Bi3 Sb1'
_cell_volume   251.55081268
_cell_formula_units_Z   1
loop_
 _symmetry_equiv_pos_site_id
 _symmetry_equiv_pos_as_xyz
  1  'x, y, z'
loop_
 _atom_site_type_symbol
 _atom_site_label
 _atom_site_symmetry_multiplicity
 _atom_site_fract_x
 _atom_site_fract_y
 _atom_site_fract_z
 _atom_site_occupancy
  Tb  Tb0  1  0.753899  0.753899  0.000001  1
  Tb  Tb1  1  0.500008  0.000008  0.500000  1
  Tb  Tb2  1  0.000008  0.500008  0.500000  1
  Y  Y3  1  0.246092  0.246092  0.000000  1
  Bi  Bi4  1  0.499966  0.499966  0.000000  1
  Bi  Bi5  1  0.749991  0.249992  0.500000  1
  Bi  Bi6  1  0.249992  0.749991  0.500000  1
  Sb  Sb7  1  0.000045  0.000045  0.000000  1
