# generated using pymatgen
data_Nd17Sm2TmSn16
_symmetry_space_group_name_H-M   'P 1'
_cell_length_a   8.27420123
_cell_length_b   8.42105062
_cell_length_c   15.95968000
_cell_angle_alpha   90.00000000
_cell_angle_beta   90.00000000
_cell_angle_gamma   89.99130637
_symmetry_Int_Tables_number   1
_chemical_formula_structural   Nd17Sm2TmSn16
_chemical_formula_sum   'Nd17 Sm2 Tm1 Sn16'
_cell_volume   1112.03006996
_cell_formula_units_Z   1
loop_
 _symmetry_equiv_pos_site_id
 _symmetry_equiv_pos_as_xyz
  1  'x, y, z'
loop_
 _atom_site_type_symbol
 _atom_site_label
 _atom_site_symmetry_multiplicity
 _atom_site_fract_x
 _atom_site_fract_y
 _atom_site_fract_z
 _atom_site_occupancy
  Nd  Nd0  1  0.018130  0.181015  0.401446  1
  Nd  Nd1  1  0.366950  0.837803  0.120601  1
  Nd  Nd2  1  0.133541  0.336993  0.620711  1
  Nd  Nd3  1  0.481423  0.681763  0.901886  1
  Nd  Nd4  1  0.866753  0.662320  0.121865  1
  Nd  Nd5  1  0.133541  0.336993  0.879289  1
  Nd  Nd6  1  0.481423  0.681763  0.598114  1
  Nd  Nd7  1  0.631945  0.162191  0.620258  1
  Nd  Nd8  1  0.803010  0.498114  0.750000  1
  Nd  Nd9  1  0.866753  0.662320  0.378135  1
  Nd  Nd10  1  0.018130  0.181015  0.098554  1
  Nd  Nd11  1  0.982389  0.819721  0.901754  1
  Nd  Nd12  1  0.631945  0.162191  0.879742  1
  Nd  Nd13  1  0.518455  0.319107  0.099140  1
  Nd  Nd14  1  0.366950  0.837803  0.379399  1
  Nd  Nd15  1  0.982389  0.819721  0.598246  1
  Nd  Nd16  1  0.518455  0.319107  0.400860  1
  Sm  Sm17  1  0.197725  0.502403  0.250000  1
  Sm  Sm18  1  0.698022  0.997712  0.250000  1
  Tm  Tm19  1  0.301085  0.002931  0.750000  1
  Sn  Sn20  1  0.792227  0.463596  0.541579  1
  Sn  Sn21  1  0.708115  0.964606  0.456270  1
  Sn  Sn22  1  0.674256  0.857992  0.750000  1
  Sn  Sn23  1  0.207582  0.534777  0.456334  1
  Sn  Sn24  1  0.292208  0.034580  0.955704  1
  Sn  Sn25  1  0.824374  0.353445  0.250000  1
  Sn  Sn26  1  0.792227  0.463596  0.958421  1
  Sn  Sn27  1  0.564683  0.616641  0.250000  1
  Sn  Sn28  1  0.207582  0.534777  0.043666  1
  Sn  Sn29  1  0.432339  0.381852  0.750000  1
  Sn  Sn30  1  0.178251  0.648685  0.750000  1
  Sn  Sn31  1  0.937525  0.114379  0.750000  1
  Sn  Sn32  1  0.292208  0.034580  0.544296  1
  Sn  Sn33  1  0.708115  0.964606  0.043730  1
  Sn  Sn34  1  0.323629  0.145291  0.250000  1
  Sn  Sn35  1  0.065668  0.883611  0.250000  1
