# generated using pymatgen
data_Hf6Al15ZnNi7
_symmetry_space_group_name_H-M   'P 1'
_cell_length_a   8.49442203
_cell_length_b   8.49522075
_cell_length_c   8.49375002
_cell_angle_alpha   59.99757654
_cell_angle_beta   59.99853271
_cell_angle_gamma   60.00606699
_symmetry_Int_Tables_number   1
_chemical_formula_structural   Hf6Al15ZnNi7
_chemical_formula_sum   'Hf6 Al15 Zn1 Ni7'
_cell_volume   433.41118762
_cell_formula_units_Z   1
loop_
 _symmetry_equiv_pos_site_id
 _symmetry_equiv_pos_as_xyz
  1  'x, y, z'
loop_
 _atom_site_type_symbol
 _atom_site_label
 _atom_site_symmetry_multiplicity
 _atom_site_fract_x
 _atom_site_fract_y
 _atom_site_fract_z
 _atom_site_occupancy
  Hf  Hf0  1  0.687042  0.687042  0.313032  1
  Hf  Hf1  1  0.312897  0.687019  0.313060  1
  Hf  Hf2  1  0.687003  0.312910  0.313079  1
  Hf  Hf3  1  0.312966  0.312967  0.686841  1
  Hf  Hf4  1  0.687197  0.312989  0.686823  1
  Hf  Hf5  1  0.313006  0.687176  0.686807  1
  Al  Al6  1  0.880915  0.357294  0.880866  1
  Al  Al7  1  0.357282  0.880915  0.880874  1
  Al  Al8  1  0.880923  0.880922  0.880877  1
  Al  Al9  1  0.119286  0.119290  0.642144  1
  Al  Al10  1  0.116990  0.644583  0.121420  1
  Al  Al11  1  0.644593  0.116975  0.121418  1
  Al  Al12  1  0.117001  0.116983  0.121420  1
  Al  Al13  1  0.665688  0.665706  0.002941  1
  Al  Al14  1  0.667739  0.001147  0.663349  1
  Al  Al15  1  0.001152  0.667737  0.663330  1
  Al  Al16  1  0.667775  0.667761  0.663309  1
  Al  Al17  1  0.334132  0.334110  0.997584  1
  Al  Al18  1  0.334595  0.997258  0.333573  1
  Al  Al19  1  0.997263  0.334595  0.333603  1
  Al  Al20  1  0.334528  0.334558  0.333634  1
  Zn  Zn21  1  0.881319  0.881316  0.356053  1
  Ni  Ni22  1  0.002016  0.002016  0.993955  1
  Ni  Ni23  1  0.001465  0.001472  0.504068  1
  Ni  Ni24  1  0.493137  0.001453  0.503960  1
  Ni  Ni25  1  0.001450  0.493179  0.503916  1
  Ni  Ni26  1  0.500114  0.500112  0.999366  1
  Ni  Ni27  1  0.000403  0.500114  0.999353  1
  Ni  Ni28  1  0.500122  0.000400  0.999344  1
