# generated using pymatgen
data_Nd4Al18NiRh5
_symmetry_space_group_name_H-M   'P 1'
_cell_length_a   7.62046355
_cell_length_b   7.62046377
_cell_length_c   9.58437105
_cell_angle_alpha   90.11177530
_cell_angle_beta   90.11177536
_cell_angle_gamma   119.45638968
_symmetry_Int_Tables_number   1
_chemical_formula_structural   Nd4Al18NiRh5
_chemical_formula_sum   'Nd4 Al18 Ni1 Rh5'
_cell_volume   484.62609095
_cell_formula_units_Z   1
loop_
 _symmetry_equiv_pos_site_id
 _symmetry_equiv_pos_as_xyz
  1  'x, y, z'
loop_
 _atom_site_type_symbol
 _atom_site_label
 _atom_site_symmetry_multiplicity
 _atom_site_fract_x
 _atom_site_fract_y
 _atom_site_fract_z
 _atom_site_occupancy
  Nd  Nd0  1  0.994362  0.669357  0.748751  1
  Nd  Nd1  1  0.005638  0.330643  0.251249  1
  Nd  Nd2  1  0.669357  0.994362  0.748751  1
  Nd  Nd3  1  0.330643  0.005638  0.251249  1
  Al  Al4  1  0.127910  0.127910  0.747666  1
  Al  Al5  1  0.872090  0.872090  0.252334  1
  Al  Al6  1  0.001801  0.332539  0.573610  1
  Al  Al7  1  0.998199  0.667461  0.426390  1
  Al  Al8  1  0.997688  0.665597  0.073338  1
  Al  Al9  1  0.334403  0.002312  0.926662  1
  Al  Al10  1  0.002312  0.334403  0.926662  1
  Al  Al11  1  0.665597  0.997688  0.073338  1
  Al  Al12  1  0.667461  0.998199  0.426390  1
  Al  Al13  1  0.332539  0.001801  0.573610  1
  Al  Al14  1  0.333833  0.333833  0.046332  1
  Al  Al15  1  0.666167  0.666167  0.953668  1
  Al  Al16  1  0.667292  0.667292  0.544779  1
  Al  Al17  1  0.332708  0.332708  0.455221  1
  Al  Al18  1  0.339346  0.546678  0.749496  1
  Al  Al19  1  0.660654  0.453322  0.250504  1
  Al  Al20  1  0.546678  0.339346  0.749496  1
  Al  Al21  1  0.453322  0.660654  0.250504  1
  Ni  Ni22  1  0.000000  0.000000  0.500000  1
  Rh  Rh23  1  0.671257  0.328743  0.500000  1
  Rh  Rh24  1  0.328743  0.671257  0.500000  1
  Rh  Rh25  1  0.328834  0.671166  0.000000  1
  Rh  Rh26  1  0.671166  0.328834  0.000000  1
  Rh  Rh27  1  0.000000  0.000000  0.000000  1
