# generated using pymatgen
data_Ce2Ho2TlInPd4
_symmetry_space_group_name_H-M   'P 1'
_cell_length_a   7.86025203
_cell_length_b   7.80501403
_cell_length_c   3.72921700
_cell_angle_alpha   90.00000000
_cell_angle_beta   90.00000000
_cell_angle_gamma   89.99070264
_symmetry_Int_Tables_number   1
_chemical_formula_structural   Ce2Ho2TlInPd4
_chemical_formula_sum   'Ce2 Ho2 Tl1 In1 Pd4'
_cell_volume   228.78513778
_cell_formula_units_Z   1
loop_
 _symmetry_equiv_pos_site_id
 _symmetry_equiv_pos_as_xyz
  1  'x, y, z'
loop_
 _atom_site_type_symbol
 _atom_site_label
 _atom_site_symmetry_multiplicity
 _atom_site_fract_x
 _atom_site_fract_y
 _atom_site_fract_z
 _atom_site_occupancy
  Ce  Ce0  1  0.326706  0.828631  0.500000  1
  Ce  Ce1  1  0.825357  0.670274  0.500000  1
  Ho  Ho2  1  0.172884  0.326308  0.500000  1
  Ho  Ho3  1  0.671495  0.175163  0.500000  1
  Tl  Tl4  1  0.999374  0.003567  0.000000  1
  In  In5  1  0.499325  0.496045  0.000000  1
  Pd  Pd6  1  0.374903  0.127925  0.000000  1
  Pd  Pd7  1  0.871983  0.375064  0.000000  1
  Pd  Pd8  1  0.130477  0.627412  0.000000  1
  Pd  Pd9  1  0.627496  0.869611  0.000000  1
