# generated using pymatgen
data_Lu4Al24NiPt8
_symmetry_space_group_name_H-M   'P 1'
_cell_length_a   7.49235327
_cell_length_b   7.48691788
_cell_length_c   13.08929472
_cell_angle_alpha   84.35341159
_cell_angle_beta   78.97012407
_cell_angle_gamma   60.10978272
_symmetry_Int_Tables_number   1
_chemical_formula_structural   Lu4Al24NiPt8
_chemical_formula_sum   'Lu4 Al24 Ni1 Pt8'
_cell_volume   624.80899892
_cell_formula_units_Z   1
loop_
 _symmetry_equiv_pos_site_id
 _symmetry_equiv_pos_as_xyz
  1  'x, y, z'
loop_
 _atom_site_type_symbol
 _atom_site_label
 _atom_site_symmetry_multiplicity
 _atom_site_fract_x
 _atom_site_fract_y
 _atom_site_fract_z
 _atom_site_occupancy
  Lu  Lu0  1  0.396444  0.165571  0.808172  1
  Lu  Lu1  1  0.603556  0.834429  0.191828  1
  Lu  Lu2  1  0.731158  0.498225  0.808219  1
  Lu  Lu3  1  0.268842  0.501775  0.191781  1
  Al  Al4  1  0.689120  0.826861  0.945962  1
  Al  Al5  1  0.310880  0.173139  0.054038  1
  Al  Al6  1  0.146292  0.832527  0.561953  1
  Al  Al7  1  0.853708  0.167473  0.438047  1
  Al  Al8  1  0.479831  0.167228  0.558974  1
  Al  Al9  1  0.520169  0.832772  0.441026  1
  Al  Al10  1  0.217228  0.166532  0.326517  1
  Al  Al11  1  0.782772  0.833468  0.673483  1
  Al  Al12  1  0.435663  0.506246  0.673359  1
  Al  Al13  1  0.564337  0.493754  0.326641  1
  Al  Al14  1  0.108893  0.160020  0.671922  1
  Al  Al15  1  0.891107  0.839980  0.328078  1
  Al  Al16  1  0.347077  0.497799  0.946181  1
  Al  Al17  1  0.652923  0.502201  0.053819  1
  Al  Al18  1  0.015371  0.176278  0.953997  1
  Al  Al19  1  0.984629  0.823722  0.046003  1
  Al  Al20  1  0.186793  0.498560  0.441081  1
  Al  Al21  1  0.813207  0.501440  0.558919  1
  Al  Al22  1  0.735866  0.164708  0.181942  1
  Al  Al23  1  0.264134  0.835292  0.818058  1
  Al  Al24  1  0.059758  0.622271  0.820873  1
  Al  Al25  1  0.940242  0.377729  0.179127  1
  Al  Al26  1  0.856510  0.039735  0.817552  1
  Al  Al27  1  0.143490  0.960265  0.182448  1
  Ni  Ni28  1  0.000000  0.500000  0.000000  1
  Pt  Pt29  1  0.119324  0.491711  0.640502  1
  Pt  Pt30  1  0.880676  0.508289  0.359498  1
  Pt  Pt31  1  0.656547  0.171743  0.999858  1
  Pt  Pt32  1  0.343453  0.828257  0.000142  1
  Pt  Pt33  1  0.537120  0.166662  0.359722  1
  Pt  Pt34  1  0.462880  0.833338  0.640278  1
  Pt  Pt35  1  0.777393  0.176191  0.638655  1
  Pt  Pt36  1  0.222607  0.823809  0.361345  1
