# generated using pymatgen
data_TbNd7Sc12(SiGe)8
_symmetry_space_group_name_H-M   'P 1'
_cell_length_a   7.27997521
_cell_length_b   7.53372731
_cell_length_c   14.27849116
_cell_angle_alpha   90.01849337
_cell_angle_beta   90.06027743
_cell_angle_gamma   90.02697576
_symmetry_Int_Tables_number   1
_chemical_formula_structural   TbNd7Sc12(SiGe)8
_chemical_formula_sum   'Tb1 Nd7 Sc12 Si8 Ge8'
_cell_volume   783.10825598
_cell_formula_units_Z   1
loop_
 _symmetry_equiv_pos_site_id
 _symmetry_equiv_pos_as_xyz
  1  'x, y, z'
loop_
 _atom_site_type_symbol
 _atom_site_label
 _atom_site_symmetry_multiplicity
 _atom_site_fract_x
 _atom_site_fract_y
 _atom_site_fract_z
 _atom_site_occupancy
  Tb  Tb0  1  0.493027  0.676228  0.600490  1
  Nd  Nd1  1  0.007231  0.174222  0.099163  1
  Nd  Nd2  1  0.992651  0.825407  0.899997  1
  Nd  Nd3  1  0.492627  0.674032  0.901157  1
  Nd  Nd4  1  0.992716  0.824780  0.598978  1
  Nd  Nd5  1  0.506996  0.325780  0.099052  1
  Nd  Nd6  1  0.008320  0.174471  0.401886  1
  Nd  Nd7  1  0.506759  0.325657  0.401768  1
  Sc  Sc8  1  0.164818  0.499453  0.749288  1
  Sc  Sc9  1  0.835714  0.501738  0.250063  1
  Sc  Sc10  1  0.335851  0.998297  0.250218  1
  Sc  Sc11  1  0.663944  0.001337  0.749356  1
  Sc  Sc12  1  0.336114  0.173153  0.627001  1
  Sc  Sc13  1  0.663729  0.826335  0.373408  1
  Sc  Sc14  1  0.164813  0.672256  0.373695  1
  Sc  Sc15  1  0.664620  0.827620  0.126847  1
  Sc  Sc16  1  0.835107  0.328300  0.626208  1
  Sc  Sc17  1  0.335535  0.172612  0.872276  1
  Sc  Sc18  1  0.835259  0.327411  0.872501  1
  Sc  Sc19  1  0.164244  0.672906  0.126836  1
  Si  Si20  1  0.037444  0.124052  0.749555  1
  Si  Si21  1  0.962221  0.875989  0.250363  1
  Si  Si22  1  0.461740  0.623850  0.250111  1
  Si  Si23  1  0.537635  0.378680  0.749081  1
  Si  Si24  1  0.293517  0.877299  0.748697  1
  Si  Si25  1  0.708276  0.120141  0.250185  1
  Si  Si26  1  0.208132  0.379885  0.250191  1
  Si  Si27  1  0.788884  0.621214  0.748520  1
  Ge  Ge28  1  0.170104  0.460962  0.542209  1
  Ge  Ge29  1  0.832591  0.541720  0.459509  1
  Ge  Ge30  1  0.336496  0.956298  0.460320  1
  Ge  Ge31  1  0.834985  0.541283  0.041046  1
  Ge  Ge32  1  0.663237  0.038034  0.541887  1
  Ge  Ge33  1  0.164522  0.458475  0.958513  1
  Ge  Ge34  1  0.665354  0.041178  0.958750  1
  Ge  Ge35  1  0.334785  0.958945  0.040878  1
