# generated using pymatgen
data_Dy6Ho10InHg3Ir4
_symmetry_space_group_name_H-M   'P 1'
_cell_length_a   9.58165083
_cell_length_b   9.58912549
_cell_length_c   9.58912500
_cell_angle_alpha   59.99999823
_cell_angle_beta   59.97418934
_cell_angle_gamma   59.97419419
_symmetry_Int_Tables_number   1
_chemical_formula_structural   Dy6Ho10InHg3Ir4
_chemical_formula_sum   'Dy6 Ho10 In1 Hg3 Ir4'
_cell_volume   622.75008308
_cell_formula_units_Z   1
loop_
 _symmetry_equiv_pos_site_id
 _symmetry_equiv_pos_as_xyz
  1  'x, y, z'
loop_
 _atom_site_type_symbol
 _atom_site_label
 _atom_site_symmetry_multiplicity
 _atom_site_fract_x
 _atom_site_fract_y
 _atom_site_fract_z
 _atom_site_occupancy
  Dy  Dy0  1  0.184941  0.812597  0.812597  1
  Dy  Dy1  1  0.811132  0.188114  0.188114  1
  Dy  Dy2  1  0.811132  0.188114  0.812641  1
  Dy  Dy3  1  0.184941  0.812597  0.189863  1
  Dy  Dy4  1  0.811132  0.812641  0.188114  1
  Dy  Dy5  1  0.184941  0.189863  0.812597  1
  Ho  Ho6  1  0.600272  0.599689  0.599689  1
  Ho  Ho7  1  0.600272  0.599689  0.200351  1
  Ho  Ho8  1  0.600272  0.200351  0.599689  1
  Ho  Ho9  1  0.199085  0.600305  0.600305  1
  Ho  Ho10  1  0.060750  0.439313  0.439313  1
  Ho  Ho11  1  0.438850  0.060189  0.060189  1
  Ho  Ho12  1  0.438850  0.060189  0.440773  1
  Ho  Ho13  1  0.060750  0.439313  0.060622  1
  Ho  Ho14  1  0.438850  0.440773  0.060189  1
  Ho  Ho15  1  0.060750  0.060622  0.439313  1
  In  In16  1  0.508150  0.830617  0.830617  1
  Hg  Hg17  1  0.834325  0.834466  0.834466  1
  Hg  Hg18  1  0.834325  0.834466  0.496744  1
  Hg  Hg19  1  0.834325  0.496744  0.834466  1
  Ir  Ir20  1  0.392155  0.391827  0.391827  1
  Ir  Ir21  1  0.392155  0.391827  0.824191  1
  Ir  Ir22  1  0.392155  0.824191  0.391827  1
  Ir  Ir23  1  0.825491  0.391504  0.391504  1
