# generated using pymatgen
data_La17Nd3Ir11Pt
_symmetry_space_group_name_H-M   'P 1'
_cell_length_a   11.42358694
_cell_length_b   11.42246704
_cell_length_c   6.67526261
_cell_angle_alpha   90.01274371
_cell_angle_beta   89.95275519
_cell_angle_gamma   89.73749476
_symmetry_Int_Tables_number   1
_chemical_formula_structural   La17Nd3Ir11Pt
_chemical_formula_sum   'La17 Nd3 Ir11 Pt1'
_cell_volume   871.01582210
_cell_formula_units_Z   1
loop_
 _symmetry_equiv_pos_site_id
 _symmetry_equiv_pos_as_xyz
  1  'x, y, z'
loop_
 _atom_site_type_symbol
 _atom_site_label
 _atom_site_symmetry_multiplicity
 _atom_site_fract_x
 _atom_site_fract_y
 _atom_site_fract_z
 _atom_site_occupancy
  La  La0  1  0.090874  0.291884  0.114519  1
  La  La1  1  0.791328  0.408972  0.113429  1
  La  La2  1  0.209352  0.587851  0.112325  1
  La  La3  1  0.906878  0.706822  0.113888  1
  La  La4  1  0.411819  0.790634  0.387254  1
  La  La5  1  0.591422  0.208638  0.386154  1
  La  La6  1  0.292773  0.093378  0.387099  1
  La  La7  1  0.708602  0.908843  0.386450  1
  La  La8  1  0.409423  0.208617  0.886785  1
  La  La9  1  0.707767  0.091086  0.885414  1
  La  La10  1  0.293827  0.910222  0.881143  1
  La  La11  1  0.590911  0.791331  0.886431  1
  La  La12  1  0.090007  0.706621  0.618326  1
  La  La13  1  0.908643  0.291666  0.613728  1
  La  La14  1  0.208591  0.408734  0.613947  1
  La  La15  1  0.791444  0.590909  0.613488  1
  La  La16  1  0.997927  0.001908  0.998493  1
  Nd  Nd17  1  0.500199  0.499948  0.999658  1
  Nd  Nd18  1  0.500132  0.499783  0.500306  1
  Nd  Nd19  1  0.998511  0.001508  0.500679  1
  Ir  Ir20  1  0.346453  0.346790  0.250132  1
  Ir  Ir21  1  0.653259  0.653506  0.250068  1
  Ir  Ir22  1  0.846908  0.153372  0.249577  1
  Ir  Ir23  1  0.345936  0.654135  0.749835  1
  Ir  Ir24  1  0.153439  0.152643  0.750225  1
  Ir  Ir25  1  0.847136  0.846735  0.750427  1
  Ir  Ir26  1  0.653314  0.346635  0.749830  1
  Ir  Ir27  1  0.000282  0.500903  0.380114  1
  Ir  Ir28  1  0.499095  0.999735  0.120071  1
  Ir  Ir29  1  0.499586  0.999628  0.619074  1
  Ir  Ir30  1  0.000366  0.500428  0.880736  1
  Pt  Pt31  1  0.153795  0.846135  0.250395  1
