# generated using pymatgen
data_La2(Ga3Rh)3
_symmetry_space_group_name_H-M   'P 1'
_cell_length_a   7.69774694
_cell_length_b   7.69774732
_cell_length_c   9.73237800
_cell_angle_alpha   90.00000000
_cell_angle_beta   90.00000000
_cell_angle_gamma   119.45603003
_symmetry_Int_Tables_number   1
_chemical_formula_structural   La2(Ga3Rh)3
_chemical_formula_sum   'La4 Ga18 Rh6'
_cell_volume   502.14763394
_cell_formula_units_Z   2
loop_
 _symmetry_equiv_pos_site_id
 _symmetry_equiv_pos_as_xyz
  1  'x, y, z'
loop_
 _atom_site_type_symbol
 _atom_site_label
 _atom_site_symmetry_multiplicity
 _atom_site_fract_x
 _atom_site_fract_y
 _atom_site_fract_z
 _atom_site_occupancy
  La  La0  1  0.996392  0.669036  0.750000  1
  La  La1  1  0.003608  0.330964  0.250000  1
  La  La2  1  0.669036  0.996392  0.750000  1
  La  La3  1  0.330964  0.003608  0.250000  1
  Ga  Ga4  1  0.130194  0.130194  0.750000  1
  Ga  Ga5  1  0.869806  0.869806  0.250000  1
  Ga  Ga6  1  0.004074  0.334943  0.575536  1
  Ga  Ga7  1  0.995926  0.665057  0.424464  1
  Ga  Ga8  1  0.995926  0.665057  0.075536  1
  Ga  Ga9  1  0.334943  0.004074  0.924464  1
  Ga  Ga10  1  0.004074  0.334943  0.924464  1
  Ga  Ga11  1  0.665057  0.995926  0.075536  1
  Ga  Ga12  1  0.665057  0.995926  0.424464  1
  Ga  Ga13  1  0.334943  0.004074  0.575536  1
  Ga  Ga14  1  0.335079  0.335079  0.052665  1
  Ga  Ga15  1  0.664921  0.664921  0.947335  1
  Ga  Ga16  1  0.664921  0.664921  0.552665  1
  Ga  Ga17  1  0.335079  0.335079  0.447335  1
  Ga  Ga18  1  0.338204  0.543938  0.750000  1
  Ga  Ga19  1  0.661796  0.456062  0.250000  1
  Ga  Ga20  1  0.543938  0.338204  0.750000  1
  Ga  Ga21  1  0.456062  0.661796  0.250000  1
  Rh  Rh22  1  0.670724  0.329276  0.500000  1
  Rh  Rh23  1  0.329276  0.670724  0.500000  1
  Rh  Rh24  1  0.329276  0.670724  0.000000  1
  Rh  Rh25  1  0.670724  0.329276  0.000000  1
  Rh  Rh26  1  0.000000  0.000000  0.500000  1
  Rh  Rh27  1  0.000000  0.000000  0.000000  1
