# generated using pymatgen
data_Sc12Co3Re
_symmetry_space_group_name_H-M   'P 1'
_cell_length_a   5.86070700
_cell_length_b   8.52992600
_cell_length_c   13.19450100
_cell_angle_alpha   90.00000000
_cell_angle_beta   90.00000000
_cell_angle_gamma   90.00000000
_symmetry_Int_Tables_number   1
_chemical_formula_structural   Sc12Co3Re
_chemical_formula_sum   'Sc24 Co6 Re2'
_cell_volume   659.61153794
_cell_formula_units_Z   2
loop_
 _symmetry_equiv_pos_site_id
 _symmetry_equiv_pos_as_xyz
  1  'x, y, z'
loop_
 _atom_site_type_symbol
 _atom_site_label
 _atom_site_symmetry_multiplicity
 _atom_site_fract_x
 _atom_site_fract_y
 _atom_site_fract_z
 _atom_site_occupancy
  Sc  Sc0  1  0.529738  0.750000  0.352212  1
  Sc  Sc1  1  0.029738  0.250000  0.147788  1
  Sc  Sc2  1  0.453215  0.250000  0.647220  1
  Sc  Sc3  1  0.953215  0.750000  0.852780  1
  Sc  Sc4  1  0.779681  0.750000  0.106370  1
  Sc  Sc5  1  0.279681  0.250000  0.393630  1
  Sc  Sc6  1  0.208493  0.250000  0.883470  1
  Sc  Sc7  1  0.708493  0.750000  0.616530  1
  Sc  Sc8  1  0.406372  0.933423  0.790056  1
  Sc  Sc9  1  0.906372  0.066577  0.709944  1
  Sc  Sc10  1  0.589372  0.434476  0.216674  1
  Sc  Sc11  1  0.089372  0.565524  0.283326  1
  Sc  Sc12  1  0.589372  0.065524  0.216674  1
  Sc  Sc13  1  0.089372  0.934476  0.283326  1
  Sc  Sc14  1  0.406372  0.566577  0.790056  1
  Sc  Sc15  1  0.906372  0.433423  0.709944  1
  Sc  Sc16  1  0.255022  0.936840  0.537752  1
  Sc  Sc17  1  0.755022  0.063160  0.962248  1
  Sc  Sc18  1  0.763350  0.439822  0.463974  1
  Sc  Sc19  1  0.263350  0.560178  0.036026  1
  Sc  Sc20  1  0.763350  0.060178  0.463974  1
  Sc  Sc21  1  0.263350  0.939822  0.036026  1
  Sc  Sc22  1  0.255022  0.563160  0.537752  1
  Sc  Sc23  1  0.755022  0.436840  0.962248  1
  Co  Co24  1  0.058053  0.250000  0.560981  1
  Co  Co25  1  0.558053  0.750000  0.939019  1
  Co  Co26  1  0.373451  0.750000  0.179150  1
  Co  Co27  1  0.873451  0.250000  0.320850  1
  Co  Co28  1  0.630471  0.250000  0.818292  1
  Co  Co29  1  0.130471  0.750000  0.681708  1
  Re  Re30  1  0.938667  0.750000  0.442112  1
  Re  Re31  1  0.438667  0.250000  0.057888  1
