# generated using pymatgen
data_Lu20ZnGaBi10
_symmetry_space_group_name_H-M   'P 1'
_cell_length_a   8.03634418
_cell_length_b   9.30576800
_cell_length_c   11.72870458
_cell_angle_alpha   90.00000000
_cell_angle_beta   89.93733039
_cell_angle_gamma   90.00000000
_symmetry_Int_Tables_number   1
_chemical_formula_structural   Lu20ZnGaBi10
_chemical_formula_sum   'Lu20 Zn1 Ga1 Bi10'
_cell_volume   877.12307672
_cell_formula_units_Z   1
loop_
 _symmetry_equiv_pos_site_id
 _symmetry_equiv_pos_as_xyz
  1  'x, y, z'
loop_
 _atom_site_type_symbol
 _atom_site_label
 _atom_site_symmetry_multiplicity
 _atom_site_fract_x
 _atom_site_fract_y
 _atom_site_fract_z
 _atom_site_occupancy
  Lu  Lu0  1  0.035808  0.250000  0.508206  1
  Lu  Lu1  1  0.981920  0.750000  0.491383  1
  Lu  Lu2  1  0.479666  0.750000  0.009987  1
  Lu  Lu3  1  0.538320  0.250000  0.990047  1
  Lu  Lu4  1  0.354244  0.250000  0.295665  1
  Lu  Lu5  1  0.654185  0.750000  0.717734  1
  Lu  Lu6  1  0.152724  0.750000  0.780660  1
  Lu  Lu7  1  0.851579  0.250000  0.206725  1
  Lu  Lu8  1  0.181676  0.250000  0.787216  1
  Lu  Lu9  1  0.808668  0.750000  0.216345  1
  Lu  Lu10  1  0.310876  0.750000  0.283420  1
  Lu  Lu11  1  0.676647  0.250000  0.712208  1
  Lu  Lu12  1  0.184441  0.073464  0.056274  1
  Lu  Lu13  1  0.808761  0.949266  0.941586  1
  Lu  Lu14  1  0.309574  0.952918  0.557729  1
  Lu  Lu15  1  0.808761  0.550734  0.941586  1
  Lu  Lu16  1  0.684113  0.073007  0.445367  1
  Lu  Lu17  1  0.184441  0.426536  0.056274  1
  Lu  Lu18  1  0.684113  0.426993  0.445367  1
  Lu  Lu19  1  0.309574  0.547082  0.557729  1
  Zn  Zn20  1  0.408080  0.250000  0.540567  1
  Ga  Ga21  1  0.910413  0.250000  0.958595  1
  Bi  Bi22  1  0.596197  0.750000  0.458152  1
  Bi  Bi23  1  0.096550  0.750000  0.041857  1
  Bi  Bi24  1  0.058419  0.001873  0.322647  1
  Bi  Bi25  1  0.938175  0.999403  0.677480  1
  Bi  Bi26  1  0.438170  0.998279  0.822837  1
  Bi  Bi27  1  0.938175  0.500597  0.677480  1
  Bi  Bi28  1  0.559569  0.003071  0.176698  1
  Bi  Bi29  1  0.058419  0.498127  0.322647  1
  Bi  Bi30  1  0.559569  0.496929  0.176698  1
  Bi  Bi31  1  0.438170  0.501721  0.822837  1
