# generated using pymatgen
data_La9Nd7CdHg3Ir4
_symmetry_space_group_name_H-M   'P 1'
_cell_length_a   10.03137307
_cell_length_b   10.05057770
_cell_length_c   10.05715800
_cell_angle_alpha   59.97833974
_cell_angle_beta   59.91493442
_cell_angle_gamma   60.21093136
_symmetry_Int_Tables_number   1
_chemical_formula_structural   La9Nd7CdHg3Ir4
_chemical_formula_sum   'La9 Nd7 Cd1 Hg3 Ir4'
_cell_volume   717.54156837
_cell_formula_units_Z   1
loop_
 _symmetry_equiv_pos_site_id
 _symmetry_equiv_pos_as_xyz
  1  'x, y, z'
loop_
 _atom_site_type_symbol
 _atom_site_label
 _atom_site_symmetry_multiplicity
 _atom_site_fract_x
 _atom_site_fract_y
 _atom_site_fract_z
 _atom_site_occupancy
  La  La0  1  0.348473  0.347852  0.348135  1
  La  La1  1  0.348473  0.347852  0.955538  1
  La  La2  1  0.350341  0.956767  0.346446  1
  La  La3  1  0.953992  0.351055  0.347476  1
  La  La4  1  0.806794  0.189885  0.193789  1
  La  La5  1  0.187708  0.808367  0.810908  1
  La  La6  1  0.187708  0.808367  0.193018  1
  La  La7  1  0.806794  0.189885  0.809533  1
  La  La8  1  0.190265  0.189926  0.809904  1
  Nd  Nd9  1  0.803317  0.804448  0.196117  1
  Nd  Nd10  1  0.935504  0.564400  0.564405  1
  Nd  Nd11  1  0.563161  0.936415  0.936031  1
  Nd  Nd12  1  0.563161  0.936415  0.564393  1
  Nd  Nd13  1  0.935504  0.564400  0.935691  1
  Nd  Nd14  1  0.561759  0.562585  0.937828  1
  Nd  Nd15  1  0.937205  0.937639  0.562578  1
  Cd  Cd16  1  0.260374  0.580075  0.579775  1
  Hg  Hg17  1  0.584582  0.586840  0.583864  1
  Hg  Hg18  1  0.584582  0.586840  0.244713  1
  Hg  Hg19  1  0.584867  0.243670  0.585731  1
  Ir  Ir20  1  0.140773  0.141124  0.140719  1
  Ir  Ir21  1  0.140773  0.141124  0.577385  1
  Ir  Ir22  1  0.146363  0.577697  0.137970  1
  Ir  Ir23  1  0.577524  0.146373  0.138051  1
