# generated using pymatgen
data_Mn3PbCl12
_symmetry_space_group_name_H-M   'P 1'
_cell_length_a   12.45930567
_cell_length_b   11.70568101
_cell_length_c   6.56745794
_cell_angle_alpha   80.67239471
_cell_angle_beta   67.98575242
_cell_angle_gamma   33.75681928
_symmetry_Int_Tables_number   1
_chemical_formula_structural   Mn3PbCl12
_chemical_formula_sum   'Mn3 Pb1 Cl12'
_cell_volume   472.17818516
_cell_formula_units_Z   1
loop_
 _symmetry_equiv_pos_site_id
 _symmetry_equiv_pos_as_xyz
  1  'x, y, z'
loop_
 _atom_site_type_symbol
 _atom_site_label
 _atom_site_symmetry_multiplicity
 _atom_site_fract_x
 _atom_site_fract_y
 _atom_site_fract_z
 _atom_site_occupancy
  Mn  Mn0  1  0.825926  0.825926  0.674074  1
  Mn  Mn1  1  0.666706  0.666706  0.833294  1
  Mn  Mn2  1  0.592763  0.592763  0.407237  1
  Pb  Pb3  1  0.416975  0.416975  0.583025  1
  Cl  Cl4  1  0.737587  0.301134  0.261159  1
  Cl  Cl5  1  0.867337  0.460256  0.101225  1
  Cl  Cl6  1  0.386342  0.812936  0.135028  1
  Cl  Cl7  1  0.460256  0.867337  0.571181  1
  Cl  Cl8  1  0.114668  0.674008  0.376514  1
  Cl  Cl9  1  0.301134  0.737587  0.700119  1
  Cl  Cl10  1  0.540707  0.951976  0.961839  1
  Cl  Cl11  1  0.951976  0.540707  0.545479  1
  Cl  Cl12  1  0.004147  0.646532  0.894971  1
  Cl  Cl13  1  0.812936  0.386342  0.665695  1
  Cl  Cl14  1  0.674008  0.114668  0.834812  1
  Cl  Cl15  1  0.646532  0.004147  0.454349  1
