# generated using pymatgen
data_Y3AlS6
_symmetry_space_group_name_H-M   'P 1'
_cell_length_a   8.55321534
_cell_length_b   8.55321524
_cell_length_c   6.45827000
_cell_angle_alpha   90.00000000
_cell_angle_beta   90.00000000
_cell_angle_gamma   102.26207179
_symmetry_Int_Tables_number   1
_chemical_formula_structural   Y3AlS6
_chemical_formula_sum   'Y6 Al2 S12'
_cell_volume   461.69206456
_cell_formula_units_Z   2
loop_
 _symmetry_equiv_pos_site_id
 _symmetry_equiv_pos_as_xyz
  1  'x, y, z'
loop_
 _atom_site_type_symbol
 _atom_site_label
 _atom_site_symmetry_multiplicity
 _atom_site_fract_x
 _atom_site_fract_y
 _atom_site_fract_z
 _atom_site_occupancy
  Y  Y0  1  0.401873  0.598127  0.663170  1
  Y  Y1  1  0.598127  0.401873  0.163170  1
  Y  Y2  1  0.284333  0.084675  0.753639  1
  Y  Y3  1  0.715667  0.915325  0.253639  1
  Y  Y4  1  0.915324  0.715667  0.753639  1
  Y  Y5  1  0.084675  0.284333  0.253639  1
  Al  Al6  1  0.200975  0.799025  0.292691  1
  Al  Al7  1  0.799025  0.200975  0.792691  1
  S  S8  1  0.957632  0.042368  0.932874  1
  S  S9  1  0.042368  0.957632  0.432874  1
  S  S10  1  0.217067  0.782933  0.944011  1
  S  S11  1  0.782933  0.217067  0.444011  1
  S  S12  1  0.632293  0.693087  0.957207  1
  S  S13  1  0.367707  0.306913  0.457207  1
  S  S14  1  0.306913  0.367707  0.957207  1
  S  S15  1  0.693087  0.632293  0.457207  1
  S  S16  1  0.103052  0.569540  0.466481  1
  S  S17  1  0.896948  0.430460  0.966481  1
  S  S18  1  0.430460  0.896948  0.466481  1
  S  S19  1  0.569540  0.103052  0.966481  1
