# generated using pymatgen
data_La2Al20IrRu3
_symmetry_space_group_name_H-M   'P 1'
_cell_length_a   6.91591825
_cell_length_b   6.91338392
_cell_length_c   9.23994845
_cell_angle_alpha   89.98812838
_cell_angle_beta   89.96767293
_cell_angle_gamma   96.81588349
_symmetry_Int_Tables_number   1
_chemical_formula_structural   La2Al20IrRu3
_chemical_formula_sum   'La2 Al20 Ir1 Ru3'
_cell_volume   438.66176201
_cell_formula_units_Z   1
loop_
 _symmetry_equiv_pos_site_id
 _symmetry_equiv_pos_as_xyz
  1  'x, y, z'
loop_
 _atom_site_type_symbol
 _atom_site_label
 _atom_site_symmetry_multiplicity
 _atom_site_fract_x
 _atom_site_fract_y
 _atom_site_fract_z
 _atom_site_occupancy
  La  La0  1  0.875633  0.122763  0.750276  1
  La  La1  1  0.124367  0.877237  0.249724  1
  Al  Al2  1  0.619958  0.377155  0.551836  1
  Al  Al3  1  0.380042  0.622845  0.448164  1
  Al  Al4  1  0.378060  0.622252  0.050968  1
  Al  Al5  1  0.621940  0.377748  0.949032  1
  Al  Al6  1  0.229064  0.226700  0.498733  1
  Al  Al7  1  0.770936  0.773300  0.501267  1
  Al  Al8  1  0.771441  0.771991  0.000475  1
  Al  Al9  1  0.228559  0.228009  0.999525  1
  Al  Al10  1  0.838766  0.161871  0.102037  1
  Al  Al11  1  0.161234  0.838129  0.897963  1
  Al  Al12  1  0.162778  0.839863  0.603260  1
  Al  Al13  1  0.837222  0.160137  0.396740  1
  Al  Al14  1  0.858815  0.589471  0.751292  1
  Al  Al15  1  0.141185  0.410529  0.248708  1
  Al  Al16  1  0.411259  0.140239  0.750291  1
  Al  Al17  1  0.588741  0.859761  0.249709  1
  Al  Al18  1  0.222096  0.483085  0.752190  1
  Al  Al19  1  0.777904  0.516915  0.247810  1
  Al  Al20  1  0.517028  0.778296  0.749515  1
  Al  Al21  1  0.482972  0.221704  0.250485  1
  Ir  Ir22  1  0.000000  0.500000  0.500000  1
  Ru  Ru23  1  0.000000  0.500000  0.000000  1
  Ru  Ru24  1  0.500000  0.000000  0.000000  1
  Ru  Ru25  1  0.500000  0.000000  0.500000  1
