# generated using pymatgen
data_Pr5FeRuO12
_symmetry_space_group_name_H-M   'P 1'
_cell_length_a   7.09715469
_cell_length_b   7.09715483
_cell_length_c   7.66622328
_cell_angle_alpha   74.43739548
_cell_angle_beta   74.43739413
_cell_angle_gamma   50.83750101
_symmetry_Int_Tables_number   1
_chemical_formula_structural   Pr5FeRuO12
_chemical_formula_sum   'Pr5 Fe1 Ru1 O12'
_cell_volume   285.88628116
_cell_formula_units_Z   1
loop_
 _symmetry_equiv_pos_site_id
 _symmetry_equiv_pos_as_xyz
  1  'x, y, z'
loop_
 _atom_site_type_symbol
 _atom_site_label
 _atom_site_symmetry_multiplicity
 _atom_site_fract_x
 _atom_site_fract_y
 _atom_site_fract_z
 _atom_site_occupancy
  Pr  Pr0  1  0.310242  0.302650  0.357107  1
  Pr  Pr1  1  0.697350  0.689758  0.642893  1
  Pr  Pr2  1  0.692710  0.693613  0.165492  1
  Pr  Pr3  1  0.306387  0.307290  0.834508  1
  Pr  Pr4  1  0.004202  0.995798  0.500000  1
  Fe  Fe5  1  0.752606  0.247394  0.000000  1
  Ru  Ru6  1  0.239607  0.760393  0.000000  1
  O  O7  1  0.098009  0.594091  0.576838  1
  O  O8  1  0.009773  0.988659  0.174682  1
  O  O9  1  0.405909  0.901991  0.423162  1
  O  O10  1  0.486629  0.514591  0.174765  1
  O  O11  1  0.099415  0.582267  0.078803  1
  O  O12  1  0.907134  0.401513  0.421485  1
  O  O13  1  0.011341  0.990227  0.825318  1
  O  O14  1  0.598487  0.092865  0.578515  1
  O  O15  1  0.485409  0.513371  0.825235  1
  O  O16  1  0.582315  0.105258  0.076429  1
  O  O17  1  0.417733  0.900585  0.921197  1
  O  O18  1  0.894742  0.417685  0.923571  1
