# generated using pymatgen
data_U4FeCo4Si2Ru
_symmetry_space_group_name_H-M   'P 1'
_cell_length_a   5.19321702
_cell_length_b   5.19321633
_cell_length_c   7.58677800
_cell_angle_alpha   90.00000000
_cell_angle_beta   90.00000000
_cell_angle_gamma   121.40268849
_symmetry_Int_Tables_number   1
_chemical_formula_structural   U4FeCo4Si2Ru
_chemical_formula_sum   'U4 Fe1 Co4 Si2 Ru1'
_cell_volume   174.64139604
_cell_formula_units_Z   1
loop_
 _symmetry_equiv_pos_site_id
 _symmetry_equiv_pos_as_xyz
  1  'x, y, z'
loop_
 _atom_site_type_symbol
 _atom_site_label
 _atom_site_symmetry_multiplicity
 _atom_site_fract_x
 _atom_site_fract_y
 _atom_site_fract_z
 _atom_site_occupancy
  U  U0  1  0.330573  0.669427  0.433690  1
  U  U1  1  0.667844  0.332156  0.573722  1
  U  U2  1  0.667844  0.332156  0.926278  1
  U  U3  1  0.330573  0.669427  0.066310  1
  Fe  Fe4  1  0.168297  0.831703  0.750000  1
  Co  Co5  1  0.830695  0.669368  0.250000  1
  Co  Co6  1  0.330632  0.169305  0.250000  1
  Co  Co7  1  0.168162  0.333927  0.750000  1
  Co  Co8  1  0.666073  0.831838  0.750000  1
  Si  Si9  1  0.004431  0.995569  0.504310  1
  Si  Si10  1  0.004431  0.995569  0.995690  1
  Ru  Ru11  1  0.830445  0.169555  0.250000  1
