# generated using pymatgen
data_Tb13Tm(LuBi2)6
_symmetry_space_group_name_H-M   'P 1'
_cell_length_a   8.23754275
_cell_length_b   9.48276463
_cell_length_c   12.06352964
_cell_angle_alpha   89.98885129
_cell_angle_beta   89.92582579
_cell_angle_gamma   90.01938866
_symmetry_Int_Tables_number   1
_chemical_formula_structural   Tb13Tm(LuBi2)6
_chemical_formula_sum   'Tb13 Tm1 Lu6 Bi12'
_cell_volume   942.33788481
_cell_formula_units_Z   1
loop_
 _symmetry_equiv_pos_site_id
 _symmetry_equiv_pos_as_xyz
  1  'x, y, z'
loop_
 _atom_site_type_symbol
 _atom_site_label
 _atom_site_symmetry_multiplicity
 _atom_site_fract_x
 _atom_site_fract_y
 _atom_site_fract_z
 _atom_site_occupancy
  Tb  Tb0  1  0.525732  0.249523  0.988058  1
  Tb  Tb1  1  0.354328  0.249642  0.283772  1
  Tb  Tb2  1  0.644907  0.751003  0.716113  1
  Tb  Tb3  1  0.145673  0.750532  0.783110  1
  Tb  Tb4  1  0.856186  0.249889  0.216183  1
  Tb  Tb5  1  0.186590  0.249497  0.780879  1
  Tb  Tb6  1  0.813339  0.750493  0.218880  1
  Tb  Tb7  1  0.313731  0.750223  0.281758  1
  Tb  Tb8  1  0.687172  0.249873  0.718688  1
  Tb  Tb9  1  0.807679  0.564321  0.940771  1
  Tb  Tb10  1  0.693591  0.063545  0.440866  1
  Tb  Tb11  1  0.192021  0.436074  0.059240  1
  Tb  Tb12  1  0.692955  0.436164  0.440847  1
  Tm  Tm13  1  0.306623  0.565498  0.559168  1
  Lu  Lu14  1  0.026000  0.250223  0.511368  1
  Lu  Lu15  1  0.976496  0.749988  0.489135  1
  Lu  Lu16  1  0.475059  0.750651  0.010894  1
  Lu  Lu17  1  0.193063  0.065675  0.059623  1
  Lu  Lu18  1  0.806385  0.933803  0.940465  1
  Lu  Lu19  1  0.306248  0.933598  0.559273  1
  Bi  Bi20  1  0.404229  0.248964  0.543403  1
  Bi  Bi21  1  0.592716  0.750111  0.458393  1
  Bi  Bi22  1  0.094738  0.754410  0.042682  1
  Bi  Bi23  1  0.907876  0.245491  0.957147  1
  Bi  Bi24  1  0.066181  0.003708  0.327904  1
  Bi  Bi25  1  0.934160  0.996108  0.672062  1
  Bi  Bi26  1  0.432696  0.994693  0.826950  1
  Bi  Bi27  1  0.934105  0.504213  0.671783  1
  Bi  Bi28  1  0.565115  0.002915  0.172827  1
  Bi  Bi29  1  0.066356  0.496483  0.328217  1
  Bi  Bi30  1  0.565998  0.497311  0.173003  1
  Bi  Bi31  1  0.432051  0.505377  0.826537  1
