# generated using pymatgen
data_YbHo2Al3CuSi2
_symmetry_space_group_name_H-M   'P 1'
_cell_length_a   6.86156800
_cell_length_b   6.89300243
_cell_length_c   4.21117600
_cell_angle_alpha   90.00000000
_cell_angle_beta   90.00000000
_cell_angle_gamma   119.84925952
_symmetry_Int_Tables_number   1
_chemical_formula_structural   YbHo2Al3CuSi2
_chemical_formula_sum   'Yb1 Ho2 Al3 Cu1 Si2'
_cell_volume   172.75216610
_cell_formula_units_Z   1
loop_
 _symmetry_equiv_pos_site_id
 _symmetry_equiv_pos_as_xyz
  1  'x, y, z'
loop_
 _atom_site_type_symbol
 _atom_site_label
 _atom_site_symmetry_multiplicity
 _atom_site_fract_x
 _atom_site_fract_y
 _atom_site_fract_z
 _atom_site_occupancy
  Yb  Yb0  1  0.410649  0.000000  0.000000  1
  Ho  Ho1  1  0.997829  0.407757  0.000000  1
  Ho  Ho2  1  0.590073  0.592244  0.000000  1
  Al  Al3  1  0.768055  0.000000  0.500001  1
  Al  Al4  1  0.236913  0.245123  0.500001  1
  Al  Al5  1  0.991788  0.754878  0.500001  1
  Cu  Cu6  1  0.004278  0.000000  0.000000  1
  Si  Si7  1  0.669962  0.339510  0.500001  1
  Si  Si8  1  0.330452  0.660491  0.500001  1
