# generated using pymatgen
data_Ce5GaTc3Ge
_symmetry_space_group_name_H-M   'P 1'
_cell_length_a   8.31517649
_cell_length_b   8.31727703
_cell_length_c   8.31727900
_cell_angle_alpha   109.41630098
_cell_angle_beta   109.57288807
_cell_angle_gamma   109.43478152
_symmetry_Int_Tables_number   1
_chemical_formula_structural   Ce5GaTc3Ge
_chemical_formula_sum   'Ce10 Ga2 Tc6 Ge2'
_cell_volume   442.74740702
_cell_formula_units_Z   2
loop_
 _symmetry_equiv_pos_site_id
 _symmetry_equiv_pos_as_xyz
  1  'x, y, z'
loop_
 _atom_site_type_symbol
 _atom_site_label
 _atom_site_symmetry_multiplicity
 _atom_site_fract_x
 _atom_site_fract_y
 _atom_site_fract_z
 _atom_site_occupancy
  Ce  Ce0  1  0.775522  0.778667  0.775272  1
  Ce  Ce1  1  0.304918  0.550198  0.752346  1
  Ce  Ce2  1  0.750000  0.307235  0.557235  1
  Ce  Ce3  1  0.552012  0.746869  0.298422  1
  Ce  Ce4  1  0.724478  0.499750  0.003145  1
  Ce  Ce5  1  0.003131  0.714561  0.503047  1
  Ce  Ce6  1  0.496869  0.999917  0.711430  1
  Ce  Ce7  1  0.250000  0.202985  0.952985  1
  Ce  Ce8  1  0.947988  0.246410  0.194858  1
  Ce  Ce9  1  0.195082  0.947427  0.245279  1
  Ga  Ga10  1  0.997675  0.087253  0.499508  1
  Ga  Ga11  1  0.502325  0.001834  0.089579  1
  Tc  Tc12  1  0.864500  0.126614  0.749229  1
  Tc  Tc13  1  0.750000  0.867080  0.117080  1
  Tc  Tc14  1  0.118289  0.752127  0.876594  1
  Tc  Tc15  1  0.250000  0.626240  0.376240  1
  Tc  Tc16  1  0.381711  0.258304  0.633837  1
  Tc  Tc17  1  0.635500  0.384729  0.262114  1
  Ge  Ge18  1  0.400034  0.400080  0.401755  1
  Ge  Ge19  1  0.099966  0.501722  0.000046  1
