# generated using pymatgen
data_Ta9Re(SiB2)2
_symmetry_space_group_name_H-M   'P 1'
_cell_length_a   6.19075650
_cell_length_b   6.19075767
_cell_length_c   7.27283329
_cell_angle_alpha   115.18918278
_cell_angle_beta   115.18918245
_cell_angle_gamma   89.99999187
_symmetry_Int_Tables_number   1
_chemical_formula_structural   Ta9Re(SiB2)2
_chemical_formula_sum   'Ta9 Re1 Si2 B4'
_cell_volume   222.58938793
_cell_formula_units_Z   1
loop_
 _symmetry_equiv_pos_site_id
 _symmetry_equiv_pos_as_xyz
  1  'x, y, z'
loop_
 _atom_site_type_symbol
 _atom_site_label
 _atom_site_symmetry_multiplicity
 _atom_site_fract_x
 _atom_site_fract_y
 _atom_site_fract_z
 _atom_site_occupancy
  Ta  Ta0  1  0.000000  0.000000  0.000000  1
  Ta  Ta1  1  0.029590  0.524436  0.720712  1
  Ta  Ta2  1  0.691123  0.196278  0.720712  1
  Ta  Ta3  1  0.196278  0.029590  0.720712  1
  Ta  Ta4  1  0.524436  0.691123  0.720712  1
  Ta  Ta5  1  0.970410  0.475564  0.279288  1
  Ta  Ta6  1  0.308877  0.803722  0.279288  1
  Ta  Ta7  1  0.803722  0.970410  0.279288  1
  Ta  Ta8  1  0.475564  0.308877  0.279288  1
  Re  Re9  1  0.500000  0.500000  0.000000  1
  Si  Si10  1  0.245175  0.245175  0.490349  1
  Si  Si11  1  0.754825  0.754825  0.509651  1
  B  B12  1  0.380932  0.879877  0.000000  1
  B  B13  1  0.619068  0.120123  0.000000  1
  B  B14  1  0.120123  0.380932  0.000000  1
  B  B15  1  0.879877  0.619068  0.000000  1
