# generated using pymatgen
data_La6Al24Os7Au
_symmetry_space_group_name_H-M   'P 1'
_cell_length_a   8.99350307
_cell_length_b   8.99350147
_cell_length_c   9.73492307
_cell_angle_alpha   89.95080650
_cell_angle_beta   90.04919609
_cell_angle_gamma   119.78967764
_symmetry_Int_Tables_number   1
_chemical_formula_structural   La6Al24Os7Au
_chemical_formula_sum   'La6 Al24 Os7 Au1'
_cell_volume   683.34050526
_cell_formula_units_Z   1
loop_
 _symmetry_equiv_pos_site_id
 _symmetry_equiv_pos_as_xyz
  1  'x, y, z'
loop_
 _atom_site_type_symbol
 _atom_site_label
 _atom_site_symmetry_multiplicity
 _atom_site_fract_x
 _atom_site_fract_y
 _atom_site_fract_z
 _atom_site_occupancy
  La  La0  1  0.188837  0.382471  0.250301  1
  La  La1  1  0.811163  0.617529  0.749699  1
  La  La2  1  0.617529  0.811163  0.250301  1
  La  La3  1  0.382471  0.188837  0.749699  1
  La  La4  1  0.193035  0.806965  0.255141  1
  La  La5  1  0.806965  0.193035  0.744859  1
  Al  Al6  1  0.327795  0.672205  0.006882  1
  Al  Al7  1  0.672205  0.327795  0.993118  1
  Al  Al8  1  0.666611  0.333389  0.504085  1
  Al  Al9  1  0.333389  0.666611  0.495915  1
  Al  Al10  1  0.161760  0.325320  0.574546  1
  Al  Al11  1  0.838240  0.674680  0.425454  1
  Al  Al12  1  0.674680  0.838240  0.574546  1
  Al  Al13  1  0.850076  0.678626  0.078595  1
  Al  Al14  1  0.325320  0.161760  0.425454  1
  Al  Al15  1  0.149924  0.321374  0.921405  1
  Al  Al16  1  0.163029  0.836971  0.576657  1
  Al  Al17  1  0.321374  0.149924  0.078595  1
  Al  Al18  1  0.836971  0.163029  0.423343  1
  Al  Al19  1  0.678626  0.850076  0.921405  1
  Al  Al20  1  0.837093  0.162907  0.075103  1
  Al  Al21  1  0.162907  0.837093  0.924897  1
  Al  Al22  1  0.563252  0.126270  0.249025  1
  Al  Al23  1  0.436748  0.873730  0.750975  1
  Al  Al24  1  0.873730  0.436748  0.249025  1
  Al  Al25  1  0.126270  0.563252  0.750975  1
  Al  Al26  1  0.565495  0.434505  0.256552  1
  Al  Al27  1  0.434505  0.565495  0.743448  1
  Al  Al28  1  0.999517  0.000483  0.250498  1
  Al  Al29  1  0.000483  0.999517  0.749502  1
  Os  Os30  1  0.500000  0.000000  0.000000  1
  Os  Os31  1  0.000000  0.500000  0.000000  1
  Os  Os32  1  0.500000  0.000000  0.500000  1
  Os  Os33  1  0.000000  0.500000  0.500000  1
  Os  Os34  1  0.500000  0.500000  0.500000  1
  Os  Os35  1  0.000000  0.000000  0.000000  1
  Os  Os36  1  0.000000  0.000000  0.500000  1
  Au  Au37  1  0.500000  0.500000  0.000000  1
