# generated using pymatgen
data_Lu4VRe3Os4
_symmetry_space_group_name_H-M   'P 1'
_cell_length_a   5.35398570
_cell_length_b   5.22068143
_cell_length_c   8.86927600
_cell_angle_alpha   90.00000000
_cell_angle_beta   90.00000000
_cell_angle_gamma   120.34542913
_symmetry_Int_Tables_number   1
_chemical_formula_structural   Lu4VRe3Os4
_chemical_formula_sum   'Lu4 V1 Re3 Os4'
_cell_volume   213.94442449
_cell_formula_units_Z   1
loop_
 _symmetry_equiv_pos_site_id
 _symmetry_equiv_pos_as_xyz
  1  'x, y, z'
loop_
 _atom_site_type_symbol
 _atom_site_label
 _atom_site_symmetry_multiplicity
 _atom_site_fract_x
 _atom_site_fract_y
 _atom_site_fract_z
 _atom_site_occupancy
  Lu  Lu0  1  0.333087  0.664934  0.438009  1
  Lu  Lu1  1  0.671308  0.337589  0.564426  1
  Lu  Lu2  1  0.671308  0.337589  0.935574  1
  Lu  Lu3  1  0.333087  0.664934  0.061991  1
  V  V4  1  0.829708  0.663953  0.250000  1
  Re  Re5  1  0.161911  0.328824  0.750000  1
  Re  Re6  1  0.167172  0.826920  0.750000  1
  Re  Re7  1  0.341080  0.172843  0.250000  1
  Os  Os8  1  0.647035  0.824917  0.750000  1
  Os  Os9  1  0.011722  0.000291  0.004185  1
  Os  Os10  1  0.820857  0.176915  0.250000  1
  Os  Os11  1  0.011722  0.000291  0.495815  1
