# generated using pymatgen
data_PuAsRuN
_symmetry_space_group_name_H-M   'P 1'
_cell_length_a   4.02787801
_cell_length_b   4.02787906
_cell_length_c   8.04004800
_cell_angle_alpha   90.00000000
_cell_angle_beta   90.00000000
_cell_angle_gamma   90.00628736
_symmetry_Int_Tables_number   1
_chemical_formula_structural   PuAsRuN
_chemical_formula_sum   'Pu2 As2 Ru2 N2'
_cell_volume   130.44017400
_cell_formula_units_Z   2
loop_
 _symmetry_equiv_pos_site_id
 _symmetry_equiv_pos_as_xyz
  1  'x, y, z'
loop_
 _atom_site_type_symbol
 _atom_site_label
 _atom_site_symmetry_multiplicity
 _atom_site_fract_x
 _atom_site_fract_y
 _atom_site_fract_z
 _atom_site_occupancy
  Pu  Pu0  1  0.250000  0.749999  0.130218  1
  Pu  Pu1  1  0.749999  0.250000  0.869782  1
  As  As2  1  0.749999  0.250000  0.330945  1
  As  As3  1  0.250000  0.749999  0.669055  1
  Ru  Ru4  1  0.250001  0.250001  0.500000  1
  Ru  Ru5  1  0.750000  0.750000  0.500000  1
  N  N6  1  0.250001  0.250001  0.000000  1
  N  N7  1  0.750000  0.750000  0.000000  1
