# generated using pymatgen
data_Dy12AlCo3SiBi
_symmetry_space_group_name_H-M   'P 1'
_cell_length_a   8.39877477
_cell_length_b   8.39877450
_cell_length_c   8.39877460
_cell_angle_alpha   110.72617855
_cell_angle_beta   112.71567398
_cell_angle_gamma   105.06646134
_symmetry_Int_Tables_number   1
_chemical_formula_structural   Dy12AlCo3SiBi
_chemical_formula_sum   'Dy12 Al1 Co3 Si1 Bi1'
_cell_volume   453.91416147
_cell_formula_units_Z   1
loop_
 _symmetry_equiv_pos_site_id
 _symmetry_equiv_pos_as_xyz
  1  'x, y, z'
loop_
 _atom_site_type_symbol
 _atom_site_label
 _atom_site_symmetry_multiplicity
 _atom_site_fract_x
 _atom_site_fract_y
 _atom_site_fract_z
 _atom_site_occupancy
  Dy  Dy0  1  0.281355  0.180530  0.461885  1
  Dy  Dy1  1  0.718071  0.812042  0.530113  1
  Dy  Dy2  1  0.281929  0.812042  0.093974  1
  Dy  Dy3  1  0.718645  0.180530  0.899173  1
  Dy  Dy4  1  0.617078  0.307260  0.312820  1
  Dy  Dy5  1  0.382922  0.695742  0.690181  1
  Dy  Dy6  1  0.994438  0.307260  0.690181  1
  Dy  Dy7  1  0.005562  0.695742  0.312820  1
  Dy  Dy8  1  0.226717  0.425119  0.198401  1
  Dy  Dy9  1  0.769155  0.562659  0.793504  1
  Dy  Dy10  1  0.230845  0.024350  0.793504  1
  Dy  Dy11  1  0.773283  0.971684  0.198401  1
  Al  Al12  1  0.000000  0.989206  0.989206  1
  Co  Co13  1  0.000000  0.654923  0.654923  1
  Co  Co14  1  0.391298  0.893180  0.501882  1
  Co  Co15  1  0.608702  0.110584  0.501882  1
  Si  Si16  1  0.000000  0.379780  0.379780  1
  Bi  Bi17  1  0.500000  0.497368  0.997368  1
