# generated using pymatgen
data_TiMn3Rh4
_symmetry_space_group_name_H-M   'P 1'
_cell_length_a   7.48046662
_cell_length_b   7.48046731
_cell_length_c   7.48046700
_cell_angle_alpha   33.80603982
_cell_angle_beta   33.80604150
_cell_angle_gamma   33.80603547
_symmetry_Int_Tables_number   1
_chemical_formula_structural   TiMn3Rh4
_chemical_formula_sum   'Ti1 Mn3 Rh4'
_cell_volume   115.46631761
_cell_formula_units_Z   1
loop_
 _symmetry_equiv_pos_site_id
 _symmetry_equiv_pos_as_xyz
  1  'x, y, z'
loop_
 _atom_site_type_symbol
 _atom_site_label
 _atom_site_symmetry_multiplicity
 _atom_site_fract_x
 _atom_site_fract_y
 _atom_site_fract_z
 _atom_site_occupancy
  Ti  Ti0  1  0.000000  0.000000  0.000000  1
  Mn  Mn1  1  0.248476  0.248476  0.248476  1
  Mn  Mn2  1  0.751524  0.751524  0.751524  1
  Mn  Mn3  1  0.500000  0.500000  0.500000  1
  Rh  Rh4  1  0.876144  0.876144  0.876144  1
  Rh  Rh5  1  0.374243  0.374243  0.374243  1
  Rh  Rh6  1  0.123856  0.123856  0.123856  1
  Rh  Rh7  1  0.625757  0.625757  0.625757  1
