# generated using pymatgen
data_KBa3RuO6
_symmetry_space_group_name_H-M   'P 1'
_cell_length_a   7.27497893
_cell_length_b   7.27497911
_cell_length_c   7.27497952
_cell_angle_alpha   89.02381234
_cell_angle_beta   89.02381042
_cell_angle_gamma   89.02381302
_symmetry_Int_Tables_number   1
_chemical_formula_structural   KBa3RuO6
_chemical_formula_sum   'K2 Ba6 Ru2 O12'
_cell_volume   384.86484982
_cell_formula_units_Z   2
loop_
 _symmetry_equiv_pos_site_id
 _symmetry_equiv_pos_as_xyz
  1  'x, y, z'
loop_
 _atom_site_type_symbol
 _atom_site_label
 _atom_site_symmetry_multiplicity
 _atom_site_fract_x
 _atom_site_fract_y
 _atom_site_fract_z
 _atom_site_occupancy
  K  K0  1  0.250000  0.250000  0.250000  1
  K  K1  1  0.750000  0.750000  0.750000  1
  Ba  Ba2  1  0.109119  0.750000  0.390881  1
  Ba  Ba3  1  0.390881  0.109119  0.750000  1
  Ba  Ba4  1  0.890881  0.250000  0.609119  1
  Ba  Ba5  1  0.609119  0.890881  0.250000  1
  Ba  Ba6  1  0.750000  0.390881  0.109119  1
  Ba  Ba7  1  0.250000  0.609119  0.890881  1
  Ru  Ru8  1  0.000000  0.000000  0.000000  1
  Ru  Ru9  1  0.500000  0.500000  0.500000  1
  O  O10  1  0.437566  0.761998  0.572241  1
  O  O11  1  0.572241  0.437566  0.761998  1
  O  O12  1  0.761998  0.572241  0.437566  1
  O  O13  1  0.062434  0.927759  0.738002  1
  O  O14  1  0.738002  0.062434  0.927759  1
  O  O15  1  0.927759  0.738002  0.062434  1
  O  O16  1  0.562434  0.238002  0.427759  1
  O  O17  1  0.427759  0.562434  0.238002  1
  O  O18  1  0.238002  0.427759  0.562434  1
  O  O19  1  0.937566  0.072241  0.261998  1
  O  O20  1  0.072241  0.261998  0.937566  1
  O  O21  1  0.261998  0.937566  0.072241  1
