# generated using pymatgen
data_DyY3HoIr2
_symmetry_space_group_name_H-M   'P 1'
_cell_length_a   6.50658863
_cell_length_b   7.22781856
_cell_length_c   8.55312082
_cell_angle_alpha   96.51336145
_cell_angle_beta   112.35619475
_cell_angle_gamma   90.00000770
_symmetry_Int_Tables_number   1
_chemical_formula_structural   DyY3HoIr2
_chemical_formula_sum   'Dy2 Y6 Ho2 Ir4'
_cell_volume   369.19759250
_cell_formula_units_Z   2
loop_
 _symmetry_equiv_pos_site_id
 _symmetry_equiv_pos_as_xyz
  1  'x, y, z'
loop_
 _atom_site_type_symbol
 _atom_site_label
 _atom_site_symmetry_multiplicity
 _atom_site_fract_x
 _atom_site_fract_y
 _atom_site_fract_z
 _atom_site_occupancy
  Dy  Dy0  1  0.971766  0.916522  0.181798  1
  Dy  Dy1  1  0.789969  0.583478  0.818202  1
  Y  Y2  1  0.028730  0.082173  0.818225  1
  Y  Y3  1  0.210505  0.417827  0.181775  1
  Y  Y4  1  0.653484  0.817506  0.441207  1
  Y  Y5  1  0.212277  0.682494  0.558793  1
  Y  Y6  1  0.346560  0.182475  0.559003  1
  Y  Y7  1  0.787557  0.317525  0.440997  1
  Ho  Ho8  1  0.428659  0.750000  0.000000  1
  Ho  Ho9  1  0.571544  0.250000  0.000000  1
  Ir  Ir10  1  0.823052  0.573690  0.216824  1
  Ir  Ir11  1  0.606229  0.926310  0.783176  1
  Ir  Ir12  1  0.176267  0.427960  0.782867  1
  Ir  Ir13  1  0.393400  0.072040  0.217133  1
