# generated using pymatgen
data_Ba6TaMn2O12
_symmetry_space_group_name_H-M   'P 1'
_cell_length_a   9.22258560
_cell_length_b   9.22258496
_cell_length_c   7.28983900
_cell_angle_alpha   67.70964654
_cell_angle_beta   67.70964816
_cell_angle_gamma   36.89928573
_symmetry_Int_Tables_number   1
_chemical_formula_structural   Ba6TaMn2O12
_chemical_formula_sum   'Ba6 Ta1 Mn2 O12'
_cell_volume   341.22564517
_cell_formula_units_Z   1
loop_
 _symmetry_equiv_pos_site_id
 _symmetry_equiv_pos_as_xyz
  1  'x, y, z'
loop_
 _atom_site_type_symbol
 _atom_site_label
 _atom_site_symmetry_multiplicity
 _atom_site_fract_x
 _atom_site_fract_y
 _atom_site_fract_z
 _atom_site_occupancy
  Ba  Ba0  1  0.877067  0.877067  0.716194  1
  Ba  Ba1  1  0.218270  0.218270  0.712882  1
  Ba  Ba2  1  0.548372  0.548372  0.707916  1
  Ba  Ba3  1  0.451628  0.451628  0.292084  1
  Ba  Ba4  1  0.781730  0.781730  0.287118  1
  Ba  Ba5  1  0.122933  0.122933  0.283806  1
  Ta  Ta6  1  0.000000  0.000000  0.000000  1
  Mn  Mn7  1  0.667810  0.667810  0.999589  1
  Mn  Mn8  1  0.332190  0.332190  0.000411  1
  O  O9  1  0.949295  0.949295  0.302892  1
  O  O10  1  0.284947  0.284947  0.296466  1
  O  O11  1  0.616455  0.616455  0.296623  1
  O  O12  1  0.383545  0.383545  0.703377  1
  O  O13  1  0.715053  0.715053  0.703534  1
  O  O14  1  0.050705  0.050705  0.697108  1
  O  O15  1  0.500000  0.000000  0.000000  1
  O  O16  1  0.836245  0.326414  0.999871  1
  O  O17  1  0.163755  0.673586  0.000129  1
  O  O18  1  0.000000  0.500000  0.000000  1
  O  O19  1  0.326414  0.836245  0.999871  1
  O  O20  1  0.673586  0.163755  0.000129  1
