# generated using pymatgen
data_TiBe(GaRh2)2
_symmetry_space_group_name_H-M   'P 1'
_cell_length_a   4.20212900
_cell_length_b   4.20212900
_cell_length_c   6.10793100
_cell_angle_alpha   90.00000000
_cell_angle_beta   90.00000000
_cell_angle_gamma   90.00000000
_symmetry_Int_Tables_number   1
_chemical_formula_structural   TiBe(GaRh2)2
_chemical_formula_sum   'Ti1 Be1 Ga2 Rh4'
_cell_volume   107.85316232
_cell_formula_units_Z   1
loop_
 _symmetry_equiv_pos_site_id
 _symmetry_equiv_pos_as_xyz
  1  'x, y, z'
loop_
 _atom_site_type_symbol
 _atom_site_label
 _atom_site_symmetry_multiplicity
 _atom_site_fract_x
 _atom_site_fract_y
 _atom_site_fract_z
 _atom_site_occupancy
  Ti  Ti0  1  0.499999  0.499999  0.000000  1
  Be  Be1  1  0.000000  0.000000  0.500001  1
  Ga  Ga2  1  0.000000  0.000000  0.000000  1
  Ga  Ga3  1  0.499999  0.499999  0.500001  1
  Rh  Rh4  1  0.499999  0.000000  0.260771  1
  Rh  Rh5  1  0.000000  0.499999  0.260771  1
  Rh  Rh6  1  0.499999  0.000000  0.739230  1
  Rh  Rh7  1  0.000000  0.499999  0.739230  1
