# generated using pymatgen
data_Pm2Cu3Ru
_symmetry_space_group_name_H-M   'P 1'
_cell_length_a   5.15110853
_cell_length_b   5.45132427
_cell_length_c   5.15110900
_cell_angle_alpha   61.80564628
_cell_angle_beta   60.00000342
_cell_angle_gamma   61.80564522
_symmetry_Int_Tables_number   1
_chemical_formula_structural   Pm2Cu3Ru
_chemical_formula_sum   'Pm2 Cu3 Ru1'
_cell_volume   104.98257445
_cell_formula_units_Z   1
loop_
 _symmetry_equiv_pos_site_id
 _symmetry_equiv_pos_as_xyz
  1  'x, y, z'
loop_
 _atom_site_type_symbol
 _atom_site_label
 _atom_site_symmetry_multiplicity
 _atom_site_fract_x
 _atom_site_fract_y
 _atom_site_fract_z
 _atom_site_occupancy
  Pm  Pm0  1  0.751343  0.745972  0.751343  1
  Pm  Pm1  1  0.498657  0.504028  0.498657  1
  Cu  Cu2  1  0.125000  0.125000  0.125000  1
  Cu  Cu3  1  0.625000  0.125000  0.125000  1
  Cu  Cu4  1  0.125000  0.125000  0.625000  1
  Ru  Ru5  1  0.125000  0.625000  0.125000  1
