# generated using pymatgen
data_La7Pr3Sn20(IrPd)4
_symmetry_space_group_name_H-M   'P 1'
_cell_length_a   14.32109800
_cell_length_b   14.30024800
_cell_length_c   4.72586600
_cell_angle_alpha   90.00000000
_cell_angle_beta   90.00000000
_cell_angle_gamma   90.00228212
_symmetry_Int_Tables_number   1
_chemical_formula_structural   La7Pr3Sn20(IrPd)4
_chemical_formula_sum   'La7 Pr3 Sn20 Ir4 Pd4'
_cell_volume   967.83492288
_cell_formula_units_Z   1
loop_
 _symmetry_equiv_pos_site_id
 _symmetry_equiv_pos_as_xyz
  1  'x, y, z'
loop_
 _atom_site_type_symbol
 _atom_site_label
 _atom_site_symmetry_multiplicity
 _atom_site_fract_x
 _atom_site_fract_y
 _atom_site_fract_z
 _atom_site_occupancy
  La  La0  1  0.500044  0.499953  0.000000  1
  La  La1  1  0.000003  0.999948  0.000000  1
  La  La2  1  0.824094  0.681026  0.500000  1
  La  La3  1  0.892568  0.389684  0.500000  1
  La  La4  1  0.107509  0.610223  0.500000  1
  La  La5  1  0.392536  0.110275  0.500000  1
  La  La6  1  0.607370  0.889791  0.500000  1
  Pr  Pr7  1  0.675803  0.180810  0.500000  1
  Pr  Pr8  1  0.324205  0.819196  0.500000  1
  Pr  Pr9  1  0.175814  0.319147  0.500000  1
  Sn  Sn10  1  0.568246  0.070394  0.000000  1
  Sn  Sn11  1  0.431763  0.929597  0.000000  1
  Sn  Sn12  1  0.068316  0.429535  0.000000  1
  Sn  Sn13  1  0.932176  0.569978  0.000000  1
  Sn  Sn14  1  0.651672  0.703675  0.000000  1
  Sn  Sn15  1  0.347976  0.296446  0.000000  1
  Sn  Sn16  1  0.152083  0.796445  0.000000  1
  Sn  Sn17  1  0.847951  0.203591  0.000000  1
  Sn  Sn18  1  0.301537  0.652734  0.000000  1
  Sn  Sn19  1  0.698454  0.347250  0.000000  1
  Sn  Sn20  1  0.198453  0.152704  0.000000  1
  Sn  Sn21  1  0.801431  0.847744  0.000000  1
  Sn  Sn22  1  0.663624  0.502310  0.500000  1
  Sn  Sn23  1  0.336195  0.497327  0.500000  1
  Sn  Sn24  1  0.163777  0.997323  0.500000  1
  Sn  Sn25  1  0.836129  0.002546  0.500000  1
  Sn  Sn26  1  0.496967  0.663128  0.500000  1
  Sn  Sn27  1  0.503179  0.336990  0.500000  1
  Sn  Sn28  1  0.003140  0.163077  0.500000  1
  Sn  Sn29  1  0.997214  0.837190  0.500000  1
  Ir  Ir30  1  0.467973  0.744104  0.000000  1
  Ir  Ir31  1  0.531895  0.255921  0.000000  1
  Ir  Ir32  1  0.031940  0.244099  0.000000  1
  Ir  Ir33  1  0.968033  0.755907  0.000000  1
  Pd  Pd34  1  0.744588  0.531657  0.000000  1
  Pd  Pd35  1  0.255369  0.468217  0.000000  1
  Pd  Pd36  1  0.244625  0.968214  0.000000  1
  Pd  Pd37  1  0.755349  0.031846  0.000000  1
