# generated using pymatgen
data_Y6MnSi24Ru7
_symmetry_space_group_name_H-M   'P 1'
_cell_length_a   10.11426536
_cell_length_b   10.11426650
_cell_length_c   8.12161912
_cell_angle_alpha   90.02408654
_cell_angle_beta   90.02408489
_cell_angle_gamma   132.64325405
_symmetry_Int_Tables_number   1
_chemical_formula_structural   Y6MnSi24Ru7
_chemical_formula_sum   'Y6 Mn1 Si24 Ru7'
_cell_volume   611.14533967
_cell_formula_units_Z   1
loop_
 _symmetry_equiv_pos_site_id
 _symmetry_equiv_pos_as_xyz
  1  'x, y, z'
loop_
 _atom_site_type_symbol
 _atom_site_label
 _atom_site_symmetry_multiplicity
 _atom_site_fract_x
 _atom_site_fract_y
 _atom_site_fract_z
 _atom_site_occupancy
  Y  Y0  1  0.498155  0.997497  0.248732  1
  Y  Y1  1  0.003056  0.501886  0.750920  1
  Y  Y2  1  0.501886  0.003056  0.750920  1
  Y  Y3  1  0.997497  0.498155  0.248732  1
  Y  Y4  1  0.501792  0.501792  0.500608  1
  Y  Y5  1  0.999439  0.999439  0.997908  1
  Mn  Mn6  1  0.624692  0.624692  0.874959  1
  Si  Si7  1  0.387582  0.154513  0.005035  1
  Si  Si8  1  0.654551  0.887736  0.494522  1
  Si  Si9  1  0.112426  0.345241  0.506267  1
  Si  Si10  1  0.841874  0.614090  0.989313  1
  Si  Si11  1  0.614090  0.841874  0.989313  1
  Si  Si12  1  0.345241  0.112426  0.506267  1
  Si  Si13  1  0.887736  0.654551  0.494522  1
  Si  Si14  1  0.154513  0.387582  0.005035  1
  Si  Si15  1  0.612184  0.378197  0.228736  1
  Si  Si16  1  0.877151  0.110407  0.271310  1
  Si  Si17  1  0.888719  0.122127  0.728639  1
  Si  Si18  1  0.624547  0.396218  0.772492  1
  Si  Si19  1  0.396218  0.624547  0.772492  1
  Si  Si20  1  0.122127  0.888719  0.728639  1
  Si  Si21  1  0.704459  0.294693  0.000105  1
  Si  Si22  1  0.794826  0.205059  0.499975  1
  Si  Si23  1  0.294693  0.704459  0.000105  1
  Si  Si24  1  0.205059  0.794826  0.499975  1
  Si  Si25  1  0.166437  0.166437  0.334029  1
  Si  Si26  1  0.667513  0.667513  0.160939  1
  Si  Si27  1  0.338572  0.338572  0.833057  1
  Si  Si28  1  0.826168  0.826168  0.673166  1
  Si  Si29  1  0.378197  0.612184  0.228736  1
  Si  Si30  1  0.110407  0.877151  0.271310  1
  Ru  Ru31  1  0.125086  0.125086  0.628650  1
  Ru  Ru32  1  0.871833  0.871833  0.374430  1
  Ru  Ru33  1  0.373952  0.373952  0.126915  1
  Ru  Ru34  1  0.330504  0.669527  0.501813  1
  Ru  Ru35  1  0.167911  0.829371  0.999812  1
  Ru  Ru36  1  0.669527  0.330504  0.501813  1
  Ru  Ru37  1  0.829371  0.167911  0.999812  1
