# generated using pymatgen
data_Nb13Ni8Sn3N4
_symmetry_space_group_name_H-M   'P 1'
_cell_length_a   8.31980140
_cell_length_b   8.31980289
_cell_length_c   8.31980263
_cell_angle_alpha   59.50854522
_cell_angle_beta   59.50853646
_cell_angle_gamma   59.50854330
_symmetry_Int_Tables_number   1
_chemical_formula_structural   Nb13Ni8Sn3N4
_chemical_formula_sum   'Nb13 Ni8 Sn3 N4'
_cell_volume   402.66399763
_cell_formula_units_Z   1
loop_
 _symmetry_equiv_pos_site_id
 _symmetry_equiv_pos_as_xyz
  1  'x, y, z'
loop_
 _atom_site_type_symbol
 _atom_site_label
 _atom_site_symmetry_multiplicity
 _atom_site_fract_x
 _atom_site_fract_y
 _atom_site_fract_z
 _atom_site_occupancy
  Nb  Nb0  1  0.625000  0.625000  0.625000  1
  Nb  Nb1  1  0.818716  0.818716  0.186333  1
  Nb  Nb2  1  0.182042  0.182042  0.818210  1
  Nb  Nb3  1  0.818716  0.186333  0.818716  1
  Nb  Nb4  1  0.182042  0.818210  0.182042  1
  Nb  Nb5  1  0.186333  0.818716  0.818716  1
  Nb  Nb6  1  0.818210  0.182042  0.182042  1
  Nb  Nb7  1  0.431284  0.431284  0.063667  1
  Nb  Nb8  1  0.067958  0.067958  0.431790  1
  Nb  Nb9  1  0.431284  0.063667  0.431284  1
  Nb  Nb10  1  0.067958  0.431790  0.067958  1
  Nb  Nb11  1  0.063667  0.431284  0.431284  1
  Nb  Nb12  1  0.431790  0.067958  0.067958  1
  Ni  Ni13  1  0.752252  0.418914  0.418914  1
  Ni  Ni14  1  0.418914  0.752252  0.418914  1
  Ni  Ni15  1  0.418914  0.418914  0.752252  1
  Ni  Ni16  1  0.411461  0.411461  0.411461  1
  Ni  Ni17  1  0.497748  0.831086  0.831086  1
  Ni  Ni18  1  0.831086  0.497748  0.831086  1
  Ni  Ni19  1  0.831086  0.831086  0.497748  1
  Ni  Ni20  1  0.838539  0.838539  0.838539  1
  Sn  Sn21  1  0.125000  0.625000  0.625000  1
  Sn  Sn22  1  0.625000  0.125000  0.625000  1
  Sn  Sn23  1  0.625000  0.625000  0.125000  1
  N  N24  1  0.625000  0.125000  0.125000  1
  N  N25  1  0.125000  0.625000  0.125000  1
  N  N26  1  0.125000  0.125000  0.625000  1
  N  N27  1  0.125000  0.125000  0.125000  1
