# generated using pymatgen
data_Zr3ZnRh2N
_symmetry_space_group_name_H-M   'P 1'
_cell_length_a   8.56184588
_cell_length_b   8.56184600
_cell_length_c   8.56184600
_cell_angle_alpha   59.99999999
_cell_angle_beta   59.99999953
_cell_angle_gamma   60.00000015
_symmetry_Int_Tables_number   1
_chemical_formula_structural   Zr3ZnRh2N
_chemical_formula_sum   'Zr12 Zn4 Rh8 N4'
_cell_volume   443.79993159
_cell_formula_units_Z   4
loop_
 _symmetry_equiv_pos_site_id
 _symmetry_equiv_pos_as_xyz
  1  'x, y, z'
loop_
 _atom_site_type_symbol
 _atom_site_label
 _atom_site_symmetry_multiplicity
 _atom_site_fract_x
 _atom_site_fract_y
 _atom_site_fract_z
 _atom_site_occupancy
  Zr  Zr0  1  0.808413  0.191587  0.191587  1
  Zr  Zr1  1  0.191587  0.808413  0.191587  1
  Zr  Zr2  1  0.808413  0.808413  0.191587  1
  Zr  Zr3  1  0.191587  0.808413  0.808413  1
  Zr  Zr4  1  0.808413  0.191587  0.808413  1
  Zr  Zr5  1  0.191587  0.191587  0.808413  1
  Zr  Zr6  1  0.441587  0.058413  0.058413  1
  Zr  Zr7  1  0.058413  0.441587  0.058413  1
  Zr  Zr8  1  0.441587  0.441587  0.058413  1
  Zr  Zr9  1  0.058413  0.441587  0.441587  1
  Zr  Zr10  1  0.441587  0.058413  0.441587  1
  Zr  Zr11  1  0.058413  0.058413  0.441587  1
  Zn  Zn12  1  0.625000  0.625000  0.125000  1
  Zn  Zn13  1  0.625000  0.625000  0.625000  1
  Zn  Zn14  1  0.125000  0.625000  0.625000  1
  Zn  Zn15  1  0.625000  0.125000  0.625000  1
  Rh  Rh16  1  0.414971  0.414971  0.755085  1
  Rh  Rh17  1  0.414971  0.414971  0.414971  1
  Rh  Rh18  1  0.755085  0.414971  0.414971  1
  Rh  Rh19  1  0.414971  0.755085  0.414971  1
  Rh  Rh20  1  0.835029  0.835029  0.494915  1
  Rh  Rh21  1  0.835029  0.835029  0.835029  1
  Rh  Rh22  1  0.494915  0.835029  0.835029  1
  Rh  Rh23  1  0.835029  0.494915  0.835029  1
  N  N24  1  0.125000  0.125000  0.625000  1
  N  N25  1  0.125000  0.125000  0.125000  1
  N  N26  1  0.625000  0.125000  0.125000  1
  N  N27  1  0.125000  0.625000  0.125000  1
