# generated using pymatgen
data_Yb3HoCuNiSn5
_symmetry_space_group_name_H-M   'P 1'
_cell_length_a   4.44420000
_cell_length_b   8.81596767
_cell_length_c   13.91298694
_cell_angle_alpha   90.25360108
_cell_angle_beta   90.00000000
_cell_angle_gamma   90.00000000
_symmetry_Int_Tables_number   1
_chemical_formula_structural   Yb3HoCuNiSn5
_chemical_formula_sum   'Yb6 Ho2 Cu2 Ni2 Sn10'
_cell_volume   545.10442477
_cell_formula_units_Z   2
loop_
 _symmetry_equiv_pos_site_id
 _symmetry_equiv_pos_as_xyz
  1  'x, y, z'
loop_
 _atom_site_type_symbol
 _atom_site_label
 _atom_site_symmetry_multiplicity
 _atom_site_fract_x
 _atom_site_fract_y
 _atom_site_fract_z
 _atom_site_occupancy
  Yb  Yb0  1  0.500000  0.790383  0.741307  1
  Yb  Yb1  1  0.000000  0.209617  0.758693  1
  Yb  Yb2  1  0.000000  0.208833  0.243016  1
  Yb  Yb3  1  0.500000  0.136029  0.001499  1
  Yb  Yb4  1  0.000000  0.863971  0.498501  1
  Yb  Yb5  1  0.500000  0.791167  0.256984  1
  Ho  Ho6  1  0.500000  0.700663  0.997227  1
  Ho  Ho7  1  0.000000  0.299337  0.502773  1
  Cu  Cu8  1  0.000000  0.625732  0.146999  1
  Cu  Cu9  1  0.500000  0.374268  0.353001  1
  Ni  Ni10  1  0.500000  0.380355  0.646008  1
  Ni  Ni11  1  0.000000  0.619645  0.853992  1
  Sn  Sn12  1  0.500000  0.083146  0.395539  1
  Sn  Sn13  1  0.000000  0.548935  0.669496  1
  Sn  Sn14  1  0.000000  0.409159  0.993004  1
  Sn  Sn15  1  0.500000  0.447451  0.159512  1
  Sn  Sn16  1  0.500000  0.590841  0.506996  1
  Sn  Sn17  1  0.500000  0.451065  0.830504  1
  Sn  Sn18  1  0.000000  0.909728  0.893848  1
  Sn  Sn19  1  0.000000  0.552549  0.340488  1
  Sn  Sn20  1  0.500000  0.090272  0.606152  1
  Sn  Sn21  1  0.000000  0.916854  0.104461  1
