# generated using pymatgen
data_Cs4K2YInAs4
_symmetry_space_group_name_H-M   'P 1'
_cell_length_a   9.95022923
_cell_length_b   9.95022867
_cell_length_c   9.95022931
_cell_angle_alpha   133.42057911
_cell_angle_beta   138.15519635
_cell_angle_gamma   64.38620093
_symmetry_Int_Tables_number   1
_chemical_formula_structural   Cs4K2YInAs4
_chemical_formula_sum   'Cs4 K2 Y1 In1 As4'
_cell_volume   470.83719035
_cell_formula_units_Z   1
loop_
 _symmetry_equiv_pos_site_id
 _symmetry_equiv_pos_as_xyz
  1  'x, y, z'
loop_
 _atom_site_type_symbol
 _atom_site_label
 _atom_site_symmetry_multiplicity
 _atom_site_fract_x
 _atom_site_fract_y
 _atom_site_fract_z
 _atom_site_occupancy
  Cs  Cs0  1  0.686410  0.437288  0.764533  1
  Cs  Cs1  1  0.813590  0.078122  0.250878  1
  Cs  Cs2  1  0.172755  0.921878  0.735467  1
  Cs  Cs3  1  0.327245  0.562712  0.249122  1
  K  K4  1  0.750000  0.000000  0.750000  1
  K  K5  1  0.250000  0.000000  0.250000  1
  Y  Y6  1  0.250000  0.500000  0.750000  1
  In  In7  1  0.750000  0.500000  0.250000  1
  As  As8  1  0.411951  0.210249  0.809445  1
  As  As9  1  0.599196  0.789751  0.201702  1
  As  As10  1  0.088049  0.397495  0.298298  1
  As  As11  1  0.900804  0.602505  0.690555  1
