# generated using pymatgen
data_Nd2InGa6Ni2Ag
_symmetry_space_group_name_H-M   'P 1'
_cell_length_a   4.24841635
_cell_length_b   6.49989375
_cell_length_c   8.22606958
_cell_angle_alpha   90.34209418
_cell_angle_beta   104.96500814
_cell_angle_gamma   89.99999584
_symmetry_Int_Tables_number   1
_chemical_formula_structural   Nd2InGa6Ni2Ag
_chemical_formula_sum   'Nd2 In1 Ga6 Ni2 Ag1'
_cell_volume   219.44827631
_cell_formula_units_Z   1
loop_
 _symmetry_equiv_pos_site_id
 _symmetry_equiv_pos_as_xyz
  1  'x, y, z'
loop_
 _atom_site_type_symbol
 _atom_site_label
 _atom_site_symmetry_multiplicity
 _atom_site_fract_x
 _atom_site_fract_y
 _atom_site_fract_z
 _atom_site_occupancy
  Nd  Nd0  1  0.875867  0.756018  0.751732  1
  Nd  Nd1  1  0.124133  0.243982  0.248268  1
  In  In2  1  0.500000  0.000000  0.000000  1
  Ga  Ga3  1  0.072125  0.729174  0.144252  1
  Ga  Ga4  1  0.927875  0.270826  0.855748  1
  Ga  Ga5  1  0.686229  0.548317  0.372459  1
  Ga  Ga6  1  0.313771  0.451683  0.627541  1
  Ga  Ga7  1  0.689727  0.946031  0.379455  1
  Ga  Ga8  1  0.310273  0.053969  0.620545  1
  Ni  Ni9  1  0.220536  0.748927  0.441072  1
  Ni  Ni10  1  0.779464  0.251073  0.558928  1
  Ag  Ag11  1  0.500000  0.500000  0.000000  1
