# generated using pymatgen
data_SmHoU(GaRu)3
_symmetry_space_group_name_H-M   'P 1'
_cell_length_a   6.93357905
_cell_length_b   6.91861332
_cell_length_c   4.00832500
_cell_angle_alpha   90.00000000
_cell_angle_beta   90.00000000
_cell_angle_gamma   116.34717368
_symmetry_Int_Tables_number   1
_chemical_formula_structural   SmHoU(GaRu)3
_chemical_formula_sum   'Sm1 Ho1 U1 Ga3 Ru3'
_cell_volume   172.30832955
_cell_formula_units_Z   1
loop_
 _symmetry_equiv_pos_site_id
 _symmetry_equiv_pos_as_xyz
  1  'x, y, z'
loop_
 _atom_site_type_symbol
 _atom_site_label
 _atom_site_symmetry_multiplicity
 _atom_site_fract_x
 _atom_site_fract_y
 _atom_site_fract_z
 _atom_site_occupancy
  Sm  Sm0  1  0.414290  0.008014  0.500000  1
  Ho  Ho1  1  0.009037  0.413340  0.500000  1
  U  U2  1  0.618368  0.617638  0.500000  1
  Ga  Ga3  1  0.748153  0.032453  0.000000  1
  Ga  Ga4  1  0.029795  0.742458  0.000000  1
  Ga  Ga5  1  0.209045  0.212371  0.000000  1
  Ru  Ru6  1  0.381171  0.634557  0.000000  1
  Ru  Ru7  1  0.636288  0.383467  0.000000  1
  Ru  Ru8  1  0.953854  0.955703  0.500000  1
