# generated using pymatgen
data_HoEr15(Ga3Ir)2
_symmetry_space_group_name_H-M   'P 1'
_cell_length_a   9.98368800
_cell_length_b   9.98368813
_cell_length_c   6.95608600
_cell_angle_alpha   90.00000000
_cell_angle_beta   90.00000000
_cell_angle_gamma   120.00000621
_symmetry_Int_Tables_number   1
_chemical_formula_structural   HoEr15(Ga3Ir)2
_chemical_formula_sum   'Ho1 Er15 Ga6 Ir2'
_cell_volume   600.45097386
_cell_formula_units_Z   1
loop_
 _symmetry_equiv_pos_site_id
 _symmetry_equiv_pos_as_xyz
  1  'x, y, z'
loop_
 _atom_site_type_symbol
 _atom_site_label
 _atom_site_symmetry_multiplicity
 _atom_site_fract_x
 _atom_site_fract_y
 _atom_site_fract_z
 _atom_site_occupancy
  Ho  Ho0  1  0.000000  0.000000  0.267711  1
  Er  Er1  1  0.000000  0.000000  0.767494  1
  Er  Er2  1  0.171146  0.828854  0.991131  1
  Er  Er3  1  0.828862  0.171138  0.491326  1
  Er  Er4  1  0.171146  0.342291  0.991131  1
  Er  Er5  1  0.657709  0.828854  0.991131  1
  Er  Er6  1  0.342277  0.171138  0.491326  1
  Er  Er7  1  0.828862  0.657723  0.491326  1
  Er  Er8  1  0.333333  0.666667  0.663303  1
  Er  Er9  1  0.666667  0.333333  0.163143  1
  Er  Er10  1  0.465803  0.534197  0.295104  1
  Er  Er11  1  0.534197  0.465803  0.795119  1
  Er  Er12  1  0.465803  0.931608  0.295104  1
  Er  Er13  1  0.068392  0.534197  0.295104  1
  Er  Er14  1  0.931607  0.465803  0.795119  1
  Er  Er15  1  0.534197  0.068393  0.795119  1
  Ga  Ga16  1  0.163524  0.836476  0.542117  1
  Ga  Ga17  1  0.836458  0.163542  0.041914  1
  Ga  Ga18  1  0.163524  0.327047  0.542117  1
  Ga  Ga19  1  0.672953  0.836476  0.542117  1
  Ga  Ga20  1  0.327084  0.163542  0.041914  1
  Ga  Ga21  1  0.836458  0.672916  0.041914  1
  Ir  Ir22  1  0.333333  0.666667  0.057264  1
  Ir  Ir23  1  0.666667  0.333333  0.557074  1
