# generated using pymatgen
data_NiB4Ir4Pt3
_symmetry_space_group_name_H-M   'P 1'
_cell_length_a   6.11614376
_cell_length_b   5.50065788
_cell_length_c   6.73911450
_cell_angle_alpha   58.82645662
_cell_angle_beta   50.27249214
_cell_angle_gamma   70.34591803
_symmetry_Int_Tables_number   1
_chemical_formula_structural   NiB4Ir4Pt3
_chemical_formula_sum   'Ni1 B4 Ir4 Pt3'
_cell_volume   149.18707427
_cell_formula_units_Z   1
loop_
 _symmetry_equiv_pos_site_id
 _symmetry_equiv_pos_as_xyz
  1  'x, y, z'
loop_
 _atom_site_type_symbol
 _atom_site_label
 _atom_site_symmetry_multiplicity
 _atom_site_fract_x
 _atom_site_fract_y
 _atom_site_fract_z
 _atom_site_occupancy
  Ni  Ni0  1  0.038701  0.121159  0.721466  1
  B  B1  1  0.747498  0.313097  0.296201  1
  B  B2  1  0.952647  0.596795  0.512351  1
  B  B3  1  0.311250  0.755113  0.640877  1
  B  B4  1  0.612609  0.952971  0.936821  1
  Ir  Ir5  1  0.389629  0.610495  0.349225  1
  Ir  Ir6  1  0.599375  0.903161  0.637848  1
  Ir  Ir7  1  0.614521  0.386557  0.654153  1
  Ir  Ir8  1  0.904691  0.608805  0.857314  1
  Pt  Pt9  1  0.114332  0.040952  0.105142  1
  Pt  Pt10  1  0.133985  0.521105  0.132934  1
  Pt  Pt11  1  0.525643  0.134671  0.210785  1
