# generated using pymatgen
data_Zr10(C2N)3
_symmetry_space_group_name_H-M   'P 1'
_cell_length_a   8.78693629
_cell_length_b   8.78118806
_cell_length_c   10.99877749
_cell_angle_alpha   62.76809399
_cell_angle_beta   62.78216098
_cell_angle_gamma   44.44357034
_symmetry_Int_Tables_number   1
_chemical_formula_structural   Zr10(C2N)3
_chemical_formula_sum   'Zr20 C12 N6'
_cell_volume   516.60448827
_cell_formula_units_Z   2
loop_
 _symmetry_equiv_pos_site_id
 _symmetry_equiv_pos_as_xyz
  1  'x, y, z'
loop_
 _atom_site_type_symbol
 _atom_site_label
 _atom_site_symmetry_multiplicity
 _atom_site_fract_x
 _atom_site_fract_y
 _atom_site_fract_z
 _atom_site_occupancy
  Zr  Zr0  1  0.225812  0.479410  0.948559  1
  Zr  Zr1  1  0.721368  0.967107  0.959084  1
  Zr  Zr2  1  0.563833  0.329474  0.650057  1
  Zr  Zr3  1  0.436228  0.670277  0.350069  1
  Zr  Zr4  1  0.279251  0.032495  0.041061  1
  Zr  Zr5  1  0.082665  0.814946  0.645191  1
  Zr  Zr6  1  0.124868  0.371556  0.749836  1
  Zr  Zr7  1  0.918717  0.183777  0.355931  1
  Zr  Zr8  1  0.967386  0.721945  0.456875  1
  Zr  Zr9  1  0.774135  0.521400  0.050551  1
  Zr  Zr10  1  0.626603  0.875783  0.748299  1
  Zr  Zr11  1  0.814724  0.082645  0.144486  1
  Zr  Zr12  1  0.476482  0.225188  0.447474  1
  Zr  Zr13  1  0.670788  0.435681  0.850217  1
  Zr  Zr14  1  0.521875  0.775621  0.552422  1
  Zr  Zr15  1  0.329308  0.564240  0.149154  1
  Zr  Zr16  1  0.372356  0.124162  0.251667  1
  Zr  Zr17  1  0.185131  0.917846  0.854783  1
  Zr  Zr18  1  0.032015  0.278448  0.544009  1
  Zr  Zr19  1  0.876195  0.627902  0.250351  1
  C  C20  1  0.276020  0.527918  0.550405  1
  C  C21  1  0.475883  0.725516  0.950122  1
  C  C22  1  0.324938  0.075874  0.650731  1
  C  C23  1  0.174938  0.424192  0.350759  1
  C  C24  1  0.975199  0.225067  0.953258  1
  C  C25  1  0.826061  0.577505  0.649065  1
  C  C26  1  0.024162  0.775652  0.048347  1
  C  C27  1  0.677373  0.925280  0.348793  1
  C  C28  1  0.724993  0.470355  0.448411  1
  C  C29  1  0.525162  0.274221  0.050868  1
  C  C30  1  0.373650  0.622276  0.750429  1
  C  C31  1  0.220523  0.975241  0.449186  1
  N  N32  1  0.074012  0.322486  0.149782  1
  N  N33  1  0.922229  0.677224  0.851945  1
  N  N34  1  0.577088  0.826473  0.146969  1
  N  N35  1  0.777287  0.025768  0.548943  1
  N  N36  1  0.423942  0.172219  0.852691  1
  N  N37  1  0.626799  0.376830  0.249219  1
