# generated using pymatgen
data_Ac4(HgRh)3
_symmetry_space_group_name_H-M   'P 1'
_cell_length_a   8.20785178
_cell_length_b   8.20785120
_cell_length_c   4.07181000
_cell_angle_alpha   90.00000000
_cell_angle_beta   90.00000000
_cell_angle_gamma   88.49440608
_symmetry_Int_Tables_number   1
_chemical_formula_structural   Ac4(HgRh)3
_chemical_formula_sum   'Ac4 Hg3 Rh3'
_cell_volume   274.21835702
_cell_formula_units_Z   1
loop_
 _symmetry_equiv_pos_site_id
 _symmetry_equiv_pos_as_xyz
  1  'x, y, z'
loop_
 _atom_site_type_symbol
 _atom_site_label
 _atom_site_symmetry_multiplicity
 _atom_site_fract_x
 _atom_site_fract_y
 _atom_site_fract_z
 _atom_site_occupancy
  Ac  Ac0  1  0.838603  0.706806  0.500000  1
  Ac  Ac1  1  0.320986  0.820986  0.500000  1
  Ac  Ac2  1  0.646587  0.146587  0.500000  1
  Ac  Ac3  1  0.206806  0.338603  0.500000  1
  Hg  Hg4  1  0.012438  0.006863  0.000000  1
  Hg  Hg5  1  0.506863  0.512438  0.000000  1
  Hg  Hg6  1  0.874366  0.374366  0.000000  1
  Rh  Rh7  1  0.359847  0.116208  0.000000  1
  Rh  Rh8  1  0.616208  0.859847  0.000000  1
  Rh  Rh9  1  0.117295  0.617295  0.000000  1
