# generated using pymatgen
data_Li3Ac3SiPb2
_symmetry_space_group_name_H-M   'P 1'
_cell_length_a   7.76891300
_cell_length_b   7.76891373
_cell_length_c   4.78885500
_cell_angle_alpha   90.00000000
_cell_angle_beta   90.00000000
_cell_angle_gamma   120.00000965
_symmetry_Int_Tables_number   1
_chemical_formula_structural   Li3Ac3SiPb2
_chemical_formula_sum   'Li3 Ac3 Si1 Pb2'
_cell_volume   250.31267075
_cell_formula_units_Z   1
loop_
 _symmetry_equiv_pos_site_id
 _symmetry_equiv_pos_as_xyz
  1  'x, y, z'
loop_
 _atom_site_type_symbol
 _atom_site_label
 _atom_site_symmetry_multiplicity
 _atom_site_fract_x
 _atom_site_fract_y
 _atom_site_fract_z
 _atom_site_occupancy
  Li  Li0  1  0.242050  0.012691  0.500000  1
  Li  Li1  1  0.987309  0.229360  0.500000  1
  Li  Li2  1  0.770640  0.757950  0.500000  1
  Ac  Ac3  1  0.572554  0.011683  0.000000  1
  Ac  Ac4  1  0.988317  0.560871  0.000000  1
  Ac  Ac5  1  0.439129  0.427446  0.000000  1
  Si  Si6  1  0.666667  0.333333  0.500000  1
  Pb  Pb7  1  0.333333  0.666667  0.500000  1
  Pb  Pb8  1  0.000000  0.000000  0.000000  1
