# generated using pymatgen
data_Tm19Sc(Cd3Ni)2
_symmetry_space_group_name_H-M   'P 1'
_cell_length_a   9.44956000
_cell_length_b   9.44955949
_cell_length_c   9.59288900
_cell_angle_alpha   90.00000000
_cell_angle_beta   90.00000000
_cell_angle_gamma   119.99999479
_symmetry_Int_Tables_number   1
_chemical_formula_structural   Tm19Sc(Cd3Ni)2
_chemical_formula_sum   'Tm19 Sc1 Cd6 Ni2'
_cell_volume   741.82800416
_cell_formula_units_Z   1
loop_
 _symmetry_equiv_pos_site_id
 _symmetry_equiv_pos_as_xyz
  1  'x, y, z'
loop_
 _atom_site_type_symbol
 _atom_site_label
 _atom_site_symmetry_multiplicity
 _atom_site_fract_x
 _atom_site_fract_y
 _atom_site_fract_z
 _atom_site_occupancy
  Tm  Tm0  1  0.000000  0.000000  0.000000  1
  Tm  Tm1  1  0.543186  0.456814  0.250198  1
  Tm  Tm2  1  0.543186  0.086371  0.250198  1
  Tm  Tm3  1  0.913629  0.456814  0.250198  1
  Tm  Tm4  1  0.456814  0.543186  0.749802  1
  Tm  Tm5  1  0.456814  0.913629  0.749802  1
  Tm  Tm6  1  0.086371  0.543186  0.749802  1
  Tm  Tm7  1  0.209775  0.790225  0.437557  1
  Tm  Tm8  1  0.209775  0.419552  0.437557  1
  Tm  Tm9  1  0.580448  0.790225  0.437557  1
  Tm  Tm10  1  0.790225  0.209775  0.562443  1
  Tm  Tm11  1  0.790225  0.580448  0.562443  1
  Tm  Tm12  1  0.419552  0.209775  0.562443  1
  Tm  Tm13  1  0.789130  0.210870  0.939595  1
  Tm  Tm14  1  0.789130  0.578259  0.939595  1
  Tm  Tm15  1  0.421741  0.210870  0.939595  1
  Tm  Tm16  1  0.210870  0.789130  0.060405  1
  Tm  Tm17  1  0.210870  0.421741  0.060405  1
  Tm  Tm18  1  0.578259  0.789130  0.060405  1
  Sc  Sc19  1  0.000000  0.000000  0.500000  1
  Cd  Cd20  1  0.887014  0.112986  0.255062  1
  Cd  Cd21  1  0.887014  0.774029  0.255062  1
  Cd  Cd22  1  0.225971  0.112986  0.255062  1
  Cd  Cd23  1  0.112986  0.887014  0.744938  1
  Cd  Cd24  1  0.112986  0.225971  0.744938  1
  Cd  Cd25  1  0.774029  0.887014  0.744938  1
  Ni  Ni26  1  0.333333  0.666667  0.249905  1
  Ni  Ni27  1  0.666667  0.333333  0.750095  1
