# generated using pymatgen
data_Yb3Pr3(TmSi2)4
_symmetry_space_group_name_H-M   'P 1'
_cell_length_a   7.42649400
_cell_length_b   7.82172609
_cell_length_c   14.87358220
_cell_angle_alpha   90.23544356
_cell_angle_beta   90.00000000
_cell_angle_gamma   90.00000000
_symmetry_Int_Tables_number   1
_chemical_formula_structural   Yb3Pr3(TmSi2)4
_chemical_formula_sum   'Yb6 Pr6 Tm8 Si16'
_cell_volume   863.96937636
_cell_formula_units_Z   2
loop_
 _symmetry_equiv_pos_site_id
 _symmetry_equiv_pos_as_xyz
  1  'x, y, z'
loop_
 _atom_site_type_symbol
 _atom_site_label
 _atom_site_symmetry_multiplicity
 _atom_site_fract_x
 _atom_site_fract_y
 _atom_site_fract_z
 _atom_site_occupancy
  Yb  Yb0  1  0.473156  0.680996  0.403190  1
  Yb  Yb1  1  0.973156  0.819004  0.096810  1
  Yb  Yb2  1  0.351422  0.013229  0.749786  1
  Yb  Yb3  1  0.851422  0.486771  0.750214  1
  Yb  Yb4  1  0.148873  0.517736  0.250150  1
  Yb  Yb5  1  0.648873  0.982264  0.249850  1
  Pr  Pr6  1  0.973673  0.818416  0.403666  1
  Pr  Pr7  1  0.473673  0.681584  0.096334  1
  Pr  Pr8  1  0.527317  0.318980  0.599430  1
  Pr  Pr9  1  0.027317  0.181020  0.900570  1
  Pr  Pr10  1  0.027305  0.179120  0.598287  1
  Pr  Pr11  1  0.527305  0.320880  0.901713  1
  Tm  Tm12  1  0.317933  0.179324  0.122918  1
  Tm  Tm13  1  0.817933  0.320676  0.377082  1
  Tm  Tm14  1  0.182516  0.680994  0.878035  1
  Tm  Tm15  1  0.682516  0.819006  0.621965  1
  Tm  Tm16  1  0.317167  0.179850  0.376707  1
  Tm  Tm17  1  0.817167  0.320150  0.123293  1
  Tm  Tm18  1  0.181944  0.680049  0.623077  1
  Tm  Tm19  1  0.681944  0.819951  0.876923  1
  Si  Si20  1  0.856233  0.529847  0.537207  1
  Si  Si21  1  0.356233  0.970153  0.962793  1
  Si  Si22  1  0.647739  0.034251  0.463776  1
  Si  Si23  1  0.147739  0.465749  0.036224  1
  Si  Si24  1  0.145466  0.467826  0.462989  1
  Si  Si25  1  0.645466  0.032174  0.037011  1
  Si  Si26  1  0.354253  0.968050  0.536758  1
  Si  Si27  1  0.854253  0.531950  0.963242  1
  Si  Si28  1  0.973458  0.883643  0.750642  1
  Si  Si29  1  0.473458  0.616357  0.749358  1
  Si  Si30  1  0.524934  0.384744  0.250236  1
  Si  Si31  1  0.024934  0.115256  0.249764  1
  Si  Si32  1  0.240816  0.391760  0.750620  1
  Si  Si33  1  0.740816  0.108240  0.749380  1
  Si  Si34  1  0.255796  0.892292  0.249284  1
  Si  Si35  1  0.755796  0.607708  0.250716  1
