# generated using pymatgen
data_Dy3Tm2(In2Ir)2
_symmetry_space_group_name_H-M   'P 1'
_cell_length_a   3.65309900
_cell_length_b   8.00688500
_cell_length_c   18.26443200
_cell_angle_alpha   90.00000000
_cell_angle_beta   90.00000000
_cell_angle_gamma   90.00000000
_symmetry_Int_Tables_number   1
_chemical_formula_structural   Dy3Tm2(In2Ir)2
_chemical_formula_sum   'Dy6 Tm4 In8 Ir4'
_cell_volume   534.23360564
_cell_formula_units_Z   2
loop_
 _symmetry_equiv_pos_site_id
 _symmetry_equiv_pos_as_xyz
  1  'x, y, z'
loop_
 _atom_site_type_symbol
 _atom_site_label
 _atom_site_symmetry_multiplicity
 _atom_site_fract_x
 _atom_site_fract_y
 _atom_site_fract_z
 _atom_site_occupancy
  Dy  Dy0  1  0.000000  0.500000  0.500000  1
  Dy  Dy1  1  0.000000  0.000000  0.000000  1
  Dy  Dy2  1  0.000000  0.752897  0.278499  1
  Dy  Dy3  1  0.000000  0.247103  0.721501  1
  Dy  Dy4  1  0.000000  0.747103  0.778499  1
  Dy  Dy5  1  0.000000  0.252897  0.221501  1
  Tm  Tm6  1  0.000000  0.620139  0.090127  1
  Tm  Tm7  1  0.000000  0.379861  0.909873  1
  Tm  Tm8  1  0.000000  0.879861  0.590127  1
  Tm  Tm9  1  0.000000  0.120139  0.409873  1
  In  In10  1  0.500000  0.700996  0.933894  1
  In  In11  1  0.500000  0.299004  0.066106  1
  In  In12  1  0.500000  0.799004  0.433894  1
  In  In13  1  0.500000  0.200996  0.566106  1
  In  In14  1  0.500000  0.566131  0.649294  1
  In  In15  1  0.500000  0.433869  0.350706  1
  In  In16  1  0.500000  0.933869  0.149294  1
  In  In17  1  0.500000  0.066131  0.850706  1
  Ir  Ir18  1  0.500000  0.529209  0.195471  1
  Ir  Ir19  1  0.500000  0.470791  0.804529  1
  Ir  Ir20  1  0.500000  0.970791  0.695471  1
  Ir  Ir21  1  0.500000  0.029209  0.304529  1
