# generated using pymatgen
data_Er20Ir10OsRu
_symmetry_space_group_name_H-M   'P 1'
_cell_length_a   10.75622000
_cell_length_b   10.75622000
_cell_length_c   6.36300300
_cell_angle_alpha   90.00000000
_cell_angle_beta   90.00000000
_cell_angle_gamma   90.00000000
_symmetry_Int_Tables_number   1
_chemical_formula_structural   Er20Ir10OsRu
_chemical_formula_sum   'Er20 Ir10 Os1 Ru1'
_cell_volume   736.17570475
_cell_formula_units_Z   1
loop_
 _symmetry_equiv_pos_site_id
 _symmetry_equiv_pos_as_xyz
  1  'x, y, z'
loop_
 _atom_site_type_symbol
 _atom_site_label
 _atom_site_symmetry_multiplicity
 _atom_site_fract_x
 _atom_site_fract_y
 _atom_site_fract_z
 _atom_site_occupancy
  Er  Er0  1  0.292174  0.086931  0.376287  1
  Er  Er1  1  0.292540  0.913079  0.879490  1
  Er  Er2  1  0.707460  0.086921  0.879490  1
  Er  Er3  1  0.707826  0.913069  0.376287  1
  Er  Er4  1  0.586921  0.792540  0.879490  1
  Er  Er5  1  0.586931  0.207826  0.376287  1
  Er  Er6  1  0.413069  0.792174  0.376287  1
  Er  Er7  1  0.413079  0.207460  0.879490  1
  Er  Er8  1  0.207966  0.412644  0.624183  1
  Er  Er9  1  0.207618  0.587194  0.120861  1
  Er  Er10  1  0.792382  0.412806  0.120861  1
  Er  Er11  1  0.792034  0.587356  0.624183  1
  Er  Er12  1  0.912806  0.707618  0.120861  1
  Er  Er13  1  0.912644  0.292034  0.624183  1
  Er  Er14  1  0.087356  0.707966  0.624183  1
  Er  Er15  1  0.087194  0.292382  0.120861  1
  Er  Er16  1  0.000000  0.000000  0.499448  1
  Er  Er17  1  0.000000  0.000000  0.999400  1
  Er  Er18  1  0.500000  0.500000  0.999400  1
  Er  Er19  1  0.500000  0.500000  0.499448  1
  Ir  Ir20  1  0.847076  0.152902  0.249921  1
  Ir  Ir21  1  0.846888  0.847502  0.749318  1
  Ir  Ir22  1  0.153112  0.152498  0.749318  1
  Ir  Ir23  1  0.152924  0.847098  0.249921  1
  Ir  Ir24  1  0.652498  0.346888  0.749318  1
  Ir  Ir25  1  0.652902  0.652924  0.249921  1
  Ir  Ir26  1  0.347098  0.347076  0.249921  1
  Ir  Ir27  1  0.347502  0.653112  0.749318  1
  Ir  Ir28  1  0.500000  0.000000  0.623023  1
  Ir  Ir29  1  0.000000  0.500000  0.378292  1
  Os  Os30  1  0.000000  0.500000  0.877013  1
  Ru  Ru31  1  0.500000  0.000000  0.123731  1
