# generated using pymatgen
data_Tb2GaSi13Ir6
_symmetry_space_group_name_H-M   'P 1'
_cell_length_a   8.08532456
_cell_length_b   8.08070125
_cell_length_c   8.09382500
_cell_angle_alpha   56.35563533
_cell_angle_beta   56.55251608
_cell_angle_gamma   56.58251946
_symmetry_Int_Tables_number   1
_chemical_formula_structural   Tb2GaSi13Ir6
_chemical_formula_sum   'Tb2 Ga1 Si13 Ir6'
_cell_volume   343.64519005
_cell_formula_units_Z   1
loop_
 _symmetry_equiv_pos_site_id
 _symmetry_equiv_pos_as_xyz
  1  'x, y, z'
loop_
 _atom_site_type_symbol
 _atom_site_label
 _atom_site_symmetry_multiplicity
 _atom_site_fract_x
 _atom_site_fract_y
 _atom_site_fract_z
 _atom_site_occupancy
  Tb  Tb0  1  0.498766  0.500686  0.500507  1
  Tb  Tb1  1  0.998472  0.000335  0.996825  1
  Ga  Ga2  1  0.852853  0.080723  0.660407  1
  Si  Si3  1  0.672036  0.850455  0.065910  1
  Si  Si4  1  0.062774  0.672923  0.851500  1
  Si  Si5  1  0.652507  0.824441  0.433150  1
  Si  Si6  1  0.249218  0.246845  0.253974  1
  Si  Si7  1  0.750314  0.751972  0.749700  1
  Si  Si8  1  0.172127  0.562435  0.352024  1
  Si  Si9  1  0.562717  0.352101  0.173102  1
  Si  Si10  1  0.352433  0.171012  0.562725  1
  Si  Si11  1  0.936492  0.325570  0.149321  1
  Si  Si12  1  0.328591  0.148989  0.936045  1
  Si  Si13  1  0.148117  0.935806  0.327642  1
  Si  Si14  1  0.823745  0.437928  0.654599  1
  Si  Si15  1  0.435680  0.648198  0.830149  1
  Ir  Ir16  1  0.749563  0.070005  0.421799  1
  Ir  Ir17  1  0.427692  0.749694  0.072382  1
  Ir  Ir18  1  0.072139  0.426992  0.750348  1
  Ir  Ir19  1  0.260046  0.921653  0.569602  1
  Ir  Ir20  1  0.563173  0.254527  0.936299  1
  Ir  Ir21  1  0.930546  0.566712  0.251989  1
