# generated using pymatgen
data_Sr3Nd2Np5O18
_symmetry_space_group_name_H-M   'P 1'
_cell_length_a   6.94323581
_cell_length_b   7.69788584
_cell_length_c   8.67393262
_cell_angle_alpha   100.56460245
_cell_angle_beta   97.93061919
_cell_angle_gamma   107.20736071
_symmetry_Int_Tables_number   1
_chemical_formula_structural   Sr3Nd2Np5O18
_chemical_formula_sum   'Sr3 Nd2 Np5 O18'
_cell_volume   426.13101961
_cell_formula_units_Z   1
loop_
 _symmetry_equiv_pos_site_id
 _symmetry_equiv_pos_as_xyz
  1  'x, y, z'
loop_
 _atom_site_type_symbol
 _atom_site_label
 _atom_site_symmetry_multiplicity
 _atom_site_fract_x
 _atom_site_fract_y
 _atom_site_fract_z
 _atom_site_occupancy
  Sr  Sr0  1  0.596353  0.694967  0.195982  1
  Sr  Sr1  1  0.403506  0.303688  0.804379  1
  Sr  Sr2  1  0.200794  0.898248  0.416847  1
  Nd  Nd3  1  0.805950  0.113451  0.580310  1
  Nd  Nd4  1  0.999458  0.504565  0.998657  1
  Np  Np5  1  0.997494  0.997222  0.998799  1
  Np  Np6  1  0.790345  0.582042  0.587973  1
  Np  Np7  1  0.622156  0.197641  0.193232  1
  Np  Np8  1  0.379998  0.801815  0.804768  1
  Np  Np9  1  0.207875  0.422709  0.411051  1
  O  O10  1  0.823661  0.803783  0.479427  1
  O  O11  1  0.005632  0.239367  0.169984  1
  O  O12  1  0.676042  0.403171  0.066985  1
  O  O13  1  0.475385  0.999445  0.678978  1
  O  O14  1  0.859549  0.341762  0.424126  1
  O  O15  1  0.500668  0.397525  0.346003  1
  O  O16  1  0.237150  0.606341  0.267882  1
  O  O17  1  0.979701  0.814861  0.146140  1
  O  O18  1  0.665278  0.934904  0.997149  1
  O  O19  1  0.331552  0.062211  0.001878  1
  O  O20  1  0.010111  0.176468  0.844424  1
  O  O21  1  0.762234  0.386237  0.727936  1
  O  O22  1  0.503537  0.601478  0.658250  1
  O  O23  1  0.137645  0.653896  0.577995  1
  O  O24  1  0.549694  0.003613  0.325222  1
  O  O25  1  0.323277  0.595373  0.931681  1
  O  O26  1  0.991107  0.752010  0.831777  1
  O  O27  1  0.163848  0.211206  0.532164  1
