# generated using pymatgen
data_Dy4AlIr6Os
_symmetry_space_group_name_H-M   'P 1'
_cell_length_a   5.48204200
_cell_length_b   5.48204368
_cell_length_c   8.33558300
_cell_angle_alpha   90.00000000
_cell_angle_beta   90.00000000
_cell_angle_gamma   120.00000193
_symmetry_Int_Tables_number   1
_chemical_formula_structural   Dy4AlIr6Os
_chemical_formula_sum   'Dy4 Al1 Ir6 Os1'
_cell_volume   216.94590338
_cell_formula_units_Z   1
loop_
 _symmetry_equiv_pos_site_id
 _symmetry_equiv_pos_as_xyz
  1  'x, y, z'
loop_
 _atom_site_type_symbol
 _atom_site_label
 _atom_site_symmetry_multiplicity
 _atom_site_fract_x
 _atom_site_fract_y
 _atom_site_fract_z
 _atom_site_occupancy
  Dy  Dy0  1  0.333333  0.666667  0.430542  1
  Dy  Dy1  1  0.666667  0.333333  0.569458  1
  Dy  Dy2  1  0.666667  0.333333  0.938355  1
  Dy  Dy3  1  0.333333  0.666667  0.061645  1
  Al  Al4  1  0.000000  0.000000  0.500000  1
  Ir  Ir5  1  0.829776  0.170224  0.251799  1
  Ir  Ir6  1  0.829776  0.659553  0.251799  1
  Ir  Ir7  1  0.340447  0.170224  0.251799  1
  Ir  Ir8  1  0.170224  0.829776  0.748201  1
  Ir  Ir9  1  0.170224  0.340447  0.748201  1
  Ir  Ir10  1  0.659553  0.829776  0.748201  1
  Os  Os11  1  0.000000  0.000000  0.000000  1
