# generated using pymatgen
data_Ac10Os3Ru
_symmetry_space_group_name_H-M   'P 1'
_cell_length_a   9.45429618
_cell_length_b   9.46763159
_cell_length_c   7.77982044
_cell_angle_alpha   84.00337969
_cell_angle_beta   84.00192261
_cell_angle_gamma   43.38952117
_symmetry_Int_Tables_number   1
_chemical_formula_structural   Ac10Os3Ru
_chemical_formula_sum   'Ac10 Os3 Ru1'
_cell_volume   475.34065520
_cell_formula_units_Z   1
loop_
 _symmetry_equiv_pos_site_id
 _symmetry_equiv_pos_as_xyz
  1  'x, y, z'
loop_
 _atom_site_type_symbol
 _atom_site_label
 _atom_site_symmetry_multiplicity
 _atom_site_fract_x
 _atom_site_fract_y
 _atom_site_fract_z
 _atom_site_occupancy
  Ac  Ac0  1  0.004607  0.809476  0.909361  1
  Ac  Ac1  1  0.191303  0.994731  0.590297  1
  Ac  Ac2  1  0.995861  0.191135  0.089920  1
  Ac  Ac3  1  0.808543  0.005361  0.408772  1
  Ac  Ac4  1  0.360305  0.212524  0.818503  1
  Ac  Ac5  1  0.787651  0.640965  0.681569  1
  Ac  Ac6  1  0.640617  0.785712  0.181876  1
  Ac  Ac7  1  0.210652  0.360471  0.319644  1
  Ac  Ac8  1  0.569580  0.431060  0.748315  1
  Ac  Ac9  1  0.429801  0.570765  0.250273  1
  Os  Os10  1  0.176921  0.602060  0.578337  1
  Os  Os11  1  0.399131  0.821546  0.922308  1
  Os  Os12  1  0.821091  0.399545  0.421779  1
  Ru  Ru13  1  0.603938  0.174649  0.079046  1
