# generated using pymatgen
data_BaThNp2N6
_symmetry_space_group_name_H-M   'P 1'
_cell_length_a   5.88748400
_cell_length_b   6.00282500
_cell_length_c   8.44369500
_cell_angle_alpha   90.00000000
_cell_angle_beta   90.00000000
_cell_angle_gamma   90.00000000
_symmetry_Int_Tables_number   1
_chemical_formula_structural   BaThNp2N6
_chemical_formula_sum   'Ba2 Th2 Np4 N12'
_cell_volume   298.41315202
_cell_formula_units_Z   2
loop_
 _symmetry_equiv_pos_site_id
 _symmetry_equiv_pos_as_xyz
  1  'x, y, z'
loop_
 _atom_site_type_symbol
 _atom_site_label
 _atom_site_symmetry_multiplicity
 _atom_site_fract_x
 _atom_site_fract_y
 _atom_site_fract_z
 _atom_site_occupancy
  Ba  Ba0  1  0.506178  0.518427  0.250000  1
  Ba  Ba1  1  0.993822  0.018427  0.250000  1
  Th  Th2  1  0.498347  0.450672  0.750000  1
  Th  Th3  1  0.001653  0.950672  0.750000  1
  Np  Np4  1  0.997307  0.495559  0.995937  1
  Np  Np5  1  0.502693  0.995559  0.504063  1
  Np  Np6  1  0.997307  0.495559  0.504063  1
  Np  Np7  1  0.502693  0.995559  0.995937  1
  N  N8  1  0.463729  0.000524  0.250000  1
  N  N9  1  0.036271  0.500524  0.250000  1
  N  N10  1  0.590259  0.025962  0.750000  1
  N  N11  1  0.909741  0.525962  0.750000  1
  N  N12  1  0.790216  0.804250  0.003291  1
  N  N13  1  0.709784  0.304250  0.496709  1
  N  N14  1  0.227563  0.202398  0.564704  1
  N  N15  1  0.272437  0.702398  0.935296  1
  N  N16  1  0.227563  0.202398  0.935296  1
  N  N17  1  0.272437  0.702398  0.564704  1
  N  N18  1  0.790216  0.804250  0.496709  1
  N  N19  1  0.709784  0.304250  0.003291  1
