# generated using pymatgen
data_VCo2ClO4
_symmetry_space_group_name_H-M   'P 1'
_cell_length_a   6.70159600
_cell_length_b   5.04814161
_cell_length_c   7.09976202
_cell_angle_alpha   87.78910455
_cell_angle_beta   90.00000000
_cell_angle_gamma   90.00000000
_symmetry_Int_Tables_number   1
_chemical_formula_structural   VCo2ClO4
_chemical_formula_sum   'V2 Co4 Cl2 O8'
_cell_volume   240.01045197
_cell_formula_units_Z   2
loop_
 _symmetry_equiv_pos_site_id
 _symmetry_equiv_pos_as_xyz
  1  'x, y, z'
loop_
 _atom_site_type_symbol
 _atom_site_label
 _atom_site_symmetry_multiplicity
 _atom_site_fract_x
 _atom_site_fract_y
 _atom_site_fract_z
 _atom_site_occupancy
  V  V0  1  0.750000  0.507882  0.765495  1
  V  V1  1  0.250000  0.492118  0.234505  1
  Co  Co2  1  0.000000  0.000000  0.000000  1
  Co  Co3  1  0.250000  0.357140  0.730002  1
  Co  Co4  1  0.500000  0.000000  0.000000  1
  Co  Co5  1  0.750000  0.642860  0.269998  1
  Cl  Cl6  1  0.250000  0.829924  0.768372  1
  Cl  Cl7  1  0.750000  0.170076  0.231628  1
  O  O8  1  0.037674  0.693049  0.196448  1
  O  O9  1  0.250000  0.361200  0.457061  1
  O  O10  1  0.462326  0.693049  0.196448  1
  O  O11  1  0.962326  0.306951  0.803552  1
  O  O12  1  0.750000  0.638800  0.542939  1
  O  O13  1  0.250000  0.226094  0.072954  1
  O  O14  1  0.537674  0.306951  0.803552  1
  O  O15  1  0.750000  0.773906  0.927046  1
