# generated using pymatgen
data_Sc6Sn6Ir5Au
_symmetry_space_group_name_H-M   'P 1'
_cell_length_a   7.53530900
_cell_length_b   7.53530873
_cell_length_c   7.20447900
_cell_angle_alpha   90.00000000
_cell_angle_beta   90.00000000
_cell_angle_gamma   119.99999678
_symmetry_Int_Tables_number   1
_chemical_formula_structural   Sc6Sn6Ir5Au
_chemical_formula_sum   'Sc6 Sn6 Ir5 Au1'
_cell_volume   354.27078726
_cell_formula_units_Z   1
loop_
 _symmetry_equiv_pos_site_id
 _symmetry_equiv_pos_as_xyz
  1  'x, y, z'
loop_
 _atom_site_type_symbol
 _atom_site_label
 _atom_site_symmetry_multiplicity
 _atom_site_fract_x
 _atom_site_fract_y
 _atom_site_fract_z
 _atom_site_occupancy
  Sc  Sc0  1  0.393024  0.995490  0.243882  1
  Sc  Sc1  1  0.602466  0.606976  0.243882  1
  Sc  Sc2  1  0.004510  0.397534  0.243882  1
  Sc  Sc3  1  0.386241  0.980728  0.756560  1
  Sc  Sc4  1  0.594487  0.613759  0.756560  1
  Sc  Sc5  1  0.019272  0.405513  0.756560  1
  Sn  Sn6  1  0.281895  0.276928  0.999597  1
  Sn  Sn7  1  0.995032  0.718105  0.999597  1
  Sn  Sn8  1  0.005161  0.739279  0.498899  1
  Sn  Sn9  1  0.734117  0.994839  0.498899  1
  Sn  Sn10  1  0.260721  0.265883  0.498899  1
  Sn  Sn11  1  0.723072  0.004968  0.999597  1
  Ir  Ir12  1  0.000000  0.000000  0.764478  1
  Ir  Ir13  1  0.000000  0.000000  0.234096  1
  Ir  Ir14  1  0.666667  0.333333  0.987732  1
  Ir  Ir15  1  0.333333  0.666667  0.486215  1
  Ir  Ir16  1  0.333333  0.666667  0.013149  1
  Au  Au17  1  0.666667  0.333333  0.517516  1
