# generated using pymatgen
data_ErPaInCo2
_symmetry_space_group_name_H-M   'P 1'
_cell_length_a   7.46931200
_cell_length_b   7.26304300
_cell_length_c   3.52096900
_cell_angle_alpha   90.00000000
_cell_angle_beta   90.00000000
_cell_angle_gamma   90.00000000
_symmetry_Int_Tables_number   1
_chemical_formula_structural   ErPaInCo2
_chemical_formula_sum   'Er2 Pa2 In2 Co4'
_cell_volume   191.01233670
_cell_formula_units_Z   2
loop_
 _symmetry_equiv_pos_site_id
 _symmetry_equiv_pos_as_xyz
  1  'x, y, z'
loop_
 _atom_site_type_symbol
 _atom_site_label
 _atom_site_symmetry_multiplicity
 _atom_site_fract_x
 _atom_site_fract_y
 _atom_site_fract_z
 _atom_site_occupancy
  Er  Er0  1  0.833130  0.664922  0.500000  1
  Er  Er1  1  0.333130  0.835078  0.500000  1
  Pa  Pa2  1  0.678593  0.163710  0.500000  1
  Pa  Pa3  1  0.178593  0.336290  0.500000  1
  In  In4  1  0.008944  0.986200  0.000000  1
  In  In5  1  0.508944  0.513800  0.000000  1
  Co  Co6  1  0.353064  0.155028  0.000000  1
  Co  Co7  1  0.126268  0.580733  0.000000  1
  Co  Co8  1  0.626268  0.919267  0.000000  1
  Co  Co9  1  0.853064  0.344972  0.000000  1
