# generated using pymatgen
data_CsRbBa2(CrN3)2
_symmetry_space_group_name_H-M   'P 1'
_cell_length_a   6.83000789
_cell_length_b   6.83000648
_cell_length_c   12.95867954
_cell_angle_alpha   90.80466676
_cell_angle_beta   89.19533316
_cell_angle_gamma   129.05081587
_symmetry_Int_Tables_number   1
_chemical_formula_structural   CsRbBa2(CrN3)2
_chemical_formula_sum   'Cs2 Rb2 Ba4 Cr4 N12'
_cell_volume   469.39765808
_cell_formula_units_Z   2
loop_
 _symmetry_equiv_pos_site_id
 _symmetry_equiv_pos_as_xyz
  1  'x, y, z'
loop_
 _atom_site_type_symbol
 _atom_site_label
 _atom_site_symmetry_multiplicity
 _atom_site_fract_x
 _atom_site_fract_y
 _atom_site_fract_z
 _atom_site_occupancy
  Cs  Cs0  1  0.537850  0.462150  0.644897  1
  Cs  Cs1  1  0.462150  0.537850  0.355103  1
  Rb  Rb2  1  0.950818  0.049182  0.136842  1
  Rb  Rb3  1  0.049182  0.950818  0.863158  1
  Ba  Ba4  1  0.848425  0.151575  0.583160  1
  Ba  Ba5  1  0.151575  0.848425  0.416840  1
  Ba  Ba6  1  0.649903  0.350097  0.084361  1
  Ba  Ba7  1  0.350097  0.649903  0.915639  1
  Cr  Cr8  1  0.726985  0.273015  0.830955  1
  Cr  Cr9  1  0.273015  0.726985  0.169045  1
  Cr  Cr10  1  0.775969  0.224031  0.328599  1
  Cr  Cr11  1  0.224031  0.775969  0.671401  1
  N  N12  1  0.810135  0.189865  0.934180  1
  N  N13  1  0.189865  0.810135  0.065820  1
  N  N14  1  0.696122  0.303878  0.435760  1
  N  N15  1  0.303878  0.696122  0.564240  1
  N  N16  1  0.597061  0.402939  0.875089  1
  N  N17  1  0.402939  0.597061  0.124911  1
  N  N18  1  0.906473  0.093527  0.366655  1
  N  N19  1  0.093527  0.906473  0.633345  1
  N  N20  1  0.506291  0.993433  0.750459  1
  N  N21  1  0.993433  0.506291  0.249541  1
  N  N22  1  0.493709  0.006567  0.249541  1
  N  N23  1  0.006567  0.493709  0.750459  1
