# generated using pymatgen
data_La10Al3Zn(IrRu)3
_symmetry_space_group_name_H-M   'P 1'
_cell_length_a   8.70155622
_cell_length_b   8.66928249
_cell_length_c   8.63657619
_cell_angle_alpha   109.15341171
_cell_angle_beta   109.76956518
_cell_angle_gamma   109.49787534
_symmetry_Int_Tables_number   1
_chemical_formula_structural   La10Al3Zn(IrRu)3
_chemical_formula_sum   'La10 Al3 Zn1 Ir3 Ru3'
_cell_volume   501.47790225
_cell_formula_units_Z   1
loop_
 _symmetry_equiv_pos_site_id
 _symmetry_equiv_pos_as_xyz
  1  'x, y, z'
loop_
 _atom_site_type_symbol
 _atom_site_label
 _atom_site_symmetry_multiplicity
 _atom_site_fract_x
 _atom_site_fract_y
 _atom_site_fract_z
 _atom_site_occupancy
  La  La0  1  0.248836  0.687171  0.440424  1
  La  La1  1  0.748732  0.812688  0.058471  1
  La  La2  1  0.438547  0.250030  0.690445  1
  La  La3  1  0.685988  0.439352  0.249543  1
  La  La4  1  0.063243  0.752085  0.811448  1
  La  La5  1  0.810039  0.057611  0.745699  1
  La  La6  1  0.212788  0.211856  0.216151  1
  La  La7  1  0.498433  0.995745  0.285123  1
  La  La8  1  0.289788  0.503930  0.002943  1
  La  La9  1  0.003614  0.288881  0.502600  1
  Al  Al10  1  0.590916  0.589719  0.590980  1
  Al  Al11  1  0.909758  0.501842  0.999945  1
  Al  Al12  1  0.999200  0.908510  0.497506  1
  Zn  Zn13  1  0.499848  0.999673  0.913061  1
  Ir  Ir14  1  0.243150  0.123665  0.867218  1
  Ir  Ir15  1  0.748554  0.381251  0.631594  1
  Ir  Ir16  1  0.876990  0.257813  0.120461  1
  Ru  Ru17  1  0.120500  0.868255  0.250148  1
  Ru  Ru18  1  0.635808  0.752007  0.384540  1
  Ru  Ru19  1  0.375271  0.617920  0.741704  1
