# generated using pymatgen
data_Yb2YHo5(B6Os)4
_symmetry_space_group_name_H-M   'P 1'
_cell_length_a   3.64202200
_cell_length_b   9.14423732
_cell_length_c   11.53617849
_cell_angle_alpha   89.99683426
_cell_angle_beta   90.00000497
_cell_angle_gamma   90.00000000
_symmetry_Int_Tables_number   1
_chemical_formula_structural   Yb2YHo5(B6Os)4
_chemical_formula_sum   'Yb2 Y1 Ho5 B24 Os4'
_cell_volume   384.19527532
_cell_formula_units_Z   1
loop_
 _symmetry_equiv_pos_site_id
 _symmetry_equiv_pos_as_xyz
  1  'x, y, z'
loop_
 _atom_site_type_symbol
 _atom_site_label
 _atom_site_symmetry_multiplicity
 _atom_site_fract_x
 _atom_site_fract_y
 _atom_site_fract_z
 _atom_site_occupancy
  Yb  Yb0  1  0.000001  0.677216  0.586158  1
  Yb  Yb1  1  0.000000  0.822800  0.085958  1
  Y  Y2  1  0.000001  0.323852  0.414422  1
  Ho  Ho3  1  0.999998  0.175846  0.914371  1
  Ho  Ho4  1  0.000000  0.940988  0.369469  1
  Ho  Ho5  1  0.999999  0.056334  0.629551  1
  Ho  Ho6  1  0.000001  0.443587  0.129441  1
  Ho  Ho7  1  0.000000  0.559081  0.869784  1
  B  B8  1  0.500001  0.553888  0.433477  1
  B  B9  1  0.500000  0.446515  0.568028  1
  B  B10  1  0.499999  0.053625  0.067287  1
  B  B11  1  0.499999  0.946546  0.933387  1
  B  B12  1  0.500001  0.747600  0.418200  1
  B  B13  1  0.500000  0.251543  0.581996  1
  B  B14  1  0.499999  0.248435  0.081237  1
  B  B15  1  0.500000  0.752691  0.918222  1
  B  B16  1  0.500001  0.789563  0.265043  1
  B  B17  1  0.499999  0.208808  0.734992  1
  B  B18  1  0.500001  0.290886  0.234256  1
  B  B19  1  0.500000  0.710560  0.765294  1
  B  B20  1  0.500001  0.630722  0.185689  1
  B  B21  1  0.499999  0.368938  0.814409  1
  B  B22  1  0.500000  0.130722  0.313753  1
  B  B23  1  0.499999  0.869346  0.685792  1
  B  B24  1  0.500000  0.982902  0.211464  1
  B  B25  1  0.499999  0.016969  0.788417  1
  B  B26  1  0.500002  0.483427  0.288232  1
  B  B27  1  0.499999  0.516926  0.711990  1
  B  B28  1  0.500000  0.601211  0.027752  1
  B  B29  1  0.500000  0.398001  0.971451  1
  B  B30  1  0.500000  0.101401  0.471509  1
  B  B31  1  0.500000  0.899021  0.527637  1
  Os  Os32  1  0.000002  0.636710  0.321034  1
  Os  Os33  1  0.000000  0.360698  0.679989  1
  Os  Os34  1  0.000000  0.138935  0.179136  1
  Os  Os35  1  0.999999  0.863706  0.821174  1
