# generated using pymatgen
data_Tb2Tm3Bi3S
_symmetry_space_group_name_H-M   'P 1'
_cell_length_a   9.23159900
_cell_length_b   9.23948270
_cell_length_c   6.54897100
_cell_angle_alpha   90.00000000
_cell_angle_beta   90.00000000
_cell_angle_gamma   120.02824974
_symmetry_Int_Tables_number   1
_chemical_formula_structural   Tb2Tm3Bi3S
_chemical_formula_sum   'Tb4 Tm6 Bi6 S2'
_cell_volume   483.62037480
_cell_formula_units_Z   2
loop_
 _symmetry_equiv_pos_site_id
 _symmetry_equiv_pos_as_xyz
  1  'x, y, z'
loop_
 _atom_site_type_symbol
 _atom_site_label
 _atom_site_symmetry_multiplicity
 _atom_site_fract_x
 _atom_site_fract_y
 _atom_site_fract_z
 _atom_site_occupancy
  Tb  Tb0  1  0.000000  0.247252  0.250000  1
  Tb  Tb1  1  0.245703  0.246019  0.750000  1
  Tb  Tb2  1  0.754297  0.000316  0.750000  1
  Tb  Tb3  1  0.000000  0.753409  0.750000  1
  Tm  Tm4  1  0.665960  0.333408  0.500115  1
  Tm  Tm5  1  0.334040  0.667449  0.500115  1
  Tm  Tm6  1  0.334040  0.667449  0.999885  1
  Tm  Tm7  1  0.665960  0.333408  0.999885  1
  Tm  Tm8  1  0.754164  0.754075  0.250000  1
  Tm  Tm9  1  0.245836  0.999910  0.250000  1
  Bi  Bi10  1  0.398759  0.397557  0.250000  1
  Bi  Bi11  1  0.601241  0.998797  0.250000  1
  Bi  Bi12  1  0.000000  0.604301  0.250000  1
  Bi  Bi13  1  0.602333  0.603058  0.750000  1
  Bi  Bi14  1  0.397667  0.000726  0.750000  1
  Bi  Bi15  1  0.000000  0.397921  0.750000  1
  S  S16  1  0.000000  0.997474  0.497004  1
  S  S17  1  0.000000  0.997474  0.002996  1
