# generated using pymatgen
data_La9Yb(PPb3)2
_symmetry_space_group_name_H-M   'P 1'
_cell_length_a   9.66665700
_cell_length_b   9.66665716
_cell_length_c   7.11072000
_cell_angle_alpha   90.00000000
_cell_angle_beta   90.00000000
_cell_angle_gamma   119.99999605
_symmetry_Int_Tables_number   1
_chemical_formula_structural   La9Yb(PPb3)2
_chemical_formula_sum   'La9 Yb1 P2 Pb6'
_cell_volume   575.43576553
_cell_formula_units_Z   1
loop_
 _symmetry_equiv_pos_site_id
 _symmetry_equiv_pos_as_xyz
  1  'x, y, z'
loop_
 _atom_site_type_symbol
 _atom_site_label
 _atom_site_symmetry_multiplicity
 _atom_site_fract_x
 _atom_site_fract_y
 _atom_site_fract_z
 _atom_site_occupancy
  La  La0  1  0.762091  0.760184  0.750943  1
  La  La1  1  0.239816  0.001907  0.750943  1
  La  La2  1  0.998093  0.237909  0.750943  1
  La  La3  1  0.239816  0.237909  0.249057  1
  La  La4  1  0.762091  0.001907  0.249057  1
  La  La5  1  0.998093  0.760184  0.249057  1
  La  La6  1  0.333333  0.666667  0.000000  1
  La  La7  1  0.333333  0.666667  0.500000  1
  La  La8  1  0.666667  0.333333  0.500000  1
  Yb  Yb9  1  0.666667  0.333333  0.000000  1
  P  P10  1  0.000000  0.000000  0.000000  1
  P  P11  1  0.000000  0.000000  0.500000  1
  Pb  Pb12  1  0.402330  0.401759  0.750671  1
  Pb  Pb13  1  0.598241  0.000571  0.750671  1
  Pb  Pb14  1  0.999429  0.597670  0.750671  1
  Pb  Pb15  1  0.598241  0.597670  0.249329  1
  Pb  Pb16  1  0.402330  0.000571  0.249329  1
  Pb  Pb17  1  0.999429  0.401759  0.249329  1
