# generated using pymatgen
data_CaTb6(NdIr2)3
_symmetry_space_group_name_H-M   'P 1'
_cell_length_a   11.04558212
_cell_length_b   11.08747300
_cell_length_c   6.46304870
_cell_angle_alpha   90.00000000
_cell_angle_beta   90.25073042
_cell_angle_gamma   90.00000000
_symmetry_Int_Tables_number   1
_chemical_formula_structural   CaTb6(NdIr2)3
_chemical_formula_sum   'Ca2 Tb12 Nd6 Ir12'
_cell_volume   791.50644300
_cell_formula_units_Z   2
loop_
 _symmetry_equiv_pos_site_id
 _symmetry_equiv_pos_as_xyz
  1  'x, y, z'
loop_
 _atom_site_type_symbol
 _atom_site_label
 _atom_site_symmetry_multiplicity
 _atom_site_fract_x
 _atom_site_fract_y
 _atom_site_fract_z
 _atom_site_occupancy
  Ca  Ca0  1  0.287820  0.089833  0.377891  1
  Ca  Ca1  1  0.287820  0.910167  0.877891  1
  Tb  Tb2  1  0.207789  0.414805  0.619209  1
  Tb  Tb3  1  0.207789  0.585195  0.119209  1
  Tb  Tb4  1  0.793274  0.414585  0.116260  1
  Tb  Tb5  1  0.793274  0.585415  0.616260  1
  Tb  Tb6  1  0.914273  0.706614  0.119845  1
  Tb  Tb7  1  0.914273  0.293386  0.619845  1
  Tb  Tb8  1  0.086166  0.707151  0.620584  1
  Tb  Tb9  1  0.086166  0.292849  0.120584  1
  Tb  Tb10  1  0.003013  0.000746  0.504323  1
  Tb  Tb11  1  0.003013  0.999254  0.004323  1
  Tb  Tb12  1  0.499618  0.499622  0.000137  1
  Tb  Tb13  1  0.499618  0.500378  0.500137  1
  Nd  Nd14  1  0.713345  0.089728  0.879170  1
  Nd  Nd15  1  0.713345  0.910272  0.379170  1
  Nd  Nd16  1  0.587946  0.789106  0.877415  1
  Nd  Nd17  1  0.587946  0.210894  0.377415  1
  Nd  Nd18  1  0.407152  0.792425  0.379465  1
  Nd  Nd19  1  0.407152  0.207575  0.879465  1
  Ir  Ir20  1  0.855070  0.155866  0.252366  1
  Ir  Ir21  1  0.855070  0.844134  0.752366  1
  Ir  Ir22  1  0.141794  0.162234  0.753685  1
  Ir  Ir23  1  0.141794  0.837766  0.253685  1
  Ir  Ir24  1  0.653836  0.351015  0.752297  1
  Ir  Ir25  1  0.653836  0.648985  0.252297  1
  Ir  Ir26  1  0.343953  0.356826  0.246244  1
  Ir  Ir27  1  0.343953  0.643174  0.746244  1
  Ir  Ir28  1  0.504527  0.000782  0.122036  1
  Ir  Ir29  1  0.504527  0.999218  0.622036  1
  Ir  Ir30  1  0.000425  0.500457  0.879071  1
  Ir  Ir31  1  0.000425  0.499543  0.379071  1
