# generated using pymatgen
data_Nd5P12Pd2Ru17
_symmetry_space_group_name_H-M   'P 1'
_cell_length_a   12.75655900
_cell_length_b   12.65473936
_cell_length_c   4.01710500
_cell_angle_alpha   90.00000000
_cell_angle_beta   90.00000000
_cell_angle_gamma   120.26652522
_symmetry_Int_Tables_number   1
_chemical_formula_structural   Nd5P12Pd2Ru17
_chemical_formula_sum   'Nd5 P12 Pd2 Ru17'
_cell_volume   560.09011453
_cell_formula_units_Z   1
loop_
 _symmetry_equiv_pos_site_id
 _symmetry_equiv_pos_as_xyz
  1  'x, y, z'
loop_
 _atom_site_type_symbol
 _atom_site_label
 _atom_site_symmetry_multiplicity
 _atom_site_fract_x
 _atom_site_fract_y
 _atom_site_fract_z
 _atom_site_occupancy
  Nd  Nd0  1  0.000873  0.182544  0.500000  1
  Nd  Nd1  1  0.818329  0.817456  0.500000  1
  Nd  Nd2  1  0.183895  0.000000  0.500000  1
  Nd  Nd3  1  0.664063  0.328437  0.000000  1
  Nd  Nd4  1  0.335625  0.671563  0.000000  1
  P  P5  1  0.998674  0.809879  0.000000  1
  P  P6  1  0.188795  0.190121  0.000000  1
  P  P7  1  0.814804  0.000000  0.000000  1
  P  P8  1  0.693785  0.169432  0.500000  1
  P  P9  1  0.819309  0.519472  0.500000  1
  P  P10  1  0.475447  0.298455  0.500000  1
  P  P11  1  0.176993  0.701545  0.500000  1
  P  P12  1  0.524353  0.830568  0.500000  1
  P  P13  1  0.299837  0.480528  0.500000  1
  P  P14  1  0.000188  0.368466  0.000000  1
  P  P15  1  0.631722  0.631534  0.000000  1
  P  P16  1  0.376224  0.000000  0.000000  1
  Pd  Pd17  1  0.999473  0.552793  0.000000  1
  Pd  Pd18  1  0.446680  0.447207  0.000000  1
  Ru  Ru19  1  0.555626  0.000000  0.000000  1
  Ru  Ru20  1  0.998082  0.710136  0.500000  1
  Ru  Ru21  1  0.287946  0.289864  0.500000  1
  Ru  Ru22  1  0.716210  0.000000  0.500000  1
  Ru  Ru23  1  0.807120  0.184694  0.000000  1
  Ru  Ru24  1  0.813074  0.617955  0.000000  1
  Ru  Ru25  1  0.377439  0.193019  0.000000  1
  Ru  Ru26  1  0.184420  0.806981  0.000000  1
  Ru  Ru27  1  0.622426  0.815306  0.000000  1
  Ru  Ru28  1  0.195118  0.382045  0.000000  1
  Ru  Ru29  1  0.873584  0.366358  0.500000  1
  Ru  Ru30  1  0.629296  0.508114  0.500000  1
  Ru  Ru31  1  0.491232  0.122820  0.500000  1
  Ru  Ru32  1  0.368412  0.877180  0.500000  1
  Ru  Ru33  1  0.507226  0.633642  0.500000  1
  Ru  Ru34  1  0.121183  0.491886  0.500000  1
  Ru  Ru35  1  0.002536  0.000000  0.000000  1
