# generated using pymatgen
data_V17Fe2Si12Os
_symmetry_space_group_name_H-M   'P 1'
_cell_length_a   7.00266711
_cell_length_b   7.00266748
_cell_length_c   13.17922500
_cell_angle_alpha   90.00000000
_cell_angle_beta   90.00000000
_cell_angle_gamma   140.37623015
_symmetry_Int_Tables_number   1
_chemical_formula_structural   V17Fe2Si12Os
_chemical_formula_sum   'V17 Fe2 Si12 Os1'
_cell_volume   412.15726719
_cell_formula_units_Z   1
loop_
 _symmetry_equiv_pos_site_id
 _symmetry_equiv_pos_as_xyz
  1  'x, y, z'
loop_
 _atom_site_type_symbol
 _atom_site_label
 _atom_site_symmetry_multiplicity
 _atom_site_fract_x
 _atom_site_fract_y
 _atom_site_fract_z
 _atom_site_occupancy
  V  V0  1  0.070443  0.421215  0.399197  1
  V  V1  1  0.573112  0.930971  0.902204  1
  V  V2  1  0.421215  0.070443  0.600803  1
  V  V3  1  0.930971  0.573112  0.097796  1
  V  V4  1  0.849801  0.652136  0.677999  1
  V  V5  1  0.351059  0.151673  0.176178  1
  V  V6  1  0.652136  0.849801  0.322001  1
  V  V7  1  0.151673  0.351059  0.823822  1
  V  V8  1  0.652136  0.849801  0.677999  1
  V  V9  1  0.151673  0.351059  0.176178  1
  V  V10  1  0.849801  0.652136  0.322001  1
  V  V11  1  0.351059  0.151673  0.823822  1
  V  V12  1  0.421215  0.070443  0.399197  1
  V  V13  1  0.930971  0.573112  0.902204  1
  V  V14  1  0.070443  0.421215  0.600803  1
  V  V15  1  0.573112  0.930971  0.097796  1
  V  V16  1  0.997093  0.997093  0.500000  1
  Fe  Fe17  1  0.502469  0.502469  0.000000  1
  Fe  Fe18  1  0.001436  0.001436  0.000000  1
  Si  Si19  1  0.250462  0.749605  0.751072  1
  Si  Si20  1  0.749605  0.250462  0.248928  1
  Si  Si21  1  0.749605  0.250462  0.751072  1
  Si  Si22  1  0.250462  0.749605  0.248928  1
  Si  Si23  1  0.242982  0.242982  0.667334  1
  Si  Si24  1  0.753701  0.753701  0.158624  1
  Si  Si25  1  0.242982  0.242982  0.332666  1
  Si  Si26  1  0.753701  0.753701  0.841376  1
  Si  Si27  1  0.584453  0.919260  0.500000  1
  Si  Si28  1  0.093036  0.410157  0.000000  1
  Si  Si29  1  0.919260  0.584453  0.500000  1
  Si  Si30  1  0.410157  0.093036  0.000000  1
  Os  Os31  1  0.497781  0.497781  0.500000  1
