# generated using pymatgen
data_LiPr2MoN4
_symmetry_space_group_name_H-M   'P 1'
_cell_length_a   5.82193600
_cell_length_b   6.09968019
_cell_length_c   6.81053971
_cell_angle_alpha   73.17918602
_cell_angle_beta   90.00000000
_cell_angle_gamma   90.00000000
_symmetry_Int_Tables_number   1
_chemical_formula_structural   LiPr2MoN4
_chemical_formula_sum   'Li2 Pr4 Mo2 N8'
_cell_volume   231.50760506
_cell_formula_units_Z   2
loop_
 _symmetry_equiv_pos_site_id
 _symmetry_equiv_pos_as_xyz
  1  'x, y, z'
loop_
 _atom_site_type_symbol
 _atom_site_label
 _atom_site_symmetry_multiplicity
 _atom_site_fract_x
 _atom_site_fract_y
 _atom_site_fract_z
 _atom_site_occupancy
  Li  Li0  1  0.750000  0.294740  0.309603  1
  Li  Li1  1  0.250000  0.705260  0.690397  1
  Pr  Pr2  1  0.250000  0.263060  0.059455  1
  Pr  Pr3  1  0.750000  0.736940  0.940545  1
  Pr  Pr4  1  0.750000  0.775713  0.430527  1
  Pr  Pr5  1  0.250000  0.224287  0.569473  1
  Mo  Mo6  1  0.250000  0.732260  0.195682  1
  Mo  Mo7  1  0.750000  0.267740  0.804318  1
  N  N8  1  0.502632  0.473993  0.752613  1
  N  N9  1  0.002632  0.526007  0.247387  1
  N  N10  1  0.497368  0.526007  0.247387  1
  N  N11  1  0.997368  0.473993  0.752613  1
  N  N12  1  0.750000  0.082261  0.618535  1
  N  N13  1  0.250000  0.917739  0.381465  1
  N  N14  1  0.750000  0.089919  0.086028  1
  N  N15  1  0.250000  0.910081  0.913972  1
