# generated using pymatgen
data_LiYb(IrO4)2
_symmetry_space_group_name_H-M   'P 1'
_cell_length_a   9.79311747
_cell_length_b   5.76448418
_cell_length_c   5.23852410
_cell_angle_alpha   90.05772780
_cell_angle_beta   95.03733094
_cell_angle_gamma   89.95007116
_symmetry_Int_Tables_number   1
_chemical_formula_structural   LiYb(IrO4)2
_chemical_formula_sum   'Li2 Yb2 Ir4 O16'
_cell_volume   294.58415559
_cell_formula_units_Z   2
loop_
 _symmetry_equiv_pos_site_id
 _symmetry_equiv_pos_as_xyz
  1  'x, y, z'
loop_
 _atom_site_type_symbol
 _atom_site_label
 _atom_site_symmetry_multiplicity
 _atom_site_fract_x
 _atom_site_fract_y
 _atom_site_fract_z
 _atom_site_occupancy
  Li  Li0  1  0.749469  0.673917  0.249667  1
  Li  Li1  1  0.250531  0.326083  0.750332  1
  Yb  Yb2  1  0.250530  0.662300  0.250227  1
  Yb  Yb3  1  0.749470  0.337700  0.749772  1
  Ir  Ir4  1  0.495991  0.152029  0.248910  1
  Ir  Ir5  1  0.004100  0.152136  0.251440  1
  Ir  Ir6  1  0.995900  0.847863  0.748561  1
  Ir  Ir7  1  0.504009  0.847970  0.751089  1
  O  O8  1  0.895838  0.908039  0.048005  1
  O  O9  1  0.404834  0.884331  0.056301  1
  O  O10  1  0.362619  0.346519  0.099021  1
  O  O11  1  0.884960  0.380147  0.126305  1
  O  O12  1  0.614924  0.380401  0.373662  1
  O  O13  1  0.137513  0.346572  0.401126  1
  O  O14  1  0.095167  0.884027  0.443360  1
  O  O15  1  0.604198  0.908052  0.451915  1
  O  O16  1  0.395802  0.091949  0.548084  1
  O  O17  1  0.904833  0.115974  0.556639  1
  O  O18  1  0.862487  0.653428  0.598875  1
  O  O19  1  0.385076  0.619599  0.626339  1
  O  O20  1  0.115040  0.619853  0.873694  1
  O  O21  1  0.637381  0.653481  0.900979  1
  O  O22  1  0.595166  0.115670  0.943700  1
  O  O23  1  0.104162  0.091962  0.951995  1
