# generated using pymatgen
data_Er5Ir2Os
_symmetry_space_group_name_H-M   'P 1'
_cell_length_a   10.76564200
_cell_length_b   10.76564200
_cell_length_c   6.36709200
_cell_angle_alpha   90.00000000
_cell_angle_beta   90.00000000
_cell_angle_gamma   90.00000000
_symmetry_Int_Tables_number   1
_chemical_formula_structural   Er5Ir2Os
_chemical_formula_sum   'Er20 Ir8 Os4'
_cell_volume   737.93989924
_cell_formula_units_Z   4
loop_
 _symmetry_equiv_pos_site_id
 _symmetry_equiv_pos_as_xyz
  1  'x, y, z'
loop_
 _atom_site_type_symbol
 _atom_site_label
 _atom_site_symmetry_multiplicity
 _atom_site_fract_x
 _atom_site_fract_y
 _atom_site_fract_z
 _atom_site_occupancy
  Er  Er0  1  0.293806  0.086181  0.376576  1
  Er  Er1  1  0.293806  0.913819  0.876576  1
  Er  Er2  1  0.706194  0.086181  0.876576  1
  Er  Er3  1  0.706194  0.913819  0.376576  1
  Er  Er4  1  0.586181  0.793806  0.876576  1
  Er  Er5  1  0.586181  0.206194  0.376576  1
  Er  Er6  1  0.413819  0.793806  0.376576  1
  Er  Er7  1  0.413819  0.206194  0.876576  1
  Er  Er8  1  0.206194  0.413819  0.623424  1
  Er  Er9  1  0.206194  0.586181  0.123424  1
  Er  Er10  1  0.793806  0.413819  0.123424  1
  Er  Er11  1  0.793806  0.586181  0.623424  1
  Er  Er12  1  0.913819  0.706194  0.123424  1
  Er  Er13  1  0.913819  0.293806  0.623424  1
  Er  Er14  1  0.086181  0.706194  0.623424  1
  Er  Er15  1  0.086181  0.293806  0.123424  1
  Er  Er16  1  0.000000  0.000000  0.500000  1
  Er  Er17  1  0.000000  0.000000  0.000000  1
  Er  Er18  1  0.500000  0.500000  0.000000  1
  Er  Er19  1  0.500000  0.500000  0.500000  1
  Ir  Ir20  1  0.847549  0.152451  0.250000  1
  Ir  Ir21  1  0.847549  0.847549  0.750000  1
  Ir  Ir22  1  0.152451  0.152451  0.750000  1
  Ir  Ir23  1  0.152451  0.847549  0.250000  1
  Ir  Ir24  1  0.652451  0.347549  0.750000  1
  Ir  Ir25  1  0.652451  0.652451  0.250000  1
  Ir  Ir26  1  0.347549  0.347549  0.250000  1
  Ir  Ir27  1  0.347549  0.652451  0.750000  1
  Os  Os28  1  0.500000  0.000000  0.122220  1
  Os  Os29  1  0.500000  0.000000  0.622220  1
  Os  Os30  1  0.000000  0.500000  0.877780  1
  Os  Os31  1  0.000000  0.500000  0.377780  1
