# generated using pymatgen
data_Nd4Tm16(BiSb3)3
_symmetry_space_group_name_H-M   'P 1'
_cell_length_a   8.03876419
_cell_length_b   9.27875424
_cell_length_c   11.73925200
_cell_angle_alpha   90.04783729
_cell_angle_beta   89.92890380
_cell_angle_gamma   89.99908989
_symmetry_Int_Tables_number   1
_chemical_formula_structural   Nd4Tm16(BiSb3)3
_chemical_formula_sum   'Nd4 Tm16 Bi3 Sb9'
_cell_volume   875.62650813
_cell_formula_units_Z   1
loop_
 _symmetry_equiv_pos_site_id
 _symmetry_equiv_pos_as_xyz
  1  'x, y, z'
loop_
 _atom_site_type_symbol
 _atom_site_label
 _atom_site_symmetry_multiplicity
 _atom_site_fract_x
 _atom_site_fract_y
 _atom_site_fract_z
 _atom_site_occupancy
  Nd  Nd0  1  0.318546  0.250986  0.220392  1
  Nd  Nd1  1  0.817937  0.248700  0.279890  1
  Nd  Nd2  1  0.680865  0.753617  0.779231  1
  Nd  Nd3  1  0.183315  0.752221  0.720479  1
  Tm  Tm4  1  0.351219  0.750553  0.217157  1
  Tm  Tm5  1  0.850993  0.749517  0.283358  1
  Tm  Tm6  1  0.645191  0.247300  0.782029  1
  Tm  Tm7  1  0.152129  0.246235  0.716175  1
  Tm  Tm8  1  0.690848  0.562786  0.060021  1
  Tm  Tm9  1  0.192195  0.938373  0.441792  1
  Tm  Tm10  1  0.310804  0.061922  0.937034  1
  Tm  Tm11  1  0.808007  0.437482  0.560923  1
  Tm  Tm12  1  0.311464  0.437917  0.938726  1
  Tm  Tm13  1  0.809516  0.061036  0.561416  1
  Tm  Tm14  1  0.688433  0.938238  0.060725  1
  Tm  Tm15  1  0.189097  0.562240  0.439781  1
  Tm  Tm16  1  0.474277  0.247474  0.489707  1
  Tm  Tm17  1  0.975373  0.250126  0.011516  1
  Tm  Tm18  1  0.524772  0.752265  0.513196  1
  Tm  Tm19  1  0.024766  0.750249  0.987426  1
  Bi  Bi20  1  0.933896  0.490664  0.826247  1
  Bi  Bi21  1  0.565688  0.509086  0.328609  1
  Bi  Bi22  1  0.066500  0.990899  0.172765  1
  Sb  Sb23  1  0.404751  0.749971  0.964911  1
  Sb  Sb24  1  0.905345  0.749555  0.535627  1
  Sb  Sb25  1  0.595470  0.250399  0.035214  1
  Sb  Sb26  1  0.093999  0.250209  0.464716  1
  Sb  Sb27  1  0.564906  0.990285  0.329165  1
  Sb  Sb28  1  0.064980  0.509731  0.170660  1
  Sb  Sb29  1  0.435018  0.490763  0.670606  1
  Sb  Sb30  1  0.934990  0.009885  0.829457  1
  Sb  Sb31  1  0.434712  0.009318  0.671048  1
