# generated using pymatgen
data_Ho5Lu7Co4
_symmetry_space_group_name_H-M   'P 1'
_cell_length_a   6.15546086
_cell_length_b   6.87364811
_cell_length_c   9.18216014
_cell_angle_alpha   90.00031562
_cell_angle_beta   90.05702393
_cell_angle_gamma   90.02005246
_symmetry_Int_Tables_number   1
_chemical_formula_structural   Ho5Lu7Co4
_chemical_formula_sum   'Ho5 Lu7 Co4'
_cell_volume   388.50131181
_cell_formula_units_Z   1
loop_
 _symmetry_equiv_pos_site_id
 _symmetry_equiv_pos_as_xyz
  1  'x, y, z'
loop_
 _atom_site_type_symbol
 _atom_site_label
 _atom_site_symmetry_multiplicity
 _atom_site_fract_x
 _atom_site_fract_y
 _atom_site_fract_z
 _atom_site_occupancy
  Ho  Ho0  1  0.323218  0.676307  0.065524  1
  Ho  Ho1  1  0.865692  0.539911  0.250604  1
  Ho  Ho2  1  0.634501  0.040885  0.250248  1
  Ho  Ho3  1  0.133418  0.459217  0.749521  1
  Ho  Ho4  1  0.366528  0.959607  0.749546  1
  Lu  Lu5  1  0.176501  0.176303  0.433785  1
  Lu  Lu6  1  0.676363  0.323839  0.566231  1
  Lu  Lu7  1  0.823977  0.824180  0.933386  1
  Lu  Lu8  1  0.676685  0.323268  0.933618  1
  Lu  Lu9  1  0.823742  0.823934  0.566068  1
  Lu  Lu10  1  0.323796  0.676166  0.434722  1
  Lu  Lu11  1  0.175999  0.176148  0.066159  1
  Co  Co12  1  0.047768  0.889265  0.250616  1
  Co  Co13  1  0.451446  0.388104  0.250495  1
  Co  Co14  1  0.951603  0.111509  0.750044  1
  Co  Co15  1  0.548763  0.611358  0.749433  1
