# generated using pymatgen
data_Nd3Tm2In3Cl
_symmetry_space_group_name_H-M   'P 1'
_cell_length_a   9.32760600
_cell_length_b   9.32760585
_cell_length_c   6.59675800
_cell_angle_alpha   90.00000000
_cell_angle_beta   90.00000000
_cell_angle_gamma   120.00000763
_symmetry_Int_Tables_number   1
_chemical_formula_structural   Nd3Tm2In3Cl
_chemical_formula_sum   'Nd6 Tm4 In6 Cl2'
_cell_volume   497.05166153
_cell_formula_units_Z   2
loop_
 _symmetry_equiv_pos_site_id
 _symmetry_equiv_pos_as_xyz
  1  'x, y, z'
loop_
 _atom_site_type_symbol
 _atom_site_label
 _atom_site_symmetry_multiplicity
 _atom_site_fract_x
 _atom_site_fract_y
 _atom_site_fract_z
 _atom_site_occupancy
  Nd  Nd0  1  0.737692  0.737692  0.250000  1
  Nd  Nd1  1  0.000000  0.737692  0.750000  1
  Nd  Nd2  1  0.737692  0.000000  0.750000  1
  Nd  Nd3  1  0.262308  0.262308  0.750000  1
  Nd  Nd4  1  0.000000  0.262308  0.250000  1
  Nd  Nd5  1  0.262308  0.000000  0.250000  1
  Tm  Tm6  1  0.333333  0.666667  0.500000  1
  Tm  Tm7  1  0.666667  0.333333  0.500000  1
  Tm  Tm8  1  0.333333  0.666667  0.000000  1
  Tm  Tm9  1  0.666667  0.333333  0.000000  1
  In  In10  1  0.396942  0.000000  0.750000  1
  In  In11  1  0.000000  0.603058  0.250000  1
  In  In12  1  0.603058  0.000000  0.250000  1
  In  In13  1  0.000000  0.396942  0.750000  1
  In  In14  1  0.396942  0.396942  0.250000  1
  In  In15  1  0.603058  0.603058  0.750000  1
  Cl  Cl16  1  0.000000  0.000000  0.500000  1
  Cl  Cl17  1  0.000000  0.000000  0.000000  1
