# generated using pymatgen
data_Ba3FeO4F
_symmetry_space_group_name_H-M   'P 1'
_cell_length_a   7.92261283
_cell_length_b   7.92261325
_cell_length_c   7.92261344
_cell_angle_alpha   124.73266510
_cell_angle_beta   124.73266724
_cell_angle_gamma   81.98129815
_symmetry_Int_Tables_number   1
_chemical_formula_structural   Ba3FeO4F
_chemical_formula_sum   'Ba6 Fe2 O8 F2'
_cell_volume   322.99779111
_cell_formula_units_Z   2
loop_
 _symmetry_equiv_pos_site_id
 _symmetry_equiv_pos_as_xyz
  1  'x, y, z'
loop_
 _atom_site_type_symbol
 _atom_site_label
 _atom_site_symmetry_multiplicity
 _atom_site_fract_x
 _atom_site_fract_y
 _atom_site_fract_z
 _atom_site_occupancy
  Ba  Ba0  1  0.832162  0.332162  0.164325  1
  Ba  Ba1  1  0.332162  0.167838  0.500000  1
  Ba  Ba2  1  0.667838  0.832162  0.500000  1
  Ba  Ba3  1  0.167838  0.667838  0.835675  1
  Ba  Ba4  1  0.250000  0.250000  0.000000  1
  Ba  Ba5  1  0.750000  0.750000  0.000000  1
  Fe  Fe6  1  0.750000  0.250000  0.500000  1
  Fe  Fe7  1  0.250000  0.750000  0.500000  1
  O  O8  1  0.505433  0.005433  0.215199  1
  O  O9  1  0.209765  0.709765  0.215199  1
  O  O10  1  0.494567  0.994567  0.784801  1
  O  O11  1  0.994567  0.209765  0.500000  1
  O  O12  1  0.709765  0.494567  0.500000  1
  O  O13  1  0.005433  0.790235  0.500000  1
  O  O14  1  0.290235  0.505433  0.500000  1
  O  O15  1  0.790235  0.290235  0.784801  1
  F  F16  1  0.500000  0.500000  0.000000  1
  F  F17  1  0.000000  0.000000  0.000000  1
