# generated using pymatgen
data_SrTbY5RuI12
_symmetry_space_group_name_H-M   'P 1'
_cell_length_a   9.82579063
_cell_length_b   9.82350903
_cell_length_c   9.91214523
_cell_angle_alpha   106.53496740
_cell_angle_beta   106.54412750
_cell_angle_gamma   106.11069714
_symmetry_Int_Tables_number   1
_chemical_formula_structural   SrTbY5RuI12
_chemical_formula_sum   'Sr1 Tb1 Y5 Ru1 I12'
_cell_volume   809.54233795
_cell_formula_units_Z   1
loop_
 _symmetry_equiv_pos_site_id
 _symmetry_equiv_pos_as_xyz
  1  'x, y, z'
loop_
 _atom_site_type_symbol
 _atom_site_label
 _atom_site_symmetry_multiplicity
 _atom_site_fract_x
 _atom_site_fract_y
 _atom_site_fract_z
 _atom_site_occupancy
  Sr  Sr0  1  0.499935  0.500123  0.500035  1
  Tb  Tb1  1  0.290075  0.019913  0.091348  1
  Y  Y2  1  0.907164  0.708543  0.980889  1
  Y  Y3  1  0.979870  0.905261  0.697780  1
  Y  Y4  1  0.709818  0.979797  0.908744  1
  Y  Y5  1  0.092708  0.291375  0.019024  1
  Y  Y6  1  0.020175  0.094741  0.302048  1
  Ru  Ru7  1  0.000476  0.999925  0.000021  1
  I  I8  1  0.631729  0.864798  0.553912  1
  I  I9  1  0.552106  0.632081  0.862980  1
  I  I10  1  0.865032  0.552993  0.634302  1
  I  I11  1  0.368213  0.135634  0.446862  1
  I  I12  1  0.447843  0.368311  0.137037  1
  I  I13  1  0.134832  0.447043  0.365600  1
  I  I14  1  0.678738  0.074529  0.222351  1
  I  I15  1  0.222800  0.679071  0.074510  1
  I  I16  1  0.074818  0.225260  0.677796  1
  I  I17  1  0.321896  0.925582  0.777289  1
  I  I18  1  0.776788  0.320296  0.925319  1
  I  I19  1  0.924985  0.774722  0.322153  1
