# generated using pymatgen
data_NdSm3Ag4(PO3)16
_symmetry_space_group_name_H-M   'P 1'
_cell_length_a   13.34202872
_cell_length_b   7.36051055
_cell_length_c   12.38256237
_cell_angle_alpha   53.87191539
_cell_angle_beta   90.01609596
_cell_angle_gamma   90.03710002
_symmetry_Int_Tables_number   1
_chemical_formula_structural   NdSm3Ag4(PO3)16
_chemical_formula_sum   'Nd1 Sm3 Ag4 P16 O48'
_cell_volume   982.17946824
_cell_formula_units_Z   1
loop_
 _symmetry_equiv_pos_site_id
 _symmetry_equiv_pos_as_xyz
  1  'x, y, z'
loop_
 _atom_site_type_symbol
 _atom_site_label
 _atom_site_symmetry_multiplicity
 _atom_site_fract_x
 _atom_site_fract_y
 _atom_site_fract_z
 _atom_site_occupancy
  Nd  Nd0  1  0.719181  0.034012  0.478105  1
  Sm  Sm1  1  0.780338  0.033338  0.978815  1
  Sm  Sm2  1  0.280593  0.966453  0.521276  1
  Sm  Sm3  1  0.219710  0.966384  0.021464  1
  Ag  Ag4  1  0.722543  0.433464  0.566268  1
  Ag  Ag5  1  0.222386  0.565834  0.934694  1
  Ag  Ag6  1  0.277813  0.565968  0.434876  1
  Ag  Ag7  1  0.777463  0.434094  0.065023  1
  P  P8  1  0.600407  0.504855  0.748459  1
  P  P9  1  0.101477  0.493233  0.753055  1
  P  P10  1  0.399018  0.493726  0.252532  1
  P  P11  1  0.900188  0.508614  0.245205  1
  P  P12  1  0.909201  0.058399  0.705901  1
  P  P13  1  0.408441  0.940087  0.795626  1
  P  P14  1  0.091400  0.940535  0.295028  1
  P  P15  1  0.590106  0.062420  0.202185  1
  P  P16  1  0.886911  0.609879  0.764552  1
  P  P17  1  0.386295  0.387616  0.737290  1
  P  P18  1  0.114388  0.388145  0.236477  1
  P  P19  1  0.613165  0.613961  0.262725  1
  P  P20  1  0.625083  0.842595  0.804600  1
  P  P21  1  0.126158  0.156422  0.697015  1
  P  P22  1  0.373678  0.157282  0.196106  1
  P  P23  1  0.874481  0.842316  0.302908  1
  O  O24  1  0.987611  0.574252  0.709123  1
  O  O25  1  0.486671  0.423146  0.793487  1
  O  O26  1  0.013798  0.426682  0.290615  1
  O  O27  1  0.512745  0.576130  0.207716  1
  O  O28  1  0.664777  0.298734  0.803691  1
  O  O29  1  0.165535  0.700140  0.697406  1
  O  O30  1  0.334762  0.700005  0.197532  1
  O  O31  1  0.836126  0.302335  0.299075  1
  O  O32  1  0.621271  0.595386  0.837057  1
  O  O33  1  0.121868  0.404365  0.663474  1
  O  O34  1  0.378479  0.404890  0.162937  1
  O  O35  1  0.879095  0.594959  0.335898  1
  O  O36  1  0.608054  0.689191  0.600667  1
  O  O37  1  0.109836  0.307921  0.900641  1
  O  O38  1  0.390885  0.307983  0.400104  1
  O  O39  1  0.892105  0.695435  0.097928  1
  O  O40  1  0.518834  0.856639  0.861103  1
  O  O41  1  0.019913  0.140141  0.641364  1
  O  O42  1  0.479156  0.142398  0.138291  1
  O  O43  1  0.980467  0.858895  0.359017  1
  O  O44  1  0.920125  0.787510  0.794228  1
  O  O45  1  0.420090  0.210891  0.707250  1
  O  O46  1  0.080346  0.211451  0.206502  1
  O  O47  1  0.579221  0.791561  0.291843  1
  O  O48  1  0.888849  0.117914  0.800719  1
  O  O49  1  0.388323  0.880945  0.700549  1
  O  O50  1  0.111743  0.880720  0.200338  1
  O  O51  1  0.610036  0.124274  0.295953  1
  O  O52  1  0.839183  0.145955  0.589611  1
  O  O53  1  0.338110  0.853631  0.911507  1
  O  O54  1  0.161304  0.853752  0.411390  1
  O  O55  1  0.660418  0.148007  0.086428  1
  O  O56  1  0.856610  0.397623  0.896635  1
  O  O57  1  0.356110  0.600293  0.605373  1
  O  O58  1  0.145455  0.600112  0.104745  1
  O  O59  1  0.643460  0.402672  0.395096  1
  O  O60  1  0.813146  0.714617  0.652104  1
  O  O61  1  0.312407  0.281107  0.849732  1
  O  O62  1  0.187579  0.281080  0.349720  1
  O  O63  1  0.687223  0.719200  0.150480  1
  O  O64  1  0.705186  0.828507  0.894813  1
  O  O65  1  0.205947  0.169991  0.606671  1
  O  O66  1  0.293087  0.170641  0.106679  1
  O  O67  1  0.794352  0.827418  0.393228  1
  O  O68  1  0.632052  0.018897  0.656496  1
  O  O69  1  0.133558  0.982026  0.845355  1
  O  O70  1  0.366957  0.982352  0.344517  1
  O  O71  1  0.866707  0.017594  0.154727  1
