# generated using pymatgen
data_Eu3ThH10
_symmetry_space_group_name_H-M   'P 1'
_cell_length_a   6.72557984
_cell_length_b   6.72557982
_cell_length_c   6.72557940
_cell_angle_alpha   131.99830104
_cell_angle_beta   130.79695710
_cell_angle_gamma   71.18648736
_symmetry_Int_Tables_number   1
_chemical_formula_structural   Eu3ThH10
_chemical_formula_sum   'Eu3 Th1 H10'
_cell_volume   167.55967501
_cell_formula_units_Z   1
loop_
 _symmetry_equiv_pos_site_id
 _symmetry_equiv_pos_as_xyz
  1  'x, y, z'
loop_
 _atom_site_type_symbol
 _atom_site_label
 _atom_site_symmetry_multiplicity
 _atom_site_fract_x
 _atom_site_fract_y
 _atom_site_fract_z
 _atom_site_occupancy
  Eu  Eu0  1  0.489598  0.989598  0.500000  1
  Eu  Eu1  1  0.738215  0.738215  0.000000  1
  Eu  Eu2  1  0.012448  0.512448  0.500000  1
  Th  Th3  1  0.264186  0.264186  0.000000  1
  H  H4  1  0.371757  0.345126  0.457609  1
  H  H5  1  0.887517  0.914148  0.542391  1
  H  H6  1  0.643237  0.130706  0.030862  1
  H  H7  1  0.099844  0.612375  0.969138  1
  H  H8  1  0.371757  0.914148  0.026631  1
  H  H9  1  0.887517  0.345126  0.973369  1
  H  H10  1  0.643237  0.612375  0.512531  1
  H  H11  1  0.099844  0.130706  0.487469  1
  H  H12  1  0.252073  0.752073  0.500000  1
  H  H13  1  0.488769  0.488769  0.000000  1
