# generated using pymatgen
data_TbYb2Sc(CuSe3)2
_symmetry_space_group_name_H-M   'P 1'
_cell_length_a   6.81384974
_cell_length_b   6.81385021
_cell_length_c   10.44905526
_cell_angle_alpha   86.63939454
_cell_angle_beta   93.36060475
_cell_angle_gamma   146.25043199
_symmetry_Int_Tables_number   1
_chemical_formula_structural   TbYb2Sc(CuSe3)2
_chemical_formula_sum   'Tb1 Yb2 Sc1 Cu2 Se6'
_cell_volume   269.01707772
_cell_formula_units_Z   1
loop_
 _symmetry_equiv_pos_site_id
 _symmetry_equiv_pos_as_xyz
  1  'x, y, z'
loop_
 _atom_site_type_symbol
 _atom_site_label
 _atom_site_symmetry_multiplicity
 _atom_site_fract_x
 _atom_site_fract_y
 _atom_site_fract_z
 _atom_site_occupancy
  Tb  Tb0  1  0.000000  0.000000  0.000000  1
  Yb  Yb1  1  0.242530  0.757472  0.278089  1
  Yb  Yb2  1  0.757472  0.242530  0.721911  1
  Sc  Sc3  1  0.000000  0.000000  0.500000  1
  Cu  Cu4  1  0.525283  0.474719  0.253366  1
  Cu  Cu5  1  0.474719  0.525283  0.746634  1
  Se  Se6  1  0.646861  0.353141  0.086771  1
  Se  Se7  1  0.911751  0.088251  0.252523  1
  Se  Se8  1  0.638160  0.361842  0.449359  1
  Se  Se9  1  0.361842  0.638160  0.550641  1
  Se  Se10  1  0.088251  0.911751  0.747477  1
  Se  Se11  1  0.353141  0.646861  0.913229  1
