# generated using pymatgen
data_Pr5Tm5Pb6
_symmetry_space_group_name_H-M   'P 1'
_cell_length_a   9.22221668
_cell_length_b   9.22221683
_cell_length_c   6.73903800
_cell_angle_alpha   90.00000000
_cell_angle_beta   90.00000000
_cell_angle_gamma   119.73488321
_symmetry_Int_Tables_number   1
_chemical_formula_structural   Pr5Tm5Pb6
_chemical_formula_sum   'Pr5 Tm5 Pb6'
_cell_volume   497.68346779
_cell_formula_units_Z   1
loop_
 _symmetry_equiv_pos_site_id
 _symmetry_equiv_pos_as_xyz
  1  'x, y, z'
loop_
 _atom_site_type_symbol
 _atom_site_label
 _atom_site_symmetry_multiplicity
 _atom_site_fract_x
 _atom_site_fract_y
 _atom_site_fract_z
 _atom_site_occupancy
  Pr  Pr0  1  0.238887  0.999566  0.750000  1
  Pr  Pr1  1  0.999566  0.238887  0.750000  1
  Pr  Pr2  1  0.242644  0.242644  0.250000  1
  Pr  Pr3  1  0.760573  0.998439  0.250000  1
  Pr  Pr4  1  0.998439  0.760573  0.250000  1
  Tm  Tm5  1  0.666875  0.333756  0.999458  1
  Tm  Tm6  1  0.333756  0.666875  0.999458  1
  Tm  Tm7  1  0.333756  0.666875  0.500542  1
  Tm  Tm8  1  0.666875  0.333756  0.500542  1
  Tm  Tm9  1  0.758481  0.758481  0.750000  1
  Pb  Pb10  1  0.403198  0.403198  0.750000  1
  Pb  Pb11  1  0.602643  0.995970  0.750000  1
  Pb  Pb12  1  0.995970  0.602643  0.750000  1
  Pb  Pb13  1  0.600384  0.600384  0.250000  1
  Pb  Pb14  1  0.398669  0.999285  0.250000  1
  Pb  Pb15  1  0.999285  0.398669  0.250000  1
