# generated using pymatgen
data_SrEr2(SiIr2)3
_symmetry_space_group_name_H-M   'P 1'
_cell_length_a   5.60881700
_cell_length_b   5.60881674
_cell_length_c   15.10212500
_cell_angle_alpha   90.00000000
_cell_angle_beta   90.00000000
_cell_angle_gamma   119.99999561
_symmetry_Int_Tables_number   1
_chemical_formula_structural   SrEr2(SiIr2)3
_chemical_formula_sum   'Sr2 Er4 Si6 Ir12'
_cell_volume   411.44447276
_cell_formula_units_Z   2
loop_
 _symmetry_equiv_pos_site_id
 _symmetry_equiv_pos_as_xyz
  1  'x, y, z'
loop_
 _atom_site_type_symbol
 _atom_site_label
 _atom_site_symmetry_multiplicity
 _atom_site_fract_x
 _atom_site_fract_y
 _atom_site_fract_z
 _atom_site_occupancy
  Sr  Sr0  1  0.333333  0.666667  0.750000  1
  Sr  Sr1  1  0.666667  0.333333  0.250000  1
  Er  Er2  1  0.333333  0.666667  0.539871  1
  Er  Er3  1  0.666667  0.333333  0.460129  1
  Er  Er4  1  0.666667  0.333333  0.039871  1
  Er  Er5  1  0.333333  0.666667  0.960129  1
  Si  Si6  1  0.000000  0.000000  0.250000  1
  Si  Si7  1  0.000000  0.000000  0.750000  1
  Si  Si8  1  0.333333  0.666667  0.250000  1
  Si  Si9  1  0.666667  0.333333  0.750000  1
  Si  Si10  1  0.000000  0.000000  0.000000  1
  Si  Si11  1  0.000000  0.000000  0.500000  1
  Ir  Ir12  1  0.167743  0.335487  0.128209  1
  Ir  Ir13  1  0.832257  0.664513  0.871791  1
  Ir  Ir14  1  0.664513  0.832257  0.128209  1
  Ir  Ir15  1  0.832257  0.664513  0.628209  1
  Ir  Ir16  1  0.335487  0.167743  0.871791  1
  Ir  Ir17  1  0.167743  0.335487  0.371791  1
  Ir  Ir18  1  0.167743  0.832257  0.128209  1
  Ir  Ir19  1  0.335487  0.167743  0.628209  1
  Ir  Ir20  1  0.832257  0.167743  0.871791  1
  Ir  Ir21  1  0.664513  0.832257  0.371791  1
  Ir  Ir22  1  0.832257  0.167743  0.628209  1
  Ir  Ir23  1  0.167743  0.832257  0.371791  1
