# generated using pymatgen
data_Tb2SmIn3O9
_symmetry_space_group_name_H-M   'P 1'
_cell_length_a   6.41508100
_cell_length_b   6.41508015
_cell_length_c   12.40942400
_cell_angle_alpha   90.00000000
_cell_angle_beta   90.00000000
_cell_angle_gamma   119.99998890
_symmetry_Int_Tables_number   1
_chemical_formula_structural   Tb2SmIn3O9
_chemical_formula_sum   'Tb4 Sm2 In6 O18'
_cell_volume   442.26903643
_cell_formula_units_Z   2
loop_
 _symmetry_equiv_pos_site_id
 _symmetry_equiv_pos_as_xyz
  1  'x, y, z'
loop_
 _atom_site_type_symbol
 _atom_site_label
 _atom_site_symmetry_multiplicity
 _atom_site_fract_x
 _atom_site_fract_y
 _atom_site_fract_z
 _atom_site_occupancy
  Tb  Tb0  1  0.666667  0.333333  0.460824  1
  Tb  Tb1  1  0.333333  0.666667  0.960824  1
  Tb  Tb2  1  0.000000  0.000000  0.997206  1
  Tb  Tb3  1  0.000000  0.000000  0.497206  1
  Sm  Sm4  1  0.666667  0.333333  0.960835  1
  Sm  Sm5  1  0.333333  0.666667  0.460835  1
  In  In6  1  0.667210  0.667336  0.726681  1
  In  In7  1  0.000124  0.332790  0.726681  1
  In  In8  1  0.332790  0.332664  0.226681  1
  In  In9  1  0.999876  0.667210  0.226681  1
  In  In10  1  0.332664  0.999876  0.726681  1
  In  In11  1  0.667336  0.000124  0.226681  1
  O  O12  1  0.692745  0.698219  0.897640  1
  O  O13  1  0.005474  0.307255  0.897640  1
  O  O14  1  0.307255  0.301781  0.397640  1
  O  O15  1  0.994526  0.692745  0.397640  1
  O  O16  1  0.301781  0.994526  0.897640  1
  O  O17  1  0.698219  0.005474  0.397640  1
  O  O18  1  0.644147  0.639103  0.557070  1
  O  O19  1  0.994956  0.355853  0.557070  1
  O  O20  1  0.355853  0.360897  0.057070  1
  O  O21  1  0.005044  0.644147  0.057070  1
  O  O22  1  0.360897  0.005044  0.557070  1
  O  O23  1  0.639103  0.994956  0.057070  1
  O  O24  1  0.000000  0.000000  0.694398  1
  O  O25  1  0.000000  0.000000  0.194398  1
  O  O26  1  0.666667  0.333333  0.754962  1
  O  O27  1  0.333333  0.666667  0.254962  1
  O  O28  1  0.666667  0.333333  0.253493  1
  O  O29  1  0.333333  0.666667  0.753493  1
