# generated using pymatgen
data_Rb20Hf3PaAs12
_symmetry_space_group_name_H-M   'P 1'
_cell_length_a   8.85151252
_cell_length_b   9.49460454
_cell_length_c   18.39982000
_cell_angle_alpha   60.41876964
_cell_angle_beta   89.98043214
_cell_angle_gamma   90.08340523
_symmetry_Int_Tables_number   1
_chemical_formula_structural   Rb20Hf3PaAs12
_chemical_formula_sum   'Rb20 Hf3 Pa1 As12'
_cell_volume   1344.79165242
_cell_formula_units_Z   1
loop_
 _symmetry_equiv_pos_site_id
 _symmetry_equiv_pos_as_xyz
  1  'x, y, z'
loop_
 _atom_site_type_symbol
 _atom_site_label
 _atom_site_symmetry_multiplicity
 _atom_site_fract_x
 _atom_site_fract_y
 _atom_site_fract_z
 _atom_site_occupancy
  Rb  Rb0  1  0.172819  0.845901  0.739133  1
  Rb  Rb1  1  0.673947  0.158151  0.758445  1
  Rb  Rb2  1  0.821274  0.149741  0.261117  1
  Rb  Rb3  1  0.328269  0.837677  0.244274  1
  Rb  Rb4  1  0.162656  0.161418  0.421189  1
  Rb  Rb5  1  0.660122  0.843976  0.081308  1
  Rb  Rb6  1  0.836705  0.838250  0.580782  1
  Rb  Rb7  1  0.339678  0.163716  0.915518  1
  Rb  Rb8  1  0.010188  0.077841  0.090510  1
  Rb  Rb9  1  0.506208  0.915888  0.410146  1
  Rb  Rb10  1  0.988976  0.921148  0.908758  1
  Rb  Rb11  1  0.493173  0.085504  0.590112  1
  Rb  Rb12  1  0.514302  0.263777  0.076458  1
  Rb  Rb13  1  0.019983  0.732899  0.420278  1
  Rb  Rb14  1  0.486460  0.733862  0.919621  1
  Rb  Rb15  1  0.985181  0.274282  0.577808  1
  Rb  Rb16  1  0.968504  0.545653  0.256143  1
  Rb  Rb17  1  0.482242  0.452019  0.247105  1
  Rb  Rb18  1  0.025576  0.454693  0.744614  1
  Rb  Rb19  1  0.522905  0.547392  0.753515  1
  Hf  Hf20  1  0.373034  0.494550  0.579293  1
  Hf  Hf21  1  0.866630  0.505950  0.918086  1
  Hf  Hf22  1  0.629284  0.504684  0.422167  1
  Pa  Pa23  1  0.133493  0.494028  0.081377  1
  As  As24  1  0.328710  0.483183  0.438748  1
  As  As25  1  0.815454  0.518764  0.058847  1
  As  As26  1  0.673963  0.515112  0.563042  1
  As  As27  1  0.168873  0.482924  0.931381  1
  As  As28  1  0.210004  0.205416  0.223845  1
  As  As29  1  0.706773  0.772554  0.287291  1
  As  As30  1  0.793016  0.777041  0.785747  1
  As  As31  1  0.295150  0.224697  0.713195  1
  As  As32  1  0.256420  0.768979  0.076534  1
  As  As33  1  0.750906  0.250293  0.423990  1
  As  As34  1  0.748583  0.249177  0.922765  1
  As  As35  1  0.250540  0.748863  0.576862  1
