# generated using pymatgen
data_Y2Tm18Cd3Hg3Ru2
_symmetry_space_group_name_H-M   'P 1'
_cell_length_a   9.44242808
_cell_length_b   9.44242740
_cell_length_c   9.66813500
_cell_angle_alpha   90.00000000
_cell_angle_beta   90.00000000
_cell_angle_gamma   119.53699619
_symmetry_Int_Tables_number   1
_chemical_formula_structural   Y2Tm18Cd3Hg3Ru2
_chemical_formula_sum   'Y2 Tm18 Cd3 Hg3 Ru2'
_cell_volume   749.97717230
_cell_formula_units_Z   1
loop_
 _symmetry_equiv_pos_site_id
 _symmetry_equiv_pos_as_xyz
  1  'x, y, z'
loop_
 _atom_site_type_symbol
 _atom_site_label
 _atom_site_symmetry_multiplicity
 _atom_site_fract_x
 _atom_site_fract_y
 _atom_site_fract_z
 _atom_site_occupancy
  Y  Y0  1  0.459680  0.919180  0.750000  1
  Y  Y1  1  0.080820  0.540320  0.750000  1
  Tm  Tm2  1  0.999905  0.000095  0.490807  1
  Tm  Tm3  1  0.999905  0.000095  0.009193  1
  Tm  Tm4  1  0.209563  0.790437  0.438962  1
  Tm  Tm5  1  0.210265  0.419243  0.439482  1
  Tm  Tm6  1  0.580757  0.789735  0.439482  1
  Tm  Tm7  1  0.789939  0.210061  0.558149  1
  Tm  Tm8  1  0.789270  0.580248  0.558727  1
  Tm  Tm9  1  0.419752  0.210730  0.558727  1
  Tm  Tm10  1  0.789939  0.210061  0.941851  1
  Tm  Tm11  1  0.789270  0.580248  0.941273  1
  Tm  Tm12  1  0.419752  0.210730  0.941273  1
  Tm  Tm13  1  0.209563  0.790437  0.061038  1
  Tm  Tm14  1  0.210265  0.419243  0.060518  1
  Tm  Tm15  1  0.580757  0.789735  0.060518  1
  Tm  Tm16  1  0.540889  0.459111  0.250000  1
  Tm  Tm17  1  0.541032  0.081214  0.250000  1
  Tm  Tm18  1  0.918786  0.458968  0.250000  1
  Tm  Tm19  1  0.460335  0.539665  0.750000  1
  Cd  Cd20  1  0.111843  0.888157  0.750000  1
  Cd  Cd21  1  0.113909  0.225039  0.750000  1
  Cd  Cd22  1  0.774961  0.886091  0.750000  1
  Hg  Hg23  1  0.879449  0.120551  0.250000  1
  Hg  Hg24  1  0.878640  0.758782  0.250000  1
  Hg  Hg25  1  0.241218  0.121360  0.250000  1
  Ru  Ru26  1  0.333038  0.666962  0.250000  1
  Ru  Ru27  1  0.666493  0.333507  0.750000  1
