# generated using pymatgen
data_TbPr9Si5Sn
_symmetry_space_group_name_H-M   'P 1'
_cell_length_a   7.81661614
_cell_length_b   7.81661596
_cell_length_c   9.17454386
_cell_angle_alpha   115.21365185
_cell_angle_beta   115.21365244
_cell_angle_gamma   89.99999812
_symmetry_Int_Tables_number   1
_chemical_formula_structural   TbPr9Si5Sn
_chemical_formula_sum   'Tb1 Pr9 Si5 Sn1'
_cell_volume   447.41557625
_cell_formula_units_Z   1
loop_
 _symmetry_equiv_pos_site_id
 _symmetry_equiv_pos_as_xyz
  1  'x, y, z'
loop_
 _atom_site_type_symbol
 _atom_site_label
 _atom_site_symmetry_multiplicity
 _atom_site_fract_x
 _atom_site_fract_y
 _atom_site_fract_z
 _atom_site_occupancy
  Tb  Tb0  1  0.516228  0.516228  0.032457  1
  Pr  Pr1  1  0.975442  0.975442  0.950882  1
  Pr  Pr2  1  0.977348  0.828951  0.282533  1
  Pr  Pr3  1  0.305185  0.453583  0.282533  1
  Pr  Pr4  1  0.828951  0.305185  0.282533  1
  Pr  Pr5  1  0.453583  0.977348  0.282533  1
  Pr  Pr6  1  0.044932  0.194010  0.718557  1
  Pr  Pr7  1  0.673626  0.524548  0.718557  1
  Pr  Pr8  1  0.194010  0.673626  0.718557  1
  Pr  Pr9  1  0.524548  0.044932  0.718557  1
  Si  Si10  1  0.255958  0.255958  0.511916  1
  Si  Si11  1  0.615506  0.881823  0.002604  1
  Si  Si12  1  0.387099  0.120781  0.002604  1
  Si  Si13  1  0.881823  0.387099  0.002604  1
  Si  Si14  1  0.120781  0.615506  0.002604  1
  Sn  Sn15  1  0.744982  0.744982  0.489965  1
