# generated using pymatgen
data_Th2Al20CrFeRh2
_symmetry_space_group_name_H-M   'P 1'
_cell_length_a   6.86816156
_cell_length_b   6.88179910
_cell_length_c   9.18082795
_cell_angle_alpha   90.37392039
_cell_angle_beta   90.53252684
_cell_angle_gamma   97.44944117
_symmetry_Int_Tables_number   1
_chemical_formula_structural   Th2Al20CrFeRh2
_chemical_formula_sum   'Th2 Al20 Cr1 Fe1 Rh2'
_cell_volume   430.24043866
_cell_formula_units_Z   1
loop_
 _symmetry_equiv_pos_site_id
 _symmetry_equiv_pos_as_xyz
  1  'x, y, z'
loop_
 _atom_site_type_symbol
 _atom_site_label
 _atom_site_symmetry_multiplicity
 _atom_site_fract_x
 _atom_site_fract_y
 _atom_site_fract_z
 _atom_site_occupancy
  Th  Th0  1  0.870643  0.122757  0.748678  1
  Th  Th1  1  0.129357  0.877243  0.251322  1
  Al  Al2  1  0.518161  0.775639  0.744568  1
  Al  Al3  1  0.481839  0.224361  0.255432  1
  Al  Al4  1  0.593539  0.862202  0.252245  1
  Al  Al5  1  0.778086  0.770809  0.002101  1
  Al  Al6  1  0.162842  0.842424  0.601578  1
  Al  Al7  1  0.221914  0.229191  0.997899  1
  Al  Al8  1  0.136462  0.406808  0.246250  1
  Al  Al9  1  0.626050  0.381307  0.949914  1
  Al  Al10  1  0.844236  0.165119  0.101443  1
  Al  Al11  1  0.381665  0.625397  0.450498  1
  Al  Al12  1  0.155764  0.834881  0.898557  1
  Al  Al13  1  0.223228  0.481270  0.756242  1
  Al  Al14  1  0.373950  0.618693  0.050086  1
  Al  Al15  1  0.837158  0.157576  0.398422  1
  Al  Al16  1  0.618335  0.374603  0.549502  1
  Al  Al17  1  0.406461  0.137798  0.747755  1
  Al  Al18  1  0.776772  0.518730  0.243758  1
  Al  Al19  1  0.772241  0.776896  0.502549  1
  Al  Al20  1  0.227759  0.223104  0.497451  1
  Al  Al21  1  0.863538  0.593192  0.753750  1
  Cr  Cr22  1  0.500000  0.000000  0.500000  1
  Fe  Fe23  1  0.000000  0.500000  0.000000  1
  Rh  Rh24  1  0.000000  0.500000  0.500000  1
  Rh  Rh25  1  0.500000  0.000000  0.000000  1
