# generated using pymatgen
data_Ta9BeSi5Tc
_symmetry_space_group_name_H-M   'P 1'
_cell_length_a   7.54595280
_cell_length_b   7.54595170
_cell_length_c   7.53530200
_cell_angle_alpha   128.76918935
_cell_angle_beta   128.79079577
_cell_angle_gamma   75.46950892
_symmetry_Int_Tables_number   1
_chemical_formula_structural   Ta9BeSi5Tc
_chemical_formula_sum   'Ta9 Be1 Si5 Tc1'
_cell_volume   253.59378058
_cell_formula_units_Z   1
loop_
 _symmetry_equiv_pos_site_id
 _symmetry_equiv_pos_as_xyz
  1  'x, y, z'
loop_
 _atom_site_type_symbol
 _atom_site_label
 _atom_site_symmetry_multiplicity
 _atom_site_fract_x
 _atom_site_fract_y
 _atom_site_fract_z
 _atom_site_occupancy
  Ta  Ta0  1  0.016973  0.189468  0.507767  1
  Ta  Ta1  1  0.513038  0.014796  0.829758  1
  Ta  Ta2  1  0.182073  0.681210  0.156517  1
  Ta  Ta3  1  0.475308  0.974445  0.156517  1
  Ta  Ta4  1  0.690123  0.516471  0.505856  1
  Ta  Ta5  1  0.989384  0.815733  0.505856  1
  Ta  Ta6  1  0.318299  0.490793  0.507767  1
  Ta  Ta7  1  0.814961  0.316720  0.829758  1
  Ta  Ta8  1  0.497371  0.499836  0.997206  1
  Be  Be9  1  0.122617  0.630294  0.752910  1
  Si  Si10  1  0.635742  0.872543  0.508285  1
  Si  Si11  1  0.360896  0.125577  0.486474  1
  Si  Si12  1  0.879618  0.371110  0.250728  1
  Si  Si13  1  0.751500  0.751302  0.004499  1
  Si  Si14  1  0.253196  0.252999  0.004499  1
  Tc  Tc15  1  0.998900  0.996704  0.995602  1
