# generated using pymatgen
data_Ti8MnSe16
_symmetry_space_group_name_H-M   'P 1'
_cell_length_a   7.09473600
_cell_length_b   7.09478532
_cell_length_c   12.77457400
_cell_angle_alpha   90.00054830
_cell_angle_beta   89.99822271
_cell_angle_gamma   120.00064317
_symmetry_Int_Tables_number   1
_chemical_formula_structural   Ti8MnSe16
_chemical_formula_sum   'Ti8 Mn1 Se16'
_cell_volume   556.86476814
_cell_formula_units_Z   1
loop_
 _symmetry_equiv_pos_site_id
 _symmetry_equiv_pos_as_xyz
  1  'x, y, z'
loop_
 _atom_site_type_symbol
 _atom_site_label
 _atom_site_symmetry_multiplicity
 _atom_site_fract_x
 _atom_site_fract_y
 _atom_site_fract_z
 _atom_site_occupancy
  Ti  Ti0  1  0.503579  0.496423  0.749153  1
  Ti  Ti1  1  0.496421  0.503577  0.250847  1
  Ti  Ti2  1  0.503572  0.007145  0.749146  1
  Ti  Ti3  1  0.496428  0.992855  0.250854  1
  Ti  Ti4  1  0.992857  0.496430  0.749146  1
  Ti  Ti5  1  0.007143  0.503570  0.250854  1
  Ti  Ti6  1  0.000007  0.000006  0.749641  1
  Ti  Ti7  1  0.999993  0.999994  0.250359  1
  Mn  Mn8  1  0.000000  0.000000  0.000000  1
  Se  Se9  1  0.831864  0.663671  0.126268  1
  Se  Se10  1  0.833631  0.667207  0.627987  1
  Se  Se11  1  0.831846  0.168173  0.126274  1
  Se  Se12  1  0.833618  0.166410  0.627989  1
  Se  Se13  1  0.333312  0.666672  0.127494  1
  Se  Se14  1  0.333352  0.666678  0.632228  1
  Se  Se15  1  0.336335  0.168144  0.126267  1
  Se  Se16  1  0.332792  0.166382  0.627985  1
  Se  Se17  1  0.663665  0.831856  0.873733  1
  Se  Se18  1  0.667208  0.833618  0.372015  1
  Se  Se19  1  0.666688  0.333328  0.872506  1
  Se  Se20  1  0.666648  0.333322  0.367772  1
  Se  Se21  1  0.168154  0.831827  0.873726  1
  Se  Se22  1  0.166382  0.833590  0.372011  1
  Se  Se23  1  0.168136  0.336329  0.873732  1
  Se  Se24  1  0.166369  0.332793  0.372013  1
