# generated using pymatgen
data_Ta5Nb7Co8(ReC)4
_symmetry_space_group_name_H-M   'P 1'
_cell_length_a   8.14869498
_cell_length_b   8.14910697
_cell_length_c   8.14878700
_cell_angle_alpha   60.00252307
_cell_angle_beta   59.99863277
_cell_angle_gamma   60.06552086
_symmetry_Int_Tables_number   1
_chemical_formula_structural   Ta5Nb7Co8(ReC)4
_chemical_formula_sum   'Ta5 Nb7 Co8 Re4 C4'
_cell_volume   382.81983751
_cell_formula_units_Z   1
loop_
 _symmetry_equiv_pos_site_id
 _symmetry_equiv_pos_as_xyz
  1  'x, y, z'
loop_
 _atom_site_type_symbol
 _atom_site_label
 _atom_site_symmetry_multiplicity
 _atom_site_fract_x
 _atom_site_fract_y
 _atom_site_fract_z
 _atom_site_occupancy
  Ta  Ta0  1  0.694723  0.305245  0.694423  1
  Ta  Ta1  1  0.944628  0.555493  0.555631  1
  Ta  Ta2  1  0.555705  0.944038  0.944789  1
  Ta  Ta3  1  0.943569  0.556381  0.943622  1
  Ta  Ta4  1  0.557789  0.557689  0.942538  1
  Nb  Nb5  1  0.941898  0.941397  0.558295  1
  Nb  Nb6  1  0.691621  0.691545  0.308834  1
  Nb  Nb7  1  0.306834  0.693326  0.693158  1
  Nb  Nb8  1  0.693468  0.306202  0.307296  1
  Nb  Nb9  1  0.308169  0.307606  0.692189  1
  Nb  Nb10  1  0.557083  0.942855  0.557038  1
  Nb  Nb11  1  0.305746  0.694262  0.306165  1
  Co  Co12  1  0.325784  0.326848  0.324936  1
  Co  Co13  1  0.228675  0.924513  0.923260  1
  Co  Co14  1  0.923811  0.229854  0.922781  1
  Co  Co15  1  0.923647  0.923995  0.227673  1
  Co  Co16  1  0.325636  0.022497  0.325452  1
  Co  Co17  1  0.326299  0.326796  0.021056  1
  Co  Co18  1  0.021237  0.326429  0.326033  1
  Co  Co19  1  0.923094  0.924023  0.923847  1
  Re  Re20  1  0.125216  0.125392  0.124369  1
  Re  Re21  1  0.624503  0.125943  0.124070  1
  Re  Re22  1  0.124886  0.625443  0.124760  1
  Re  Re23  1  0.124674  0.125906  0.624164  1
  C  C24  1  0.626696  0.622468  0.626932  1
  C  C25  1  0.123583  0.623930  0.626325  1
  C  C26  1  0.625260  0.124433  0.627348  1
  C  C27  1  0.625765  0.625491  0.123016  1
