# generated using pymatgen
data_Sc3U3Co14Si7Ni2
_symmetry_space_group_name_H-M   'P 1'
_cell_length_a   8.12466580
_cell_length_b   8.11837581
_cell_length_c   8.09116341
_cell_angle_alpha   59.86859719
_cell_angle_beta   59.86293020
_cell_angle_gamma   59.97437078
_symmetry_Int_Tables_number   1
_chemical_formula_structural   Sc3U3Co14Si7Ni2
_chemical_formula_sum   'Sc3 U3 Co14 Si7 Ni2'
_cell_volume   376.53263277
_cell_formula_units_Z   1
loop_
 _symmetry_equiv_pos_site_id
 _symmetry_equiv_pos_as_xyz
  1  'x, y, z'
loop_
 _atom_site_type_symbol
 _atom_site_label
 _atom_site_symmetry_multiplicity
 _atom_site_fract_x
 _atom_site_fract_y
 _atom_site_fract_z
 _atom_site_occupancy
  Sc  Sc0  1  0.290961  0.291359  0.715179  1
  Sc  Sc1  1  0.702500  0.291359  0.715179  1
  Sc  Sc2  1  0.290853  0.703422  0.714872  1
  U  U3  1  0.710637  0.711869  0.293805  1
  U  U4  1  0.283688  0.711869  0.293805  1
  U  U5  1  0.709312  0.283446  0.297929  1
  Co  Co6  1  0.362079  0.877675  0.882924  1
  Co  Co7  1  0.877321  0.877675  0.882924  1
  Co  Co8  1  0.121342  0.121207  0.636110  1
  Co  Co9  1  0.117322  0.639315  0.126043  1
  Co  Co10  1  0.639565  0.117843  0.126078  1
  Co  Co11  1  0.116516  0.117843  0.126078  1
  Co  Co12  1  0.662008  0.660490  0.015494  1
  Co  Co13  1  0.674616  0.997559  0.653209  1
  Co  Co14  1  0.997878  0.676085  0.651454  1
  Co  Co15  1  0.674583  0.676085  0.651454  1
  Co  Co16  1  0.325059  0.324306  0.025577  1
  Co  Co17  1  0.341929  0.988928  0.327214  1
  Co  Co18  1  0.988885  0.341017  0.327572  1
  Co  Co19  1  0.342527  0.341017  0.327572  1
  Si  Si20  1  0.004312  0.000916  0.990459  1
  Si  Si21  1  0.004693  0.004076  0.516155  1
  Si  Si22  1  0.475076  0.004076  0.516155  1
  Si  Si23  1  0.005401  0.476341  0.512858  1
  Si  Si24  1  0.502617  0.505665  0.980393  1
  Si  Si25  1  0.011326  0.505665  0.980393  1
  Si  Si26  1  0.504669  0.010507  0.980154  1
  Ni  Ni27  1  0.882158  0.883339  0.352345  1
  Ni  Ni28  1  0.880168  0.359048  0.880615  1
