# generated using pymatgen
data_ErTm3(Lu3Pt4)2
_symmetry_space_group_name_H-M   'P 1'
_cell_length_a   7.36834900
_cell_length_b   7.45806500
_cell_length_c   14.47356000
_cell_angle_alpha   90.00249152
_cell_angle_beta   90.00000000
_cell_angle_gamma   90.00000000
_symmetry_Int_Tables_number   1
_chemical_formula_structural   ErTm3(Lu3Pt4)2
_chemical_formula_sum   'Er2 Tm6 Lu12 Pt16'
_cell_volume   795.37459964
_cell_formula_units_Z   2
loop_
 _symmetry_equiv_pos_site_id
 _symmetry_equiv_pos_as_xyz
  1  'x, y, z'
loop_
 _atom_site_type_symbol
 _atom_site_label
 _atom_site_symmetry_multiplicity
 _atom_site_fract_x
 _atom_site_fract_y
 _atom_site_fract_z
 _atom_site_occupancy
  Er  Er0  1  0.500508  0.679482  0.907768  1
  Er  Er1  1  0.000508  0.820518  0.592232  1
  Tm  Tm2  1  0.500632  0.679526  0.592308  1
  Tm  Tm3  1  0.000632  0.820474  0.907692  1
  Tm  Tm4  1  0.499384  0.320370  0.092326  1
  Tm  Tm5  1  0.999384  0.179630  0.407674  1
  Tm  Tm6  1  0.499381  0.320451  0.407696  1
  Tm  Tm7  1  0.999381  0.179549  0.092304  1
  Lu  Lu8  1  0.656778  0.167493  0.622734  1
  Lu  Lu9  1  0.156778  0.332507  0.877266  1
  Lu  Lu10  1  0.343125  0.832599  0.122761  1
  Lu  Lu11  1  0.843125  0.667401  0.377239  1
  Lu  Lu12  1  0.343156  0.832545  0.377273  1
  Lu  Lu13  1  0.843156  0.667455  0.122727  1
  Lu  Lu14  1  0.656887  0.167447  0.877284  1
  Lu  Lu15  1  0.156887  0.332553  0.622716  1
  Lu  Lu16  1  0.819273  0.510233  0.749993  1
  Lu  Lu17  1  0.319273  0.989767  0.750007  1
  Lu  Lu18  1  0.180749  0.489692  0.250003  1
  Lu  Lu19  1  0.680749  0.010308  0.249997  1
  Pt  Pt20  1  0.683550  0.966159  0.458401  1
  Pt  Pt21  1  0.183550  0.533841  0.041599  1
  Pt  Pt22  1  0.316322  0.034008  0.958480  1
  Pt  Pt23  1  0.816322  0.465992  0.541520  1
  Pt  Pt24  1  0.316538  0.034024  0.541533  1
  Pt  Pt25  1  0.816538  0.465976  0.958467  1
  Pt  Pt26  1  0.683659  0.966182  0.041579  1
  Pt  Pt27  1  0.183659  0.533818  0.458421  1
  Pt  Pt28  1  0.455112  0.385986  0.749951  1
  Pt  Pt29  1  0.955112  0.114014  0.750049  1
  Pt  Pt30  1  0.544876  0.613931  0.250000  1
  Pt  Pt31  1  0.044876  0.886069  0.250000  1
  Pt  Pt32  1  0.682114  0.856025  0.749955  1
  Pt  Pt33  1  0.182114  0.643975  0.750045  1
  Pt  Pt34  1  0.317956  0.144071  0.249995  1
  Pt  Pt35  1  0.817956  0.355929  0.250005  1
