# generated using pymatgen
data_YbY19(Cd3Fe)2
_symmetry_space_group_name_H-M   'P 1'
_cell_length_a   9.63136500
_cell_length_b   9.63136582
_cell_length_c   9.72707600
_cell_angle_alpha   90.00000000
_cell_angle_beta   90.00000000
_cell_angle_gamma   119.99999375
_symmetry_Int_Tables_number   1
_chemical_formula_structural   YbY19(Cd3Fe)2
_chemical_formula_sum   'Yb1 Y19 Cd6 Fe2'
_cell_volume   781.42749578
_cell_formula_units_Z   1
loop_
 _symmetry_equiv_pos_site_id
 _symmetry_equiv_pos_as_xyz
  1  'x, y, z'
loop_
 _atom_site_type_symbol
 _atom_site_label
 _atom_site_symmetry_multiplicity
 _atom_site_fract_x
 _atom_site_fract_y
 _atom_site_fract_z
 _atom_site_occupancy
  Yb  Yb0  1  0.000000  0.000000  0.500000  1
  Y  Y1  1  0.000000  0.000000  0.000000  1
  Y  Y2  1  0.542074  0.457926  0.251198  1
  Y  Y3  1  0.542074  0.084149  0.251198  1
  Y  Y4  1  0.915851  0.457926  0.251198  1
  Y  Y5  1  0.457926  0.542074  0.748802  1
  Y  Y6  1  0.457926  0.915851  0.748802  1
  Y  Y7  1  0.084149  0.542074  0.748802  1
  Y  Y8  1  0.212817  0.787183  0.435680  1
  Y  Y9  1  0.212817  0.425635  0.435680  1
  Y  Y10  1  0.574365  0.787183  0.435680  1
  Y  Y11  1  0.787183  0.212817  0.564320  1
  Y  Y12  1  0.787183  0.574365  0.564320  1
  Y  Y13  1  0.425635  0.212817  0.564320  1
  Y  Y14  1  0.787600  0.212400  0.936063  1
  Y  Y15  1  0.787600  0.575200  0.936063  1
  Y  Y16  1  0.424800  0.212400  0.936063  1
  Y  Y17  1  0.212400  0.787600  0.063937  1
  Y  Y18  1  0.212400  0.424800  0.063937  1
  Y  Y19  1  0.575200  0.787600  0.063937  1
  Cd  Cd20  1  0.885102  0.114898  0.250138  1
  Cd  Cd21  1  0.885102  0.770206  0.250138  1
  Cd  Cd22  1  0.229794  0.114898  0.250138  1
  Cd  Cd23  1  0.114898  0.885102  0.749862  1
  Cd  Cd24  1  0.114898  0.229794  0.749862  1
  Cd  Cd25  1  0.770206  0.885102  0.749862  1
  Fe  Fe26  1  0.333333  0.666667  0.249856  1
  Fe  Fe27  1  0.666667  0.333333  0.750144  1
