# generated using pymatgen
data_Tb16Cd4Ir2PdRh
_symmetry_space_group_name_H-M   'P 1'
_cell_length_a   9.68835426
_cell_length_b   9.68836426
_cell_length_c   9.66212278
_cell_angle_alpha   60.13257273
_cell_angle_beta   60.13255109
_cell_angle_gamma   60.20743901
_symmetry_Int_Tables_number   1
_chemical_formula_structural   Tb16Cd4Ir2PdRh
_chemical_formula_sum   'Tb16 Cd4 Ir2 Pd1 Rh1'
_cell_volume   643.58255431
_cell_formula_units_Z   1
loop_
 _symmetry_equiv_pos_site_id
 _symmetry_equiv_pos_as_xyz
  1  'x, y, z'
loop_
 _atom_site_type_symbol
 _atom_site_label
 _atom_site_symmetry_multiplicity
 _atom_site_fract_x
 _atom_site_fract_y
 _atom_site_fract_z
 _atom_site_occupancy
  Tb  Tb0  1  0.597385  0.597385  0.597350  1
  Tb  Tb1  1  0.604267  0.604267  0.197669  1
  Tb  Tb2  1  0.604343  0.197184  0.603863  1
  Tb  Tb3  1  0.197184  0.604343  0.603863  1
  Tb  Tb4  1  0.054343  0.440863  0.440446  1
  Tb  Tb5  1  0.437517  0.059723  0.060867  1
  Tb  Tb6  1  0.440863  0.054344  0.440446  1
  Tb  Tb7  1  0.059723  0.437517  0.060867  1
  Tb  Tb8  1  0.441063  0.441064  0.054046  1
  Tb  Tb9  1  0.059741  0.059741  0.438139  1
  Tb  Tb10  1  0.187999  0.815309  0.812710  1
  Tb  Tb11  1  0.813849  0.187245  0.187758  1
  Tb  Tb12  1  0.815309  0.187999  0.812710  1
  Tb  Tb13  1  0.187246  0.813849  0.187758  1
  Tb  Tb14  1  0.813382  0.813382  0.188509  1
  Tb  Tb15  1  0.186954  0.186954  0.813955  1
  Cd  Cd16  1  0.831197  0.831197  0.830483  1
  Cd  Cd17  1  0.830768  0.830767  0.505648  1
  Cd  Cd18  1  0.830750  0.505573  0.830447  1
  Cd  Cd19  1  0.505574  0.830749  0.830448  1
  Ir  Ir20  1  0.391594  0.823789  0.392179  1
  Ir  Ir21  1  0.823789  0.391594  0.392178  1
  Pd  Pd22  1  0.393371  0.393372  0.393702  1
  Rh  Rh23  1  0.391793  0.391793  0.823962  1
