# generated using pymatgen
data_NdY3(HfPt)4
_symmetry_space_group_name_H-M   'P 1'
_cell_length_a   4.54153500
_cell_length_b   7.14345701
_cell_length_c   8.38161600
_cell_angle_alpha   90.10507169
_cell_angle_beta   90.00000000
_cell_angle_gamma   90.00000000
_symmetry_Int_Tables_number   1
_chemical_formula_structural   NdY3(HfPt)4
_chemical_formula_sum   'Nd1 Y3 Hf4 Pt4'
_cell_volume   271.91810859
_cell_formula_units_Z   1
loop_
 _symmetry_equiv_pos_site_id
 _symmetry_equiv_pos_as_xyz
  1  'x, y, z'
loop_
 _atom_site_type_symbol
 _atom_site_label
 _atom_site_symmetry_multiplicity
 _atom_site_fract_x
 _atom_site_fract_y
 _atom_site_fract_z
 _atom_site_occupancy
  Nd  Nd0  1  0.250000  0.986110  0.321442  1
  Y  Y1  1  0.250000  0.485234  0.177296  1
  Y  Y2  1  0.750000  0.015426  0.680621  1
  Y  Y3  1  0.750000  0.516178  0.821286  1
  Hf  Hf4  1  0.250000  0.353443  0.579364  1
  Hf  Hf5  1  0.250000  0.853159  0.920653  1
  Hf  Hf6  1  0.750000  0.645387  0.423548  1
  Hf  Hf7  1  0.750000  0.148272  0.074213  1
  Pt  Pt8  1  0.250000  0.225734  0.901793  1
  Pt  Pt9  1  0.250000  0.722664  0.600861  1
  Pt  Pt10  1  0.750000  0.772122  0.093218  1
  Pt  Pt11  1  0.750000  0.276272  0.405705  1
