# generated using pymatgen
data_Pa4Al24Tc2Pt7
_symmetry_space_group_name_H-M   'P 1'
_cell_length_a   7.57295225
_cell_length_b   7.57108206
_cell_length_c   13.09116100
_cell_angle_alpha   84.47366405
_cell_angle_beta   101.11034974
_cell_angle_gamma   119.87453046
_symmetry_Int_Tables_number   1
_chemical_formula_structural   Pa4Al24Tc2Pt7
_chemical_formula_sum   'Pa4 Al24 Tc2 Pt7'
_cell_volume   638.64981055
_cell_formula_units_Z   1
loop_
 _symmetry_equiv_pos_site_id
 _symmetry_equiv_pos_as_xyz
  1  'x, y, z'
loop_
 _atom_site_type_symbol
 _atom_site_label
 _atom_site_symmetry_multiplicity
 _atom_site_fract_x
 _atom_site_fract_y
 _atom_site_fract_z
 _atom_site_occupancy
  Pa  Pa0  1  0.730984  0.992876  0.186948  1
  Pa  Pa1  1  0.263251  0.995869  0.813108  1
  Pa  Pa2  1  0.066412  0.674601  0.186942  1
  Pa  Pa3  1  0.944888  0.331440  0.813076  1
  Al  Al4  1  0.807116  0.866509  0.817743  1
  Al  Al5  1  0.193992  0.132339  0.182255  1
  Al  Al6  1  0.977872  0.667576  0.944971  1
  Al  Al7  1  0.022479  0.334750  0.056434  1
  Al  Al8  1  0.399072  0.661034  0.819572  1
  Al  Al9  1  0.602885  0.337919  0.182804  1
  Al  Al10  1  0.880258  0.663559  0.671673  1
  Al  Al11  1  0.117933  0.334452  0.326713  1
  Al  Al12  1  0.601530  0.457182  0.816980  1
  Al  Al13  1  0.398840  0.541708  0.180544  1
  Al  Al14  1  0.234010  0.341969  0.670345  1
  Al  Al15  1  0.768001  0.656229  0.329712  1
  Al  Al16  1  0.851958  0.332857  0.559276  1
  Al  Al17  1  0.187090  0.999914  0.559048  1
  Al  Al18  1  0.814262  0.000714  0.440933  1
  Al  Al19  1  0.350777  0.003570  0.055170  1
  Al  Al20  1  0.646695  0.996526  0.943516  1
  Al  Al21  1  0.556883  0.991738  0.673517  1
  Al  Al22  1  0.445623  0.009282  0.328062  1
  Al  Al23  1  0.520869  0.667522  0.560669  1
  Al  Al24  1  0.478620  0.332795  0.439030  1
  Al  Al25  1  0.676961  0.670072  0.041157  1
  Al  Al26  1  0.316275  0.336748  0.958818  1
  Al  Al27  1  0.147336  0.665621  0.440968  1
  Tc  Tc28  1  0.324046  0.676023  0.999899  1
  Tc  Tc29  1  0.999326  0.000604  0.000060  1
  Pt  Pt30  1  0.546382  0.323550  0.637851  1
  Pt  Pt31  1  0.453913  0.675136  0.361377  1
  Pt  Pt32  1  0.888849  0.008700  0.639439  1
  Pt  Pt33  1  0.111702  0.990847  0.360567  1
  Pt  Pt34  1  0.671730  0.328369  0.000066  1
  Pt  Pt35  1  0.203963  0.666822  0.639419  1
  Pt  Pt36  1  0.797216  0.332577  0.361344  1
