# generated using pymatgen
data_Gd3Tm2PPb3
_symmetry_space_group_name_H-M   'P 1'
_cell_length_a   9.06060400
_cell_length_b   9.06060243
_cell_length_c   6.72509700
_cell_angle_alpha   90.00000000
_cell_angle_beta   90.00000000
_cell_angle_gamma   119.99999844
_symmetry_Int_Tables_number   1
_chemical_formula_structural   Gd3Tm2PPb3
_chemical_formula_sum   'Gd6 Tm4 P2 Pb6'
_cell_volume   478.12716096
_cell_formula_units_Z   2
loop_
 _symmetry_equiv_pos_site_id
 _symmetry_equiv_pos_as_xyz
  1  'x, y, z'
loop_
 _atom_site_type_symbol
 _atom_site_label
 _atom_site_symmetry_multiplicity
 _atom_site_fract_x
 _atom_site_fract_y
 _atom_site_fract_z
 _atom_site_occupancy
  Gd  Gd0  1  0.759300  0.759300  0.250000  1
  Gd  Gd1  1  0.240700  0.000000  0.250000  1
  Gd  Gd2  1  0.000000  0.240700  0.250000  1
  Gd  Gd3  1  0.240700  0.240700  0.750000  1
  Gd  Gd4  1  0.759300  0.000000  0.750000  1
  Gd  Gd5  1  0.000000  0.759300  0.750000  1
  Tm  Tm6  1  0.666667  0.333333  0.500000  1
  Tm  Tm7  1  0.333333  0.666667  0.500000  1
  Tm  Tm8  1  0.333333  0.666667  0.000000  1
  Tm  Tm9  1  0.666667  0.333333  0.000000  1
  P  P10  1  0.000000  0.000000  0.500000  1
  P  P11  1  0.000000  0.000000  0.000000  1
  Pb  Pb12  1  0.402569  0.402569  0.250000  1
  Pb  Pb13  1  0.597431  0.000000  0.250000  1
  Pb  Pb14  1  0.000000  0.597431  0.250000  1
  Pb  Pb15  1  0.597431  0.597431  0.750000  1
  Pb  Pb16  1  0.402569  0.000000  0.750000  1
  Pb  Pb17  1  0.000000  0.402569  0.750000  1
