# generated using pymatgen
data_LaNd2(AgSn)4
_symmetry_space_group_name_H-M   'P 1'
_cell_length_a   8.98098866
_cell_length_b   8.98098805
_cell_length_c   8.98098829
_cell_angle_alpha   149.60808589
_cell_angle_beta   130.58266558
_cell_angle_gamma   59.12748796
_symmetry_Int_Tables_number   1
_chemical_formula_structural   LaNd2(AgSn)4
_chemical_formula_sum   'La1 Nd2 Ag4 Sn4'
_cell_volume   276.14574529
_cell_formula_units_Z   1
loop_
 _symmetry_equiv_pos_site_id
 _symmetry_equiv_pos_as_xyz
  1  'x, y, z'
loop_
 _atom_site_type_symbol
 _atom_site_label
 _atom_site_symmetry_multiplicity
 _atom_site_fract_x
 _atom_site_fract_y
 _atom_site_fract_z
 _atom_site_occupancy
  La  La0  1  0.500000  0.000000  0.500000  1
  Nd  Nd1  1  0.870658  0.870658  0.000000  1
  Nd  Nd2  1  0.129342  0.129342  0.000000  1
  Ag  Ag3  1  0.474495  0.670225  0.804271  1
  Ag  Ag4  1  0.865954  0.670225  0.195729  1
  Ag  Ag5  1  0.134046  0.329775  0.804271  1
  Ag  Ag6  1  0.525505  0.329775  0.195729  1
  Sn  Sn7  1  0.284133  0.784133  0.500000  1
  Sn  Sn8  1  0.715867  0.215867  0.500000  1
  Sn  Sn9  1  0.808959  0.500000  0.308959  1
  Sn  Sn10  1  0.191041  0.500000  0.691041  1
