# generated using pymatgen
data_KAl4Tl2P2O8F9
_symmetry_space_group_name_H-M   'P 1'
_cell_length_a   14.02641100
_cell_length_b   6.82581404
_cell_length_c   7.38640100
_cell_angle_alpha   73.89110812
_cell_angle_beta   90.00000000
_cell_angle_gamma   90.00000000
_symmetry_Int_Tables_number   1
_chemical_formula_structural   KAl4Tl2P2O8F9
_chemical_formula_sum   'K2 Al8 Tl4 P4 O16 F18'
_cell_volume   679.41949861
_cell_formula_units_Z   2
loop_
 _symmetry_equiv_pos_site_id
 _symmetry_equiv_pos_as_xyz
  1  'x, y, z'
loop_
 _atom_site_type_symbol
 _atom_site_label
 _atom_site_symmetry_multiplicity
 _atom_site_fract_x
 _atom_site_fract_y
 _atom_site_fract_z
 _atom_site_occupancy
  K  K0  1  0.750000  0.081346  0.457760  1
  K  K1  1  0.250000  0.918654  0.542240  1
  Al  Al2  1  0.377156  0.329041  0.681955  1
  Al  Al3  1  0.250000  0.973469  0.051563  1
  Al  Al4  1  0.250000  0.484545  0.037647  1
  Al  Al5  1  0.877156  0.670959  0.318045  1
  Al  Al6  1  0.622844  0.670959  0.318045  1
  Al  Al7  1  0.122844  0.329041  0.681955  1
  Al  Al8  1  0.750000  0.026531  0.948437  1
  Al  Al9  1  0.750000  0.515455  0.962353  1
  Tl  Tl10  1  0.509195  0.810246  0.791495  1
  Tl  Tl11  1  0.490805  0.189754  0.208505  1
  Tl  Tl12  1  0.009195  0.189754  0.208505  1
  Tl  Tl13  1  0.990805  0.810246  0.791495  1
  P  P14  1  0.102564  0.652556  0.285623  1
  P  P15  1  0.897436  0.347444  0.714377  1
  P  P16  1  0.397436  0.652556  0.285623  1
  P  P17  1  0.602564  0.347444  0.714377  1
  O  O18  1  0.845538  0.138036  0.776374  1
  O  O19  1  0.106503  0.576885  0.502330  1
  O  O20  1  0.650721  0.500451  0.804821  1
  O  O21  1  0.893497  0.423115  0.497670  1
  O  O22  1  0.001631  0.318321  0.784786  1
  O  O23  1  0.606503  0.423115  0.497670  1
  O  O24  1  0.345538  0.861964  0.223626  1
  O  O25  1  0.150721  0.499549  0.195179  1
  O  O26  1  0.654462  0.138036  0.776374  1
  O  O27  1  0.154462  0.861964  0.223626  1
  O  O28  1  0.349279  0.499549  0.195179  1
  O  O29  1  0.393497  0.576885  0.502330  1
  O  O30  1  0.498369  0.318321  0.784786  1
  O  O31  1  0.849279  0.500451  0.804821  1
  O  O32  1  0.998369  0.681679  0.215214  1
  O  O33  1  0.501631  0.681679  0.215214  1
  F  F34  1  0.250000  0.204534  0.132957  1
  F  F35  1  0.094153  0.156804  0.544696  1
  F  F36  1  0.750000  0.795466  0.867043  1
  F  F37  1  0.156752  0.093475  0.879037  1
  F  F38  1  0.250000  0.323376  0.609465  1
  F  F39  1  0.343248  0.093475  0.879037  1
  F  F40  1  0.250000  0.766041  0.934875  1
  F  F41  1  0.661515  0.527355  0.147028  1
  F  F42  1  0.750000  0.233959  0.065125  1
  F  F43  1  0.750000  0.676624  0.390535  1
  F  F44  1  0.161515  0.472645  0.852972  1
  F  F45  1  0.405847  0.156804  0.544696  1
  F  F46  1  0.905847  0.843196  0.455304  1
  F  F47  1  0.838485  0.527355  0.147028  1
  F  F48  1  0.338485  0.472645  0.852972  1
  F  F49  1  0.594153  0.843196  0.455304  1
  F  F50  1  0.843248  0.906525  0.120963  1
  F  F51  1  0.656752  0.906525  0.120963  1
