# generated using pymatgen
data_Zr6Zn21Pt2C
_symmetry_space_group_name_H-M   'P 1'
_cell_length_a   8.66330641
_cell_length_b   8.66330608
_cell_length_c   8.68550400
_cell_angle_alpha   59.91519615
_cell_angle_beta   59.91519741
_cell_angle_gamma   60.01576693
_symmetry_Int_Tables_number   1
_chemical_formula_structural   Zr6Zn21Pt2C
_chemical_formula_sum   'Zr6 Zn21 Pt2 C1'
_cell_volume   460.40611212
_cell_formula_units_Z   1
loop_
 _symmetry_equiv_pos_site_id
 _symmetry_equiv_pos_as_xyz
  1  'x, y, z'
loop_
 _atom_site_type_symbol
 _atom_site_label
 _atom_site_symmetry_multiplicity
 _atom_site_fract_x
 _atom_site_fract_y
 _atom_site_fract_z
 _atom_site_occupancy
  Zr  Zr0  1  0.687477  0.312523  0.308748  1
  Zr  Zr1  1  0.312523  0.687477  0.691252  1
  Zr  Zr2  1  0.312523  0.687477  0.308748  1
  Zr  Zr3  1  0.687477  0.312523  0.691252  1
  Zr  Zr4  1  0.310041  0.310041  0.689959  1
  Zr  Zr5  1  0.689959  0.689959  0.310041  1
  Zn  Zn6  1  0.120481  0.120481  0.120274  1
  Zn  Zn7  1  0.879519  0.879519  0.879726  1
  Zn  Zn8  1  0.120481  0.120481  0.638766  1
  Zn  Zn9  1  0.123436  0.637017  0.119775  1
  Zn  Zn10  1  0.879519  0.879519  0.361234  1
  Zn  Zn11  1  0.876564  0.362983  0.880225  1
  Zn  Zn12  1  0.637017  0.123436  0.119775  1
  Zn  Zn13  1  0.362983  0.876564  0.880225  1
  Zn  Zn14  1  0.500000  0.000000  0.000000  1
  Zn  Zn15  1  0.000000  0.500000  0.500000  1
  Zn  Zn16  1  0.000000  0.500000  0.000000  1
  Zn  Zn17  1  0.500000  0.000000  0.500000  1
  Zn  Zn18  1  0.000000  0.000000  0.500000  1
  Zn  Zn19  1  0.329068  0.329068  0.336007  1
  Zn  Zn20  1  0.670932  0.670932  0.663993  1
  Zn  Zn21  1  0.329068  0.329068  0.005857  1
  Zn  Zn22  1  0.331431  0.005500  0.331535  1
  Zn  Zn23  1  0.670932  0.670932  0.994143  1
  Zn  Zn24  1  0.668569  0.994500  0.668465  1
  Zn  Zn25  1  0.005500  0.331431  0.331535  1
  Zn  Zn26  1  0.994500  0.668569  0.668465  1
  Pt  Pt27  1  0.500000  0.500000  0.000000  1
  Pt  Pt28  1  0.000000  0.000000  0.000000  1
  C  C29  1  0.500000  0.500000  0.500000  1
