# generated using pymatgen
data_TbYbCe2H11
_symmetry_space_group_name_H-M   'P 1'
_cell_length_a   6.58527852
_cell_length_b   6.58527674
_cell_length_c   6.58527680
_cell_angle_alpha   132.44441096
_cell_angle_beta   132.93388404
_cell_angle_gamma   69.14349835
_symmetry_Int_Tables_number   1
_chemical_formula_structural   TbYbCe2H11
_chemical_formula_sum   'Tb1 Yb1 Ce2 H11'
_cell_volume   151.42152674
_cell_formula_units_Z   1
loop_
 _symmetry_equiv_pos_site_id
 _symmetry_equiv_pos_as_xyz
  1  'x, y, z'
loop_
 _atom_site_type_symbol
 _atom_site_label
 _atom_site_symmetry_multiplicity
 _atom_site_fract_x
 _atom_site_fract_y
 _atom_site_fract_z
 _atom_site_occupancy
  Tb  Tb0  1  0.000000  0.500000  0.500000  1
  Yb  Yb1  1  0.500000  0.000000  0.500000  1
  Ce  Ce2  1  0.260902  0.260902  0.000000  1
  Ce  Ce3  1  0.739098  0.739098  0.000000  1
  H  H4  1  0.654007  0.118135  0.007093  1
  H  H5  1  0.345993  0.353087  0.464127  1
  H  H6  1  0.111042  0.646913  0.992907  1
  H  H7  1  0.888958  0.881865  0.535873  1
  H  H8  1  0.888958  0.353087  0.007093  1
  H  H9  1  0.654007  0.646913  0.535873  1
  H  H10  1  0.345993  0.881865  0.992907  1
  H  H11  1  0.111042  0.118135  0.464127  1
  H  H12  1  0.752007  0.252007  0.500000  1
  H  H13  1  0.500000  0.500000  0.000000  1
  H  H14  1  0.247993  0.747993  0.500000  1
