# generated using pymatgen
data_Lu12Th4Cd4IrRu3
_symmetry_space_group_name_H-M   'P 1'
_cell_length_a   9.58116264
_cell_length_b   9.58211615
_cell_length_c   9.58211700
_cell_angle_alpha   60.00000051
_cell_angle_beta   59.99670838
_cell_angle_gamma   59.99670788
_symmetry_Int_Tables_number   1
_chemical_formula_structural   Lu12Th4Cd4IrRu3
_chemical_formula_sum   'Lu12 Th4 Cd4 Ir1 Ru3'
_cell_volume   622.02022402
_cell_formula_units_Z   1
loop_
 _symmetry_equiv_pos_site_id
 _symmetry_equiv_pos_as_xyz
  1  'x, y, z'
loop_
 _atom_site_type_symbol
 _atom_site_label
 _atom_site_symmetry_multiplicity
 _atom_site_fract_x
 _atom_site_fract_y
 _atom_site_fract_z
 _atom_site_occupancy
  Lu  Lu0  1  0.814442  0.186875  0.186875  1
  Lu  Lu1  1  0.186391  0.813638  0.813638  1
  Lu  Lu2  1  0.186391  0.813638  0.186333  1
  Lu  Lu3  1  0.814442  0.186875  0.811808  1
  Lu  Lu4  1  0.186391  0.186333  0.813638  1
  Lu  Lu5  1  0.814442  0.811808  0.186875  1
  Lu  Lu6  1  0.933557  0.566066  0.566066  1
  Lu  Lu7  1  0.564941  0.934185  0.934185  1
  Lu  Lu8  1  0.564941  0.934185  0.566688  1
  Lu  Lu9  1  0.933557  0.566066  0.934311  1
  Lu  Lu10  1  0.564941  0.566688  0.934185  1
  Lu  Lu11  1  0.933557  0.934311  0.566066  1
  Th  Th12  1  0.347449  0.351570  0.351570  1
  Th  Th13  1  0.347449  0.351570  0.949410  1
  Th  Th14  1  0.347449  0.949410  0.351570  1
  Th  Th15  1  0.951923  0.349359  0.349359  1
  Cd  Cd16  1  0.583364  0.583701  0.583701  1
  Cd  Cd17  1  0.583364  0.583701  0.249232  1
  Cd  Cd18  1  0.583364  0.249232  0.583701  1
  Cd  Cd19  1  0.248956  0.583681  0.583681  1
  Ir  Ir20  1  0.576606  0.141131  0.141131  1
  Ru  Ru21  1  0.144026  0.142613  0.142613  1
  Ru  Ru22  1  0.144026  0.142613  0.570745  1
  Ru  Ru23  1  0.144026  0.570745  0.142613  1
