# generated using pymatgen
data_Dy16Er4(Ir3Ru)3
_symmetry_space_group_name_H-M   'P 1'
_cell_length_a   10.83056300
_cell_length_b   10.83056300
_cell_length_c   6.40924300
_cell_angle_alpha   90.00000000
_cell_angle_beta   90.00000000
_cell_angle_gamma   90.00000000
_symmetry_Int_Tables_number   1
_chemical_formula_structural   Dy16Er4(Ir3Ru)3
_chemical_formula_sum   'Dy16 Er4 Ir9 Ru3'
_cell_volume   751.81122136
_cell_formula_units_Z   1
loop_
 _symmetry_equiv_pos_site_id
 _symmetry_equiv_pos_as_xyz
  1  'x, y, z'
loop_
 _atom_site_type_symbol
 _atom_site_label
 _atom_site_symmetry_multiplicity
 _atom_site_fract_x
 _atom_site_fract_y
 _atom_site_fract_z
 _atom_site_occupancy
  Dy  Dy0  1  0.293183  0.086343  0.377445  1
  Dy  Dy1  1  0.293204  0.913985  0.877806  1
  Dy  Dy2  1  0.706796  0.086015  0.877806  1
  Dy  Dy3  1  0.706817  0.913657  0.377445  1
  Dy  Dy4  1  0.586015  0.793204  0.877806  1
  Dy  Dy5  1  0.586343  0.206817  0.377445  1
  Dy  Dy6  1  0.413657  0.793183  0.377445  1
  Dy  Dy7  1  0.413985  0.206796  0.877806  1
  Dy  Dy8  1  0.208445  0.412892  0.623971  1
  Dy  Dy9  1  0.208205  0.587099  0.121001  1
  Dy  Dy10  1  0.791795  0.412901  0.121001  1
  Dy  Dy11  1  0.791555  0.587108  0.623971  1
  Dy  Dy12  1  0.912901  0.708205  0.121001  1
  Dy  Dy13  1  0.912892  0.291555  0.623971  1
  Dy  Dy14  1  0.087108  0.708445  0.623971  1
  Dy  Dy15  1  0.087099  0.291795  0.121001  1
  Er  Er16  1  0.000000  0.000000  0.499655  1
  Er  Er17  1  0.000000  0.000000  0.999501  1
  Er  Er18  1  0.500000  0.500000  0.999501  1
  Er  Er19  1  0.500000  0.500000  0.499655  1
  Ir  Ir20  1  0.848430  0.152085  0.249882  1
  Ir  Ir21  1  0.848053  0.847978  0.749563  1
  Ir  Ir22  1  0.151947  0.152022  0.749563  1
  Ir  Ir23  1  0.151570  0.847915  0.249882  1
  Ir  Ir24  1  0.652022  0.348053  0.749563  1
  Ir  Ir25  1  0.652085  0.651570  0.249882  1
  Ir  Ir26  1  0.347915  0.348430  0.249882  1
  Ir  Ir27  1  0.347978  0.651947  0.749563  1
  Ir  Ir28  1  0.000000  0.500000  0.379157  1
  Ru  Ru29  1  0.500000  0.000000  0.122405  1
  Ru  Ru30  1  0.500000  0.000000  0.622366  1
  Ru  Ru31  1  0.000000  0.500000  0.879088  1
