# generated using pymatgen
data_Zr4Mn2Ir3Rh7
_symmetry_space_group_name_H-M   'P 1'
_cell_length_a   5.58178849
_cell_length_b   5.58180731
_cell_length_c   8.17158400
_cell_angle_alpha   89.99794524
_cell_angle_beta   89.99795927
_cell_angle_gamma   95.67326631
_symmetry_Int_Tables_number   1
_chemical_formula_structural   Zr4Mn2Ir3Rh7
_chemical_formula_sum   'Zr4 Mn2 Ir3 Rh7'
_cell_volume   253.35062379
_cell_formula_units_Z   1
loop_
 _symmetry_equiv_pos_site_id
 _symmetry_equiv_pos_as_xyz
  1  'x, y, z'
loop_
 _atom_site_type_symbol
 _atom_site_label
 _atom_site_symmetry_multiplicity
 _atom_site_fract_x
 _atom_site_fract_y
 _atom_site_fract_z
 _atom_site_occupancy
  Zr  Zr0  1  0.776131  0.224420  0.500019  1
  Zr  Zr1  1  0.224166  0.775847  0.999986  1
  Zr  Zr2  1  0.224419  0.776130  0.500019  1
  Zr  Zr3  1  0.775844  0.224166  0.999986  1
  Mn  Mn4  1  0.503883  0.503883  0.750307  1
  Mn  Mn5  1  0.496612  0.496613  0.249712  1
  Ir  Ir6  1  0.722723  0.722726  0.001677  1
  Ir  Ir7  1  0.722529  0.722527  0.498351  1
  Ir  Ir8  1  0.276918  0.276919  0.998310  1
  Rh  Rh9  1  0.276655  0.276651  0.501659  1
  Rh  Rh10  1  0.499879  0.000525  0.750154  1
  Rh  Rh11  1  0.500074  0.999316  0.249828  1
  Rh  Rh12  1  0.001079  0.001078  0.249959  1
  Rh  Rh13  1  0.999249  0.999250  0.750054  1
  Rh  Rh14  1  0.000525  0.499881  0.750152  1
  Rh  Rh15  1  0.999313  0.500070  0.249825  1
