# generated using pymatgen
data_Zn12OsAu
_symmetry_space_group_name_H-M   'P 1'
_cell_length_a   6.73932625
_cell_length_b   6.73932543
_cell_length_c   5.13721242
_cell_angle_alpha   80.93831295
_cell_angle_beta   80.93830286
_cell_angle_gamma   71.13604681
_symmetry_Int_Tables_number   1
_chemical_formula_structural   Zn12OsAu
_chemical_formula_sum   'Zn12 Os1 Au1'
_cell_volume   216.61417144
_cell_formula_units_Z   1
loop_
 _symmetry_equiv_pos_site_id
 _symmetry_equiv_pos_as_xyz
  1  'x, y, z'
loop_
 _atom_site_type_symbol
 _atom_site_label
 _atom_site_symmetry_multiplicity
 _atom_site_fract_x
 _atom_site_fract_y
 _atom_site_fract_z
 _atom_site_occupancy
  Zn  Zn0  1  0.999512  0.999512  0.998453  1
  Zn  Zn1  1  0.618828  0.618828  0.057592  1
  Zn  Zn2  1  0.771074  0.771074  0.379618  1
  Zn  Zn3  1  0.224895  0.224895  0.623301  1
  Zn  Zn4  1  0.212966  0.636863  0.313794  1
  Zn  Zn5  1  0.369287  0.783269  0.687139  1
  Zn  Zn6  1  0.783269  0.369287  0.687139  1
  Zn  Zn7  1  0.636863  0.212966  0.313794  1
  Zn  Zn8  1  0.002197  0.640245  0.798661  1
  Zn  Zn9  1  0.360950  0.994564  0.199721  1
  Zn  Zn10  1  0.994564  0.360950  0.199721  1
  Zn  Zn11  1  0.640245  0.002197  0.798661  1
  Os  Os12  1  0.000308  0.000308  0.498300  1
  Au  Au13  1  0.385044  0.385044  0.944103  1
