# generated using pymatgen
data_Sc2MnB2Ir2Rh3
_symmetry_space_group_name_H-M   'P 1'
_cell_length_a   9.41565325
_cell_length_b   9.42690425
_cell_length_c   3.04993700
_cell_angle_alpha   90.00000000
_cell_angle_beta   90.00000000
_cell_angle_gamma   90.02649722
_symmetry_Int_Tables_number   1
_chemical_formula_structural   Sc2MnB2Ir2Rh3
_chemical_formula_sum   'Sc4 Mn2 B4 Ir4 Rh6'
_cell_volume   270.71378725
_cell_formula_units_Z   2
loop_
 _symmetry_equiv_pos_site_id
 _symmetry_equiv_pos_as_xyz
  1  'x, y, z'
loop_
 _atom_site_type_symbol
 _atom_site_label
 _atom_site_symmetry_multiplicity
 _atom_site_fract_x
 _atom_site_fract_y
 _atom_site_fract_z
 _atom_site_occupancy
  Sc  Sc0  1  0.675082  0.175823  0.000000  1
  Sc  Sc1  1  0.324693  0.824705  0.000000  1
  Sc  Sc2  1  0.175325  0.324446  0.000000  1
  Sc  Sc3  1  0.824422  0.675303  0.000000  1
  Mn  Mn4  1  0.000185  0.999752  0.000000  1
  Mn  Mn5  1  0.500704  0.499822  0.000000  1
  B  B6  1  0.125373  0.624622  0.000000  1
  B  B7  1  0.875414  0.374349  0.000000  1
  B  B8  1  0.624536  0.874635  0.000000  1
  B  B9  1  0.375299  0.125515  0.000000  1
  Ir  Ir10  1  0.928881  0.217225  0.500000  1
  Ir  Ir11  1  0.282988  0.570325  0.500000  1
  Ir  Ir12  1  0.570140  0.717409  0.500000  1
  Ir  Ir13  1  0.429621  0.282849  0.500000  1
  Rh  Rh14  1  0.217508  0.070612  0.500000  1
  Rh  Rh15  1  0.782336  0.929576  0.500000  1
  Rh  Rh16  1  0.070843  0.782403  0.500000  1
  Rh  Rh17  1  0.717502  0.429930  0.500000  1
  Rh  Rh18  1  0.499744  0.000111  0.500000  1
  Rh  Rh19  1  0.999405  0.500590  0.500000  1
