# generated using pymatgen
data_Pa3Tc(Sb2Ir)2
_symmetry_space_group_name_H-M   'P 1'
_cell_length_a   8.37548386
_cell_length_b   8.37548272
_cell_length_c   8.37548241
_cell_angle_alpha   109.55248400
_cell_angle_beta   109.30880366
_cell_angle_gamma   109.55248898
_symmetry_Int_Tables_number   1
_chemical_formula_structural   Pa3Tc(Sb2Ir)2
_chemical_formula_sum   'Pa6 Tc2 Sb8 Ir4'
_cell_volume   452.27763795
_cell_formula_units_Z   2
loop_
 _symmetry_equiv_pos_site_id
 _symmetry_equiv_pos_as_xyz
  1  'x, y, z'
loop_
 _atom_site_type_symbol
 _atom_site_label
 _atom_site_symmetry_multiplicity
 _atom_site_fract_x
 _atom_site_fract_y
 _atom_site_fract_z
 _atom_site_occupancy
  Pa  Pa0  1  0.875000  0.250000  0.125000  1
  Pa  Pa1  1  0.625000  0.750000  0.375000  1
  Pa  Pa2  1  0.250000  0.122355  0.872355  1
  Pa  Pa3  1  0.750000  0.377645  0.627645  1
  Pa  Pa4  1  0.127645  0.877645  0.250000  1
  Pa  Pa5  1  0.372355  0.622355  0.750000  1
  Tc  Tc6  1  0.375000  0.250000  0.625000  1
  Tc  Tc7  1  0.125000  0.750000  0.875000  1
  Sb  Sb8  1  0.675308  0.500053  0.999873  1
  Sb  Sb9  1  0.499821  0.999947  0.675256  1
  Sb  Sb10  1  0.000179  0.675435  0.500127  1
  Sb  Sb11  1  0.824692  0.824565  0.824744  1
  Sb  Sb12  1  0.499873  0.000053  0.175308  1
  Sb  Sb13  1  0.175256  0.499947  0.999821  1
  Sb  Sb14  1  0.000127  0.175435  0.500179  1
  Sb  Sb15  1  0.324744  0.324565  0.324692  1
  Ir  Ir16  1  0.250000  0.623733  0.373733  1
  Ir  Ir17  1  0.750000  0.876267  0.126267  1
  Ir  Ir18  1  0.626267  0.376267  0.250000  1
  Ir  Ir19  1  0.873733  0.123733  0.750000  1
