# generated using pymatgen
data_Th2Re3Si2MoC2
_symmetry_space_group_name_H-M   'P 1'
_cell_length_a   5.91453760
_cell_length_b   5.91453750
_cell_length_c   7.38714325
_cell_angle_alpha   88.95787689
_cell_angle_beta   91.04212362
_cell_angle_gamma   140.00396490
_symmetry_Int_Tables_number   1
_chemical_formula_structural   Th2Re3Si2MoC2
_chemical_formula_sum   'Th2 Re3 Si2 Mo1 C2'
_cell_volume   166.06129768
_cell_formula_units_Z   1
loop_
 _symmetry_equiv_pos_site_id
 _symmetry_equiv_pos_as_xyz
  1  'x, y, z'
loop_
 _atom_site_type_symbol
 _atom_site_label
 _atom_site_symmetry_multiplicity
 _atom_site_fract_x
 _atom_site_fract_y
 _atom_site_fract_z
 _atom_site_occupancy
  Th  Th0  1  0.543811  0.456189  0.250847  1
  Th  Th1  1  0.457260  0.542740  0.747562  1
  Re  Re2  1  0.179924  0.820076  0.940742  1
  Re  Re3  1  0.168280  0.831720  0.568677  1
  Re  Re4  1  0.829180  0.170820  0.432840  1
  Si  Si5  1  0.263287  0.736713  0.266861  1
  Si  Si6  1  0.734421  0.265579  0.735032  1
  Mo  Mo7  1  0.822431  0.177569  0.058910  1
  C  C8  1  0.002360  0.997640  0.999615  1
  C  C9  1  0.999045  0.000955  0.498914  1
