# generated using pymatgen
data_Sn14IrRu5
_symmetry_space_group_name_H-M   'P 1'
_cell_length_a   8.21322634
_cell_length_b   8.21322657
_cell_length_c   8.21322611
_cell_angle_alpha   109.62659986
_cell_angle_beta   109.16091908
_cell_angle_gamma   109.62659111
_symmetry_Int_Tables_number   1
_chemical_formula_structural   Sn14IrRu5
_chemical_formula_sum   'Sn14 Ir1 Ru5'
_cell_volume   426.49104669
_cell_formula_units_Z   1
loop_
 _symmetry_equiv_pos_site_id
 _symmetry_equiv_pos_as_xyz
  1  'x, y, z'
loop_
 _atom_site_type_symbol
 _atom_site_label
 _atom_site_symmetry_multiplicity
 _atom_site_fract_x
 _atom_site_fract_y
 _atom_site_fract_z
 _atom_site_occupancy
  Sn  Sn0  1  0.251876  0.749343  0.502533  1
  Sn  Sn1  1  0.753190  0.250657  0.502533  1
  Sn  Sn2  1  0.750162  0.500000  0.250162  1
  Sn  Sn3  1  0.250162  0.500000  0.750162  1
  Sn  Sn4  1  0.502533  0.749343  0.251876  1
  Sn  Sn5  1  0.502533  0.250657  0.753190  1
  Sn  Sn6  1  0.996990  0.000000  0.323558  1
  Sn  Sn7  1  0.676718  0.000000  0.999991  1
  Sn  Sn8  1  0.996990  0.673432  0.996990  1
  Sn  Sn9  1  0.323558  0.326568  0.323558  1
  Sn  Sn10  1  0.999991  0.323273  0.999991  1
  Sn  Sn11  1  0.676718  0.676727  0.676718  1
  Sn  Sn12  1  0.323558  0.000000  0.996990  1
  Sn  Sn13  1  0.999991  0.000000  0.676718  1
  Ir  Ir14  1  0.341728  0.000000  0.341728  1
  Ru  Ru15  1  0.000046  0.344238  0.344284  1
  Ru  Ru16  1  0.000046  0.655762  0.655808  1
  Ru  Ru17  1  0.344284  0.344238  0.000046  1
  Ru  Ru18  1  0.655808  0.655762  0.000046  1
  Ru  Ru19  1  0.653121  0.000000  0.653121  1
