# generated using pymatgen
data_Tb8Ho2IrRh5
_symmetry_space_group_name_H-M   'P 1'
_cell_length_a   10.92143303
_cell_length_b   10.92230500
_cell_length_c   6.36735502
_cell_angle_alpha   90.00000000
_cell_angle_beta   90.00856410
_cell_angle_gamma   90.00000000
_symmetry_Int_Tables_number   1
_chemical_formula_structural   Tb8Ho2IrRh5
_chemical_formula_sum   'Tb16 Ho4 Ir2 Rh10'
_cell_volume   759.54408687
_cell_formula_units_Z   2
loop_
 _symmetry_equiv_pos_site_id
 _symmetry_equiv_pos_as_xyz
  1  'x, y, z'
loop_
 _atom_site_type_symbol
 _atom_site_label
 _atom_site_symmetry_multiplicity
 _atom_site_fract_x
 _atom_site_fract_y
 _atom_site_fract_z
 _atom_site_occupancy
  Tb  Tb0  1  0.290622  0.090035  0.378556  1
  Tb  Tb1  1  0.290622  0.909965  0.878556  1
  Tb  Tb2  1  0.709498  0.088346  0.878583  1
  Tb  Tb3  1  0.709498  0.911654  0.378583  1
  Tb  Tb4  1  0.586957  0.789847  0.878699  1
  Tb  Tb5  1  0.586957  0.210153  0.378699  1
  Tb  Tb6  1  0.411078  0.789832  0.379740  1
  Tb  Tb7  1  0.411078  0.210168  0.879740  1
  Tb  Tb8  1  0.210949  0.412590  0.620509  1
  Tb  Tb9  1  0.210949  0.587410  0.120509  1
  Tb  Tb10  1  0.790655  0.411522  0.120998  1
  Tb  Tb11  1  0.790655  0.588478  0.620998  1
  Tb  Tb12  1  0.911640  0.709636  0.121311  1
  Tb  Tb13  1  0.911640  0.290364  0.621311  1
  Tb  Tb14  1  0.090101  0.709215  0.621639  1
  Tb  Tb15  1  0.090101  0.290785  0.121639  1
  Ho  Ho16  1  0.999921  0.999831  0.500029  1
  Ho  Ho17  1  0.999921  0.000169  0.000029  1
  Ho  Ho18  1  0.499395  0.499828  0.999944  1
  Ho  Ho19  1  0.499395  0.500172  0.499944  1
  Ir  Ir20  1  0.346926  0.346276  0.249923  1
  Ir  Ir21  1  0.346926  0.653724  0.749923  1
  Rh  Rh22  1  0.846947  0.152805  0.250115  1
  Rh  Rh23  1  0.846947  0.847195  0.750115  1
  Rh  Rh24  1  0.152184  0.152416  0.749840  1
  Rh  Rh25  1  0.152184  0.847584  0.249840  1
  Rh  Rh26  1  0.653798  0.346773  0.750094  1
  Rh  Rh27  1  0.653798  0.653227  0.250094  1
  Rh  Rh28  1  0.500600  0.999737  0.122655  1
  Rh  Rh29  1  0.500600  0.000263  0.622655  1
  Rh  Rh30  1  0.998728  0.499912  0.877366  1
  Rh  Rh31  1  0.998728  0.500088  0.377366  1
