# generated using pymatgen
data_Tb2HoAlC3
_symmetry_space_group_name_H-M   'P 1'
_cell_length_a   3.58321800
_cell_length_b   7.08682778
_cell_length_c   9.99401809
_cell_angle_alpha   89.81270113
_cell_angle_beta   90.00000000
_cell_angle_gamma   90.00000000
_symmetry_Int_Tables_number   1
_chemical_formula_structural   Tb2HoAlC3
_chemical_formula_sum   'Tb4 Ho2 Al2 C6'
_cell_volume   253.78323022
_cell_formula_units_Z   2
loop_
 _symmetry_equiv_pos_site_id
 _symmetry_equiv_pos_as_xyz
  1  'x, y, z'
loop_
 _atom_site_type_symbol
 _atom_site_label
 _atom_site_symmetry_multiplicity
 _atom_site_fract_x
 _atom_site_fract_y
 _atom_site_fract_z
 _atom_site_occupancy
  Tb  Tb0  1  0.500000  0.509823  0.198741  1
  Tb  Tb1  1  0.500000  0.490177  0.801259  1
  Tb  Tb2  1  0.000000  0.750216  0.459108  1
  Tb  Tb3  1  0.000000  0.249784  0.540892  1
  Ho  Ho4  1  0.500000  0.988612  0.200387  1
  Ho  Ho5  1  0.500000  0.011388  0.799613  1
  Al  Al6  1  0.000000  0.754820  0.005621  1
  Al  Al7  1  0.000000  0.245180  0.994379  1
  C  C8  1  0.500000  0.509023  0.565939  1
  C  C9  1  0.500000  0.490977  0.434061  1
  C  C10  1  0.500000  0.991091  0.566067  1
  C  C11  1  0.500000  0.008909  0.433933  1
  C  C12  1  0.000000  0.752184  0.208319  1
  C  C13  1  0.000000  0.247816  0.791681  1
