# generated using pymatgen
data_Ta4Ti2Re5Si6Mo
_symmetry_space_group_name_H-M   'P 1'
_cell_length_a   7.60905716
_cell_length_b   7.60659017
_cell_length_c   7.60659196
_cell_angle_alpha   126.14544200
_cell_angle_beta   128.60293512
_cell_angle_gamma   77.64961388
_symmetry_Int_Tables_number   1
_chemical_formula_structural   Ta4Ti2Re5Si6Mo
_chemical_formula_sum   'Ta4 Ti2 Re5 Si6 Mo1'
_cell_volume   269.42266428
_cell_formula_units_Z   1
loop_
 _symmetry_equiv_pos_site_id
 _symmetry_equiv_pos_as_xyz
  1  'x, y, z'
loop_
 _atom_site_type_symbol
 _atom_site_label
 _atom_site_symmetry_multiplicity
 _atom_site_fract_x
 _atom_site_fract_y
 _atom_site_fract_z
 _atom_site_occupancy
  Ta  Ta0  1  0.948203  0.492653  0.042502  1
  Ta  Ta1  1  0.051797  0.094300  0.544450  1
  Ta  Ta2  1  0.752860  0.903954  0.649848  1
  Ta  Ta3  1  0.247140  0.896988  0.151095  1
  Ti  Ti4  1  0.551491  0.096169  0.043374  1
  Ti  Ti5  1  0.448509  0.491882  0.544678  1
  Re  Re6  1  0.000000  0.240491  0.240491  1
  Re  Re7  1  0.127900  0.755418  0.625783  1
  Re  Re8  1  0.872100  0.497882  0.627517  1
  Re  Re9  1  0.630284  0.756708  0.127930  1
  Re  Re10  1  0.369716  0.497646  0.126425  1
  Si  Si11  1  0.748271  0.496645  0.247335  1
  Si  Si12  1  0.251729  0.499064  0.748375  1
  Si  Si13  1  0.338066  0.825776  0.502208  1
  Si  Si14  1  0.661934  0.164142  0.487709  1
  Si  Si15  1  0.824229  0.828303  0.989270  1
  Si  Si16  1  0.175771  0.165043  0.004076  1
  Mo  Mo17  1  0.500000  0.239132  0.739132  1
