# generated using pymatgen
data_Sm4Y6Si7Rh
_symmetry_space_group_name_H-M   'P 1'
_cell_length_a   7.77382800
_cell_length_b   7.82999660
_cell_length_c   14.34140500
_cell_angle_alpha   90.00000000
_cell_angle_beta   90.00000000
_cell_angle_gamma   90.03662395
_symmetry_Int_Tables_number   1
_chemical_formula_structural   Sm4Y6Si7Rh
_chemical_formula_sum   'Sm8 Y12 Si14 Rh2'
_cell_volume   872.94747387
_cell_formula_units_Z   2
loop_
 _symmetry_equiv_pos_site_id
 _symmetry_equiv_pos_as_xyz
  1  'x, y, z'
loop_
 _atom_site_type_symbol
 _atom_site_label
 _atom_site_symmetry_multiplicity
 _atom_site_fract_x
 _atom_site_fract_y
 _atom_site_fract_z
 _atom_site_occupancy
  Sm  Sm0  1  0.632976  0.991105  0.460087  1
  Sm  Sm1  1  0.367024  0.008895  0.960087  1
  Sm  Sm2  1  0.986279  0.634672  0.540059  1
  Sm  Sm3  1  0.490365  0.858625  0.207532  1
  Sm  Sm4  1  0.509635  0.141375  0.707532  1
  Sm  Sm5  1  0.862046  0.498049  0.792336  1
  Sm  Sm6  1  0.137954  0.501951  0.292336  1
  Sm  Sm7  1  0.013721  0.365328  0.040059  1
  Y  Y8  1  0.491233  0.358316  0.121403  1
  Y  Y9  1  0.991910  0.138116  0.626715  1
  Y  Y10  1  0.863303  0.017665  0.878495  1
  Y  Y11  1  0.136697  0.982335  0.378495  1
  Y  Y12  1  0.508767  0.641684  0.621403  1
  Y  Y13  1  0.364342  0.496226  0.875922  1
  Y  Y14  1  0.635658  0.503774  0.375922  1
  Y  Y15  1  0.008090  0.861884  0.126715  1
  Y  Y16  1  0.312880  0.307953  0.502651  1
  Y  Y17  1  0.188519  0.825331  0.743676  1
  Y  Y18  1  0.811481  0.174669  0.243676  1
  Y  Y19  1  0.687120  0.692047  0.002651  1
  Si  Si20  1  0.932269  0.288689  0.437251  1
  Si  Si21  1  0.431255  0.206280  0.311141  1
  Si  Si22  1  0.568745  0.793720  0.811141  1
  Si  Si23  1  0.207761  0.439069  0.690033  1
  Si  Si24  1  0.792239  0.560931  0.190033  1
  Si  Si25  1  0.067731  0.711311  0.937251  1
  Si  Si26  1  0.795261  0.848679  0.689949  1
  Si  Si27  1  0.204739  0.151321  0.189949  1
  Si  Si28  1  0.844089  0.787831  0.312024  1
  Si  Si29  1  0.340200  0.693774  0.439231  1
  Si  Si30  1  0.659800  0.306226  0.939231  1
  Si  Si31  1  0.703780  0.344924  0.560191  1
  Si  Si32  1  0.296220  0.655076  0.060191  1
  Si  Si33  1  0.155911  0.212169  0.812024  1
  Rh  Rh34  1  0.291177  0.931346  0.561307  1
  Rh  Rh35  1  0.708823  0.068654  0.061307  1
