# generated using pymatgen
data_Ti2Si4Mo9W
_symmetry_space_group_name_H-M   'P 1'
_cell_length_a   4.93746400
_cell_length_b   4.95063204
_cell_length_c   9.72850244
_cell_angle_alpha   90.02377696
_cell_angle_beta   90.00000000
_cell_angle_gamma   90.00000000
_symmetry_Int_Tables_number   1
_chemical_formula_structural   Ti2Si4Mo9W
_chemical_formula_sum   'Ti2 Si4 Mo9 W1'
_cell_volume   237.79928530
_cell_formula_units_Z   1
loop_
 _symmetry_equiv_pos_site_id
 _symmetry_equiv_pos_as_xyz
  1  'x, y, z'
loop_
 _atom_site_type_symbol
 _atom_site_label
 _atom_site_symmetry_multiplicity
 _atom_site_fract_x
 _atom_site_fract_y
 _atom_site_fract_z
 _atom_site_occupancy
  Ti  Ti0  1  0.000000  0.499747  0.375375  1
  Ti  Ti1  1  0.000000  0.500657  0.874776  1
  Si  Si2  1  0.500000  0.499732  0.252004  1
  Si  Si3  1  0.500000  0.499439  0.752274  1
  Si  Si4  1  0.000000  0.001247  0.997841  1
  Si  Si5  1  0.000000  0.999687  0.497825  1
  Mo  Mo6  1  0.500000  0.248699  0.501007  1
  Mo  Mo7  1  0.749242  0.000068  0.248905  1
  Mo  Mo8  1  0.749315  0.000227  0.749084  1
  Mo  Mo9  1  0.000000  0.499242  0.125083  1
  Mo  Mo10  1  0.000000  0.499407  0.624969  1
  Mo  Mo11  1  0.500000  0.751136  0.000962  1
  Mo  Mo12  1  0.500000  0.750300  0.501039  1
  Mo  Mo13  1  0.250758  0.000068  0.248905  1
  Mo  Mo14  1  0.250685  0.000227  0.749084  1
  W  W15  1  0.500000  0.250117  0.000865  1
