# generated using pymatgen
data_Yb3Pr(OsRu)4
_symmetry_space_group_name_H-M   'P 1'
_cell_length_a   5.21967939
_cell_length_b   5.33649181
_cell_length_c   9.03108660
_cell_angle_alpha   89.99999813
_cell_angle_beta   90.20485163
_cell_angle_gamma   120.74310207
_symmetry_Int_Tables_number   1
_chemical_formula_structural   Yb3Pr(OsRu)4
_chemical_formula_sum   'Yb3 Pr1 Os4 Ru4'
_cell_volume   216.20494143
_cell_formula_units_Z   1
loop_
 _symmetry_equiv_pos_site_id
 _symmetry_equiv_pos_as_xyz
  1  'x, y, z'
loop_
 _atom_site_type_symbol
 _atom_site_label
 _atom_site_symmetry_multiplicity
 _atom_site_fract_x
 _atom_site_fract_y
 _atom_site_fract_z
 _atom_site_occupancy
  Yb  Yb0  1  0.666077  0.333038  0.569360  1
  Yb  Yb1  1  0.672974  0.336486  0.936262  1
  Yb  Yb2  1  0.339921  0.669961  0.061913  1
  Pr  Pr3  1  0.330663  0.665332  0.433578  1
  Os  Os4  1  0.331210  0.165604  0.244700  1
  Os  Os5  1  0.167702  0.831284  0.753198  1
  Os  Os6  1  0.167702  0.336419  0.753198  1
  Os  Os7  1  0.649722  0.824862  0.752183  1
  Ru  Ru8  1  0.016038  0.008019  0.501217  1
  Ru  Ru9  1  0.024470  0.012235  0.000853  1
  Ru  Ru10  1  0.816760  0.165405  0.246768  1
  Ru  Ru11  1  0.816760  0.651354  0.246768  1
