# generated using pymatgen
data_Tb2HoEr(B6Os)2
_symmetry_space_group_name_H-M   'P 1'
_cell_length_a   3.65267900
_cell_length_b   9.14566709
_cell_length_c   11.53564411
_cell_angle_alpha   90.01569741
_cell_angle_beta   90.00000000
_cell_angle_gamma   90.00000000
_symmetry_Int_Tables_number   1
_chemical_formula_structural   Tb2HoEr(B6Os)2
_chemical_formula_sum   'Tb4 Ho2 Er2 B24 Os4'
_cell_volume   385.36185946
_cell_formula_units_Z   2
loop_
 _symmetry_equiv_pos_site_id
 _symmetry_equiv_pos_as_xyz
  1  'x, y, z'
loop_
 _atom_site_type_symbol
 _atom_site_label
 _atom_site_symmetry_multiplicity
 _atom_site_fract_x
 _atom_site_fract_y
 _atom_site_fract_z
 _atom_site_occupancy
  Tb  Tb0  1  0.000000  0.322470  0.413857  1
  Tb  Tb1  1  0.000000  0.677530  0.586143  1
  Tb  Tb2  1  0.000000  0.822188  0.086034  1
  Tb  Tb3  1  0.000000  0.177812  0.913966  1
  Ho  Ho4  1  0.000000  0.944109  0.372785  1
  Ho  Ho5  1  0.000000  0.055891  0.627215  1
  Er  Er6  1  0.000000  0.444156  0.127003  1
  Er  Er7  1  0.000000  0.555844  0.872997  1
  B  B8  1  0.500000  0.554197  0.432662  1
  B  B9  1  0.500000  0.445803  0.567338  1
  B  B10  1  0.500000  0.054406  0.067213  1
  B  B11  1  0.500000  0.945594  0.932787  1
  B  B12  1  0.500000  0.748229  0.419506  1
  B  B13  1  0.500000  0.251771  0.580494  1
  B  B14  1  0.500000  0.248781  0.080403  1
  B  B15  1  0.500000  0.751219  0.919597  1
  B  B16  1  0.500000  0.790974  0.266455  1
  B  B17  1  0.500000  0.209026  0.733545  1
  B  B18  1  0.500000  0.291523  0.233297  1
  B  B19  1  0.500000  0.708477  0.766703  1
  B  B20  1  0.500000  0.631410  0.185108  1
  B  B21  1  0.500000  0.368590  0.814892  1
  B  B22  1  0.500000  0.131928  0.314576  1
  B  B23  1  0.500000  0.868072  0.685424  1
  B  B24  1  0.500000  0.983761  0.213164  1
  B  B25  1  0.500000  0.016239  0.786836  1
  B  B26  1  0.500000  0.483425  0.286472  1
  B  B27  1  0.500000  0.516575  0.713528  1
  B  B28  1  0.500000  0.606109  0.029353  1
  B  B29  1  0.500000  0.393891  0.970647  1
  B  B30  1  0.500000  0.107103  0.470401  1
  B  B31  1  0.500000  0.892897  0.529599  1
  Os  Os32  1  0.000000  0.637585  0.320814  1
  Os  Os33  1  0.000000  0.362415  0.679186  1
  Os  Os34  1  0.000000  0.138249  0.178843  1
  Os  Os35  1  0.000000  0.861751  0.821157  1
