# generated using pymatgen
data_PrSmAl20RuRh3
_symmetry_space_group_name_H-M   'P 1'
_cell_length_a   6.88495339
_cell_length_b   6.88070731
_cell_length_c   9.21008217
_cell_angle_alpha   90.08882769
_cell_angle_beta   90.06459482
_cell_angle_gamma   97.37007914
_symmetry_Int_Tables_number   1
_chemical_formula_structural   PrSmAl20RuRh3
_chemical_formula_sum   'Pr1 Sm1 Al20 Ru1 Rh3'
_cell_volume   432.70684220
_cell_formula_units_Z   1
loop_
 _symmetry_equiv_pos_site_id
 _symmetry_equiv_pos_as_xyz
  1  'x, y, z'
loop_
 _atom_site_type_symbol
 _atom_site_label
 _atom_site_symmetry_multiplicity
 _atom_site_fract_x
 _atom_site_fract_y
 _atom_site_fract_z
 _atom_site_occupancy
  Pr  Pr0  1  0.871956  0.126249  0.750364  1
  Sm  Sm1  1  0.129034  0.873036  0.249733  1
  Al  Al2  1  0.620544  0.376478  0.547105  1
  Al  Al3  1  0.378907  0.623908  0.452027  1
  Al  Al4  1  0.378331  0.622295  0.049345  1
  Al  Al5  1  0.621145  0.378173  0.951518  1
  Al  Al6  1  0.223724  0.221865  0.498547  1
  Al  Al7  1  0.776559  0.777835  0.499792  1
  Al  Al8  1  0.775880  0.775960  0.000731  1
  Al  Al9  1  0.224484  0.223703  0.000954  1
  Al  Al10  1  0.842992  0.157397  0.104757  1
  Al  Al11  1  0.157878  0.841812  0.896278  1
  Al  Al12  1  0.158295  0.843128  0.602504  1
  Al  Al13  1  0.842362  0.156004  0.396467  1
  Al  Al14  1  0.857718  0.592483  0.749486  1
  Al  Al15  1  0.142619  0.409320  0.250502  1
  Al  Al16  1  0.407740  0.141654  0.748982  1
  Al  Al17  1  0.590557  0.858087  0.250967  1
  Al  Al18  1  0.225917  0.481968  0.749888  1
  Al  Al19  1  0.774924  0.518786  0.250105  1
  Al  Al20  1  0.517450  0.775582  0.746919  1
  Al  Al21  1  0.481814  0.223659  0.252990  1
  Ru  Ru22  1  0.499563  0.999951  0.499369  1
  Rh  Rh23  1  0.999994  0.500309  0.499342  1
  Rh  Rh24  1  0.000007  0.500383  0.000626  1
  Rh  Rh25  1  0.499607  0.999975  0.000704  1
