# generated using pymatgen
data_Lu2Co4P3
_symmetry_space_group_name_H-M   'P 1'
_cell_length_a   12.27640910
_cell_length_b   12.27358669
_cell_length_c   3.71507200
_cell_angle_alpha   90.00000000
_cell_angle_beta   90.00000000
_cell_angle_gamma   119.99238929
_symmetry_Int_Tables_number   1
_chemical_formula_structural   Lu2Co4P3
_chemical_formula_sum   'Lu8 Co16 P12'
_cell_volume   484.81272987
_cell_formula_units_Z   4
loop_
 _symmetry_equiv_pos_site_id
 _symmetry_equiv_pos_as_xyz
  1  'x, y, z'
loop_
 _atom_site_type_symbol
 _atom_site_label
 _atom_site_symmetry_multiplicity
 _atom_site_fract_x
 _atom_site_fract_y
 _atom_site_fract_z
 _atom_site_occupancy
  Lu  Lu0  1  0.818444  0.818468  0.500000  1
  Lu  Lu1  1  0.181556  0.000023  0.500000  1
  Lu  Lu2  1  0.442482  0.442517  0.000000  1
  Lu  Lu3  1  0.557518  0.000034  0.000000  1
  Lu  Lu4  1  0.000000  0.557475  0.000000  1
  Lu  Lu5  1  0.666675  0.333355  0.000000  1
  Lu  Lu6  1  0.333325  0.666683  0.000000  1
  Lu  Lu7  1  0.000000  0.181562  0.500000  1
  Co  Co8  1  0.193026  0.371740  0.000000  1
  Co  Co9  1  0.178740  0.806994  0.000000  1
  Co  Co10  1  0.821260  0.628255  0.000000  1
  Co  Co11  1  0.806974  0.178715  0.000000  1
  Co  Co12  1  0.371588  0.192975  0.000000  1
  Co  Co13  1  0.124743  0.478180  0.500000  1
  Co  Co14  1  0.353543  0.875181  0.500000  1
  Co  Co15  1  0.521711  0.646555  0.500000  1
  Co  Co16  1  0.646457  0.521638  0.500000  1
  Co  Co17  1  0.875257  0.353437  0.500000  1
  Co  Co18  1  0.478289  0.124845  0.500000  1
  Co  Co19  1  0.000000  0.999872  0.000000  1
  Co  Co20  1  0.724608  0.000055  0.500000  1
  Co  Co21  1  0.000000  0.724542  0.500000  1
  Co  Co22  1  0.628412  0.821386  0.000000  1
  Co  Co23  1  0.275392  0.275448  0.500000  1
  P  P24  1  0.652624  0.652630  0.000000  1
  P  P25  1  0.347376  0.000006  0.000000  1
  P  P26  1  0.000000  0.347556  0.000000  1
  P  P27  1  0.479312  0.305069  0.500000  1
  P  P28  1  0.694942  0.174318  0.500000  1
  P  P29  1  0.825671  0.520628  0.500000  1
  P  P30  1  0.520688  0.825757  0.500000  1
  P  P31  1  0.174329  0.694957  0.500000  1
  P  P32  1  0.822363  0.999956  0.000000  1
  P  P33  1  0.000000  0.822218  0.000000  1
  P  P34  1  0.305058  0.479376  0.500000  1
  P  P35  1  0.177637  0.177593  0.000000  1
