# generated using pymatgen
data_ErNb8VSe16
_symmetry_space_group_name_H-M   'P 1'
_cell_length_a   7.00177200
_cell_length_b   7.00177387
_cell_length_c   13.59347100
_cell_angle_alpha   90.00000000
_cell_angle_beta   90.00000000
_cell_angle_gamma   120.00000064
_symmetry_Int_Tables_number   1
_chemical_formula_structural   ErNb8VSe16
_chemical_formula_sum   'Er1 Nb8 V1 Se16'
_cell_volume   577.13450338
_cell_formula_units_Z   1
loop_
 _symmetry_equiv_pos_site_id
 _symmetry_equiv_pos_as_xyz
  1  'x, y, z'
loop_
 _atom_site_type_symbol
 _atom_site_label
 _atom_site_symmetry_multiplicity
 _atom_site_fract_x
 _atom_site_fract_y
 _atom_site_fract_z
 _atom_site_occupancy
  Er  Er0  1  0.000000  0.000000  0.000000  1
  Nb  Nb1  1  0.000000  0.000000  0.261724  1
  Nb  Nb2  1  0.000000  0.000000  0.738276  1
  Nb  Nb3  1  0.506615  0.013228  0.263390  1
  Nb  Nb4  1  0.493385  0.986772  0.736610  1
  Nb  Nb5  1  0.986772  0.493385  0.263390  1
  Nb  Nb6  1  0.013228  0.506615  0.736610  1
  Nb  Nb7  1  0.506615  0.493385  0.263390  1
  Nb  Nb8  1  0.493385  0.506615  0.736610  1
  V  V9  1  0.000000  0.000000  0.500000  1
  Se  Se10  1  0.333333  0.666667  0.610195  1
  Se  Se11  1  0.666667  0.333333  0.389805  1
  Se  Se12  1  0.666667  0.333333  0.136035  1
  Se  Se13  1  0.333333  0.666667  0.863965  1
  Se  Se14  1  0.169938  0.339876  0.139703  1
  Se  Se15  1  0.830062  0.660124  0.860297  1
  Se  Se16  1  0.660124  0.830062  0.139703  1
  Se  Se17  1  0.833228  0.666456  0.615208  1
  Se  Se18  1  0.339876  0.169938  0.860297  1
  Se  Se19  1  0.166772  0.333544  0.384792  1
  Se  Se20  1  0.169938  0.830062  0.139703  1
  Se  Se21  1  0.333544  0.166772  0.615208  1
  Se  Se22  1  0.830062  0.169938  0.860297  1
  Se  Se23  1  0.666456  0.833228  0.384792  1
  Se  Se24  1  0.833228  0.166772  0.615208  1
  Se  Se25  1  0.166772  0.833228  0.384792  1
