# generated using pymatgen
data_Zr10CuSnBi5P
_symmetry_space_group_name_H-M   'P 1'
_cell_length_a   8.77254561
_cell_length_b   8.79037116
_cell_length_c   5.93932544
_cell_angle_alpha   90.05182436
_cell_angle_beta   89.89614064
_cell_angle_gamma   119.93294942
_symmetry_Int_Tables_number   1
_chemical_formula_structural   Zr10CuSnBi5P
_chemical_formula_sum   'Zr10 Cu1 Sn1 Bi5 P1'
_cell_volume   396.91080458
_cell_formula_units_Z   1
loop_
 _symmetry_equiv_pos_site_id
 _symmetry_equiv_pos_as_xyz
  1  'x, y, z'
loop_
 _atom_site_type_symbol
 _atom_site_label
 _atom_site_symmetry_multiplicity
 _atom_site_fract_x
 _atom_site_fract_y
 _atom_site_fract_z
 _atom_site_occupancy
  Zr  Zr0  1  0.743683  0.000000  0.257092  1
  Zr  Zr1  1  0.005669  0.750273  0.256942  1
  Zr  Zr2  1  0.255396  0.249727  0.256942  1
  Zr  Zr3  1  0.254559  0.000000  0.743275  1
  Zr  Zr4  1  0.998999  0.252299  0.742727  1
  Zr  Zr5  1  0.746700  0.747701  0.742727  1
  Zr  Zr6  1  0.333987  0.670166  0.497855  1
  Zr  Zr7  1  0.663822  0.329834  0.497855  1
  Zr  Zr8  1  0.664331  0.330356  0.001609  1
  Zr  Zr9  1  0.333974  0.669644  0.001609  1
  Cu  Cu10  1  0.000067  0.000000  0.000432  1
  Sn  Sn11  1  0.392724  0.000000  0.245402  1
  Bi  Bi12  1  0.000137  0.392115  0.245138  1
  Bi  Bi13  1  0.608022  0.607885  0.245138  1
  Bi  Bi14  1  0.605142  0.000000  0.755801  1
  Bi  Bi15  1  0.000047  0.607275  0.754871  1
  Bi  Bi16  1  0.392772  0.392725  0.754871  1
  P  P17  1  0.999970  0.000000  0.499716  1
