# generated using pymatgen
data_Tb6Nb4Cr5MoN24
_symmetry_space_group_name_H-M   'P 1'
_cell_length_a   10.93325280
_cell_length_b   10.93894614
_cell_length_c   10.92840648
_cell_angle_alpha   109.40072371
_cell_angle_beta   109.37246114
_cell_angle_gamma   109.66946270
_symmetry_Int_Tables_number   1
_chemical_formula_structural   Tb6Nb4Cr5MoN24
_chemical_formula_sum   'Tb12 Nb8 Cr10 Mo2 N48'
_cell_volume   1005.77700287
_cell_formula_units_Z   2
loop_
 _symmetry_equiv_pos_site_id
 _symmetry_equiv_pos_as_xyz
  1  'x, y, z'
loop_
 _atom_site_type_symbol
 _atom_site_label
 _atom_site_symmetry_multiplicity
 _atom_site_fract_x
 _atom_site_fract_y
 _atom_site_fract_z
 _atom_site_occupancy
  Tb  Tb0  1  0.251318  0.380014  0.129624  1
  Tb  Tb1  1  0.378306  0.749623  0.129617  1
  Tb  Tb2  1  0.375892  0.125889  0.251754  1
  Tb  Tb3  1  0.875352  0.625357  0.250716  1
  Tb  Tb4  1  0.749480  0.125077  0.376220  1
  Tb  Tb5  1  0.126742  0.251138  0.376241  1
  Tb  Tb6  1  0.870915  0.748880  0.618185  1
  Tb  Tb7  1  0.247273  0.869279  0.618175  1
  Tb  Tb8  1  0.126988  0.376987  0.753998  1
  Tb  Tb9  1  0.623717  0.873702  0.747401  1
  Tb  Tb10  1  0.624240  0.247537  0.873134  1
  Tb  Tb11  1  0.748889  0.625620  0.873146  1
  Nb  Nb12  1  0.997379  0.000465  0.001922  1
  Nb  Nb13  1  0.504513  0.001400  0.001789  1
  Nb  Nb14  1  0.991013  0.500609  0.001046  1
  Nb  Nb15  1  0.510059  0.500478  0.001088  1
  Nb  Nb16  1  0.997845  0.008744  0.499029  1
  Nb  Nb17  1  0.500323  0.997647  0.499510  1
  Nb  Nb18  1  0.001194  0.490294  0.499085  1
  Nb  Nb19  1  0.499168  0.501841  0.499470  1
  Cr  Cr20  1  0.875396  0.249597  0.125231  1
  Cr  Cr21  1  0.749842  0.875659  0.125254  1
  Cr  Cr22  1  0.626243  0.376150  0.252138  1
  Cr  Cr23  1  0.125923  0.876005  0.252158  1
  Cr  Cr24  1  0.249376  0.623975  0.374432  1
  Cr  Cr25  1  0.625059  0.750451  0.374431  1
  Cr  Cr26  1  0.376010  0.249348  0.623661  1
  Cr  Cr27  1  0.747614  0.374301  0.623646  1
  Cr  Cr28  1  0.873847  0.126021  0.751181  1
  Cr  Cr29  1  0.377324  0.625131  0.751170  1
  Mo  Mo30  1  0.249864  0.126265  0.873627  1
  Mo  Mo31  1  0.123767  0.747379  0.873642  1
  N  N32  1  0.208185  0.121865  0.025549  1
  N  N33  1  0.317359  0.903673  0.025554  1
  N  N34  1  0.881868  0.396401  0.087857  1
  N  N35  1  0.706036  0.691500  0.087897  1
  N  N36  1  0.616207  0.412294  0.102886  1
  N  N37  1  0.986720  0.690618  0.102904  1
  N  N38  1  0.014426  0.206238  0.119253  1
  N  N39  1  0.604841  0.912974  0.119276  1
  N  N40  1  0.206326  0.587204  0.192773  1
  N  N41  1  0.486461  0.605564  0.192758  1
  N  N42  1  0.117039  0.013207  0.205912  1
  N  N43  1  0.588875  0.192726  0.205937  1
  N  N44  1  0.487476  0.383778  0.296677  1
  N  N45  1  0.309216  0.912895  0.296683  1
  N  N46  1  0.897090  0.015347  0.308801  1
  N  N47  1  0.911729  0.293509  0.308814  1
  N  N48  1  0.293601  0.484153  0.382354  1
  N  N49  1  0.588762  0.898190  0.382387  1
  N  N50  1  0.808001  0.515060  0.394630  1
  N  N51  1  0.086627  0.879591  0.394626  1
  N  N52  1  0.103121  0.616309  0.408604  1
  N  N53  1  0.805499  0.792327  0.408601  1
  N  N54  1  0.603702  0.191401  0.485095  1
  N  N55  1  0.381360  0.293699  0.485084  1
  N  N56  1  0.618008  0.705794  0.514853  1
  N  N57  1  0.396840  0.809058  0.514861  1
  N  N58  1  0.191581  0.202843  0.587032  1
  N  N59  1  0.895449  0.384203  0.587041  1
  N  N60  1  0.914036  0.119032  0.603565  1
  N  N61  1  0.189527  0.484522  0.603548  1
  N  N62  1  0.412733  0.104380  0.615692  1
  N  N63  1  0.702945  0.511301  0.615657  1
  N  N64  1  0.086576  0.707780  0.681610  1
  N  N65  1  0.095017  0.973823  0.681597  1
  N  N66  1  0.690008  0.087886  0.706901  1
  N  N67  1  0.516842  0.618974  0.706870  1
  N  N68  1  0.414290  0.808320  0.796883  1
  N  N69  1  0.882583  0.988547  0.796860  1
  N  N70  1  0.513812  0.395532  0.809238  1
  N  N71  1  0.795419  0.413690  0.809237  1
  N  N72  1  0.403814  0.084365  0.875579  1
  N  N73  1  0.971760  0.791208  0.875551  1
  N  N74  1  0.010493  0.304899  0.895947  1
  N  N75  1  0.385484  0.591043  0.895961  1
  N  N76  1  0.290212  0.320444  0.915015  1
  N  N77  1  0.124822  0.594579  0.915017  1
  N  N78  1  0.693642  0.103228  0.986430  1
  N  N79  1  0.792710  0.883164  0.986422  1
