# generated using pymatgen
data_Sr3Y2Ti2CrO12
_symmetry_space_group_name_H-M   'P 1'
_cell_length_a   11.55917701
_cell_length_b   11.55881066
_cell_length_c   11.55928700
_cell_angle_alpha   109.49374626
_cell_angle_beta   109.45688955
_cell_angle_gamma   109.45757496
_symmetry_Int_Tables_number   1
_chemical_formula_structural   Sr3Y2Ti2CrO12
_chemical_formula_sum   'Sr12 Y8 Ti8 Cr4 O48'
_cell_volume   1188.99051283
_cell_formula_units_Z   4
loop_
 _symmetry_equiv_pos_site_id
 _symmetry_equiv_pos_as_xyz
  1  'x, y, z'
loop_
 _atom_site_type_symbol
 _atom_site_label
 _atom_site_symmetry_multiplicity
 _atom_site_fract_x
 _atom_site_fract_y
 _atom_site_fract_z
 _atom_site_occupancy
  Sr  Sr0  1  0.749972  0.125855  0.375557  1
  Sr  Sr1  1  0.250059  0.374883  0.123734  1
  Sr  Sr2  1  0.124299  0.250211  0.374108  1
  Sr  Sr3  1  0.375175  0.750171  0.124967  1
  Sr  Sr4  1  0.750030  0.624149  0.874484  1
  Sr  Sr5  1  0.124609  0.374836  0.749868  1
  Sr  Sr6  1  0.625277  0.874699  0.750185  1
  Sr  Sr7  1  0.249945  0.875447  0.625895  1
  Sr  Sr8  1  0.874535  0.624351  0.250558  1
  Sr  Sr9  1  0.625261  0.249439  0.875439  1
  Sr  Sr10  1  0.874974  0.749828  0.625545  1
  Sr  Sr11  1  0.375977  0.126131  0.249763  1
  Y  Y12  1  0.999307  0.000023  0.999105  1
  Y  Y13  1  0.500626  0.001917  0.001187  1
  Y  Y14  1  0.000034  0.499155  0.999394  1
  Y  Y15  1  0.499932  0.498782  0.000391  1
  Y  Y16  1  0.998005  0.499226  0.498589  1
  Y  Y17  1  0.500543  0.000839  0.500846  1
  Y  Y18  1  0.500755  0.499091  0.499525  1
  Y  Y19  1  0.000801  0.000964  0.500977  1
  Ti  Ti20  1  0.124887  0.875072  0.249629  1
  Ti  Ti21  1  0.874989  0.125069  0.750076  1
  Ti  Ti22  1  0.249694  0.624474  0.374892  1
  Ti  Ti23  1  0.375387  0.250368  0.625256  1
  Ti  Ti24  1  0.749750  0.874998  0.125081  1
  Ti  Ti25  1  0.125126  0.750164  0.874764  1
  Ti  Ti26  1  0.374498  0.624867  0.749793  1
  Ti  Ti27  1  0.625383  0.749911  0.375291  1
  Cr  Cr28  1  0.874705  0.250065  0.124775  1
  Cr  Cr29  1  0.250152  0.125034  0.875363  1
  Cr  Cr30  1  0.750273  0.374979  0.625044  1
  Cr  Cr31  1  0.625087  0.375012  0.249945  1
  O  O32  1  0.411798  0.806514  0.790893  1
  O  O33  1  0.879579  0.392612  0.088677  1
  O  O34  1  0.107141  0.987500  0.697219  1
  O  O35  1  0.514820  0.620105  0.709403  1
  O  O36  1  0.694362  0.089139  0.711152  1
  O  O37  1  0.621577  0.710143  0.516277  1
  O  O38  1  0.620703  0.410372  0.107261  1
  O  O39  1  0.710147  0.513072  0.620633  1
  O  O40  1  0.802852  0.513435  0.392852  1
  O  O41  1  0.984376  0.789788  0.879147  1
  O  O42  1  0.789660  0.878234  0.984036  1
  O  O43  1  0.709599  0.694148  0.089335  1
  O  O44  1  0.410551  0.105253  0.621483  1
  O  O45  1  0.394572  0.805373  0.515318  1
  O  O46  1  0.088261  0.709876  0.693541  1
  O  O47  1  0.105208  0.621288  0.411299  1
  O  O48  1  0.516936  0.394703  0.806359  1
  O  O49  1  0.089433  0.879337  0.394673  1
  O  O50  1  0.983877  0.693655  0.105322  1
  O  O51  1  0.193284  0.484469  0.605206  1
  O  O52  1  0.696286  0.107230  0.986927  1
  O  O53  1  0.790671  0.409784  0.803142  1
  O  O54  1  0.392916  0.089631  0.879884  1
  O  O55  1  0.878198  0.983309  0.788635  1
  O  O56  1  0.589808  0.197028  0.210717  1
  O  O57  1  0.121472  0.605656  0.911084  1
  O  O58  1  0.894557  0.015553  0.305723  1
  O  O59  1  0.486842  0.380034  0.289701  1
  O  O60  1  0.306086  0.911894  0.290166  1
  O  O61  1  0.378527  0.289282  0.483542  1
  O  O62  1  0.378824  0.587999  0.894172  1
  O  O63  1  0.290514  0.483700  0.378234  1
  O  O64  1  0.121297  0.016085  0.209480  1
  O  O65  1  0.605329  0.911886  0.121591  1
  O  O66  1  0.210042  0.589234  0.194520  1
  O  O67  1  0.194746  0.211095  0.589121  1
  O  O68  1  0.305946  0.894986  0.015960  1
  O  O69  1  0.016944  0.305431  0.894756  1
  O  O70  1  0.910112  0.121239  0.604867  1
  O  O71  1  0.483830  0.605299  0.194539  1
  O  O72  1  0.892938  0.379670  0.589191  1
  O  O73  1  0.910297  0.290124  0.302947  1
  O  O74  1  0.607148  0.196826  0.487237  1
  O  O75  1  0.589820  0.895113  0.379532  1
  O  O76  1  0.290142  0.302935  0.909951  1
  O  O77  1  0.209257  0.120429  0.013237  1
  O  O78  1  0.012279  0.209447  0.119180  1
  O  O79  1  0.806389  0.790075  0.411856  1
