# generated using pymatgen
data_Dy4FeRu7
_symmetry_space_group_name_H-M   'P 1'
_cell_length_a   5.32580624
_cell_length_b   5.19730733
_cell_length_c   8.92076200
_cell_angle_alpha   90.00000000
_cell_angle_beta   90.00000000
_cell_angle_gamma   120.66057037
_symmetry_Int_Tables_number   1
_chemical_formula_structural   Dy4FeRu7
_chemical_formula_sum   'Dy4 Fe1 Ru7'
_cell_volume   212.40604579
_cell_formula_units_Z   1
loop_
 _symmetry_equiv_pos_site_id
 _symmetry_equiv_pos_as_xyz
  1  'x, y, z'
loop_
 _atom_site_type_symbol
 _atom_site_label
 _atom_site_symmetry_multiplicity
 _atom_site_fract_x
 _atom_site_fract_y
 _atom_site_fract_z
 _atom_site_occupancy
  Dy  Dy0  1  0.668737  0.337131  0.567225  1
  Dy  Dy1  1  0.331566  0.663497  0.434563  1
  Dy  Dy2  1  0.331566  0.663497  0.065437  1
  Dy  Dy3  1  0.668737  0.337131  0.932775  1
  Fe  Fe4  1  0.163508  0.327310  0.750000  1
  Ru  Ru5  1  0.002516  0.005629  0.501393  1
  Ru  Ru6  1  0.002516  0.005629  0.998607  1
  Ru  Ru7  1  0.173824  0.827431  0.750000  1
  Ru  Ru8  1  0.654134  0.827771  0.750000  1
  Ru  Ru9  1  0.832108  0.664688  0.250000  1
  Ru  Ru10  1  0.827123  0.169868  0.250000  1
  Ru  Ru11  1  0.343665  0.170419  0.250000  1
