# generated using pymatgen
data_Tb2LuCd3Ga2Ag
_symmetry_space_group_name_H-M   'P 1'
_cell_length_a   7.36585082
_cell_length_b   7.37246592
_cell_length_c   4.32791300
_cell_angle_alpha   90.00000000
_cell_angle_beta   90.00000000
_cell_angle_gamma   120.02972370
_symmetry_Int_Tables_number   1
_chemical_formula_structural   Tb2LuCd3Ga2Ag
_chemical_formula_sum   'Tb2 Lu1 Cd3 Ga2 Ag1'
_cell_volume   203.47670222
_cell_formula_units_Z   1
loop_
 _symmetry_equiv_pos_site_id
 _symmetry_equiv_pos_as_xyz
  1  'x, y, z'
loop_
 _atom_site_type_symbol
 _atom_site_label
 _atom_site_symmetry_multiplicity
 _atom_site_fract_x
 _atom_site_fract_y
 _atom_site_fract_z
 _atom_site_occupancy
  Tb  Tb0  1  0.420513  0.420964  0.500000  1
  Tb  Tb1  1  0.579487  0.000451  0.500000  1
  Lu  Lu2  1  0.000000  0.580113  0.500000  1
  Cd  Cd3  1  0.748115  0.747410  0.000000  1
  Cd  Cd4  1  0.251885  0.999295  0.000000  1
  Cd  Cd5  1  0.000000  0.253637  0.000000  1
  Ga  Ga6  1  0.669022  0.334891  0.000000  1
  Ga  Ga7  1  0.330978  0.665869  0.000000  1
  Ag  Ag8  1  0.000000  0.997371  0.500000  1
