# generated using pymatgen
data_HoEr5Ni12(B2Ru)2
_symmetry_space_group_name_H-M   'P 1'
_cell_length_a   5.06138000
_cell_length_b   5.06137943
_cell_length_c   14.58944600
_cell_angle_alpha   90.00000000
_cell_angle_beta   90.00000000
_cell_angle_gamma   120.00000373
_symmetry_Int_Tables_number   1
_chemical_formula_structural   HoEr5Ni12(B2Ru)2
_chemical_formula_sum   'Ho1 Er5 Ni12 B4 Ru2'
_cell_volume   323.67358394
_cell_formula_units_Z   1
loop_
 _symmetry_equiv_pos_site_id
 _symmetry_equiv_pos_as_xyz
  1  'x, y, z'
loop_
 _atom_site_type_symbol
 _atom_site_label
 _atom_site_symmetry_multiplicity
 _atom_site_fract_x
 _atom_site_fract_y
 _atom_site_fract_z
 _atom_site_occupancy
  Ho  Ho0  1  0.333333  0.666667  0.469879  1
  Er  Er1  1  0.666667  0.333333  0.969867  1
  Er  Er2  1  0.666667  0.333333  0.530156  1
  Er  Er3  1  0.333333  0.666667  0.030183  1
  Er  Er4  1  0.666667  0.333333  0.750001  1
  Er  Er5  1  0.333333  0.666667  0.249906  1
  Ni  Ni6  1  0.835190  0.164810  0.347257  1
  Ni  Ni7  1  0.835190  0.670379  0.347257  1
  Ni  Ni8  1  0.835210  0.670418  0.152657  1
  Ni  Ni9  1  0.164768  0.835232  0.652749  1
  Ni  Ni10  1  0.670462  0.835232  0.652749  1
  Ni  Ni11  1  0.329582  0.164790  0.152657  1
  Ni  Ni12  1  0.835210  0.164790  0.152657  1
  Ni  Ni13  1  0.164794  0.329589  0.847317  1
  Ni  Ni14  1  0.164794  0.835206  0.847317  1
  Ni  Ni15  1  0.164768  0.329538  0.652749  1
  Ni  Ni16  1  0.670411  0.835206  0.847317  1
  Ni  Ni17  1  0.329621  0.164810  0.347257  1
  B  B18  1  0.666667  0.333333  0.250022  1
  B  B19  1  0.333333  0.666667  0.749972  1
  B  B20  1  0.000000  0.000000  0.750030  1
  B  B21  1  0.000000  0.000000  0.250010  1
  Ru  Ru22  1  0.000000  0.000000  0.999993  1
  Ru  Ru23  1  0.000000  0.000000  0.500042  1
