# generated using pymatgen
data_Ce2NdTh5(ReC2)4
_symmetry_space_group_name_H-M   'P 1'
_cell_length_a   5.35002300
_cell_length_b   6.68659562
_cell_length_c   10.06118769
_cell_angle_alpha   90.41900769
_cell_angle_beta   90.00000000
_cell_angle_gamma   90.00000000
_symmetry_Int_Tables_number   1
_chemical_formula_structural   Ce2NdTh5(ReC2)4
_chemical_formula_sum   'Ce2 Nd1 Th5 Re4 C8'
_cell_volume   359.91367330
_cell_formula_units_Z   1
loop_
 _symmetry_equiv_pos_site_id
 _symmetry_equiv_pos_as_xyz
  1  'x, y, z'
loop_
 _atom_site_type_symbol
 _atom_site_label
 _atom_site_symmetry_multiplicity
 _atom_site_fract_x
 _atom_site_fract_y
 _atom_site_fract_z
 _atom_site_occupancy
  Ce  Ce0  1  0.750000  0.686844  0.547328  1
  Ce  Ce1  1  0.250000  0.313560  0.451729  1
  Nd  Nd2  1  0.750000  0.192249  0.950288  1
  Th  Th3  1  0.250000  0.472738  0.775308  1
  Th  Th4  1  0.750000  0.024986  0.283675  1
  Th  Th5  1  0.250000  0.975347  0.716407  1
  Th  Th6  1  0.750000  0.523881  0.226189  1
  Th  Th7  1  0.250000  0.810785  0.048320  1
  Re  Re8  1  0.250000  0.270443  0.139739  1
  Re  Re9  1  0.750000  0.228900  0.636669  1
  Re  Re10  1  0.250000  0.772433  0.364611  1
  Re  Re11  1  0.750000  0.731770  0.859238  1
  C  C12  1  0.250000  0.667926  0.551672  1
  C  C13  1  0.750000  0.819849  0.050451  1
  C  C14  1  0.250000  0.173902  0.951736  1
  C  C15  1  0.750000  0.331656  0.448630  1
  C  C16  1  0.250000  0.033552  0.259700  1
  C  C17  1  0.750000  0.469305  0.754048  1
  C  C18  1  0.250000  0.532589  0.245331  1
  C  C19  1  0.750000  0.967283  0.738931  1
