# generated using pymatgen
data_Y2(CO3)3
_symmetry_space_group_name_H-M   'P 1'
_cell_length_a   8.25645911
_cell_length_b   8.25645965
_cell_length_c   8.25645855
_cell_angle_alpha   109.58222891
_cell_angle_beta   109.58222821
_cell_angle_gamma   109.58223138
_symmetry_Int_Tables_number   1
_chemical_formula_structural   Y2(CO3)3
_chemical_formula_sum   'Y4 C6 O18'
_cell_volume   431.48106320
_cell_formula_units_Z   2
loop_
 _symmetry_equiv_pos_site_id
 _symmetry_equiv_pos_as_xyz
  1  'x, y, z'
loop_
 _atom_site_type_symbol
 _atom_site_label
 _atom_site_symmetry_multiplicity
 _atom_site_fract_x
 _atom_site_fract_y
 _atom_site_fract_z
 _atom_site_occupancy
  Y  Y0  1  0.494543  0.014037  0.145118  1
  Y  Y1  1  0.014037  0.145118  0.494543  1
  Y  Y2  1  0.474004  0.474004  0.474004  1
  Y  Y3  1  0.145118  0.494543  0.014037  1
  C  C4  1  0.254810  0.194005  0.946595  1
  C  C5  1  0.946595  0.254810  0.194005  1
  C  C6  1  0.800480  0.412479  0.602460  1
  C  C7  1  0.412479  0.602460  0.800480  1
  C  C8  1  0.602460  0.800480  0.412479  1
  C  C9  1  0.194005  0.946595  0.254810  1
  O  O10  1  0.320283  0.074285  0.921905  1
  O  O11  1  0.801183  0.109261  0.176457  1
  O  O12  1  0.109261  0.176457  0.801183  1
  O  O13  1  0.346952  0.120138  0.327864  1
  O  O14  1  0.951398  0.384666  0.673434  1
  O  O15  1  0.701942  0.346833  0.411871  1
  O  O16  1  0.749040  0.500402  0.716837  1
  O  O17  1  0.921905  0.320283  0.074285  1
  O  O18  1  0.346833  0.411871  0.701942  1
  O  O19  1  0.327864  0.346952  0.120138  1
  O  O20  1  0.120138  0.327864  0.346952  1
  O  O21  1  0.384666  0.673434  0.951398  1
  O  O22  1  0.716837  0.749040  0.500402  1
  O  O23  1  0.500402  0.716837  0.749040  1
  O  O24  1  0.411871  0.701942  0.346833  1
  O  O25  1  0.673434  0.951398  0.384666  1
  O  O26  1  0.074285  0.921905  0.320283  1
  O  O27  1  0.176457  0.801183  0.109261  1
