# generated using pymatgen
data_Sc3Al6(Si3Ru2)2
_symmetry_space_group_name_H-M   'P 1'
_cell_length_a   8.53025800
_cell_length_b   8.53025875
_cell_length_c   9.14154000
_cell_angle_alpha   90.00000000
_cell_angle_beta   90.00000000
_cell_angle_gamma   119.99999707
_symmetry_Int_Tables_number   1
_chemical_formula_structural   Sc3Al6(Si3Ru2)2
_chemical_formula_sum   'Sc6 Al12 Si12 Ru8'
_cell_volume   576.06883433
_cell_formula_units_Z   2
loop_
 _symmetry_equiv_pos_site_id
 _symmetry_equiv_pos_as_xyz
  1  'x, y, z'
loop_
 _atom_site_type_symbol
 _atom_site_label
 _atom_site_symmetry_multiplicity
 _atom_site_fract_x
 _atom_site_fract_y
 _atom_site_fract_z
 _atom_site_occupancy
  Sc  Sc0  1  0.193263  0.386526  0.250000  1
  Sc  Sc1  1  0.806737  0.613474  0.750000  1
  Sc  Sc2  1  0.613474  0.806737  0.250000  1
  Sc  Sc3  1  0.386526  0.193263  0.750000  1
  Sc  Sc4  1  0.193263  0.806737  0.250000  1
  Sc  Sc5  1  0.806737  0.193263  0.750000  1
  Al  Al6  1  0.164539  0.329077  0.584108  1
  Al  Al7  1  0.835461  0.670923  0.415892  1
  Al  Al8  1  0.670923  0.835461  0.584108  1
  Al  Al9  1  0.835461  0.670923  0.084108  1
  Al  Al10  1  0.329077  0.164539  0.415892  1
  Al  Al11  1  0.164539  0.329077  0.915892  1
  Al  Al12  1  0.164539  0.835461  0.584108  1
  Al  Al13  1  0.329077  0.164539  0.084108  1
  Al  Al14  1  0.835461  0.164539  0.415892  1
  Al  Al15  1  0.670923  0.835461  0.915892  1
  Al  Al16  1  0.835461  0.164539  0.084108  1
  Al  Al17  1  0.164539  0.835461  0.915892  1
  Si  Si18  1  0.333333  0.666667  0.049808  1
  Si  Si19  1  0.666667  0.333333  0.950192  1
  Si  Si20  1  0.666667  0.333333  0.549808  1
  Si  Si21  1  0.333333  0.666667  0.450192  1
  Si  Si22  1  0.560794  0.121588  0.250000  1
  Si  Si23  1  0.439206  0.878412  0.750000  1
  Si  Si24  1  0.878412  0.439206  0.250000  1
  Si  Si25  1  0.121588  0.560794  0.750000  1
  Si  Si26  1  0.560794  0.439206  0.250000  1
  Si  Si27  1  0.439206  0.560794  0.750000  1
  Si  Si28  1  0.000000  0.000000  0.250000  1
  Si  Si29  1  0.000000  0.000000  0.750000  1
  Ru  Ru30  1  0.500000  0.000000  0.000000  1
  Ru  Ru31  1  0.000000  0.500000  0.000000  1
  Ru  Ru32  1  0.500000  0.000000  0.500000  1
  Ru  Ru33  1  0.500000  0.500000  0.000000  1
  Ru  Ru34  1  0.000000  0.500000  0.500000  1
  Ru  Ru35  1  0.500000  0.500000  0.500000  1
  Ru  Ru36  1  0.000000  0.000000  0.000000  1
  Ru  Ru37  1  0.000000  0.000000  0.500000  1
