# generated using pymatgen
data_Ho8Si12AgRuRh2
_symmetry_space_group_name_H-M   'P 1'
_cell_length_a   8.19601000
_cell_length_b   8.19601065
_cell_length_c   7.86657000
_cell_angle_alpha   90.00013282
_cell_angle_beta   89.99990213
_cell_angle_gamma   120.00006196
_symmetry_Int_Tables_number   1
_chemical_formula_structural   Ho8Si12AgRuRh2
_chemical_formula_sum   'Ho8 Si12 Ag1 Ru1 Rh2'
_cell_volume   457.63661617
_cell_formula_units_Z   1
loop_
 _symmetry_equiv_pos_site_id
 _symmetry_equiv_pos_as_xyz
  1  'x, y, z'
loop_
 _atom_site_type_symbol
 _atom_site_label
 _atom_site_symmetry_multiplicity
 _atom_site_fract_x
 _atom_site_fract_y
 _atom_site_fract_z
 _atom_site_occupancy
  Ho  Ho0  1  0.000001  0.000001  0.250661  1
  Ho  Ho1  1  0.000000  0.000000  0.753481  1
  Ho  Ho2  1  0.512976  0.487022  0.245677  1
  Ho  Ho3  1  0.512977  0.025954  0.245677  1
  Ho  Ho4  1  0.974046  0.487022  0.245677  1
  Ho  Ho5  1  0.494483  0.505517  0.752237  1
  Ho  Ho6  1  0.494484  0.988967  0.752237  1
  Ho  Ho7  1  0.011034  0.505517  0.752237  1
  Si  Si8  1  0.159917  0.840083  0.503164  1
  Si  Si9  1  0.159917  0.319835  0.503165  1
  Si  Si10  1  0.680165  0.840082  0.503164  1
  Si  Si11  1  0.830146  0.169853  0.499224  1
  Si  Si12  1  0.830146  0.660293  0.499224  1
  Si  Si13  1  0.339708  0.169854  0.499224  1
  Si  Si14  1  0.833852  0.166148  0.998942  1
  Si  Si15  1  0.833852  0.667705  0.998942  1
  Si  Si16  1  0.332296  0.166148  0.998942  1
  Si  Si17  1  0.167307  0.832693  0.002298  1
  Si  Si18  1  0.167307  0.334614  0.002298  1
  Si  Si19  1  0.665386  0.832693  0.002298  1
  Ag  Ag20  1  0.333332  0.666666  0.460265  1
  Ru  Ru21  1  0.666667  0.333333  0.539302  1
  Rh  Rh22  1  0.666667  0.333334  0.963371  1
  Rh  Rh23  1  0.333333  0.666667  0.028294  1
