# generated using pymatgen
data_Tb9DyOsRu3
_symmetry_space_group_name_H-M   'P 1'
_cell_length_a   8.52894908
_cell_length_b   8.53276524
_cell_length_c   7.28840432
_cell_angle_alpha   83.32097859
_cell_angle_beta   83.36829017
_cell_angle_gamma   44.02564840
_symmetry_Int_Tables_number   1
_chemical_formula_structural   Tb9DyOsRu3
_chemical_formula_sum   'Tb9 Dy1 Os1 Ru3'
_cell_volume   365.73770552
_cell_formula_units_Z   1
loop_
 _symmetry_equiv_pos_site_id
 _symmetry_equiv_pos_as_xyz
  1  'x, y, z'
loop_
 _atom_site_type_symbol
 _atom_site_label
 _atom_site_symmetry_multiplicity
 _atom_site_fract_x
 _atom_site_fract_y
 _atom_site_fract_z
 _atom_site_occupancy
  Tb  Tb0  1  0.206661  0.978294  0.584763  1
  Tb  Tb1  1  0.020568  0.793404  0.915915  1
  Tb  Tb2  1  0.206454  0.359354  0.314306  1
  Tb  Tb3  1  0.639887  0.793852  0.185915  1
  Tb  Tb4  1  0.794878  0.640176  0.685130  1
  Tb  Tb5  1  0.359141  0.207297  0.813966  1
  Tb  Tb6  1  0.979453  0.206418  0.085259  1
  Tb  Tb7  1  0.792699  0.021309  0.414925  1
  Tb  Tb8  1  0.576495  0.422995  0.749599  1
  Dy  Dy9  1  0.422689  0.577049  0.250480  1
  Os  Os10  1  0.176877  0.602911  0.574804  1
  Ru  Ru11  1  0.396100  0.825093  0.925562  1
  Ru  Ru12  1  0.824718  0.396397  0.424350  1
  Ru  Ru13  1  0.603381  0.175452  0.075024  1
