# generated using pymatgen
data_Y2Er2Si4Ir3Os
_symmetry_space_group_name_H-M   'P 1'
_cell_length_a   4.25507400
_cell_length_b   6.86118534
_cell_length_c   7.37886797
_cell_angle_alpha   90.11875036
_cell_angle_beta   90.00000000
_cell_angle_gamma   90.00000000
_symmetry_Int_Tables_number   1
_chemical_formula_structural   Y2Er2Si4Ir3Os
_chemical_formula_sum   'Y2 Er2 Si4 Ir3 Os1'
_cell_volume   215.42449096
_cell_formula_units_Z   1
loop_
 _symmetry_equiv_pos_site_id
 _symmetry_equiv_pos_as_xyz
  1  'x, y, z'
loop_
 _atom_site_type_symbol
 _atom_site_label
 _atom_site_symmetry_multiplicity
 _atom_site_fract_x
 _atom_site_fract_y
 _atom_site_fract_z
 _atom_site_occupancy
  Y  Y0  1  0.250000  0.998060  0.315665  1
  Y  Y1  1  0.250000  0.502874  0.185413  1
  Er  Er2  1  0.750000  0.498311  0.811472  1
  Er  Er3  1  0.750000  0.999262  0.687138  1
  Si  Si4  1  0.250000  0.700786  0.618436  1
  Si  Si5  1  0.250000  0.198460  0.888694  1
  Si  Si6  1  0.750000  0.299245  0.389067  1
  Si  Si7  1  0.750000  0.799574  0.102460  1
  Ir  Ir8  1  0.250000  0.342091  0.566379  1
  Ir  Ir9  1  0.750000  0.657884  0.437981  1
  Ir  Ir10  1  0.750000  0.159522  0.063586  1
  Os  Os11  1  0.250000  0.843930  0.933709  1
