# generated using pymatgen
data_Nd16Ho4Ir5Rh7
_symmetry_space_group_name_H-M   'P 1'
_cell_length_a   11.18566121
_cell_length_b   11.18566121
_cell_length_c   6.56055522
_cell_angle_alpha   90.02105393
_cell_angle_beta   90.02105393
_cell_angle_gamma   90.00598085
_symmetry_Int_Tables_number   1
_chemical_formula_structural   Nd16Ho4Ir5Rh7
_chemical_formula_sum   'Nd16 Ho4 Ir5 Rh7'
_cell_volume   820.85010216
_cell_formula_units_Z   1
loop_
 _symmetry_equiv_pos_site_id
 _symmetry_equiv_pos_as_xyz
  1  'x, y, z'
loop_
 _atom_site_type_symbol
 _atom_site_label
 _atom_site_symmetry_multiplicity
 _atom_site_fract_x
 _atom_site_fract_y
 _atom_site_fract_z
 _atom_site_occupancy
  Nd  Nd0  1  0.289290  0.087820  0.381187  1
  Nd  Nd1  1  0.289147  0.910409  0.882369  1
  Nd  Nd2  1  0.710366  0.089162  0.881884  1
  Nd  Nd3  1  0.710005  0.910831  0.381491  1
  Nd  Nd4  1  0.586972  0.787743  0.882906  1
  Nd  Nd5  1  0.586751  0.212216  0.382849  1
  Nd  Nd6  1  0.411624  0.788111  0.382857  1
  Nd  Nd7  1  0.412911  0.212151  0.882617  1
  Nd  Nd8  1  0.212257  0.413028  0.617094  1
  Nd  Nd9  1  0.211889  0.588376  0.117143  1
  Nd  Nd10  1  0.787784  0.413249  0.117151  1
  Nd  Nd11  1  0.787849  0.587089  0.617383  1
  Nd  Nd12  1  0.912180  0.710710  0.118813  1
  Nd  Nd13  1  0.910838  0.289634  0.618116  1
  Nd  Nd14  1  0.089591  0.710853  0.617631  1
  Nd  Nd15  1  0.089169  0.289995  0.118509  1
  Ho  Ho16  1  0.000232  0.999607  0.499815  1
  Ho  Ho17  1  0.000393  0.999768  0.000185  1
  Ho  Ho18  1  0.499941  0.499927  0.000133  1
  Ho  Ho19  1  0.500073  0.500059  0.499867  1
  Ir  Ir20  1  0.148269  0.851731  0.250000  1
  Ir  Ir21  1  0.649936  0.350064  0.750000  1
  Ir  Ir22  1  0.649994  0.649824  0.249973  1
  Ir  Ir23  1  0.350176  0.350006  0.250027  1
  Ir  Ir24  1  0.350503  0.649497  0.750000  1
  Rh  Rh25  1  0.851863  0.148137  0.250000  1
  Rh  Rh26  1  0.851271  0.851942  0.749955  1
  Rh  Rh27  1  0.148058  0.148729  0.750045  1
  Rh  Rh28  1  0.500823  0.000342  0.118671  1
  Rh  Rh29  1  0.500407  0.000220  0.619454  1
  Rh  Rh30  1  0.999780  0.499593  0.880546  1
  Rh  Rh31  1  0.999658  0.499177  0.381329  1
