# generated using pymatgen
data_Ba3Cd3PdPt2
_symmetry_space_group_name_H-M   'P 1'
_cell_length_a   8.05149000
_cell_length_b   8.05148961
_cell_length_c   4.41325400
_cell_angle_alpha   90.00000000
_cell_angle_beta   90.00000000
_cell_angle_gamma   119.99999340
_symmetry_Int_Tables_number   1
_chemical_formula_structural   Ba3Cd3PdPt2
_chemical_formula_sum   'Ba3 Cd3 Pd1 Pt2'
_cell_volume   247.76621052
_cell_formula_units_Z   1
loop_
 _symmetry_equiv_pos_site_id
 _symmetry_equiv_pos_as_xyz
  1  'x, y, z'
loop_
 _atom_site_type_symbol
 _atom_site_label
 _atom_site_symmetry_multiplicity
 _atom_site_fract_x
 _atom_site_fract_y
 _atom_site_fract_z
 _atom_site_occupancy
  Ba  Ba0  1  0.413352  0.000000  0.500000  1
  Ba  Ba1  1  0.000000  0.413352  0.500000  1
  Ba  Ba2  1  0.586648  0.586648  0.500000  1
  Cd  Cd3  1  0.760058  0.000000  0.000000  1
  Cd  Cd4  1  0.000000  0.760058  0.000000  1
  Cd  Cd5  1  0.239942  0.239942  0.000000  1
  Pd  Pd6  1  0.000000  0.000000  0.500000  1
  Pt  Pt7  1  0.333333  0.666667  0.000000  1
  Pt  Pt8  1  0.666667  0.333333  0.000000  1
