# generated using pymatgen
data_HoPa3Co2(NiSn)2
_symmetry_space_group_name_H-M   'P 1'
_cell_length_a   7.38474498
_cell_length_b   7.42915932
_cell_length_c   3.53845100
_cell_angle_alpha   90.00000000
_cell_angle_beta   90.00000000
_cell_angle_gamma   91.64073005
_symmetry_Int_Tables_number   1
_chemical_formula_structural   HoPa3Co2(NiSn)2
_chemical_formula_sum   'Ho1 Pa3 Co2 Ni2 Sn2'
_cell_volume   194.04849069
_cell_formula_units_Z   1
loop_
 _symmetry_equiv_pos_site_id
 _symmetry_equiv_pos_as_xyz
  1  'x, y, z'
loop_
 _atom_site_type_symbol
 _atom_site_label
 _atom_site_symmetry_multiplicity
 _atom_site_fract_x
 _atom_site_fract_y
 _atom_site_fract_z
 _atom_site_occupancy
  Ho  Ho0  1  0.828330  0.670245  0.500000  1
  Pa  Pa1  1  0.674948  0.182661  0.500000  1
  Pa  Pa2  1  0.326696  0.834976  0.500000  1
  Pa  Pa3  1  0.169759  0.322420  0.500000  1
  Co  Co4  1  0.882435  0.348722  0.000000  1
  Co  Co5  1  0.367397  0.133797  0.000000  1
  Ni  Ni6  1  0.138801  0.620890  0.000000  1
  Ni  Ni7  1  0.613769  0.886408  0.000000  1
  Sn  Sn8  1  0.504222  0.506886  0.000000  1
  Sn  Sn9  1  0.993643  0.992996  0.000000  1
