# generated using pymatgen
data_Tm7Lu3Ru4
_symmetry_space_group_name_H-M   'P 1'
_cell_length_a   6.22145312
_cell_length_b   7.22915170
_cell_length_c   8.32901126
_cell_angle_alpha   96.99800457
_cell_angle_beta   111.93964886
_cell_angle_gamma   89.97282468
_symmetry_Int_Tables_number   1
_chemical_formula_structural   Tm7Lu3Ru4
_chemical_formula_sum   'Tm7 Lu3 Ru4'
_cell_volume   344.47294641
_cell_formula_units_Z   1
loop_
 _symmetry_equiv_pos_site_id
 _symmetry_equiv_pos_as_xyz
  1  'x, y, z'
loop_
 _atom_site_type_symbol
 _atom_site_label
 _atom_site_symmetry_multiplicity
 _atom_site_fract_x
 _atom_site_fract_y
 _atom_site_fract_z
 _atom_site_occupancy
  Tm  Tm0  1  0.521727  0.083642  0.813287  1
  Tm  Tm1  1  0.477854  0.916065  0.186669  1
  Tm  Tm2  1  0.708925  0.416411  0.186806  1
  Tm  Tm3  1  0.291422  0.583859  0.813155  1
  Tm  Tm4  1  0.299079  0.313407  0.433419  1
  Tm  Tm5  1  0.700580  0.686707  0.566398  1
  Tm  Tm6  1  0.866020  0.186433  0.566271  1
  Lu  Lu7  1  0.133951  0.813624  0.433480  1
  Lu  Lu8  1  0.080251  0.250271  0.000099  1
  Lu  Lu9  1  0.919888  0.749803  0.000234  1
  Ru  Ru10  1  0.320893  0.577695  0.220348  1
  Ru  Ru11  1  0.678900  0.422644  0.780023  1
  Ru  Ru12  1  0.101121  0.922973  0.779278  1
  Ru  Ru13  1  0.899389  0.076466  0.220534  1
