# generated using pymatgen
data_Ho3Er5Sc12Si15Pt
_symmetry_space_group_name_H-M   'P 1'
_cell_length_a   7.06180779
_cell_length_b   7.42209192
_cell_length_c   13.94548219
_cell_angle_alpha   90.01075323
_cell_angle_beta   89.98431986
_cell_angle_gamma   90.14670900
_symmetry_Int_Tables_number   1
_chemical_formula_structural   Ho3Er5Sc12Si15Pt
_chemical_formula_sum   'Ho3 Er5 Sc12 Si15 Pt1'
_cell_volume   730.92751235
_cell_formula_units_Z   1
loop_
 _symmetry_equiv_pos_site_id
 _symmetry_equiv_pos_as_xyz
  1  'x, y, z'
loop_
 _atom_site_type_symbol
 _atom_site_label
 _atom_site_symmetry_multiplicity
 _atom_site_fract_x
 _atom_site_fract_y
 _atom_site_fract_z
 _atom_site_occupancy
  Ho  Ho0  1  0.011680  0.178312  0.403399  1
  Ho  Ho1  1  0.511531  0.322665  0.403318  1
  Ho  Ho2  1  0.488758  0.677060  0.595025  1
  Er  Er3  1  0.011691  0.178757  0.096495  1
  Er  Er4  1  0.990439  0.821909  0.905605  1
  Er  Er5  1  0.488614  0.677246  0.905127  1
  Er  Er6  1  0.990570  0.821906  0.594987  1
  Er  Er7  1  0.511557  0.322228  0.096585  1
  Sc  Sc8  1  0.159614  0.504615  0.750150  1
  Sc  Sc9  1  0.838839  0.497787  0.249867  1
  Sc  Sc10  1  0.339034  0.005574  0.249761  1
  Sc  Sc11  1  0.665091  0.998182  0.750113  1
  Sc  Sc12  1  0.322393  0.173165  0.625399  1
  Sc  Sc13  1  0.672011  0.826639  0.373189  1
  Sc  Sc14  1  0.171206  0.677033  0.373299  1
  Sc  Sc15  1  0.671534  0.826233  0.126416  1
  Sc  Sc16  1  0.830593  0.323522  0.625575  1
  Sc  Sc17  1  0.322355  0.173235  0.874698  1
  Sc  Sc18  1  0.830534  0.323175  0.874603  1
  Sc  Sc19  1  0.171007  0.676942  0.126470  1
  Si  Si20  1  0.970044  0.886643  0.249720  1
  Si  Si21  1  0.470005  0.614098  0.249768  1
  Si  Si22  1  0.530411  0.387092  0.750231  1
  Si  Si23  1  0.288069  0.867110  0.750321  1
  Si  Si24  1  0.713575  0.132185  0.249469  1
  Si  Si25  1  0.212812  0.370418  0.249532  1
  Si  Si26  1  0.780704  0.626802  0.750399  1
  Si  Si27  1  0.159004  0.466679  0.537750  1
  Si  Si28  1  0.841981  0.536319  0.461121  1
  Si  Si29  1  0.344595  0.965343  0.460734  1
  Si  Si30  1  0.841404  0.535609  0.039020  1
  Si  Si31  1  0.658852  0.033712  0.538710  1
  Si  Si32  1  0.159519  0.466425  0.962314  1
  Si  Si33  1  0.658632  0.033567  0.961287  1
  Si  Si34  1  0.344018  0.965662  0.039327  1
  Pt  Pt35  1  0.027322  0.106151  0.750216  1
