# generated using pymatgen
data_LiCe3In3Ir2
_symmetry_space_group_name_H-M   'P 1'
_cell_length_a   7.71837600
_cell_length_b   7.71837577
_cell_length_c   3.88815000
_cell_angle_alpha   90.00000000
_cell_angle_beta   90.00000000
_cell_angle_gamma   119.99999243
_symmetry_Int_Tables_number   1
_chemical_formula_structural   LiCe3In3Ir2
_chemical_formula_sum   'Li1 Ce3 In3 Ir2'
_cell_volume   200.59750432
_cell_formula_units_Z   1
loop_
 _symmetry_equiv_pos_site_id
 _symmetry_equiv_pos_as_xyz
  1  'x, y, z'
loop_
 _atom_site_type_symbol
 _atom_site_label
 _atom_site_symmetry_multiplicity
 _atom_site_fract_x
 _atom_site_fract_y
 _atom_site_fract_z
 _atom_site_occupancy
  Li  Li0  1  0.000000  0.000000  0.000000  1
  Ce  Ce1  1  0.422265  0.422265  0.000000  1
  Ce  Ce2  1  0.577735  0.000000  0.000000  1
  Ce  Ce3  1  0.000000  0.577735  0.000000  1
  In  In4  1  0.000000  0.248162  0.500000  1
  In  In5  1  0.751838  0.751838  0.500000  1
  In  In6  1  0.248162  0.000000  0.500000  1
  Ir  Ir7  1  0.333333  0.666667  0.500000  1
  Ir  Ir8  1  0.666667  0.333333  0.500000  1
