# generated using pymatgen
data_Ti2MnNbPt12
_symmetry_space_group_name_H-M   'P 1'
_cell_length_a   5.61838400
_cell_length_b   5.61838290
_cell_length_c   9.12913000
_cell_angle_alpha   90.00000000
_cell_angle_beta   90.00000000
_cell_angle_gamma   120.00000649
_symmetry_Int_Tables_number   1
_chemical_formula_structural   Ti2MnNbPt12
_chemical_formula_sum   'Ti2 Mn1 Nb1 Pt12'
_cell_volume   249.56446492
_cell_formula_units_Z   1
loop_
 _symmetry_equiv_pos_site_id
 _symmetry_equiv_pos_as_xyz
  1  'x, y, z'
loop_
 _atom_site_type_symbol
 _atom_site_label
 _atom_site_symmetry_multiplicity
 _atom_site_fract_x
 _atom_site_fract_y
 _atom_site_fract_z
 _atom_site_occupancy
  Ti  Ti0  1  0.000000  0.000000  0.002065  1
  Ti  Ti1  1  0.666667  0.333333  0.751792  1
  Mn  Mn2  1  0.333333  0.666667  0.249375  1
  Nb  Nb3  1  0.000000  0.000000  0.497255  1
  Pt  Pt4  1  0.501402  0.498598  0.503020  1
  Pt  Pt5  1  0.501402  0.002803  0.503020  1
  Pt  Pt6  1  0.997197  0.498598  0.503020  1
  Pt  Pt7  1  0.501428  0.498572  0.997010  1
  Pt  Pt8  1  0.501428  0.002855  0.997010  1
  Pt  Pt9  1  0.997145  0.498572  0.997010  1
  Pt  Pt10  1  0.832513  0.665027  0.249100  1
  Pt  Pt11  1  0.334973  0.167487  0.249100  1
  Pt  Pt12  1  0.832513  0.167487  0.249100  1
  Pt  Pt13  1  0.166854  0.333708  0.750706  1
  Pt  Pt14  1  0.666292  0.833146  0.750706  1
  Pt  Pt15  1  0.166854  0.833146  0.750706  1
