# generated using pymatgen
data_LiCaZnCu3
_symmetry_space_group_name_H-M   'P 1'
_cell_length_a   5.14314894
_cell_length_b   5.14314900
_cell_length_c   5.14315000
_cell_angle_alpha   60.60051338
_cell_angle_beta   60.60051304
_cell_angle_gamma   60.60049698
_symmetry_Int_Tables_number   1
_chemical_formula_structural   LiCaZnCu3
_chemical_formula_sum   'Li1 Ca1 Zn1 Cu3'
_cell_volume   97.50411005
_cell_formula_units_Z   1
loop_
 _symmetry_equiv_pos_site_id
 _symmetry_equiv_pos_as_xyz
  1  'x, y, z'
loop_
 _atom_site_type_symbol
 _atom_site_label
 _atom_site_symmetry_multiplicity
 _atom_site_fract_x
 _atom_site_fract_y
 _atom_site_fract_z
 _atom_site_occupancy
  Li  Li0  1  0.873804  0.873804  0.873804  1
  Ca  Ca1  1  0.122086  0.122086  0.122086  1
  Zn  Zn2  1  0.503311  0.503311  0.503311  1
  Cu  Cu3  1  0.501162  0.998475  0.501162  1
  Cu  Cu4  1  0.998475  0.501162  0.501162  1
  Cu  Cu5  1  0.501162  0.501162  0.998475  1
