# generated using pymatgen
data_RbLu(Pd3O4)2
_symmetry_space_group_name_H-M   'P 1'
_cell_length_a   6.89827578
_cell_length_b   6.89827597
_cell_length_c   6.89827600
_cell_angle_alpha   59.99999987
_cell_angle_beta   59.99999893
_cell_angle_gamma   60.00000576
_symmetry_Int_Tables_number   1
_chemical_formula_structural   RbLu(Pd3O4)2
_chemical_formula_sum   'Rb1 Lu1 Pd6 O8'
_cell_volume   232.11686738
_cell_formula_units_Z   1
loop_
 _symmetry_equiv_pos_site_id
 _symmetry_equiv_pos_as_xyz
  1  'x, y, z'
loop_
 _atom_site_type_symbol
 _atom_site_label
 _atom_site_symmetry_multiplicity
 _atom_site_fract_x
 _atom_site_fract_y
 _atom_site_fract_z
 _atom_site_occupancy
  Rb  Rb0  1  0.500000  0.500000  0.500000  1
  Lu  Lu1  1  0.000000  0.000000  0.000000  1
  Pd  Pd2  1  0.000000  0.000000  0.500000  1
  Pd  Pd3  1  0.500000  0.000000  0.000000  1
  Pd  Pd4  1  0.000000  0.500000  0.000000  1
  Pd  Pd5  1  0.500000  0.500000  0.000000  1
  Pd  Pd6  1  0.000000  0.500000  0.500000  1
  Pd  Pd7  1  0.500000  0.000000  0.500000  1
  O  O8  1  0.137853  0.137853  0.586440  1
  O  O9  1  0.137853  0.586440  0.137853  1
  O  O10  1  0.586440  0.137853  0.137853  1
  O  O11  1  0.862147  0.413560  0.862147  1
  O  O12  1  0.137853  0.137853  0.137853  1
  O  O13  1  0.862147  0.862147  0.862147  1
  O  O14  1  0.862147  0.862147  0.413560  1
  O  O15  1  0.413560  0.862147  0.862147  1
