# generated using pymatgen
data_Rb2Gd(TeO4)3
_symmetry_space_group_name_H-M   'P 1'
_cell_length_a   7.65738385
_cell_length_b   7.65816677
_cell_length_c   7.63458274
_cell_angle_alpha   58.03592359
_cell_angle_beta   58.03373165
_cell_angle_gamma   58.03382830
_symmetry_Int_Tables_number   1
_chemical_formula_structural   Rb2Gd(TeO4)3
_chemical_formula_sum   'Rb2 Gd1 Te3 O12'
_cell_volume   302.30366914
_cell_formula_units_Z   1
loop_
 _symmetry_equiv_pos_site_id
 _symmetry_equiv_pos_as_xyz
  1  'x, y, z'
loop_
 _atom_site_type_symbol
 _atom_site_label
 _atom_site_symmetry_multiplicity
 _atom_site_fract_x
 _atom_site_fract_y
 _atom_site_fract_z
 _atom_site_occupancy
  Rb  Rb0  1  0.114139  0.139986  0.621035  1
  Rb  Rb1  1  0.860015  0.885859  0.378964  1
  Gd  Gd2  1  0.496832  0.503167  0.000001  1
  Te  Te3  1  0.498611  0.001723  0.000198  1
  Te  Te4  1  0.998276  0.501390  0.999802  1
  Te  Te5  1  0.498398  0.501602  0.500001  1
  O  O6  1  0.814107  0.816880  0.918165  1
  O  O7  1  0.423941  0.424472  0.357060  1
  O  O8  1  0.424340  0.859159  0.922482  1
  O  O9  1  0.813656  0.418462  0.315193  1
  O  O10  1  0.854792  0.426332  0.923960  1
  O  O11  1  0.416809  0.816617  0.315375  1
  O  O12  1  0.183115  0.185899  0.081834  1
  O  O13  1  0.575530  0.576057  0.642941  1
  O  O14  1  0.573671  0.145203  0.076042  1
  O  O15  1  0.183380  0.583187  0.684627  1
  O  O16  1  0.140846  0.575657  0.077514  1
  O  O17  1  0.581543  0.186346  0.684806  1
