# generated using pymatgen
data_Y14Ho2Cd4OsPd3
_symmetry_space_group_name_H-M   'P 1'
_cell_length_a   9.75626952
_cell_length_b   9.75626845
_cell_length_c   9.76392446
_cell_angle_alpha   59.42099429
_cell_angle_beta   59.42100055
_cell_angle_gamma   59.39569226
_symmetry_Int_Tables_number   1
_chemical_formula_structural   Y14Ho2Cd4OsPd3
_chemical_formula_sum   'Y14 Ho2 Cd4 Os1 Pd3'
_cell_volume   648.38436746
_cell_formula_units_Z   1
loop_
 _symmetry_equiv_pos_site_id
 _symmetry_equiv_pos_as_xyz
  1  'x, y, z'
loop_
 _atom_site_type_symbol
 _atom_site_label
 _atom_site_symmetry_multiplicity
 _atom_site_fract_x
 _atom_site_fract_y
 _atom_site_fract_z
 _atom_site_occupancy
  Y  Y0  1  0.350965  0.943859  0.351076  1
  Y  Y1  1  0.943859  0.350965  0.351076  1
  Y  Y2  1  0.815673  0.188867  0.188828  1
  Y  Y3  1  0.188546  0.809603  0.810025  1
  Y  Y4  1  0.188867  0.815673  0.188828  1
  Y  Y5  1  0.809603  0.188546  0.810025  1
  Y  Y6  1  0.189127  0.189127  0.815433  1
  Y  Y7  1  0.810106  0.810106  0.188378  1
  Y  Y8  1  0.935186  0.565718  0.565974  1
  Y  Y9  1  0.558243  0.937738  0.937209  1
  Y  Y10  1  0.565718  0.935186  0.565974  1
  Y  Y11  1  0.937738  0.558243  0.937209  1
  Y  Y12  1  0.565556  0.565556  0.935353  1
  Y  Y13  1  0.937060  0.937060  0.558838  1
  Ho  Ho14  1  0.352766  0.352766  0.352746  1
  Ho  Ho15  1  0.350103  0.350103  0.946305  1
  Cd  Cd16  1  0.580166  0.580166  0.580559  1
  Cd  Cd17  1  0.580825  0.580825  0.254013  1
  Cd  Cd18  1  0.580626  0.254143  0.581088  1
  Cd  Cd19  1  0.254143  0.580626  0.581088  1
  Os  Os20  1  0.145189  0.145189  0.142442  1
  Pd  Pd21  1  0.145917  0.145917  0.568198  1
  Pd  Pd22  1  0.147224  0.566793  0.144667  1
  Pd  Pd23  1  0.566793  0.147224  0.144667  1
