# generated using pymatgen
data_ErGaSiPt2
_symmetry_space_group_name_H-M   'P 1'
_cell_length_a   4.16731800
_cell_length_b   4.16731800
_cell_length_c   10.29479900
_cell_angle_alpha   90.00000000
_cell_angle_beta   90.00000000
_cell_angle_gamma   90.00000000
_symmetry_Int_Tables_number   1
_chemical_formula_structural   ErGaSiPt2
_chemical_formula_sum   'Er2 Ga2 Si2 Pt4'
_cell_volume   178.78503155
_cell_formula_units_Z   2
loop_
 _symmetry_equiv_pos_site_id
 _symmetry_equiv_pos_as_xyz
  1  'x, y, z'
loop_
 _atom_site_type_symbol
 _atom_site_label
 _atom_site_symmetry_multiplicity
 _atom_site_fract_x
 _atom_site_fract_y
 _atom_site_fract_z
 _atom_site_occupancy
  Er  Er0  1  0.000000  0.500000  0.250243  1
  Er  Er1  1  0.500000  0.000000  0.749758  1
  Ga  Ga2  1  0.000000  0.000000  0.500000  1
  Ga  Ga3  1  0.500000  0.500000  0.500000  1
  Si  Si4  1  0.000000  0.500000  0.871100  1
  Si  Si5  1  0.500000  0.000000  0.128900  1
  Pt  Pt6  1  0.000000  0.000000  0.000000  1
  Pt  Pt7  1  0.500000  0.500000  0.000000  1
  Pt  Pt8  1  0.000000  0.500000  0.646284  1
  Pt  Pt9  1  0.500000  0.000000  0.353716  1
