# generated using pymatgen
data_Tb2Sm10Fe2Br17
_symmetry_space_group_name_H-M   'P 1'
_cell_length_a   9.36514406
_cell_length_b   11.36277189
_cell_length_c   11.30554077
_cell_angle_alpha   74.10471739
_cell_angle_beta   75.25965282
_cell_angle_gamma   65.26540675
_symmetry_Int_Tables_number   1
_chemical_formula_structural   Tb2Sm10Fe2Br17
_chemical_formula_sum   'Tb2 Sm10 Fe2 Br17'
_cell_volume   1037.35851497
_cell_formula_units_Z   1
loop_
 _symmetry_equiv_pos_site_id
 _symmetry_equiv_pos_as_xyz
  1  'x, y, z'
loop_
 _atom_site_type_symbol
 _atom_site_label
 _atom_site_symmetry_multiplicity
 _atom_site_fract_x
 _atom_site_fract_y
 _atom_site_fract_z
 _atom_site_occupancy
  Tb  Tb0  1  0.456417  0.486741  0.320575  1
  Tb  Tb1  1  0.558150  0.672103  0.006429  1
  Sm  Sm2  1  0.267354  0.992662  0.105584  1
  Sm  Sm3  1  0.866187  0.287280  0.852998  1
  Sm  Sm4  1  0.401664  0.239412  0.713922  1
  Sm  Sm5  1  0.732110  0.009402  0.892004  1
  Sm  Sm6  1  0.543801  0.513409  0.679161  1
  Sm  Sm7  1  0.442190  0.326599  0.995172  1
  Sm  Sm8  1  0.594636  0.758644  0.283467  1
  Sm  Sm9  1  0.825711  0.192395  0.578210  1
  Sm  Sm10  1  0.171947  0.808840  0.424396  1
  Sm  Sm11  1  0.140016  0.712302  0.148679  1
  Fe  Fe12  1  0.366506  0.738734  0.212857  1
  Fe  Fe13  1  0.633774  0.260950  0.787238  1
  Br  Br14  1  0.056991  0.096263  0.326990  1
  Br  Br15  1  0.468172  0.946664  0.847836  1
  Br  Br16  1  0.427009  0.809775  0.534398  1
  Br  Br17  1  0.571138  0.196225  0.460443  1
  Br  Br18  1  0.836493  0.706812  0.047381  1
  Br  Br19  1  0.227163  0.425167  0.244297  1
  Br  Br20  1  0.678393  0.377372  0.099552  1
  Br  Br21  1  0.533064  0.047670  0.152750  1
  Br  Br22  1  0.731204  0.474377  0.419355  1
  Br  Br23  1  0.893780  0.782588  0.364607  1
  Br  Br24  1  0.943201  0.903633  0.671271  1
  Br  Br25  1  0.160350  0.291537  0.951750  1
  Br  Br26  1  0.323876  0.626375  0.903453  1
  Br  Br27  1  0.001136  0.998058  0.000813  1
  Br  Br28  1  0.107826  0.216570  0.634651  1
  Br  Br29  1  0.773191  0.576951  0.764793  1
  Br  Br30  1  0.266551  0.524491  0.574972  1
