# generated using pymatgen
data_YbSmRe2Si2C
_symmetry_space_group_name_H-M   'P 1'
_cell_length_a   5.84880893
_cell_length_b   5.84880892
_cell_length_c   7.13171936
_cell_angle_alpha   125.12468932
_cell_angle_beta   125.12467871
_cell_angle_gamma   39.60238482
_symmetry_Int_Tables_number   1
_chemical_formula_structural   YbSmRe2Si2C
_chemical_formula_sum   'Yb1 Sm1 Re2 Si2 C1'
_cell_volume   123.05067345
_cell_formula_units_Z   1
loop_
 _symmetry_equiv_pos_site_id
 _symmetry_equiv_pos_as_xyz
  1  'x, y, z'
loop_
 _atom_site_type_symbol
 _atom_site_label
 _atom_site_symmetry_multiplicity
 _atom_site_fract_x
 _atom_site_fract_y
 _atom_site_fract_z
 _atom_site_occupancy
  Yb  Yb0  1  0.426953  0.426953  0.701486  1
  Sm  Sm1  1  0.575437  0.575437  0.302044  1
  Re  Re2  1  0.204847  0.204847  0.083243  1
  Re  Re3  1  0.794769  0.794769  0.914884  1
  Si  Si4  1  0.859543  0.859543  0.316848  1
  Si  Si5  1  0.139328  0.139328  0.682552  1
  C  C6  1  0.999122  0.999122  0.998943  1
