# generated using pymatgen
data_Sm6Co14Ni(P4Rh)3
_symmetry_space_group_name_H-M   'P 1'
_cell_length_a   3.76916200
_cell_length_b   10.65510400
_cell_length_c   12.43799900
_cell_angle_alpha   90.00000000
_cell_angle_beta   90.00000000
_cell_angle_gamma   90.00000000
_symmetry_Int_Tables_number   1
_chemical_formula_structural   Sm6Co14Ni(P4Rh)3
_chemical_formula_sum   'Sm6 Co14 Ni1 P12 Rh3'
_cell_volume   499.52015321
_cell_formula_units_Z   1
loop_
 _symmetry_equiv_pos_site_id
 _symmetry_equiv_pos_as_xyz
  1  'x, y, z'
loop_
 _atom_site_type_symbol
 _atom_site_label
 _atom_site_symmetry_multiplicity
 _atom_site_fract_x
 _atom_site_fract_y
 _atom_site_fract_z
 _atom_site_occupancy
  Sm  Sm0  1  0.000000  0.500000  0.520256  1
  Sm  Sm1  1  0.500000  0.000000  0.476982  1
  Sm  Sm2  1  0.500000  0.816149  0.206309  1
  Sm  Sm3  1  0.500000  0.183851  0.206309  1
  Sm  Sm4  1  0.000000  0.687076  0.794074  1
  Sm  Sm5  1  0.000000  0.312924  0.794074  1
  Co  Co6  1  0.000000  0.500000  0.988763  1
  Co  Co7  1  0.500000  0.000000  0.014523  1
  Co  Co8  1  0.500000  0.331541  0.994923  1
  Co  Co9  1  0.500000  0.668459  0.994923  1
  Co  Co10  1  0.000000  0.166596  0.007617  1
  Co  Co11  1  0.000000  0.833404  0.007617  1
  Co  Co12  1  0.500000  0.297792  0.428309  1
  Co  Co13  1  0.500000  0.702208  0.428309  1
  Co  Co14  1  0.000000  0.198639  0.568481  1
  Co  Co15  1  0.000000  0.801361  0.568481  1
  Co  Co16  1  0.500000  0.882139  0.709678  1
  Co  Co17  1  0.500000  0.117861  0.709678  1
  Co  Co18  1  0.000000  0.620148  0.290022  1
  Co  Co19  1  0.000000  0.379852  0.290022  1
  Ni  Ni20  1  0.000000  0.000000  0.295369  1
  P  P21  1  0.500000  0.500000  0.891528  1
  P  P22  1  0.000000  0.000000  0.114938  1
  P  P23  1  0.500000  0.500000  0.347565  1
  P  P24  1  0.000000  0.000000  0.651486  1
  P  P25  1  0.500000  0.299368  0.611373  1
  P  P26  1  0.500000  0.700632  0.611373  1
  P  P27  1  0.000000  0.192095  0.384922  1
  P  P28  1  0.000000  0.807905  0.384922  1
  P  P29  1  0.500000  0.846277  0.897175  1
  P  P30  1  0.500000  0.153723  0.897175  1
  P  P31  1  0.000000  0.655161  0.104511  1
  P  P32  1  0.000000  0.344839  0.104511  1
  Rh  Rh33  1  0.500000  0.500000  0.159456  1
  Rh  Rh34  1  0.000000  0.000000  0.841111  1
  Rh  Rh35  1  0.500000  0.500000  0.703235  1
