# generated using pymatgen
data_U8PdS17
_symmetry_space_group_name_H-M   'P 1'
_cell_length_a   7.84508703
_cell_length_b   7.84508819
_cell_length_c   10.35452836
_cell_angle_alpha   79.82190872
_cell_angle_beta   79.82190665
_cell_angle_gamma   64.22408022
_symmetry_Int_Tables_number   1
_chemical_formula_structural   U8PdS17
_chemical_formula_sum   'U8 Pd1 S17'
_cell_volume   561.23824857
_cell_formula_units_Z   1
loop_
 _symmetry_equiv_pos_site_id
 _symmetry_equiv_pos_as_xyz
  1  'x, y, z'
loop_
 _atom_site_type_symbol
 _atom_site_label
 _atom_site_symmetry_multiplicity
 _atom_site_fract_x
 _atom_site_fract_y
 _atom_site_fract_z
 _atom_site_occupancy
  U  U0  1  0.818860  0.304002  0.298374  1
  U  U1  1  0.304002  0.818860  0.298374  1
  U  U2  1  0.181140  0.695998  0.701626  1
  U  U3  1  0.695998  0.181140  0.701626  1
  U  U4  1  0.202616  0.202616  0.542832  1
  U  U5  1  0.797384  0.797384  0.457168  1
  U  U6  1  0.678741  0.678741  0.985753  1
  U  U7  1  0.321259  0.321259  0.014247  1
  Pd  Pd8  1  0.000000  0.000000  0.000000  1
  S  S9  1  0.820589  0.432729  0.534648  1
  S  S10  1  0.432729  0.820589  0.534648  1
  S  S11  1  0.179411  0.567271  0.465352  1
  S  S12  1  0.567271  0.179411  0.465352  1
  S  S13  1  0.948265  0.330949  0.033037  1
  S  S14  1  0.330949  0.948265  0.033037  1
  S  S15  1  0.051735  0.669051  0.966963  1
  S  S16  1  0.669051  0.051735  0.966963  1
  S  S17  1  0.213418  0.213418  0.278489  1
  S  S18  1  0.786582  0.786582  0.721511  1
  S  S19  1  0.053995  0.053995  0.768059  1
  S  S20  1  0.946005  0.946005  0.231941  1
  S  S21  1  0.299406  0.299406  0.755100  1
  S  S22  1  0.700594  0.700594  0.244900  1
  S  S23  1  0.519385  0.519385  0.830471  1
  S  S24  1  0.480615  0.480615  0.169529  1
  S  S25  1  0.000000  0.000000  0.500000  1
