# generated using pymatgen
data_TiNb5(B2Ru5)2
_symmetry_space_group_name_H-M   'P 1'
_cell_length_a   9.42350000
_cell_length_b   9.42350000
_cell_length_c   3.02261000
_cell_angle_alpha   90.00000000
_cell_angle_beta   90.00000000
_cell_angle_gamma   90.00000000
_symmetry_Int_Tables_number   1
_chemical_formula_structural   TiNb5(B2Ru5)2
_chemical_formula_sum   'Ti1 Nb5 B4 Ru10'
_cell_volume   268.41487793
_cell_formula_units_Z   1
loop_
 _symmetry_equiv_pos_site_id
 _symmetry_equiv_pos_as_xyz
  1  'x, y, z'
loop_
 _atom_site_type_symbol
 _atom_site_label
 _atom_site_symmetry_multiplicity
 _atom_site_fract_x
 _atom_site_fract_y
 _atom_site_fract_z
 _atom_site_occupancy
  Ti  Ti0  1  0.500000  0.500000  0.000000  1
  Nb  Nb1  1  0.821456  0.674889  0.000000  1
  Nb  Nb2  1  0.178544  0.325111  0.000000  1
  Nb  Nb3  1  0.325111  0.821456  0.000000  1
  Nb  Nb4  1  0.674889  0.178544  0.000000  1
  Nb  Nb5  1  0.000000  0.000000  0.000000  1
  B  B6  1  0.618273  0.873745  0.000000  1
  B  B7  1  0.381727  0.126255  0.000000  1
  B  B8  1  0.126255  0.618273  0.000000  1
  B  B9  1  0.873745  0.381727  0.000000  1
  Ru  Ru10  1  0.500000  0.000000  0.500000  1
  Ru  Ru11  1  0.000000  0.500000  0.500000  1
  Ru  Ru12  1  0.569254  0.715551  0.500000  1
  Ru  Ru13  1  0.430746  0.284449  0.500000  1
  Ru  Ru14  1  0.072400  0.780501  0.500000  1
  Ru  Ru15  1  0.927600  0.219499  0.500000  1
  Ru  Ru16  1  0.284449  0.569254  0.500000  1
  Ru  Ru17  1  0.715551  0.430746  0.500000  1
  Ru  Ru18  1  0.219499  0.072400  0.500000  1
  Ru  Ru19  1  0.780501  0.927600  0.500000  1
