# generated using pymatgen
data_BeV8CoTe8
_symmetry_space_group_name_H-M   'P 1'
_cell_length_a   4.52085500
_cell_length_b   10.60007500
_cell_length_c   18.33841400
_cell_angle_alpha   90.00000000
_cell_angle_beta   90.00000000
_cell_angle_gamma   90.00000000
_symmetry_Int_Tables_number   1
_chemical_formula_structural   BeV8CoTe8
_chemical_formula_sum   'Be2 V16 Co2 Te16'
_cell_volume   878.80251051
_cell_formula_units_Z   2
loop_
 _symmetry_equiv_pos_site_id
 _symmetry_equiv_pos_as_xyz
  1  'x, y, z'
loop_
 _atom_site_type_symbol
 _atom_site_label
 _atom_site_symmetry_multiplicity
 _atom_site_fract_x
 _atom_site_fract_y
 _atom_site_fract_z
 _atom_site_occupancy
  Be  Be0  1  0.250063  0.500000  0.500000  1
  Be  Be1  1  0.749937  0.000000  0.000000  1
  V  V2  1  0.492779  0.560639  0.388797  1
  V  V3  1  0.492779  0.439361  0.611203  1
  V  V4  1  0.507221  0.060639  0.111203  1
  V  V5  1  0.507221  0.939361  0.888797  1
  V  V6  1  0.493391  0.693880  0.534406  1
  V  V7  1  0.493391  0.306120  0.465594  1
  V  V8  1  0.506609  0.193880  0.965594  1
  V  V9  1  0.506609  0.806120  0.034406  1
  V  V10  1  0.007545  0.679494  0.445157  1
  V  V11  1  0.007545  0.320506  0.554843  1
  V  V12  1  0.992455  0.179494  0.054843  1
  V  V13  1  0.992455  0.820506  0.945157  1
  V  V14  1  0.006431  0.405572  0.397052  1
  V  V15  1  0.006431  0.594428  0.602948  1
  V  V16  1  0.993569  0.905572  0.102948  1
  V  V17  1  0.993569  0.094428  0.897052  1
  Co  Co18  1  0.750118  0.500000  0.500000  1
  Co  Co19  1  0.249882  0.000000  0.000000  1
  Te  Te20  1  0.989890  0.840160  0.560698  1
  Te  Te21  1  0.989890  0.159840  0.439302  1
  Te  Te22  1  0.010110  0.340160  0.939302  1
  Te  Te23  1  0.010110  0.659840  0.060698  1
  Te  Te24  1  0.510381  0.335420  0.318779  1
  Te  Te25  1  0.510381  0.664580  0.681221  1
  Te  Te26  1  0.489619  0.835420  0.181221  1
  Te  Te27  1  0.489619  0.164580  0.818779  1
  Te  Te28  1  0.510744  0.815504  0.403971  1
  Te  Te29  1  0.510744  0.184496  0.596029  1
  Te  Te30  1  0.489256  0.315504  0.096029  1
  Te  Te31  1  0.489256  0.684496  0.903971  1
  Te  Te32  1  0.988865  0.604479  0.303964  1
  Te  Te33  1  0.988865  0.395521  0.696036  1
  Te  Te34  1  0.011135  0.104479  0.196036  1
  Te  Te35  1  0.011135  0.895521  0.803964  1
