# generated using pymatgen
data_Er6Tm4(TlSb)3
_symmetry_space_group_name_H-M   'P 1'
_cell_length_a   8.87603600
_cell_length_b   8.86564032
_cell_length_c   6.35916300
_cell_angle_alpha   90.00000000
_cell_angle_beta   90.00000000
_cell_angle_gamma   120.03878877
_symmetry_Int_Tables_number   1
_chemical_formula_structural   Er6Tm4(TlSb)3
_chemical_formula_sum   'Er6 Tm4 Tl3 Sb3'
_cell_volume   433.20141876
_cell_formula_units_Z   1
loop_
 _symmetry_equiv_pos_site_id
 _symmetry_equiv_pos_as_xyz
  1  'x, y, z'
loop_
 _atom_site_type_symbol
 _atom_site_label
 _atom_site_symmetry_multiplicity
 _atom_site_fract_x
 _atom_site_fract_y
 _atom_site_fract_z
 _atom_site_occupancy
  Er  Er0  1  0.002622  0.763967  0.750000  1
  Er  Er1  1  0.003372  0.237929  0.250000  1
  Er  Er2  1  0.765443  0.762071  0.250000  1
  Er  Er3  1  0.763185  0.000000  0.750000  1
  Er  Er4  1  0.238657  0.236033  0.750000  1
  Er  Er5  1  0.237261  0.000000  0.250000  1
  Tm  Tm6  1  0.330874  0.666626  0.499261  1
  Tm  Tm7  1  0.664248  0.333374  0.000739  1
  Tm  Tm8  1  0.664248  0.333374  0.499261  1
  Tm  Tm9  1  0.330874  0.666626  0.000739  1
  Tl  Tl10  1  0.396874  0.000000  0.750000  1
  Tl  Tl11  1  0.394730  0.398538  0.250000  1
  Tl  Tl12  1  0.996191  0.601462  0.250000  1
  Sb  Sb13  1  0.996863  0.390379  0.750000  1
  Sb  Sb14  1  0.606484  0.609621  0.750000  1
  Sb  Sb15  1  0.608073  0.000000  0.250000  1
