# generated using pymatgen
data_Dy3Tm3Al24Os5Pt3
_symmetry_space_group_name_H-M   'P 1'
_cell_length_a   8.80594566
_cell_length_b   8.82619641
_cell_length_c   9.53149315
_cell_angle_alpha   90.14133007
_cell_angle_beta   89.69914820
_cell_angle_gamma   119.56691153
_symmetry_Int_Tables_number   1
_chemical_formula_structural   Dy3Tm3Al24Os5Pt3
_chemical_formula_sum   'Dy3 Tm3 Al24 Os5 Pt3'
_cell_volume   644.33833838
_cell_formula_units_Z   1
loop_
 _symmetry_equiv_pos_site_id
 _symmetry_equiv_pos_as_xyz
  1  'x, y, z'
loop_
 _atom_site_type_symbol
 _atom_site_label
 _atom_site_symmetry_multiplicity
 _atom_site_fract_x
 _atom_site_fract_y
 _atom_site_fract_z
 _atom_site_occupancy
  Dy  Dy0  1  0.187587  0.383080  0.250965  1
  Dy  Dy1  1  0.812223  0.616958  0.749043  1
  Dy  Dy2  1  0.614218  0.814236  0.252492  1
  Tm  Tm3  1  0.389099  0.185903  0.747274  1
  Tm  Tm4  1  0.196956  0.807885  0.252310  1
  Tm  Tm5  1  0.802394  0.192062  0.747697  1
  Al  Al6  1  0.335002  0.671371  0.030171  1
  Al  Al7  1  0.664452  0.328637  0.968888  1
  Al  Al8  1  0.669016  0.331579  0.528747  1
  Al  Al9  1  0.330684  0.668554  0.472064  1
  Al  Al10  1  0.157663  0.325143  0.576158  1
  Al  Al11  1  0.842420  0.674450  0.424412  1
  Al  Al12  1  0.673251  0.840921  0.576412  1
  Al  Al13  1  0.837158  0.676083  0.078227  1
  Al  Al14  1  0.326554  0.159122  0.424552  1
  Al  Al15  1  0.162998  0.323455  0.921114  1
  Al  Al16  1  0.163693  0.835172  0.576359  1
  Al  Al17  1  0.325525  0.158640  0.076253  1
  Al  Al18  1  0.836308  0.165379  0.424282  1
  Al  Al19  1  0.674328  0.841401  0.922833  1
  Al  Al20  1  0.831541  0.159714  0.077256  1
  Al  Al21  1  0.168459  0.840924  0.922074  1
  Al  Al22  1  0.560672  0.125286  0.249926  1
  Al  Al23  1  0.438869  0.874872  0.750127  1
  Al  Al24  1  0.874100  0.438131  0.252642  1
  Al  Al25  1  0.125783  0.561799  0.747466  1
  Al  Al26  1  0.562450  0.436383  0.249822  1
  Al  Al27  1  0.437214  0.562761  0.750200  1
  Al  Al28  1  0.000167  0.002217  0.250223  1
  Al  Al29  1  0.001794  0.998942  0.749752  1
  Os  Os30  1  0.499723  0.000394  0.999390  1
  Os  Os31  1  0.499702  0.000501  0.500716  1
  Os  Os32  1  0.999789  0.499913  0.500111  1
  Os  Os33  1  0.999773  0.999814  0.000003  1
  Os  Os34  1  0.999732  0.999773  0.499992  1
  Pt  Pt35  1  0.999637  0.499903  0.999964  1
  Pt  Pt36  1  0.499560  0.499368  0.999639  1
  Pt  Pt37  1  0.499511  0.499274  0.500445  1
