# generated using pymatgen
data_Rb4TiSnSe6
_symmetry_space_group_name_H-M   'P 1'
_cell_length_a   7.34419044
_cell_length_b   7.98616978
_cell_length_c   9.14057238
_cell_angle_alpha   74.32533956
_cell_angle_beta   69.80631769
_cell_angle_gamma   66.05049023
_symmetry_Int_Tables_number   1
_chemical_formula_structural   Rb4TiSnSe6
_chemical_formula_sum   'Rb4 Ti1 Sn1 Se6'
_cell_volume   454.52171057
_cell_formula_units_Z   1
loop_
 _symmetry_equiv_pos_site_id
 _symmetry_equiv_pos_as_xyz
  1  'x, y, z'
loop_
 _atom_site_type_symbol
 _atom_site_label
 _atom_site_symmetry_multiplicity
 _atom_site_fract_x
 _atom_site_fract_y
 _atom_site_fract_z
 _atom_site_occupancy
  Rb  Rb0  1  0.658446  0.449757  0.688604  1
  Rb  Rb1  1  0.344427  0.547130  0.308773  1
  Rb  Rb2  1  0.903946  0.804188  0.874106  1
  Rb  Rb3  1  0.091384  0.202164  0.126352  1
  Ti  Ti4  1  0.627776  0.944141  0.328047  1
  Sn  Sn5  1  0.367306  0.057815  0.680715  1
  Se  Se6  1  0.269657  0.956707  0.475379  1
  Se  Se7  1  0.744610  0.034779  0.510554  1
  Se  Se8  1  0.375818  0.811734  0.917468  1
  Se  Se9  1  0.625146  0.163251  0.096824  1
  Se  Se10  1  0.164951  0.389737  0.715683  1
  Se  Se11  1  0.826533  0.638598  0.277494  1
