# generated using pymatgen
data_Y5Er3Pt4
_symmetry_space_group_name_H-M   'P 1'
_cell_length_a   4.76468800
_cell_length_b   7.16273201
_cell_length_c   8.77649146
_cell_angle_alpha   89.91419198
_cell_angle_beta   90.00000000
_cell_angle_gamma   90.00000000
_symmetry_Int_Tables_number   1
_chemical_formula_structural   Y5Er3Pt4
_chemical_formula_sum   'Y5 Er3 Pt4'
_cell_volume   299.52537293
_cell_formula_units_Z   1
loop_
 _symmetry_equiv_pos_site_id
 _symmetry_equiv_pos_as_xyz
  1  'x, y, z'
loop_
 _atom_site_type_symbol
 _atom_site_label
 _atom_site_symmetry_multiplicity
 _atom_site_fract_x
 _atom_site_fract_y
 _atom_site_fract_z
 _atom_site_occupancy
  Y  Y0  1  0.750000  0.644640  0.420183  1
  Y  Y1  1  0.250000  0.990228  0.331176  1
  Y  Y2  1  0.250000  0.489019  0.168053  1
  Y  Y3  1  0.750000  0.011084  0.669970  1
  Y  Y4  1  0.750000  0.510694  0.830900  1
  Er  Er5  1  0.250000  0.856526  0.920765  1
  Er  Er6  1  0.250000  0.355707  0.579699  1
  Er  Er7  1  0.750000  0.143653  0.079253  1
  Pt  Pt8  1  0.250000  0.255250  0.906049  1
  Pt  Pt9  1  0.250000  0.756341  0.595973  1
  Pt  Pt10  1  0.750000  0.745022  0.091735  1
  Pt  Pt11  1  0.750000  0.241835  0.406246  1
