# generated using pymatgen
data_Hf10Zr6Pd3Pt5N4
_symmetry_space_group_name_H-M   'P 1'
_cell_length_a   8.81028042
_cell_length_b   8.81028080
_cell_length_c   8.81028144
_cell_angle_alpha   60.08271764
_cell_angle_beta   60.08271743
_cell_angle_gamma   60.08271623
_symmetry_Int_Tables_number   1
_chemical_formula_structural   Hf10Zr6Pd3Pt5N4
_chemical_formula_sum   'Hf10 Zr6 Pd3 Pt5 N4'
_cell_volume   484.47074356
_cell_formula_units_Z   1
loop_
 _symmetry_equiv_pos_site_id
 _symmetry_equiv_pos_as_xyz
  1  'x, y, z'
loop_
 _atom_site_type_symbol
 _atom_site_label
 _atom_site_symmetry_multiplicity
 _atom_site_fract_x
 _atom_site_fract_y
 _atom_site_fract_z
 _atom_site_occupancy
  Hf  Hf0  1  0.121016  0.626524  0.626524  1
  Hf  Hf1  1  0.626524  0.121016  0.626524  1
  Hf  Hf2  1  0.626524  0.626524  0.121016  1
  Hf  Hf3  1  0.626632  0.626632  0.626632  1
  Hf  Hf4  1  0.819237  0.819237  0.181035  1
  Hf  Hf5  1  0.181859  0.181859  0.818249  1
  Hf  Hf6  1  0.819237  0.181035  0.819237  1
  Hf  Hf7  1  0.181859  0.818249  0.181859  1
  Hf  Hf8  1  0.181035  0.819237  0.819237  1
  Hf  Hf9  1  0.818249  0.181859  0.181859  1
  Zr  Zr10  1  0.432654  0.432654  0.067572  1
  Zr  Zr11  1  0.067804  0.067804  0.432253  1
  Zr  Zr12  1  0.432654  0.067572  0.432654  1
  Zr  Zr13  1  0.067804  0.432253  0.067804  1
  Zr  Zr14  1  0.067572  0.432654  0.432654  1
  Zr  Zr15  1  0.432253  0.067804  0.067804  1
  Pd  Pd16  1  0.764420  0.411999  0.411999  1
  Pd  Pd17  1  0.411999  0.764420  0.411999  1
  Pd  Pd18  1  0.411999  0.411999  0.764420  1
  Pt  Pt19  1  0.408794  0.408794  0.408794  1
  Pt  Pt20  1  0.466575  0.844312  0.844312  1
  Pt  Pt21  1  0.844312  0.466575  0.844312  1
  Pt  Pt22  1  0.844312  0.844312  0.466575  1
  Pt  Pt23  1  0.844890  0.844890  0.844890  1
  N  N24  1  0.632201  0.122597  0.122597  1
  N  N25  1  0.122597  0.632201  0.122597  1
  N  N26  1  0.122597  0.122597  0.632201  1
  N  N27  1  0.122393  0.122393  0.122393  1
