# generated using pymatgen
data_Tb4DyCrRuO12
_symmetry_space_group_name_H-M   'P 1'
_cell_length_a   6.82019737
_cell_length_b   6.82025112
_cell_length_c   7.27291000
_cell_angle_alpha   74.43731608
_cell_angle_beta   74.44189066
_cell_angle_gamma   50.83322573
_symmetry_Int_Tables_number   1
_chemical_formula_structural   Tb4DyCrRuO12
_chemical_formula_sum   'Tb4 Dy1 Cr1 Ru1 O12'
_cell_volume   250.45458412
_cell_formula_units_Z   1
loop_
 _symmetry_equiv_pos_site_id
 _symmetry_equiv_pos_as_xyz
  1  'x, y, z'
loop_
 _atom_site_type_symbol
 _atom_site_label
 _atom_site_symmetry_multiplicity
 _atom_site_fract_x
 _atom_site_fract_y
 _atom_site_fract_z
 _atom_site_occupancy
  Tb  Tb0  1  0.692834  0.701556  0.140644  1
  Tb  Tb1  1  0.998475  0.001554  0.000032  1
  Tb  Tb2  1  0.298313  0.306974  0.858755  1
  Tb  Tb3  1  0.307884  0.307414  0.332286  1
  Dy  Dy4  1  0.692377  0.691972  0.667780  1
  Cr  Cr5  1  0.250933  0.749105  0.500532  1
  Ru  Ru6  1  0.761225  0.238837  0.500225  1
  O  O7  1  0.400310  0.905248  0.923922  1
  O  O8  1  0.574519  0.094598  0.583025  1
  O  O9  1  0.903491  0.427209  0.418212  1
  O  O10  1  0.093876  0.600138  0.074856  1
  O  O11  1  0.003358  0.998136  0.317809  1
  O  O12  1  0.502758  0.497375  0.684417  1
  O  O13  1  0.898924  0.406417  0.924005  1
  O  O14  1  0.099371  0.580199  0.580862  1
  O  O15  1  0.421195  0.899146  0.419916  1
  O  O16  1  0.594190  0.100234  0.074653  1
  O  O17  1  0.501808  0.498390  0.316639  1
  O  O18  1  0.004158  0.995498  0.681429  1
