# generated using pymatgen
data_Er10(PdPt5)3
_symmetry_space_group_name_H-M   'P 1'
_cell_length_a   9.72787194
_cell_length_b   9.72787194
_cell_length_c   5.74672630
_cell_angle_alpha   90.02625508
_cell_angle_beta   89.97374492
_cell_angle_gamma   90.04295182
_symmetry_Int_Tables_number   1
_chemical_formula_structural   Er10(PdPt5)3
_chemical_formula_sum   'Er10 Pd3 Pt15'
_cell_volume   543.82101972
_cell_formula_units_Z   1
loop_
 _symmetry_equiv_pos_site_id
 _symmetry_equiv_pos_as_xyz
  1  'x, y, z'
loop_
 _atom_site_type_symbol
 _atom_site_label
 _atom_site_symmetry_multiplicity
 _atom_site_fract_x
 _atom_site_fract_y
 _atom_site_fract_z
 _atom_site_occupancy
  Er  Er0  1  0.453019  0.811926  0.999384  1
  Er  Er1  1  0.547473  0.188173  0.000458  1
  Er  Er2  1  0.188074  0.546981  0.999384  1
  Er  Er3  1  0.811827  0.452527  0.000458  1
  Er  Er4  1  0.499735  0.500265  0.499364  1
  Er  Er5  1  0.311903  0.047532  0.500772  1
  Er  Er6  1  0.688484  0.952416  0.499918  1
  Er  Er7  1  0.952468  0.688097  0.500772  1
  Er  Er8  1  0.047584  0.311516  0.499918  1
  Er  Er9  1  0.999804  0.000196  0.998730  1
  Pd  Pd10  1  0.190683  0.809317  0.250170  1
  Pd  Pd11  1  0.000091  0.999909  0.499488  1
  Pd  Pd12  1  0.499518  0.500482  0.999780  1
  Pt  Pt13  1  0.808322  0.191678  0.749504  1
  Pt  Pt14  1  0.808412  0.191588  0.251563  1
  Pt  Pt15  1  0.192362  0.807638  0.749120  1
  Pt  Pt16  1  0.440315  0.781294  0.499916  1
  Pt  Pt17  1  0.559007  0.218968  0.500430  1
  Pt  Pt18  1  0.218706  0.559685  0.499916  1
  Pt  Pt19  1  0.781032  0.440993  0.500430  1
  Pt  Pt20  1  0.308501  0.308463  0.248665  1
  Pt  Pt21  1  0.691539  0.690902  0.751318  1
  Pt  Pt22  1  0.691537  0.691499  0.248665  1
  Pt  Pt23  1  0.309098  0.308461  0.751318  1
  Pt  Pt24  1  0.281033  0.058613  0.000381  1
  Pt  Pt25  1  0.718896  0.940809  0.999898  1
  Pt  Pt26  1  0.941387  0.718967  0.000381  1
  Pt  Pt27  1  0.059191  0.281104  0.999898  1
