# generated using pymatgen
data_Ho4Ga4CuIrRh2
_symmetry_space_group_name_H-M   'P 1'
_cell_length_a   4.20332800
_cell_length_b   6.82017242
_cell_length_c   7.89982500
_cell_angle_alpha   89.75291953
_cell_angle_beta   90.00000000
_cell_angle_gamma   90.00000000
_symmetry_Int_Tables_number   1
_chemical_formula_structural   Ho4Ga4CuIrRh2
_chemical_formula_sum   'Ho4 Ga4 Cu1 Ir1 Rh2'
_cell_volume   226.46550872
_cell_formula_units_Z   1
loop_
 _symmetry_equiv_pos_site_id
 _symmetry_equiv_pos_as_xyz
  1  'x, y, z'
loop_
 _atom_site_type_symbol
 _atom_site_label
 _atom_site_symmetry_multiplicity
 _atom_site_fract_x
 _atom_site_fract_y
 _atom_site_fract_z
 _atom_site_occupancy
  Ho  Ho0  1  0.250000  0.528694  0.190513  1
  Ho  Ho1  1  0.750000  0.462271  0.816043  1
  Ho  Ho2  1  0.750000  0.973286  0.681508  1
  Ho  Ho3  1  0.250000  0.031523  0.315634  1
  Ga  Ga4  1  0.250000  0.648056  0.566465  1
  Ga  Ga5  1  0.750000  0.352831  0.435311  1
  Ga  Ga6  1  0.750000  0.848427  0.057016  1
  Ga  Ga7  1  0.250000  0.149970  0.936891  1
  Cu  Cu8  1  0.250000  0.770474  0.878495  1
  Ir  Ir9  1  0.250000  0.262328  0.622894  1
  Rh  Rh10  1  0.750000  0.234524  0.119205  1
  Rh  Rh11  1  0.750000  0.737613  0.380027  1
