# generated using pymatgen
data_NdCoNi(PRu)3
_symmetry_space_group_name_H-M   'P 1'
_cell_length_a   3.82939200
_cell_length_b   10.74765100
_cell_length_c   12.25081100
_cell_angle_alpha   90.00000000
_cell_angle_beta   90.00000000
_cell_angle_gamma   90.00000000
_symmetry_Int_Tables_number   1
_chemical_formula_structural   NdCoNi(PRu)3
_chemical_formula_sum   'Nd4 Co4 Ni4 P12 Ru12'
_cell_volume   504.20624559
_cell_formula_units_Z   4
loop_
 _symmetry_equiv_pos_site_id
 _symmetry_equiv_pos_as_xyz
  1  'x, y, z'
loop_
 _atom_site_type_symbol
 _atom_site_label
 _atom_site_symmetry_multiplicity
 _atom_site_fract_x
 _atom_site_fract_y
 _atom_site_fract_z
 _atom_site_occupancy
  Nd  Nd0  1  0.250000  0.585466  0.707188  1
  Nd  Nd1  1  0.250000  0.914534  0.207188  1
  Nd  Nd2  1  0.750000  0.414534  0.292812  1
  Nd  Nd3  1  0.750000  0.085466  0.792812  1
  Co  Co4  1  0.250000  0.462647  0.933203  1
  Co  Co5  1  0.250000  0.037353  0.433203  1
  Co  Co6  1  0.750000  0.537353  0.066797  1
  Co  Co7  1  0.750000  0.962647  0.566797  1
  Ni  Ni8  1  0.250000  0.887083  0.696278  1
  Ni  Ni9  1  0.250000  0.612917  0.196278  1
  Ni  Ni10  1  0.750000  0.112917  0.303722  1
  Ni  Ni11  1  0.750000  0.387083  0.803722  1
  P  P12  1  0.250000  0.422677  0.107720  1
  P  P13  1  0.250000  0.077323  0.607720  1
  P  P14  1  0.750000  0.577323  0.892280  1
  P  P15  1  0.750000  0.922677  0.392280  1
  P  P16  1  0.250000  0.272858  0.873819  1
  P  P17  1  0.250000  0.227142  0.373819  1
  P  P18  1  0.750000  0.727142  0.126181  1
  P  P19  1  0.750000  0.772858  0.626181  1
  P  P20  1  0.250000  0.604245  0.391632  1
  P  P21  1  0.250000  0.895755  0.891632  1
  P  P22  1  0.750000  0.395755  0.608368  1
  P  P23  1  0.750000  0.104245  0.108368  1
  Ru  Ru24  1  0.250000  0.706488  0.986594  1
  Ru  Ru25  1  0.250000  0.793512  0.486594  1
  Ru  Ru26  1  0.750000  0.293512  0.013406  1
  Ru  Ru27  1  0.750000  0.206488  0.513406  1
  Ru  Ru28  1  0.250000  0.405039  0.487387  1
  Ru  Ru29  1  0.250000  0.094961  0.987387  1
  Ru  Ru30  1  0.750000  0.594961  0.512613  1
  Ru  Ru31  1  0.750000  0.905039  0.012613  1
  Ru  Ru32  1  0.250000  0.222083  0.180550  1
  Ru  Ru33  1  0.250000  0.277917  0.680550  1
  Ru  Ru34  1  0.750000  0.777917  0.819450  1
  Ru  Ru35  1  0.750000  0.722083  0.319450  1
