# generated using pymatgen
data_Zr5AlBiTe
_symmetry_space_group_name_H-M   'P 1'
_cell_length_a   5.57880709
_cell_length_b   8.44798443
_cell_length_c   8.45625800
_cell_angle_alpha   83.74717991
_cell_angle_beta   70.73955097
_cell_angle_gamma   70.71996063
_symmetry_Int_Tables_number   1
_chemical_formula_structural   Zr5AlBiTe
_chemical_formula_sum   'Zr10 Al2 Bi2 Te2'
_cell_volume   355.13323641
_cell_formula_units_Z   2
loop_
 _symmetry_equiv_pos_site_id
 _symmetry_equiv_pos_as_xyz
  1  'x, y, z'
loop_
 _atom_site_type_symbol
 _atom_site_label
 _atom_site_symmetry_multiplicity
 _atom_site_fract_x
 _atom_site_fract_y
 _atom_site_fract_z
 _atom_site_occupancy
  Zr  Zr0  1  0.250586  0.500000  0.500000  1
  Zr  Zr1  1  0.749414  0.500000  0.500000  1
  Zr  Zr2  1  0.077361  0.133672  0.711607  1
  Zr  Zr3  1  0.922639  0.866328  0.288393  1
  Zr  Zr4  1  0.785992  0.284929  0.143087  1
  Zr  Zr5  1  0.429079  0.284929  0.856913  1
  Zr  Zr6  1  0.214008  0.715071  0.856913  1
  Zr  Zr7  1  0.570921  0.715071  0.143087  1
  Zr  Zr8  1  0.711033  0.866328  0.711607  1
  Zr  Zr9  1  0.288967  0.133672  0.288393  1
  Al  Al10  1  0.250000  0.000000  0.000000  1
  Al  Al11  1  0.750000  0.000000  0.000000  1
  Bi  Bi12  1  0.166235  0.500000  0.167531  1
  Bi  Bi13  1  0.833765  0.500000  0.832469  1
  Te  Te14  1  0.336532  0.826936  0.500000  1
  Te  Te15  1  0.663468  0.173064  0.500000  1
