# generated using pymatgen
data_Th3Al3ZnFePt
_symmetry_space_group_name_H-M   'P 1'
_cell_length_a   7.16467600
_cell_length_b   7.16467650
_cell_length_c   4.22025500
_cell_angle_alpha   90.00000000
_cell_angle_beta   90.00000000
_cell_angle_gamma   119.99999770
_symmetry_Int_Tables_number   1
_chemical_formula_structural   Th3Al3ZnFePt
_chemical_formula_sum   'Th3 Al3 Zn1 Fe1 Pt1'
_cell_volume   187.61280477
_cell_formula_units_Z   1
loop_
 _symmetry_equiv_pos_site_id
 _symmetry_equiv_pos_as_xyz
  1  'x, y, z'
loop_
 _atom_site_type_symbol
 _atom_site_label
 _atom_site_symmetry_multiplicity
 _atom_site_fract_x
 _atom_site_fract_y
 _atom_site_fract_z
 _atom_site_occupancy
  Th  Th0  1  0.416675  0.433908  0.500000  1
  Th  Th1  1  0.566092  0.982767  0.500000  1
  Th  Th2  1  0.017233  0.583325  0.500000  1
  Al  Al3  1  0.760563  0.772327  0.000000  1
  Al  Al4  1  0.227673  0.988237  0.000000  1
  Al  Al5  1  0.011763  0.239437  0.000000  1
  Zn  Zn6  1  0.666667  0.333333  0.000000  1
  Fe  Fe7  1  0.333333  0.666667  0.000000  1
  Pt  Pt8  1  0.000000  0.000000  0.500000  1
