# generated using pymatgen
data_Pr4MgAl19Pt12
_symmetry_space_group_name_H-M   'P 1'
_cell_length_a   4.16787700
_cell_length_b   7.44909021
_cell_length_c   20.76786763
_cell_angle_alpha   90.02755543
_cell_angle_beta   89.99999449
_cell_angle_gamma   89.99997087
_symmetry_Int_Tables_number   1
_chemical_formula_structural   Pr4MgAl19Pt12
_chemical_formula_sum   'Pr4 Mg1 Al19 Pt12'
_cell_volume   644.77766334
_cell_formula_units_Z   1
loop_
 _symmetry_equiv_pos_site_id
 _symmetry_equiv_pos_as_xyz
  1  'x, y, z'
loop_
 _atom_site_type_symbol
 _atom_site_label
 _atom_site_symmetry_multiplicity
 _atom_site_fract_x
 _atom_site_fract_y
 _atom_site_fract_z
 _atom_site_occupancy
  Pr  Pr0  1  0.250000  0.118187  0.640092  1
  Pr  Pr1  1  0.750000  0.882096  0.359247  1
  Pr  Pr2  1  0.250001  0.384022  0.138686  1
  Pr  Pr3  1  0.750000  0.616713  0.860214  1
  Mg  Mg4  1  0.750000  0.356940  0.384166  1
  Al  Al5  1  0.750000  0.887677  0.982566  1
  Al  Al6  1  0.750000  0.690162  0.199824  1
  Al  Al7  1  0.250000  0.866450  0.494636  1
  Al  Al8  1  0.250000  0.632043  0.991281  1
  Al  Al9  1  0.250000  0.311823  0.799569  1
  Al  Al10  1  0.750000  0.074302  0.208817  1
  Al  Al11  1  0.250000  0.643340  0.616732  1
  Al  Al12  1  0.250000  0.573397  0.291743  1
  Al  Al13  1  0.250000  0.187762  0.299138  1
  Al  Al14  1  0.750000  0.146146  0.883541  1
  Al  Al15  1  0.250000  0.924239  0.791160  1
  Al  Al16  1  0.750000  0.368194  0.008139  1
  Al  Al17  1  0.749998  0.616531  0.483953  1
  Al  Al18  1  0.750000  0.129747  0.509623  1
  Al  Al19  1  0.250000  0.112754  0.017236  1
  Al  Al20  1  0.250000  0.854377  0.116105  1
  Al  Al21  1  0.250000  0.387681  0.514859  1
  Al  Al22  1  0.750000  0.423960  0.708415  1
  Al  Al23  1  0.750000  0.812137  0.700898  1
  Pt  Pt24  1  0.750000  0.384087  0.258064  1
  Pt  Pt25  1  0.250000  0.881540  0.237237  1
  Pt  Pt26  1  0.250000  0.616268  0.737655  1
  Pt  Pt27  1  0.750000  0.117173  0.762738  1
  Pt  Pt28  1  0.250000  0.152073  0.430403  1
  Pt  Pt29  1  0.750000  0.421933  0.584097  1
  Pt  Pt30  1  0.750000  0.076985  0.084756  1
  Pt  Pt31  1  0.249999  0.923545  0.915340  1
  Pt  Pt32  1  0.750000  0.835544  0.573585  1
  Pt  Pt33  1  0.250000  0.335781  0.928193  1
  Pt  Pt34  1  0.750000  0.664134  0.071401  1
  Pt  Pt35  1  0.250000  0.590255  0.415893  1
