# generated using pymatgen
data_Y7Tm(Ge4Mo3)4
_symmetry_space_group_name_H-M   'P 1'
_cell_length_a   6.94398258
_cell_length_b   7.06469447
_cell_length_c   13.15365271
_cell_angle_alpha   90.02128871
_cell_angle_beta   90.00929949
_cell_angle_gamma   90.00364281
_symmetry_Int_Tables_number   1
_chemical_formula_structural   Y7Tm(Ge4Mo3)4
_chemical_formula_sum   'Y7 Tm1 Ge16 Mo12'
_cell_volume   645.28020407
_cell_formula_units_Z   1
loop_
 _symmetry_equiv_pos_site_id
 _symmetry_equiv_pos_as_xyz
  1  'x, y, z'
loop_
 _atom_site_type_symbol
 _atom_site_label
 _atom_site_symmetry_multiplicity
 _atom_site_fract_x
 _atom_site_fract_y
 _atom_site_fract_z
 _atom_site_occupancy
  Y  Y0  1  0.490165  0.330628  0.092431  1
  Y  Y1  1  0.990301  0.169345  0.407648  1
  Y  Y2  1  0.509947  0.669280  0.592448  1
  Y  Y3  1  0.009614  0.830755  0.908155  1
  Y  Y4  1  0.509514  0.669658  0.908039  1
  Y  Y5  1  0.009735  0.830438  0.592416  1
  Y  Y6  1  0.489997  0.330697  0.407007  1
  Tm  Tm7  1  0.989063  0.169948  0.092705  1
  Ge  Ge8  1  0.668534  0.046584  0.548281  1
  Ge  Ge9  1  0.168177  0.452782  0.952244  1
  Ge  Ge10  1  0.329638  0.954910  0.048656  1
  Ge  Ge11  1  0.831472  0.546575  0.451471  1
  Ge  Ge12  1  0.331646  0.953353  0.451458  1
  Ge  Ge13  1  0.831987  0.545121  0.048572  1
  Ge  Ge14  1  0.669040  0.046486  0.952229  1
  Ge  Ge15  1  0.168700  0.453485  0.548260  1
  Ge  Ge16  1  0.530400  0.366029  0.750299  1
  Ge  Ge17  1  0.030312  0.133545  0.750043  1
  Ge  Ge18  1  0.469926  0.634280  0.249599  1
  Ge  Ge19  1  0.970225  0.867250  0.249368  1
  Ge  Ge20  1  0.810292  0.642363  0.750388  1
  Ge  Ge21  1  0.310148  0.857254  0.750211  1
  Ge  Ge22  1  0.188640  0.356475  0.249093  1
  Ge  Ge23  1  0.690800  0.142788  0.249424  1
  Mo  Mo24  1  0.830430  0.343458  0.627094  1
  Mo  Mo25  1  0.329979  0.156459  0.873363  1
  Mo  Mo26  1  0.169851  0.656554  0.126936  1
  Mo  Mo27  1  0.670083  0.843719  0.372600  1
  Mo  Mo28  1  0.169609  0.656406  0.372497  1
  Mo  Mo29  1  0.670704  0.844197  0.126596  1
  Mo  Mo30  1  0.830622  0.342793  0.873586  1
  Mo  Mo31  1  0.330435  0.156401  0.627045  1
  Mo  Mo32  1  0.665862  0.005103  0.750230  1
  Mo  Mo33  1  0.165988  0.494455  0.750225  1
  Mo  Mo34  1  0.333912  0.995377  0.249699  1
  Mo  Mo35  1  0.834250  0.505046  0.249683  1
