# generated using pymatgen
data_Sm5Lu3(Si3Ni)4
_symmetry_space_group_name_H-M   'P 1'
_cell_length_a   7.99735500
_cell_length_b   7.99735560
_cell_length_c   8.19497200
_cell_angle_alpha   90.00000000
_cell_angle_beta   90.00000000
_cell_angle_gamma   120.00000164
_symmetry_Int_Tables_number   1
_chemical_formula_structural   Sm5Lu3(Si3Ni)4
_chemical_formula_sum   'Sm5 Lu3 Si12 Ni4'
_cell_volume   453.91118086
_cell_formula_units_Z   1
loop_
 _symmetry_equiv_pos_site_id
 _symmetry_equiv_pos_as_xyz
  1  'x, y, z'
loop_
 _atom_site_type_symbol
 _atom_site_label
 _atom_site_symmetry_multiplicity
 _atom_site_fract_x
 _atom_site_fract_y
 _atom_site_fract_z
 _atom_site_occupancy
  Sm  Sm0  1  0.000000  0.000000  0.250000  1
  Sm  Sm1  1  0.000000  0.000000  0.750000  1
  Sm  Sm2  1  0.499887  0.500113  0.250000  1
  Sm  Sm3  1  0.499887  0.999773  0.250000  1
  Sm  Sm4  1  0.000227  0.500113  0.250000  1
  Lu  Lu5  1  0.500383  0.499617  0.750000  1
  Lu  Lu6  1  0.999235  0.499617  0.750000  1
  Lu  Lu7  1  0.500383  0.000765  0.750000  1
  Si  Si8  1  0.828520  0.171480  0.505256  1
  Si  Si9  1  0.828520  0.657042  0.505256  1
  Si  Si10  1  0.342958  0.171480  0.505256  1
  Si  Si11  1  0.828520  0.171480  0.994744  1
  Si  Si12  1  0.828520  0.657042  0.994744  1
  Si  Si13  1  0.342958  0.171480  0.994744  1
  Si  Si14  1  0.171527  0.828473  0.994412  1
  Si  Si15  1  0.656946  0.828473  0.994412  1
  Si  Si16  1  0.171527  0.343054  0.994412  1
  Si  Si17  1  0.171527  0.828473  0.505588  1
  Si  Si18  1  0.656946  0.828473  0.505588  1
  Si  Si19  1  0.171527  0.343054  0.505588  1
  Ni  Ni20  1  0.666667  0.333333  0.515533  1
  Ni  Ni21  1  0.666667  0.333333  0.984467  1
  Ni  Ni22  1  0.333333  0.666667  0.982287  1
  Ni  Ni23  1  0.333333  0.666667  0.517713  1
