# generated using pymatgen
data_Yb7CeP6
_symmetry_space_group_name_H-M   'P 1'
_cell_length_a   7.51515213
_cell_length_b   7.51515171
_cell_length_c   7.51515366
_cell_angle_alpha   109.63103899
_cell_angle_beta   109.63103490
_cell_angle_gamma   109.63102008
_symmetry_Int_Tables_number   1
_chemical_formula_structural   Yb7CeP6
_chemical_formula_sum   'Yb7 Ce1 P6'
_cell_volume   324.78427295
_cell_formula_units_Z   1
loop_
 _symmetry_equiv_pos_site_id
 _symmetry_equiv_pos_as_xyz
  1  'x, y, z'
loop_
 _atom_site_type_symbol
 _atom_site_label
 _atom_site_symmetry_multiplicity
 _atom_site_fract_x
 _atom_site_fract_y
 _atom_site_fract_z
 _atom_site_occupancy
  Yb  Yb0  1  0.140521  0.140521  0.140521  1
  Yb  Yb1  1  0.491879  0.002581  0.866373  1
  Yb  Yb2  1  0.866373  0.491879  0.002581  1
  Yb  Yb3  1  0.002581  0.866373  0.491879  1
  Yb  Yb4  1  0.360200  0.498834  0.999401  1
  Yb  Yb5  1  0.999401  0.360200  0.498834  1
  Yb  Yb6  1  0.498834  0.999401  0.360200  1
  Ce  Ce7  1  0.644039  0.644039  0.644039  1
  P  P8  1  0.626274  0.382353  0.260519  1
  P  P9  1  0.260519  0.626274  0.382353  1
  P  P10  1  0.744984  0.869518  0.112522  1
  P  P11  1  0.112522  0.744984  0.869518  1
  P  P12  1  0.382353  0.260519  0.626274  1
  P  P13  1  0.869518  0.112522  0.744984  1
