# generated using pymatgen
data_Y16Cd4CoNiIr2
_symmetry_space_group_name_H-M   'P 1'
_cell_length_a   9.62364759
_cell_length_b   9.62706905
_cell_length_c   9.67059400
_cell_angle_alpha   59.85033014
_cell_angle_beta   59.83849768
_cell_angle_gamma   59.67627963
_symmetry_Int_Tables_number   1
_chemical_formula_structural   Y16Cd4CoNiIr2
_chemical_formula_sum   'Y16 Cd4 Co1 Ni1 Ir2'
_cell_volume   630.48944081
_cell_formula_units_Z   1
loop_
 _symmetry_equiv_pos_site_id
 _symmetry_equiv_pos_as_xyz
  1  'x, y, z'
loop_
 _atom_site_type_symbol
 _atom_site_label
 _atom_site_symmetry_multiplicity
 _atom_site_fract_x
 _atom_site_fract_y
 _atom_site_fract_z
 _atom_site_occupancy
  Y  Y0  1  0.599161  0.601941  0.593145  1
  Y  Y1  1  0.599161  0.601941  0.205754  1
  Y  Y2  1  0.603442  0.201608  0.597475  1
  Y  Y3  1  0.203473  0.604455  0.596036  1
  Y  Y4  1  0.058937  0.437945  0.440864  1
  Y  Y5  1  0.437204  0.056797  0.065575  1
  Y  Y6  1  0.437204  0.056797  0.440423  1
  Y  Y7  1  0.058937  0.437945  0.062253  1
  Y  Y8  1  0.439232  0.439420  0.060674  1
  Y  Y9  1  0.063923  0.058151  0.438963  1
  Y  Y10  1  0.188153  0.811221  0.813987  1
  Y  Y11  1  0.810663  0.187857  0.185918  1
  Y  Y12  1  0.810663  0.187857  0.815562  1
  Y  Y13  1  0.188153  0.811221  0.186639  1
  Y  Y14  1  0.813646  0.815787  0.185284  1
  Y  Y15  1  0.188947  0.189094  0.810980  1
  Cd  Cd16  1  0.829651  0.829876  0.832303  1
  Cd  Cd17  1  0.829651  0.829876  0.508168  1
  Cd  Cd18  1  0.829809  0.507020  0.831585  1
  Cd  Cd19  1  0.506737  0.830026  0.831618  1
  Co  Co20  1  0.391929  0.826165  0.390953  1
  Ni  Ni21  1  0.825636  0.391839  0.391263  1
  Ir  Ir22  1  0.392844  0.392579  0.391079  1
  Ir  Ir23  1  0.392844  0.392579  0.823499  1
