# generated using pymatgen
data_Tb5CeTh2(ReB6)4
_symmetry_space_group_name_H-M   'P 1'
_cell_length_a   3.75614400
_cell_length_b   9.25689716
_cell_length_c   11.66127210
_cell_angle_alpha   90.08810286
_cell_angle_beta   90.00000000
_cell_angle_gamma   90.00000000
_symmetry_Int_Tables_number   1
_chemical_formula_structural   Tb5CeTh2(ReB6)4
_chemical_formula_sum   'Tb5 Ce1 Th2 Re4 B24'
_cell_volume   405.46473560
_cell_formula_units_Z   1
loop_
 _symmetry_equiv_pos_site_id
 _symmetry_equiv_pos_as_xyz
  1  'x, y, z'
loop_
 _atom_site_type_symbol
 _atom_site_label
 _atom_site_symmetry_multiplicity
 _atom_site_fract_x
 _atom_site_fract_y
 _atom_site_fract_z
 _atom_site_occupancy
  Tb  Tb0  1  0.000000  0.177288  0.913538  1
  Tb  Tb1  1  0.000000  0.945370  0.372701  1
  Tb  Tb2  1  0.000000  0.056987  0.628129  1
  Tb  Tb3  1  0.000000  0.442019  0.127950  1
  Tb  Tb4  1  0.000000  0.555313  0.871636  1
  Ce  Ce5  1  0.000000  0.321647  0.414269  1
  Th  Th6  1  0.000000  0.677607  0.586175  1
  Th  Th7  1  0.000000  0.823696  0.085829  1
  Re  Re8  1  0.000000  0.637331  0.320738  1
  Re  Re9  1  0.000000  0.361581  0.678527  1
  Re  Re10  1  0.000000  0.139458  0.179754  1
  Re  Re11  1  0.000000  0.861866  0.821096  1
  B  B12  1  0.500000  0.553668  0.430197  1
  B  B13  1  0.500000  0.443853  0.568833  1
  B  B14  1  0.500000  0.055840  0.067992  1
  B  B15  1  0.500000  0.946779  0.931083  1
  B  B16  1  0.500000  0.748287  0.416936  1
  B  B17  1  0.500000  0.251429  0.582248  1
  B  B18  1  0.500000  0.248244  0.081337  1
  B  B19  1  0.500000  0.752343  0.916938  1
  B  B20  1  0.500000  0.790184  0.266966  1
  B  B21  1  0.500000  0.208401  0.734164  1
  B  B22  1  0.500000  0.290766  0.233322  1
  B  B23  1  0.500000  0.709991  0.767282  1
  B  B24  1  0.500000  0.630074  0.186761  1
  B  B25  1  0.500000  0.367554  0.814447  1
  B  B26  1  0.500000  0.132578  0.313899  1
  B  B27  1  0.500000  0.869965  0.687298  1
  B  B28  1  0.500000  0.986473  0.212948  1
  B  B29  1  0.500000  0.017268  0.787334  1
  B  B30  1  0.500000  0.483421  0.286986  1
  B  B31  1  0.500000  0.513688  0.713592  1
  B  B32  1  0.500000  0.601737  0.028492  1
  B  B33  1  0.500000  0.394678  0.970562  1
  B  B34  1  0.500000  0.107909  0.470498  1
  B  B35  1  0.500000  0.894708  0.529541  1
