# generated using pymatgen
data_Tb5Pr3(CdIr)2
_symmetry_space_group_name_H-M   'P 1'
_cell_length_a   9.81214266
_cell_length_b   9.81214266
_cell_length_c   9.81214300
_cell_angle_alpha   60.00000224
_cell_angle_beta   60.00000223
_cell_angle_gamma   59.99999955
_symmetry_Int_Tables_number   1
_chemical_formula_structural   Tb5Pr3(CdIr)2
_chemical_formula_sum   'Tb10 Pr6 Cd4 Ir4'
_cell_volume   668.00019939
_cell_formula_units_Z   2
loop_
 _symmetry_equiv_pos_site_id
 _symmetry_equiv_pos_as_xyz
  1  'x, y, z'
loop_
 _atom_site_type_symbol
 _atom_site_label
 _atom_site_symmetry_multiplicity
 _atom_site_fract_x
 _atom_site_fract_y
 _atom_site_fract_z
 _atom_site_occupancy
  Tb  Tb0  1  0.347188  0.347188  0.347188  1
  Tb  Tb1  1  0.347188  0.347188  0.958435  1
  Tb  Tb2  1  0.347188  0.958435  0.347188  1
  Tb  Tb3  1  0.958435  0.347188  0.347188  1
  Tb  Tb4  1  0.812265  0.187735  0.187735  1
  Tb  Tb5  1  0.187735  0.812265  0.812265  1
  Tb  Tb6  1  0.187735  0.812265  0.187735  1
  Tb  Tb7  1  0.812265  0.187735  0.812265  1
  Tb  Tb8  1  0.187735  0.187735  0.812265  1
  Tb  Tb9  1  0.812265  0.812265  0.187735  1
  Pr  Pr10  1  0.940864  0.559136  0.559136  1
  Pr  Pr11  1  0.559136  0.940864  0.940864  1
  Pr  Pr12  1  0.559136  0.940864  0.559136  1
  Pr  Pr13  1  0.940864  0.559136  0.940864  1
  Pr  Pr14  1  0.559136  0.559136  0.940864  1
  Pr  Pr15  1  0.940864  0.940864  0.559136  1
  Cd  Cd16  1  0.579255  0.579255  0.579255  1
  Cd  Cd17  1  0.579255  0.579255  0.262233  1
  Cd  Cd18  1  0.579255  0.262233  0.579255  1
  Cd  Cd19  1  0.262233  0.579255  0.579255  1
  Ir  Ir20  1  0.141251  0.141251  0.141251  1
  Ir  Ir21  1  0.141251  0.141251  0.576246  1
  Ir  Ir22  1  0.141251  0.576246  0.141251  1
  Ir  Ir23  1  0.576246  0.141251  0.141251  1
