# generated using pymatgen
data_DyYSi2Pt3
_symmetry_space_group_name_H-M   'P 1'
_cell_length_a   4.19814400
_cell_length_b   6.70350925
_cell_length_c   8.92245134
_cell_angle_alpha   90.03155362
_cell_angle_beta   90.00000000
_cell_angle_gamma   90.00000000
_symmetry_Int_Tables_number   1
_chemical_formula_structural   DyYSi2Pt3
_chemical_formula_sum   'Dy2 Y2 Si4 Pt6'
_cell_volume   251.09823883
_cell_formula_units_Z   2
loop_
 _symmetry_equiv_pos_site_id
 _symmetry_equiv_pos_as_xyz
  1  'x, y, z'
loop_
 _atom_site_type_symbol
 _atom_site_label
 _atom_site_symmetry_multiplicity
 _atom_site_fract_x
 _atom_site_fract_y
 _atom_site_fract_z
 _atom_site_occupancy
  Dy  Dy0  1  0.000000  0.388039  0.170706  1
  Dy  Dy1  1  0.000000  0.611961  0.829294  1
  Y  Y2  1  0.000000  0.887993  0.329189  1
  Y  Y3  1  0.000000  0.112007  0.670811  1
  Si  Si4  1  0.500000  0.574149  0.357462  1
  Si  Si5  1  0.500000  0.425851  0.642538  1
  Si  Si6  1  0.500000  0.074247  0.142556  1
  Si  Si7  1  0.500000  0.925753  0.857444  1
  Pt  Pt8  1  0.500000  0.694737  0.090674  1
  Pt  Pt9  1  0.500000  0.305263  0.909326  1
  Pt  Pt10  1  0.500000  0.195500  0.409044  1
  Pt  Pt11  1  0.500000  0.804500  0.590956  1
  Pt  Pt12  1  0.000000  0.500000  0.500000  1
  Pt  Pt13  1  0.000000  0.000000  0.000000  1
