# generated using pymatgen
data_Sc6Zn20Au3Se
_symmetry_space_group_name_H-M   'P 1'
_cell_length_a   8.83551411
_cell_length_b   8.83554849
_cell_length_c   8.80711000
_cell_angle_alpha   59.96903466
_cell_angle_beta   59.97014913
_cell_angle_gamma   59.60097220
_symmetry_Int_Tables_number   1
_chemical_formula_structural   Sc6Zn20Au3Se
_chemical_formula_sum   'Sc6 Zn20 Au3 Se1'
_cell_volume   484.46050571
_cell_formula_units_Z   1
loop_
 _symmetry_equiv_pos_site_id
 _symmetry_equiv_pos_as_xyz
  1  'x, y, z'
loop_
 _atom_site_type_symbol
 _atom_site_label
 _atom_site_symmetry_multiplicity
 _atom_site_fract_x
 _atom_site_fract_y
 _atom_site_fract_z
 _atom_site_occupancy
  Sc  Sc0  1  0.713823  0.288656  0.287618  1
  Sc  Sc1  1  0.284777  0.716305  0.710621  1
  Sc  Sc2  1  0.288650  0.713831  0.287610  1
  Sc  Sc3  1  0.716306  0.284771  0.710627  1
  Sc  Sc4  1  0.288881  0.288880  0.710524  1
  Sc  Sc5  1  0.711034  0.711036  0.286696  1
  Zn  Zn6  1  0.123581  0.629701  0.121944  1
  Zn  Zn7  1  0.877021  0.877031  0.370613  1
  Zn  Zn8  1  0.879247  0.366242  0.875743  1
  Zn  Zn9  1  0.629707  0.123578  0.121950  1
  Zn  Zn10  1  0.366245  0.879246  0.875741  1
  Zn  Zn11  1  0.498084  0.001292  0.998350  1
  Zn  Zn12  1  0.999168  0.507181  0.494247  1
  Zn  Zn13  1  0.001292  0.498086  0.998352  1
  Zn  Zn14  1  0.507178  0.999165  0.494254  1
  Zn  Zn15  1  0.999405  0.999407  0.500406  1
  Zn  Zn16  1  0.500537  0.500532  0.998693  1
  Zn  Zn17  1  0.335524  0.335527  0.333240  1
  Zn  Zn18  1  0.664778  0.664769  0.665166  1
  Zn  Zn19  1  0.335318  0.335313  0.995936  1
  Zn  Zn20  1  0.333125  0.000326  0.333473  1
  Zn  Zn21  1  0.665760  0.665763  0.000514  1
  Zn  Zn22  1  0.666505  0.001522  0.665335  1
  Zn  Zn23  1  0.000319  0.333126  0.333482  1
  Zn  Zn24  1  0.001525  0.666503  0.665331  1
  Zn  Zn25  1  0.993585  0.993580  0.012620  1
  Au  Au26  1  0.118431  0.118444  0.117971  1
  Au  Au27  1  0.877805  0.877800  0.886523  1
  Au  Au28  1  0.122573  0.122561  0.644423  1
  Se  Se29  1  0.499814  0.499820  0.501998  1
