# generated using pymatgen
data_Rb2FeP2Rh
_symmetry_space_group_name_H-M   'P 1'
_cell_length_a   3.91812600
_cell_length_b   3.91812600
_cell_length_c   10.85255100
_cell_angle_alpha   90.00000000
_cell_angle_beta   90.00000000
_cell_angle_gamma   90.00000000
_symmetry_Int_Tables_number   1
_chemical_formula_structural   Rb2FeP2Rh
_chemical_formula_sum   'Rb2 Fe1 P2 Rh1'
_cell_volume   166.60523038
_cell_formula_units_Z   1
loop_
 _symmetry_equiv_pos_site_id
 _symmetry_equiv_pos_as_xyz
  1  'x, y, z'
loop_
 _atom_site_type_symbol
 _atom_site_label
 _atom_site_symmetry_multiplicity
 _atom_site_fract_x
 _atom_site_fract_y
 _atom_site_fract_z
 _atom_site_occupancy
  Rb  Rb0  1  0.000000  0.500000  0.293160  1
  Rb  Rb1  1  0.500000  0.000000  0.706840  1
  Fe  Fe2  1  0.000000  0.000000  0.000000  1
  P  P3  1  0.000000  0.500000  0.890456  1
  P  P4  1  0.500000  0.000000  0.109544  1
  Rh  Rh5  1  0.500000  0.500000  0.000000  1
