# generated using pymatgen
data_ThMnBr
_symmetry_space_group_name_H-M   'P 1'
_cell_length_a   4.00999800
_cell_length_b   4.00999838
_cell_length_c   12.13105800
_cell_angle_alpha   90.00000000
_cell_angle_beta   90.00000000
_cell_angle_gamma   120.00001335
_symmetry_Int_Tables_number   1
_chemical_formula_structural   ThMnBr
_chemical_formula_sum   'Th2 Mn2 Br2'
_cell_volume   168.93421019
_cell_formula_units_Z   2
loop_
 _symmetry_equiv_pos_site_id
 _symmetry_equiv_pos_as_xyz
  1  'x, y, z'
loop_
 _atom_site_type_symbol
 _atom_site_label
 _atom_site_symmetry_multiplicity
 _atom_site_fract_x
 _atom_site_fract_y
 _atom_site_fract_z
 _atom_site_occupancy
  Th  Th0  1  0.000000  0.000000  0.839233  1
  Th  Th1  1  0.000000  0.000000  0.160767  1
  Mn  Mn2  1  0.333333  0.666667  0.983145  1
  Mn  Mn3  1  0.666667  0.333333  0.016855  1
  Br  Br4  1  0.666667  0.333333  0.664836  1
  Br  Br5  1  0.333333  0.666667  0.335164  1
