# generated using pymatgen
data_HoLu2(CuSi)4
_symmetry_space_group_name_H-M   'P 1'
_cell_length_a   4.08791187
_cell_length_b   6.51681457
_cell_length_c   7.74836402
_cell_angle_alpha   114.86796340
_cell_angle_beta   105.29518663
_cell_angle_gamma   89.99999928
_symmetry_Int_Tables_number   1
_chemical_formula_structural   HoLu2(CuSi)4
_chemical_formula_sum   'Ho1 Lu2 Cu4 Si4'
_cell_volume   179.18784927
_cell_formula_units_Z   1
loop_
 _symmetry_equiv_pos_site_id
 _symmetry_equiv_pos_as_xyz
  1  'x, y, z'
loop_
 _atom_site_type_symbol
 _atom_site_label
 _atom_site_symmetry_multiplicity
 _atom_site_fract_x
 _atom_site_fract_y
 _atom_site_fract_z
 _atom_site_occupancy
  Ho  Ho0  1  0.000000  0.500000  0.000000  1
  Lu  Lu1  1  0.872414  0.872414  0.744829  1
  Lu  Lu2  1  0.127586  0.127586  0.255171  1
  Cu  Cu3  1  0.670882  0.863392  0.341765  1
  Cu  Cu4  1  0.670882  0.478373  0.341765  1
  Cu  Cu5  1  0.329118  0.521627  0.658235  1
  Cu  Cu6  1  0.329118  0.136608  0.658235  1
  Si  Si7  1  0.782998  0.282998  0.565996  1
  Si  Si8  1  0.217002  0.717002  0.434004  1
  Si  Si9  1  0.500000  0.184671  0.000000  1
  Si  Si10  1  0.500000  0.815329  0.000000  1
