# generated using pymatgen
data_BeNb2(TcTe2)2
_symmetry_space_group_name_H-M   'P 1'
_cell_length_a   4.67838900
_cell_length_b   10.95286500
_cell_length_c   18.73406000
_cell_angle_alpha   90.00000000
_cell_angle_beta   90.00000000
_cell_angle_gamma   90.00000000
_symmetry_Int_Tables_number   1
_chemical_formula_structural   BeNb2(TcTe2)2
_chemical_formula_sum   'Be4 Nb8 Tc8 Te16'
_cell_volume   959.96626507
_cell_formula_units_Z   4
loop_
 _symmetry_equiv_pos_site_id
 _symmetry_equiv_pos_as_xyz
  1  'x, y, z'
loop_
 _atom_site_type_symbol
 _atom_site_label
 _atom_site_symmetry_multiplicity
 _atom_site_fract_x
 _atom_site_fract_y
 _atom_site_fract_z
 _atom_site_occupancy
  Be  Be0  1  0.267026  0.500000  0.500000  1
  Be  Be1  1  0.732974  0.000000  0.000000  1
  Be  Be2  1  0.732974  0.500000  0.500000  1
  Be  Be3  1  0.267026  0.000000  0.000000  1
  Nb  Nb4  1  0.000000  0.678679  0.445706  1
  Nb  Nb5  1  0.000000  0.321321  0.554294  1
  Nb  Nb6  1  0.000000  0.178679  0.054294  1
  Nb  Nb7  1  0.000000  0.821321  0.945706  1
  Nb  Nb8  1  0.000000  0.406929  0.396837  1
  Nb  Nb9  1  0.000000  0.593071  0.603163  1
  Nb  Nb10  1  0.000000  0.906929  0.103163  1
  Nb  Nb11  1  0.000000  0.093071  0.896837  1
  Tc  Tc12  1  0.500000  0.559747  0.391297  1
  Tc  Tc13  1  0.500000  0.440253  0.608703  1
  Tc  Tc14  1  0.500000  0.059747  0.108703  1
  Tc  Tc15  1  0.500000  0.940253  0.891297  1
  Tc  Tc16  1  0.500000  0.687199  0.533375  1
  Tc  Tc17  1  0.500000  0.312801  0.466625  1
  Tc  Tc18  1  0.500000  0.187199  0.966625  1
  Tc  Tc19  1  0.500000  0.812801  0.033375  1
  Te  Te20  1  0.000000  0.840954  0.563133  1
  Te  Te21  1  0.000000  0.159046  0.436867  1
  Te  Te22  1  0.000000  0.340954  0.936867  1
  Te  Te23  1  0.000000  0.659046  0.063133  1
  Te  Te24  1  0.500000  0.339973  0.320081  1
  Te  Te25  1  0.500000  0.660027  0.679919  1
  Te  Te26  1  0.500000  0.839973  0.179919  1
  Te  Te27  1  0.500000  0.160027  0.820081  1
  Te  Te28  1  0.500000  0.810041  0.404431  1
  Te  Te29  1  0.500000  0.189959  0.595569  1
  Te  Te30  1  0.500000  0.310041  0.095569  1
  Te  Te31  1  0.500000  0.689959  0.904431  1
  Te  Te32  1  0.000000  0.605628  0.301002  1
  Te  Te33  1  0.000000  0.394372  0.698998  1
  Te  Te34  1  0.000000  0.105628  0.198998  1
  Te  Te35  1  0.000000  0.894372  0.801002  1
