# generated using pymatgen
data_NdHo2Co8P6Ru
_symmetry_space_group_name_H-M   'P 1'
_cell_length_a   3.72098200
_cell_length_b   10.54456800
_cell_length_c   12.28704600
_cell_angle_alpha   90.00000000
_cell_angle_beta   90.00000000
_cell_angle_gamma   90.00000000
_symmetry_Int_Tables_number   1
_chemical_formula_structural   NdHo2Co8P6Ru
_chemical_formula_sum   'Nd2 Ho4 Co16 P12 Ru2'
_cell_volume   482.09635197
_cell_formula_units_Z   2
loop_
 _symmetry_equiv_pos_site_id
 _symmetry_equiv_pos_as_xyz
  1  'x, y, z'
loop_
 _atom_site_type_symbol
 _atom_site_label
 _atom_site_symmetry_multiplicity
 _atom_site_fract_x
 _atom_site_fract_y
 _atom_site_fract_z
 _atom_site_occupancy
  Nd  Nd0  1  0.000000  0.500000  0.524999  1
  Nd  Nd1  1  0.500000  0.000000  0.475001  1
  Ho  Ho2  1  0.500000  0.816941  0.205596  1
  Ho  Ho3  1  0.500000  0.183059  0.205596  1
  Ho  Ho4  1  0.000000  0.683059  0.794404  1
  Ho  Ho5  1  0.000000  0.316941  0.794404  1
  Co  Co6  1  0.000000  0.500000  0.986297  1
  Co  Co7  1  0.500000  0.000000  0.013703  1
  Co  Co8  1  0.500000  0.296730  0.429508  1
  Co  Co9  1  0.500000  0.703270  0.429508  1
  Co  Co10  1  0.000000  0.203270  0.570492  1
  Co  Co11  1  0.000000  0.796730  0.570492  1
  Co  Co12  1  0.500000  0.879355  0.710629  1
  Co  Co13  1  0.500000  0.120645  0.710629  1
  Co  Co14  1  0.000000  0.620645  0.289371  1
  Co  Co15  1  0.000000  0.379355  0.289371  1
  Co  Co16  1  0.500000  0.332301  0.990617  1
  Co  Co17  1  0.500000  0.667699  0.990617  1
  Co  Co18  1  0.000000  0.167699  0.009383  1
  Co  Co19  1  0.000000  0.832301  0.009383  1
  Co  Co20  1  0.500000  0.500000  0.707019  1
  Co  Co21  1  0.000000  0.000000  0.292981  1
  P  P22  1  0.500000  0.308130  0.618055  1
  P  P23  1  0.500000  0.691870  0.618055  1
  P  P24  1  0.000000  0.191870  0.381945  1
  P  P25  1  0.000000  0.808130  0.381945  1
  P  P26  1  0.500000  0.500000  0.883001  1
  P  P27  1  0.000000  0.000000  0.116999  1
  P  P28  1  0.500000  0.846221  0.894154  1
  P  P29  1  0.500000  0.153779  0.894154  1
  P  P30  1  0.000000  0.653779  0.105846  1
  P  P31  1  0.000000  0.346221  0.105846  1
  P  P32  1  0.500000  0.500000  0.345990  1
  P  P33  1  0.000000  0.000000  0.654010  1
  Ru  Ru34  1  0.500000  0.500000  0.157175  1
  Ru  Ru35  1  0.000000  0.000000  0.842825  1
