# generated using pymatgen
data_Ti4(IBr3)3
_symmetry_space_group_name_H-M   'P 1'
_cell_length_a   6.12520700
_cell_length_b   7.67036400
_cell_length_c   12.71688900
_cell_angle_alpha   90.00000000
_cell_angle_beta   90.00000000
_cell_angle_gamma   90.00000000
_symmetry_Int_Tables_number   1
_chemical_formula_structural   Ti4(IBr3)3
_chemical_formula_sum   'Ti4 I3 Br9'
_cell_volume   597.47209285
_cell_formula_units_Z   1
loop_
 _symmetry_equiv_pos_site_id
 _symmetry_equiv_pos_as_xyz
  1  'x, y, z'
loop_
 _atom_site_type_symbol
 _atom_site_label
 _atom_site_symmetry_multiplicity
 _atom_site_fract_x
 _atom_site_fract_y
 _atom_site_fract_z
 _atom_site_occupancy
  Ti  Ti0  1  0.270642  0.247145  0.500000  1
  Ti  Ti1  1  0.729358  0.247145  0.500000  1
  Ti  Ti2  1  0.769098  0.751382  0.000000  1
  Ti  Ti3  1  0.230902  0.751382  0.000000  1
  I  I4  1  0.000000  0.059612  0.000000  1
  I  I5  1  0.500000  0.449312  0.000000  1
  I  I6  1  0.000000  0.546849  0.500000  1
  Br  Br7  1  0.500000  0.377611  0.353093  1
  Br  Br8  1  0.000000  0.618930  0.854253  1
  Br  Br9  1  0.000000  0.618930  0.145747  1
  Br  Br10  1  0.500000  0.377611  0.646907  1
  Br  Br11  1  0.500000  0.877472  0.860227  1
  Br  Br12  1  0.000000  0.115149  0.362388  1
  Br  Br13  1  0.000000  0.115149  0.637612  1
  Br  Br14  1  0.500000  0.877472  0.139773  1
  Br  Br15  1  0.500000  0.968849  0.500000  1
