# generated using pymatgen
data_LaHoFe3Re14C3
_symmetry_space_group_name_H-M   'P 1'
_cell_length_a   6.94269587
_cell_length_b   6.94269621
_cell_length_c   6.94269538
_cell_angle_alpha   82.66721858
_cell_angle_beta   82.66721870
_cell_angle_gamma   82.66722465
_symmetry_Int_Tables_number   1
_chemical_formula_structural   LaHoFe3Re14C3
_chemical_formula_sum   'La1 Ho1 Fe3 Re14 C3'
_cell_volume   327.07825230
_cell_formula_units_Z   1
loop_
 _symmetry_equiv_pos_site_id
 _symmetry_equiv_pos_as_xyz
  1  'x, y, z'
loop_
 _atom_site_type_symbol
 _atom_site_label
 _atom_site_symmetry_multiplicity
 _atom_site_fract_x
 _atom_site_fract_y
 _atom_site_fract_z
 _atom_site_occupancy
  La  La0  1  0.647781  0.647781  0.647781  1
  Ho  Ho1  1  0.350024  0.350024  0.350024  1
  Fe  Fe2  1  0.997743  0.997743  0.501312  1
  Fe  Fe3  1  0.501312  0.997743  0.997743  1
  Fe  Fe4  1  0.997743  0.501312  0.997743  1
  Re  Re5  1  0.722080  0.277306  0.000914  1
  Re  Re6  1  0.000914  0.722080  0.277306  1
  Re  Re7  1  0.277306  0.000914  0.722080  1
  Re  Re8  1  0.000914  0.277306  0.722080  1
  Re  Re9  1  0.722080  0.000914  0.277306  1
  Re  Re10  1  0.277306  0.722080  0.000914  1
  Re  Re11  1  0.344447  0.865673  0.344447  1
  Re  Re12  1  0.344447  0.344447  0.865673  1
  Re  Re13  1  0.865673  0.344447  0.344447  1
  Re  Re14  1  0.653769  0.140076  0.653769  1
  Re  Re15  1  0.653769  0.653769  0.140076  1
  Re  Re16  1  0.140076  0.653769  0.653769  1
  Re  Re17  1  0.898906  0.898906  0.898906  1
  Re  Re18  1  0.101893  0.101893  0.101893  1
  C  C19  1  0.494846  0.494846  0.012124  1
  C  C20  1  0.012124  0.494846  0.494846  1
  C  C21  1  0.494846  0.012124  0.494846  1
