# generated using pymatgen
data_Er8TaTi8Si16Tc3
_symmetry_space_group_name_H-M   'P 1'
_cell_length_a   6.95209188
_cell_length_b   6.95209215
_cell_length_c   12.77464401
_cell_angle_alpha   90.07027618
_cell_angle_beta   89.92972297
_cell_angle_gamma   90.07022542
_symmetry_Int_Tables_number   1
_chemical_formula_structural   Er8TaTi8Si16Tc3
_chemical_formula_sum   'Er8 Ta1 Ti8 Si16 Tc3'
_cell_volume   617.41738141
_cell_formula_units_Z   1
loop_
 _symmetry_equiv_pos_site_id
 _symmetry_equiv_pos_as_xyz
  1  'x, y, z'
loop_
 _atom_site_type_symbol
 _atom_site_label
 _atom_site_symmetry_multiplicity
 _atom_site_fract_x
 _atom_site_fract_y
 _atom_site_fract_z
 _atom_site_occupancy
  Er  Er0  1  0.340617  0.001481  0.467659  1
  Er  Er1  1  0.498649  0.841977  0.719729  1
  Er  Er2  1  0.499970  0.158919  0.218098  1
  Er  Er3  1  0.841977  0.498649  0.280271  1
  Er  Er4  1  0.158919  0.499970  0.781902  1
  Er  Er5  1  0.658750  0.999571  0.968708  1
  Er  Er6  1  0.001481  0.340617  0.532341  1
  Er  Er7  1  0.999571  0.658750  0.031292  1
  Ta  Ta8  1  0.673270  0.673270  0.500000  1
  Ti  Ti9  1  0.151984  0.005090  0.876519  1
  Ti  Ti10  1  0.494405  0.652680  0.124443  1
  Ti  Ti11  1  0.505157  0.349260  0.626888  1
  Ti  Ti12  1  0.652680  0.494405  0.875557  1
  Ti  Ti13  1  0.349260  0.505157  0.373112  1
  Ti  Ti14  1  0.846890  0.992780  0.375782  1
  Ti  Ti15  1  0.005090  0.151984  0.123481  1
  Ti  Ti16  1  0.992780  0.846890  0.624218  1
  Si  Si17  1  0.200512  0.130108  0.683633  1
  Si  Si18  1  0.369477  0.701081  0.932592  1
  Si  Si19  1  0.632556  0.296192  0.433589  1
  Si  Si20  1  0.701081  0.369477  0.067408  1
  Si  Si21  1  0.296192  0.632556  0.566411  1
  Si  Si22  1  0.798578  0.869634  0.182684  1
  Si  Si23  1  0.130108  0.200512  0.316367  1
  Si  Si24  1  0.869634  0.798578  0.817316  1
  Si  Si25  1  0.291126  0.952424  0.066431  1
  Si  Si26  1  0.545890  0.792307  0.314149  1
  Si  Si27  1  0.452147  0.209989  0.816685  1
  Si  Si28  1  0.792307  0.545890  0.685851  1
  Si  Si29  1  0.209989  0.452147  0.183315  1
  Si  Si30  1  0.707119  0.049262  0.567297  1
  Si  Si31  1  0.952424  0.291126  0.933569  1
  Si  Si32  1  0.049262  0.707119  0.432703  1
  Tc  Tc33  1  0.328202  0.328202  0.000000  1
  Tc  Tc34  1  0.173741  0.828206  0.248633  1
  Tc  Tc35  1  0.828206  0.173741  0.751367  1
