# generated using pymatgen
data_Ho5Er3Ti9Si16Tc3
_symmetry_space_group_name_H-M   'P 1'
_cell_length_a   6.96053055
_cell_length_b   6.96051011
_cell_length_c   12.77892690
_cell_angle_alpha   90.06214596
_cell_angle_beta   89.93687138
_cell_angle_gamma   90.01723563
_symmetry_Int_Tables_number   1
_chemical_formula_structural   Ho5Er3Ti9Si16Tc3
_chemical_formula_sum   'Ho5 Er3 Ti9 Si16 Tc3'
_cell_volume   619.12345851
_cell_formula_units_Z   1
loop_
 _symmetry_equiv_pos_site_id
 _symmetry_equiv_pos_as_xyz
  1  'x, y, z'
loop_
 _atom_site_type_symbol
 _atom_site_label
 _atom_site_symmetry_multiplicity
 _atom_site_fract_x
 _atom_site_fract_y
 _atom_site_fract_z
 _atom_site_occupancy
  Ho  Ho0  1  0.841583  0.498779  0.280570  1
  Ho  Ho1  1  0.158791  0.500256  0.782129  1
  Ho  Ho2  1  0.658830  0.999421  0.968461  1
  Ho  Ho3  1  0.001537  0.340557  0.532618  1
  Ho  Ho4  1  0.999446  0.658888  0.031510  1
  Er  Er5  1  0.340694  0.001334  0.467338  1
  Er  Er6  1  0.499008  0.841771  0.719392  1
  Er  Er7  1  0.500027  0.158655  0.217864  1
  Ti  Ti8  1  0.673870  0.674065  0.500025  1
  Ti  Ti9  1  0.151970  0.005523  0.877127  1
  Ti  Ti10  1  0.494436  0.653354  0.124503  1
  Ti  Ti11  1  0.504971  0.347977  0.627563  1
  Ti  Ti12  1  0.653351  0.494467  0.875458  1
  Ti  Ti13  1  0.348025  0.504997  0.372396  1
  Ti  Ti14  1  0.847396  0.992300  0.375967  1
  Ti  Ti15  1  0.005594  0.151908  0.122827  1
  Ti  Ti16  1  0.992328  0.847423  0.624007  1
  Si  Si17  1  0.200449  0.129327  0.683767  1
  Si  Si18  1  0.370351  0.700660  0.932899  1
  Si  Si19  1  0.631249  0.296854  0.434155  1
  Si  Si20  1  0.700468  0.370154  0.067113  1
  Si  Si21  1  0.297147  0.631740  0.565831  1
  Si  Si22  1  0.798835  0.870096  0.183558  1
  Si  Si23  1  0.129816  0.200134  0.316225  1
  Si  Si24  1  0.869766  0.798991  0.816413  1
  Si  Si25  1  0.290887  0.952147  0.066835  1
  Si  Si26  1  0.547049  0.790838  0.315821  1
  Si  Si27  1  0.452163  0.210071  0.816704  1
  Si  Si28  1  0.790396  0.547371  0.684220  1
  Si  Si29  1  0.210443  0.451978  0.183256  1
  Si  Si30  1  0.707536  0.049063  0.567518  1
  Si  Si31  1  0.951979  0.290740  0.933238  1
  Si  Si32  1  0.049392  0.707998  0.432536  1
  Tc  Tc33  1  0.327961  0.327881  0.000103  1
  Tc  Tc34  1  0.174044  0.828400  0.248779  1
  Tc  Tc35  1  0.828211  0.173877  0.751272  1
