# generated using pymatgen
data_Y4CdCo
_symmetry_space_group_name_H-M   'P 1'
_cell_length_a   9.56275632
_cell_length_b   9.56275638
_cell_length_c   9.56275600
_cell_angle_alpha   60.00000132
_cell_angle_beta   60.00000112
_cell_angle_gamma   60.00000094
_symmetry_Int_Tables_number   1
_chemical_formula_structural   Y4CdCo
_chemical_formula_sum   'Y16 Cd4 Co4'
_cell_volume   618.34986322
_cell_formula_units_Z   4
loop_
 _symmetry_equiv_pos_site_id
 _symmetry_equiv_pos_as_xyz
  1  'x, y, z'
loop_
 _atom_site_type_symbol
 _atom_site_label
 _atom_site_symmetry_multiplicity
 _atom_site_fract_x
 _atom_site_fract_y
 _atom_site_fract_z
 _atom_site_occupancy
  Y  Y0  1  0.438134  0.438134  0.061866  1
  Y  Y1  1  0.596701  0.596701  0.596701  1
  Y  Y2  1  0.187777  0.812223  0.812223  1
  Y  Y3  1  0.061866  0.061866  0.438134  1
  Y  Y4  1  0.438134  0.061866  0.061866  1
  Y  Y5  1  0.812223  0.187777  0.812223  1
  Y  Y6  1  0.438134  0.061866  0.438134  1
  Y  Y7  1  0.596701  0.209896  0.596701  1
  Y  Y8  1  0.812223  0.812223  0.187777  1
  Y  Y9  1  0.209896  0.596701  0.596701  1
  Y  Y10  1  0.812223  0.187777  0.187777  1
  Y  Y11  1  0.061866  0.438134  0.438134  1
  Y  Y12  1  0.187777  0.812223  0.187777  1
  Y  Y13  1  0.596701  0.596701  0.209896  1
  Y  Y14  1  0.187777  0.187777  0.812223  1
  Y  Y15  1  0.061866  0.438134  0.061866  1
  Cd  Cd16  1  0.830091  0.830091  0.509727  1
  Cd  Cd17  1  0.830091  0.830091  0.830091  1
  Cd  Cd18  1  0.509727  0.830091  0.830091  1
  Cd  Cd19  1  0.830091  0.509727  0.830091  1
  Co  Co20  1  0.391103  0.391103  0.391103  1
  Co  Co21  1  0.826693  0.391103  0.391103  1
  Co  Co22  1  0.391103  0.826693  0.391103  1
  Co  Co23  1  0.391103  0.391103  0.826693  1
