# generated using pymatgen
data_Rb4CaUO6
_symmetry_space_group_name_H-M   'P 1'
_cell_length_a   6.37927080
_cell_length_b   6.37926963
_cell_length_c   6.86616236
_cell_angle_alpha   99.03003761
_cell_angle_beta   99.03003158
_cell_angle_gamma   119.75143898
_symmetry_Int_Tables_number   1
_chemical_formula_structural   Rb4CaUO6
_chemical_formula_sum   'Rb4 Ca1 U1 O6'
_cell_volume   230.42011514
_cell_formula_units_Z   1
loop_
 _symmetry_equiv_pos_site_id
 _symmetry_equiv_pos_as_xyz
  1  'x, y, z'
loop_
 _atom_site_type_symbol
 _atom_site_label
 _atom_site_symmetry_multiplicity
 _atom_site_fract_x
 _atom_site_fract_y
 _atom_site_fract_z
 _atom_site_occupancy
  Rb  Rb0  1  0.500668  0.499333  0.000000  1
  Rb  Rb1  1  0.996956  0.003043  0.499998  1
  Rb  Rb2  1  0.659027  0.340973  0.500001  1
  Rb  Rb3  1  0.341537  0.658463  0.500001  1
  Ca  Ca4  1  0.833114  0.166886  0.000000  1
  U  U5  1  0.167425  0.832575  0.000000  1
  O  O6  1  0.977762  0.603428  0.185891  1
  O  O7  1  0.522331  0.935467  0.185420  1
  O  O8  1  0.189100  0.149024  0.182645  1
  O  O9  1  0.850978  0.810903  0.817358  1
  O  O10  1  0.064535  0.477672  0.814583  1
  O  O11  1  0.396575  0.022241  0.814110  1
