# generated using pymatgen
data_Tb13Yb2Y5Ir12
_symmetry_space_group_name_H-M   'P 1'
_cell_length_a   6.39054401
_cell_length_b   10.94141906
_cell_length_c   10.94245306
_cell_angle_alpha   90.01131042
_cell_angle_beta   89.99506843
_cell_angle_gamma   89.99578295
_symmetry_Int_Tables_number   1
_chemical_formula_structural   Tb13Yb2Y5Ir12
_chemical_formula_sum   'Tb13 Yb2 Y5 Ir12'
_cell_volume   765.11402561
_cell_formula_units_Z   1
loop_
 _symmetry_equiv_pos_site_id
 _symmetry_equiv_pos_as_xyz
  1  'x, y, z'
loop_
 _atom_site_type_symbol
 _atom_site_label
 _atom_site_symmetry_multiplicity
 _atom_site_fract_x
 _atom_site_fract_y
 _atom_site_fract_z
 _atom_site_occupancy
  Tb  Tb0  1  0.382108  0.839373  0.541315  1
  Tb  Tb1  1  0.882115  0.660644  0.541321  1
  Tb  Tb2  1  0.882120  0.839369  0.958686  1
  Tb  Tb3  1  0.382123  0.660615  0.958681  1
  Tb  Tb4  1  0.883582  0.540303  0.838024  1
  Tb  Tb5  1  0.383627  0.959741  0.838017  1
  Tb  Tb6  1  0.383617  0.540274  0.661998  1
  Tb  Tb7  1  0.883621  0.959727  0.661981  1
  Tb  Tb8  1  0.616497  0.162042  0.459527  1
  Tb  Tb9  1  0.116496  0.337972  0.459573  1
  Tb  Tb10  1  0.116441  0.162061  0.040444  1
  Tb  Tb11  1  0.499990  0.749994  0.249978  1
  Tb  Tb12  1  0.999957  0.750012  0.250015  1
  Yb  Yb13  1  0.999989  0.249993  0.750009  1
  Yb  Yb14  1  0.500030  0.250008  0.750031  1
  Y  Y15  1  0.616536  0.337969  0.040437  1
  Y  Y16  1  0.117918  0.458598  0.160676  1
  Y  Y17  1  0.617986  0.041421  0.160704  1
  Y  Y18  1  0.617967  0.458591  0.339215  1
  Y  Y19  1  0.117970  0.041347  0.339281  1
  Ir  Ir20  1  0.249850  0.903205  0.096679  1
  Ir  Ir21  1  0.749931  0.596873  0.096674  1
  Ir  Ir22  1  0.749866  0.903199  0.403332  1
  Ir  Ir23  1  0.249869  0.596787  0.403326  1
  Ir  Ir24  1  0.750052  0.092424  0.907440  1
  Ir  Ir25  1  0.249892  0.407575  0.907398  1
  Ir  Ir26  1  0.250026  0.092449  0.592520  1
  Ir  Ir27  1  0.750038  0.407546  0.592530  1
  Ir  Ir28  1  0.125778  0.749995  0.750004  1
  Ir  Ir29  1  0.625791  0.749983  0.749999  1
  Ir  Ir30  1  0.874229  0.249973  0.250083  1
  Ir  Ir31  1  0.373986  0.249937  0.250101  1
