# generated using pymatgen
data_Te2SF18
_symmetry_space_group_name_H-M   'P 1'
_cell_length_a   5.28629219
_cell_length_b   8.90000811
_cell_length_c   8.91679807
_cell_angle_alpha   60.88049613
_cell_angle_beta   85.57218233
_cell_angle_gamma   85.64493362
_symmetry_Int_Tables_number   1
_chemical_formula_structural   Te2SF18
_chemical_formula_sum   'Te2 S1 F18'
_cell_volume   365.04509205
_cell_formula_units_Z   1
loop_
 _symmetry_equiv_pos_site_id
 _symmetry_equiv_pos_as_xyz
  1  'x, y, z'
loop_
 _atom_site_type_symbol
 _atom_site_label
 _atom_site_symmetry_multiplicity
 _atom_site_fract_x
 _atom_site_fract_y
 _atom_site_fract_z
 _atom_site_occupancy
  Te  Te0  1  0.999687  0.000014  0.999972  1
  Te  Te1  1  0.408591  0.668712  0.668549  1
  S  S2  1  0.591275  0.331276  0.331412  1
  F  F3  1  0.130101  0.894405  0.218256  1
  F  F4  1  0.870223  0.105702  0.781566  1
  F  F5  1  0.868571  0.792260  0.046914  1
  F  F6  1  0.131603  0.207599  0.953384  1
  F  F7  1  0.698330  0.057929  0.086694  1
  F  F8  1  0.301562  0.942201  0.913253  1
  F  F9  1  0.215558  0.581365  0.875127  1
  F  F10  1  0.756680  0.406295  0.154378  1
  F  F11  1  0.601924  0.756483  0.462003  1
  F  F12  1  0.425863  0.256122  0.508484  1
  F  F13  1  0.176751  0.589983  0.578067  1
  F  F14  1  0.789872  0.398448  0.409179  1
  F  F15  1  0.640946  0.746822  0.759238  1
  F  F16  1  0.392557  0.264325  0.253568  1
  F  F17  1  0.222943  0.877974  0.588319  1
  F  F18  1  0.750323  0.151916  0.400316  1
  F  F19  1  0.594374  0.459521  0.748662  1
  F  F20  1  0.432263  0.510646  0.262661  1
