# generated using pymatgen
data_Tb2Dy6CdHgPt2
_symmetry_space_group_name_H-M   'P 1'
_cell_length_a   9.68438320
_cell_length_b   9.68314098
_cell_length_c   9.67707208
_cell_angle_alpha   60.02910282
_cell_angle_beta   60.01638766
_cell_angle_gamma   60.06448317
_symmetry_Int_Tables_number   1
_chemical_formula_structural   Tb2Dy6CdHgPt2
_chemical_formula_sum   'Tb4 Dy12 Cd2 Hg2 Pt4'
_cell_volume   642.21102154
_cell_formula_units_Z   2
loop_
 _symmetry_equiv_pos_site_id
 _symmetry_equiv_pos_as_xyz
  1  'x, y, z'
loop_
 _atom_site_type_symbol
 _atom_site_label
 _atom_site_symmetry_multiplicity
 _atom_site_fract_x
 _atom_site_fract_y
 _atom_site_fract_z
 _atom_site_occupancy
  Tb  Tb0  1  0.563530  0.935416  0.564951  1
  Tb  Tb1  1  0.935417  0.563530  0.936102  1
  Tb  Tb2  1  0.564197  0.564196  0.935804  1
  Tb  Tb3  1  0.935795  0.935795  0.564206  1
  Dy  Dy4  1  0.352480  0.352652  0.350715  1
  Dy  Dy5  1  0.352652  0.352480  0.944154  1
  Dy  Dy6  1  0.355335  0.938244  0.353123  1
  Dy  Dy7  1  0.938243  0.355336  0.353298  1
  Dy  Dy8  1  0.810697  0.189067  0.190552  1
  Dy  Dy9  1  0.189067  0.810696  0.809684  1
  Dy  Dy10  1  0.189039  0.810694  0.190598  1
  Dy  Dy11  1  0.810694  0.189040  0.809668  1
  Dy  Dy12  1  0.189733  0.189735  0.810266  1
  Dy  Dy13  1  0.809728  0.809727  0.190273  1
  Dy  Dy14  1  0.935596  0.563325  0.564677  1
  Dy  Dy15  1  0.563325  0.935596  0.936403  1
  Cd  Cd16  1  0.580369  0.255464  0.582165  1
  Cd  Cd17  1  0.255465  0.580369  0.582000  1
  Hg  Hg18  1  0.585023  0.584772  0.587629  1
  Hg  Hg19  1  0.584772  0.585024  0.242574  1
  Pt  Pt20  1  0.143370  0.143219  0.145239  1
  Pt  Pt21  1  0.143220  0.143371  0.568172  1
  Pt  Pt22  1  0.142021  0.570231  0.143968  1
  Pt  Pt23  1  0.570230  0.142022  0.143781  1
