# generated using pymatgen
data_LaDyEr(ZnPt)4
_symmetry_space_group_name_H-M   'P 1'
_cell_length_a   8.26912978
_cell_length_b   8.26912835
_cell_length_c   8.26912838
_cell_angle_alpha   151.78658366
_cell_angle_beta   125.20423002
_cell_angle_gamma   62.76215856
_symmetry_Int_Tables_number   1
_chemical_formula_structural   LaDyEr(ZnPt)4
_chemical_formula_sum   'La1 Dy1 Er1 Zn4 Pt4'
_cell_volume   216.55990752
_cell_formula_units_Z   1
loop_
 _symmetry_equiv_pos_site_id
 _symmetry_equiv_pos_as_xyz
  1  'x, y, z'
loop_
 _atom_site_type_symbol
 _atom_site_label
 _atom_site_symmetry_multiplicity
 _atom_site_fract_x
 _atom_site_fract_y
 _atom_site_fract_z
 _atom_site_occupancy
  La  La0  1  0.499959  0.999959  0.500000  1
  Dy  Dy1  1  0.874876  0.874876  0.000000  1
  Er  Er2  1  0.125347  0.125347  0.000000  1
  Zn  Zn3  1  0.476827  0.674810  0.802017  1
  Zn  Zn4  1  0.872792  0.674810  0.197983  1
  Zn  Zn5  1  0.127605  0.325110  0.802494  1
  Zn  Zn6  1  0.522617  0.325110  0.197506  1
  Pt  Pt7  1  0.274589  0.774589  0.500000  1
  Pt  Pt8  1  0.724768  0.224768  0.500000  1
  Pt  Pt9  1  0.811462  0.500310  0.311152  1
  Pt  Pt10  1  0.189158  0.500310  0.688848  1
