# generated using pymatgen
data_TmLu3Si4RuRh3
_symmetry_space_group_name_H-M   'P 1'
_cell_length_a   4.23431500
_cell_length_b   6.79920616
_cell_length_c   7.26314792
_cell_angle_alpha   89.87709684
_cell_angle_beta   90.00000000
_cell_angle_gamma   90.00000000
_symmetry_Int_Tables_number   1
_chemical_formula_structural   TmLu3Si4RuRh3
_chemical_formula_sum   'Tm1 Lu3 Si4 Ru1 Rh3'
_cell_volume   209.10540683
_cell_formula_units_Z   1
loop_
 _symmetry_equiv_pos_site_id
 _symmetry_equiv_pos_as_xyz
  1  'x, y, z'
loop_
 _atom_site_type_symbol
 _atom_site_label
 _atom_site_symmetry_multiplicity
 _atom_site_fract_x
 _atom_site_fract_y
 _atom_site_fract_z
 _atom_site_occupancy
  Tm  Tm0  1  0.750000  0.999905  0.812121  1
  Lu  Lu1  1  0.250000  0.496595  0.308774  1
  Lu  Lu2  1  0.750000  0.504673  0.689080  1
  Lu  Lu3  1  0.250000  0.998618  0.189961  1
  Si  Si4  1  0.750000  0.203477  0.393665  1
  Si  Si5  1  0.250000  0.295431  0.891657  1
  Si  Si6  1  0.750000  0.705462  0.114007  1
  Si  Si7  1  0.250000  0.794609  0.600331  1
  Ru  Ru8  1  0.750000  0.844473  0.433908  1
  Rh  Rh9  1  0.250000  0.157470  0.565929  1
  Rh  Rh10  1  0.750000  0.342540  0.067461  1
  Rh  Rh11  1  0.250000  0.656749  0.933103  1
