# generated using pymatgen
data_Pr3SiCl3
_symmetry_space_group_name_H-M   'P 1'
_cell_length_a   10.25610018
_cell_length_b   10.25609957
_cell_length_c   10.25610000
_cell_angle_alpha   109.47122149
_cell_angle_beta   109.47122028
_cell_angle_gamma   109.47122219
_symmetry_Int_Tables_number   1
_chemical_formula_structural   Pr3SiCl3
_chemical_formula_sum   'Pr12 Si4 Cl12'
_cell_volume   830.47168080
_cell_formula_units_Z   4
loop_
 _symmetry_equiv_pos_site_id
 _symmetry_equiv_pos_as_xyz
  1  'x, y, z'
loop_
 _atom_site_type_symbol
 _atom_site_label
 _atom_site_symmetry_multiplicity
 _atom_site_fract_x
 _atom_site_fract_y
 _atom_site_fract_z
 _atom_site_occupancy
  Pr  Pr0  1  0.485186  0.492593  0.242593  1
  Pr  Pr1  1  0.750000  0.242593  0.257407  1
  Pr  Pr2  1  0.750000  0.007407  0.492593  1
  Pr  Pr3  1  0.242593  0.485186  0.492593  1
  Pr  Pr4  1  0.257407  0.750000  0.242593  1
  Pr  Pr5  1  0.014814  0.257407  0.007407  1
  Pr  Pr6  1  0.007407  0.014814  0.257407  1
  Pr  Pr7  1  0.492593  0.750000  0.007407  1
  Pr  Pr8  1  0.492593  0.242593  0.485186  1
  Pr  Pr9  1  0.007407  0.492593  0.750000  1
  Pr  Pr10  1  0.257407  0.007407  0.014814  1
  Pr  Pr11  1  0.242593  0.257407  0.750000  1
  Si  Si12  1  0.250000  0.250000  0.250000  1
  Si  Si13  1  0.500000  0.000000  0.250000  1
  Si  Si14  1  0.000000  0.250000  0.500000  1
  Si  Si15  1  0.250000  0.500000  0.000000  1
  Cl  Cl16  1  0.250000  0.750714  0.749286  1
  Cl  Cl17  1  0.501429  0.500714  0.750714  1
  Cl  Cl18  1  0.998571  0.749286  0.999286  1
  Cl  Cl19  1  0.749286  0.250000  0.750714  1
  Cl  Cl20  1  0.999286  0.998571  0.749286  1
  Cl  Cl21  1  0.250000  0.999286  0.500714  1
  Cl  Cl22  1  0.750714  0.501429  0.500714  1
  Cl  Cl23  1  0.500714  0.250000  0.999286  1
  Cl  Cl24  1  0.750714  0.749286  0.250000  1
  Cl  Cl25  1  0.749286  0.999286  0.998571  1
  Cl  Cl26  1  0.999286  0.500714  0.250000  1
  Cl  Cl27  1  0.500714  0.750714  0.501429  1
