# generated using pymatgen
data_Er3Tm2Lu7Os4
_symmetry_space_group_name_H-M   'P 1'
_cell_length_a   7.35527306
_cell_length_b   8.82990921
_cell_length_c   6.19286486
_cell_angle_alpha   89.92014251
_cell_angle_beta   90.06180219
_cell_angle_gamma   90.01360173
_symmetry_Int_Tables_number   1
_chemical_formula_structural   Er3Tm2Lu7Os4
_chemical_formula_sum   'Er3 Tm2 Lu7 Os4'
_cell_volume   402.20360117
_cell_formula_units_Z   1
loop_
 _symmetry_equiv_pos_site_id
 _symmetry_equiv_pos_as_xyz
  1  'x, y, z'
loop_
 _atom_site_type_symbol
 _atom_site_label
 _atom_site_symmetry_multiplicity
 _atom_site_fract_x
 _atom_site_fract_y
 _atom_site_fract_z
 _atom_site_occupancy
  Er  Er0  1  0.039304  0.249475  0.627155  1
  Er  Er1  1  0.960389  0.750259  0.372459  1
  Er  Er2  1  0.460406  0.750408  0.128118  1
  Tm  Tm3  1  0.539824  0.249588  0.872485  1
  Tm  Tm4  1  0.326031  0.562099  0.664882  1
  Lu  Lu5  1  0.174173  0.062522  0.163792  1
  Lu  Lu6  1  0.825552  0.937694  0.835910  1
  Lu  Lu7  1  0.326730  0.938357  0.664495  1
  Lu  Lu8  1  0.825832  0.562206  0.835924  1
  Lu  Lu9  1  0.673989  0.062491  0.335169  1
  Lu  Lu10  1  0.173951  0.437320  0.164051  1
  Lu  Lu11  1  0.674203  0.437151  0.334789  1
  Os  Os12  1  0.382574  0.249467  0.459734  1
  Os  Os13  1  0.618142  0.750185  0.541086  1
  Os  Os14  1  0.117194  0.750827  0.959624  1
  Os  Os15  1  0.881707  0.249950  0.040328  1
