# generated using pymatgen
data_Eu4CuH12Ir
_symmetry_space_group_name_H-M   'P 1'
_cell_length_a   7.32782151
_cell_length_b   7.32782082
_cell_length_c   5.38431030
_cell_angle_alpha   90.00187086
_cell_angle_beta   90.00186499
_cell_angle_gamma   136.97322278
_symmetry_Int_Tables_number   1
_chemical_formula_structural   Eu4CuH12Ir
_chemical_formula_sum   'Eu4 Cu1 H12 Ir1'
_cell_volume   197.27892288
_cell_formula_units_Z   1
loop_
 _symmetry_equiv_pos_site_id
 _symmetry_equiv_pos_as_xyz
  1  'x, y, z'
loop_
 _atom_site_type_symbol
 _atom_site_label
 _atom_site_symmetry_multiplicity
 _atom_site_fract_x
 _atom_site_fract_y
 _atom_site_fract_z
 _atom_site_occupancy
  Eu  Eu0  1  0.146463  0.853537  0.500000  1
  Eu  Eu1  1  0.646419  0.353581  0.000000  1
  Eu  Eu2  1  0.853537  0.146463  0.500000  1
  Eu  Eu3  1  0.353581  0.646419  0.000000  1
  Cu  Cu4  1  0.000000  0.000000  0.000000  1
  H  H5  1  0.999989  0.500004  0.751130  1
  H  H6  1  0.499996  0.000011  0.248870  1
  H  H7  1  0.000011  0.499996  0.248870  1
  H  H8  1  0.500004  0.999989  0.751130  1
  H  H9  1  0.375107  0.624893  0.500000  1
  H  H10  1  0.882053  0.117947  0.000000  1
  H  H11  1  0.624893  0.375107  0.500000  1
  H  H12  1  0.117947  0.882053  0.000000  1
  H  H13  1  0.273226  0.273226  0.726464  1
  H  H14  1  0.726774  0.726774  0.273536  1
  H  H15  1  0.273079  0.273079  0.273561  1
  H  H16  1  0.726921  0.726921  0.726439  1
  Ir  Ir17  1  0.500000  0.500000  0.500000  1
