# generated using pymatgen
data_Zr6Nb3Al13Co7
_symmetry_space_group_name_H-M   'P 1'
_cell_length_a   8.62785482
_cell_length_b   8.62785344
_cell_length_c   8.62785445
_cell_angle_alpha   59.79131583
_cell_angle_beta   59.79131965
_cell_angle_gamma   59.79132193
_symmetry_Int_Tables_number   1
_chemical_formula_structural   Zr6Nb3Al13Co7
_chemical_formula_sum   'Zr6 Nb3 Al13 Co7'
_cell_volume   451.99230949
_cell_formula_units_Z   1
loop_
 _symmetry_equiv_pos_site_id
 _symmetry_equiv_pos_as_xyz
  1  'x, y, z'
loop_
 _atom_site_type_symbol
 _atom_site_label
 _atom_site_symmetry_multiplicity
 _atom_site_fract_x
 _atom_site_fract_y
 _atom_site_fract_z
 _atom_site_occupancy
  Zr  Zr0  1  0.695163  0.307334  0.307334  1
  Zr  Zr1  1  0.690908  0.309759  0.690908  1
  Zr  Zr2  1  0.690908  0.690908  0.309759  1
  Zr  Zr3  1  0.309759  0.690908  0.690908  1
  Zr  Zr4  1  0.307334  0.695163  0.307334  1
  Zr  Zr5  1  0.307334  0.307334  0.695163  1
  Nb  Nb6  1  0.642822  0.118849  0.118849  1
  Nb  Nb7  1  0.118849  0.642822  0.118849  1
  Nb  Nb8  1  0.118849  0.118849  0.642822  1
  Al  Al9  1  0.117751  0.117751  0.117751  1
  Al  Al10  1  0.359873  0.881418  0.881418  1
  Al  Al11  1  0.881418  0.359873  0.881418  1
  Al  Al12  1  0.881418  0.881418  0.359873  1
  Al  Al13  1  0.878830  0.878830  0.878830  1
  Al  Al14  1  0.996096  0.332451  0.332451  1
  Al  Al15  1  0.332451  0.996096  0.332451  1
  Al  Al16  1  0.332451  0.332451  0.996096  1
  Al  Al17  1  0.336778  0.336778  0.336778  1
  Al  Al18  1  0.004264  0.664866  0.664866  1
  Al  Al19  1  0.664866  0.004264  0.664866  1
  Al  Al20  1  0.664866  0.664866  0.004264  1
  Al  Al21  1  0.665477  0.665477  0.665477  1
  Co  Co22  1  0.997872  0.997872  0.997872  1
  Co  Co23  1  0.503824  0.001819  0.001819  1
  Co  Co24  1  0.496617  0.002967  0.496617  1
  Co  Co25  1  0.496617  0.496617  0.002967  1
  Co  Co26  1  0.002967  0.496617  0.496617  1
  Co  Co27  1  0.001819  0.503824  0.001819  1
  Co  Co28  1  0.001819  0.001819  0.503824  1
