# generated using pymatgen
data_HoErPa2(SnPd2)2
_symmetry_space_group_name_H-M   'P 1'
_cell_length_a   7.71259604
_cell_length_b   7.71259787
_cell_length_c   3.72141000
_cell_angle_alpha   90.00000000
_cell_angle_beta   90.00000000
_cell_angle_gamma   91.66918324
_symmetry_Int_Tables_number   1
_chemical_formula_structural   HoErPa2(SnPd2)2
_chemical_formula_sum   'Ho1 Er1 Pa2 Sn2 Pd4'
_cell_volume   221.27098592
_cell_formula_units_Z   1
loop_
 _symmetry_equiv_pos_site_id
 _symmetry_equiv_pos_as_xyz
  1  'x, y, z'
loop_
 _atom_site_type_symbol
 _atom_site_label
 _atom_site_symmetry_multiplicity
 _atom_site_fract_x
 _atom_site_fract_y
 _atom_site_fract_z
 _atom_site_occupancy
  Ho  Ho0  1  0.827026  0.672974  0.500000  1
  Er  Er1  1  0.173010  0.326990  0.500000  1
  Pa  Pa2  1  0.675199  0.175250  0.500000  1
  Pa  Pa3  1  0.324750  0.824801  0.500000  1
  Sn  Sn4  1  0.000114  0.000119  0.000000  1
  Sn  Sn5  1  0.499881  0.499886  0.000000  1
  Pd  Pd6  1  0.131379  0.631053  0.000000  1
  Pd  Pd7  1  0.868947  0.368621  0.000000  1
  Pd  Pd8  1  0.624174  0.875826  0.000000  1
  Pd  Pd9  1  0.375519  0.124481  0.000000  1
