# generated using pymatgen
data_Nd2YSc3(SnPt)6
_symmetry_space_group_name_H-M   'P 1'
_cell_length_a   7.57694631
_cell_length_b   7.59533018
_cell_length_c   7.74505100
_cell_angle_alpha   90.00000000
_cell_angle_beta   90.00000000
_cell_angle_gamma   120.04198467
_symmetry_Int_Tables_number   1
_chemical_formula_structural   Nd2YSc3(SnPt)6
_chemical_formula_sum   'Nd2 Y1 Sc3 Sn6 Pt6'
_cell_volume   385.84412378
_cell_formula_units_Z   1
loop_
 _symmetry_equiv_pos_site_id
 _symmetry_equiv_pos_as_xyz
  1  'x, y, z'
loop_
 _atom_site_type_symbol
 _atom_site_label
 _atom_site_symmetry_multiplicity
 _atom_site_fract_x
 _atom_site_fract_y
 _atom_site_fract_z
 _atom_site_occupancy
  Nd  Nd0  1  0.405041  0.001119  0.750000  1
  Nd  Nd1  1  0.595242  0.596189  0.750000  1
  Y  Y2  1  0.998786  0.401514  0.750000  1
  Sc  Sc3  1  0.390749  0.000292  0.250000  1
  Sc  Sc4  1  0.610122  0.608389  0.250000  1
  Sc  Sc5  1  0.999152  0.390553  0.250000  1
  Sn  Sn6  1  0.267594  0.269218  0.014121  1
  Sn  Sn7  1  0.000566  0.730761  0.010149  1
  Sn  Sn8  1  0.000566  0.730761  0.489851  1
  Sn  Sn9  1  0.731696  0.000046  0.485630  1
  Sn  Sn10  1  0.267594  0.269218  0.485879  1
  Sn  Sn11  1  0.731696  0.000046  0.014370  1
  Pt  Pt12  1  0.000006  0.006900  0.750000  1
  Pt  Pt13  1  0.000188  0.998299  0.250000  1
  Pt  Pt14  1  0.669179  0.333634  0.041957  1
  Pt  Pt15  1  0.331321  0.664714  0.456120  1
  Pt  Pt16  1  0.331321  0.664714  0.043880  1
  Pt  Pt17  1  0.669179  0.333634  0.458043  1
