# generated using pymatgen
data_DyEr2(Co2Si)3
_symmetry_space_group_name_H-M   'P 1'
_cell_length_a   5.20349500
_cell_length_b   5.20349351
_cell_length_c   14.72102300
_cell_angle_alpha   90.00000000
_cell_angle_beta   90.00000000
_cell_angle_gamma   119.99999042
_symmetry_Int_Tables_number   1
_chemical_formula_structural   DyEr2(Co2Si)3
_chemical_formula_sum   'Dy2 Er4 Co12 Si6'
_cell_volume   345.19049078
_cell_formula_units_Z   2
loop_
 _symmetry_equiv_pos_site_id
 _symmetry_equiv_pos_as_xyz
  1  'x, y, z'
loop_
 _atom_site_type_symbol
 _atom_site_label
 _atom_site_symmetry_multiplicity
 _atom_site_fract_x
 _atom_site_fract_y
 _atom_site_fract_z
 _atom_site_occupancy
  Dy  Dy0  1  0.333333  0.666667  0.750000  1
  Dy  Dy1  1  0.666667  0.333333  0.250000  1
  Er  Er2  1  0.333333  0.666667  0.537737  1
  Er  Er3  1  0.666667  0.333333  0.462263  1
  Er  Er4  1  0.666667  0.333333  0.037737  1
  Er  Er5  1  0.333333  0.666667  0.962263  1
  Co  Co6  1  0.166798  0.333596  0.130373  1
  Co  Co7  1  0.833202  0.666404  0.869627  1
  Co  Co8  1  0.666404  0.833202  0.130373  1
  Co  Co9  1  0.833202  0.666404  0.630373  1
  Co  Co10  1  0.333596  0.166798  0.869627  1
  Co  Co11  1  0.166798  0.333596  0.369627  1
  Co  Co12  1  0.166798  0.833202  0.130373  1
  Co  Co13  1  0.333596  0.166798  0.630373  1
  Co  Co14  1  0.833202  0.166798  0.869627  1
  Co  Co15  1  0.666404  0.833202  0.369627  1
  Co  Co16  1  0.833202  0.166798  0.630373  1
  Co  Co17  1  0.166798  0.833202  0.369627  1
  Si  Si18  1  0.000000  0.000000  0.250000  1
  Si  Si19  1  0.000000  0.000000  0.750000  1
  Si  Si20  1  0.333333  0.666667  0.250000  1
  Si  Si21  1  0.666667  0.333333  0.750000  1
  Si  Si22  1  0.000000  0.000000  0.000000  1
  Si  Si23  1  0.000000  0.000000  0.500000  1
