# generated using pymatgen
data_Tb12Co4BiRh
_symmetry_space_group_name_H-M   'P 1'
_cell_length_a   8.38957131
_cell_length_b   8.38957131
_cell_length_c   8.38957161
_cell_angle_alpha   110.94136441
_cell_angle_beta   110.41255850
_cell_angle_gamma   107.08620586
_symmetry_Int_Tables_number   1
_chemical_formula_structural   Tb12Co4BiRh
_chemical_formula_sum   'Tb12 Co4 Bi1 Rh1'
_cell_volume   453.96872402
_cell_formula_units_Z   1
loop_
 _symmetry_equiv_pos_site_id
 _symmetry_equiv_pos_as_xyz
  1  'x, y, z'
loop_
 _atom_site_type_symbol
 _atom_site_label
 _atom_site_symmetry_multiplicity
 _atom_site_fract_x
 _atom_site_fract_y
 _atom_site_fract_z
 _atom_site_occupancy
  Tb  Tb0  1  0.815967  0.708066  0.524033  1
  Tb  Tb1  1  0.184033  0.291934  0.475967  1
  Tb  Tb2  1  0.184033  0.708066  0.892100  1
  Tb  Tb3  1  0.815967  0.291934  0.107900  1
  Tb  Tb4  1  0.688412  0.379458  0.691046  1
  Tb  Tb5  1  0.311588  0.620542  0.308954  1
  Tb  Tb6  1  0.688412  0.997366  0.308954  1
  Tb  Tb7  1  0.311588  0.002634  0.691046  1
  Tb  Tb8  1  0.596526  0.793322  0.803205  1
  Tb  Tb9  1  0.403474  0.206678  0.196795  1
  Tb  Tb10  1  0.990118  0.793322  0.196795  1
  Tb  Tb11  1  0.009882  0.206678  0.803205  1
  Co  Co12  1  0.621196  0.000000  0.621196  1
  Co  Co13  1  0.378804  0.000000  0.378804  1
  Co  Co14  1  0.110909  0.610909  0.500000  1
  Co  Co15  1  0.889091  0.389091  0.500000  1
  Bi  Bi16  1  0.500000  0.500000  0.000000  1
  Rh  Rh17  1  0.000000  0.000000  0.000000  1
