# generated using pymatgen
data_Th2PPd14
_symmetry_space_group_name_H-M   'P 1'
_cell_length_a   9.02260800
_cell_length_b   9.02260800
_cell_length_c   7.08364600
_cell_angle_alpha   90.00000000
_cell_angle_beta   90.00000000
_cell_angle_gamma   90.00000000
_symmetry_Int_Tables_number   1
_chemical_formula_structural   Th2PPd14
_chemical_formula_sum   'Th4 P2 Pd28'
_cell_volume   576.66159384
_cell_formula_units_Z   2
loop_
 _symmetry_equiv_pos_site_id
 _symmetry_equiv_pos_as_xyz
  1  'x, y, z'
loop_
 _atom_site_type_symbol
 _atom_site_label
 _atom_site_symmetry_multiplicity
 _atom_site_fract_x
 _atom_site_fract_y
 _atom_site_fract_z
 _atom_site_occupancy
  Th  Th0  1  0.500000  0.000000  0.931749  1
  Th  Th1  1  0.000000  0.500000  0.068251  1
  Th  Th2  1  0.000000  0.000000  0.500000  1
  Th  Th3  1  0.500000  0.500000  0.500000  1
  P  P4  1  0.500000  0.000000  0.444875  1
  P  P5  1  0.000000  0.500000  0.555125  1
  Pd  Pd6  1  0.337062  0.837062  0.613750  1
  Pd  Pd7  1  0.337062  0.162938  0.613750  1
  Pd  Pd8  1  0.662938  0.837062  0.613750  1
  Pd  Pd9  1  0.662938  0.162938  0.613750  1
  Pd  Pd10  1  0.162938  0.662938  0.386250  1
  Pd  Pd11  1  0.162938  0.337062  0.386250  1
  Pd  Pd12  1  0.837062  0.662938  0.386250  1
  Pd  Pd13  1  0.837062  0.337062  0.386250  1
  Pd  Pd14  1  0.500000  0.771826  0.258131  1
  Pd  Pd15  1  0.500000  0.228174  0.258131  1
  Pd  Pd16  1  0.271826  0.000000  0.258131  1
  Pd  Pd17  1  0.728174  0.000000  0.258131  1
  Pd  Pd18  1  0.000000  0.728174  0.741869  1
  Pd  Pd19  1  0.000000  0.271826  0.741869  1
  Pd  Pd20  1  0.228174  0.500000  0.741869  1
  Pd  Pd21  1  0.771826  0.500000  0.741869  1
  Pd  Pd22  1  0.500000  0.348943  0.852163  1
  Pd  Pd23  1  0.500000  0.651057  0.852163  1
  Pd  Pd24  1  0.848943  0.000000  0.852163  1
  Pd  Pd25  1  0.151057  0.000000  0.852163  1
  Pd  Pd26  1  0.000000  0.151057  0.147837  1
  Pd  Pd27  1  0.000000  0.848943  0.147837  1
  Pd  Pd28  1  0.651057  0.500000  0.147837  1
  Pd  Pd29  1  0.348943  0.500000  0.147837  1
  Pd  Pd30  1  0.250000  0.750000  0.000000  1
  Pd  Pd31  1  0.250000  0.250000  0.000000  1
  Pd  Pd32  1  0.750000  0.750000  0.000000  1
  Pd  Pd33  1  0.750000  0.250000  0.000000  1
