# generated using pymatgen
data_Sc12Mn2Si12RuPt
_symmetry_space_group_name_H-M   'P 1'
_cell_length_a   3.98993600
_cell_length_b   10.29141031
_cell_length_c   11.71627656
_cell_angle_alpha   90.07625994
_cell_angle_beta   90.00002898
_cell_angle_gamma   90.00013860
_symmetry_Int_Tables_number   1
_chemical_formula_structural   Sc12Mn2Si12RuPt
_chemical_formula_sum   'Sc12 Mn2 Si12 Ru1 Pt1'
_cell_volume   481.09412435
_cell_formula_units_Z   1
loop_
 _symmetry_equiv_pos_site_id
 _symmetry_equiv_pos_as_xyz
  1  'x, y, z'
loop_
 _atom_site_type_symbol
 _atom_site_label
 _atom_site_symmetry_multiplicity
 _atom_site_fract_x
 _atom_site_fract_y
 _atom_site_fract_z
 _atom_site_occupancy
  Sc  Sc0  1  0.250002  0.878857  0.023155  1
  Sc  Sc1  1  0.249999  0.621467  0.521209  1
  Sc  Sc2  1  0.749999  0.125730  0.981879  1
  Sc  Sc3  1  0.750000  0.377282  0.479418  1
  Sc  Sc4  1  0.249999  0.921858  0.603022  1
  Sc  Sc5  1  0.249998  0.578874  0.103262  1
  Sc  Sc6  1  0.749999  0.077657  0.397890  1
  Sc  Sc7  1  0.750000  0.422650  0.897747  1
  Sc  Sc8  1  0.250000  0.656110  0.798396  1
  Sc  Sc9  1  0.250000  0.841099  0.298220  1
  Sc  Sc10  1  0.749998  0.338956  0.200802  1
  Sc  Sc11  1  0.749999  0.161947  0.699083  1
  Mn  Mn12  1  0.250009  0.388128  0.676016  1
  Mn  Mn13  1  0.249997  0.111784  0.175698  1
  Si  Si14  1  0.250000  0.020482  0.825121  1
  Si  Si15  1  0.249999  0.484837  0.322059  1
  Si  Si16  1  0.750000  0.984904  0.177273  1
  Si  Si17  1  0.750007  0.513638  0.678234  1
  Si  Si18  1  0.250000  0.253667  0.840398  1
  Si  Si19  1  0.250000  0.246575  0.341193  1
  Si  Si20  1  0.750000  0.748087  0.158006  1
  Si  Si21  1  0.749999  0.748899  0.655501  1
  Si  Si22  1  0.250001  0.194974  0.544050  1
  Si  Si23  1  0.249999  0.306831  0.044548  1
  Si  Si24  1  0.750000  0.805426  0.455032  1
  Si  Si25  1  0.749999  0.690768  0.956866  1
  Ru  Ru26  1  0.750000  0.610652  0.322877  1
  Pt  Pt27  1  0.749999  0.887864  0.823042  1
