# generated using pymatgen
data_La4H9Pd2O3
_symmetry_space_group_name_H-M   'P 1'
_cell_length_a   7.35802912
_cell_length_b   7.35802964
_cell_length_c   5.64936000
_cell_angle_alpha   90.13059316
_cell_angle_beta   89.86939904
_cell_angle_gamma   134.79255302
_symmetry_Int_Tables_number   1
_chemical_formula_structural   La4H9Pd2O3
_chemical_formula_sum   'La4 H9 Pd2 O3'
_cell_volume   217.05645492
_cell_formula_units_Z   1
loop_
 _symmetry_equiv_pos_site_id
 _symmetry_equiv_pos_as_xyz
  1  'x, y, z'
loop_
 _atom_site_type_symbol
 _atom_site_label
 _atom_site_symmetry_multiplicity
 _atom_site_fract_x
 _atom_site_fract_y
 _atom_site_fract_z
 _atom_site_occupancy
  La  La0  1  0.339025  0.648093  0.992571  1
  La  La1  1  0.852677  0.161513  0.507194  1
  La  La2  1  0.661513  0.352677  0.992806  1
  La  La3  1  0.148093  0.839025  0.507429  1
  H  H4  1  0.500876  0.000876  0.250000  1
  H  H5  1  0.144516  0.898402  0.017525  1
  H  H6  1  0.602627  0.355935  0.486064  1
  H  H7  1  0.855935  0.102627  0.013936  1
  H  H8  1  0.398402  0.644516  0.482475  1
  H  H9  1  0.776416  0.770486  0.227697  1
  H  H10  1  0.219240  0.224742  0.781188  1
  H  H11  1  0.724742  0.719240  0.718812  1
  H  H12  1  0.270486  0.276416  0.272303  1
  Pd  Pd13  1  0.001766  0.002198  0.009175  1
  Pd  Pd14  1  0.502198  0.501766  0.490825  1
  O  O15  1  0.000769  0.500769  0.250000  1
  O  O16  1  0.500343  0.000343  0.750000  1
  O  O17  1  0.000377  0.500377  0.750000  1
