# generated using pymatgen
data_Sm2Dy4PtRh17
_symmetry_space_group_name_H-M   'P 1'
_cell_length_a   5.29287393
_cell_length_b   5.29078606
_cell_length_c   17.50379700
_cell_angle_alpha   90.00100957
_cell_angle_beta   90.00050165
_cell_angle_gamma   119.98846789
_symmetry_Int_Tables_number   1
_chemical_formula_structural   Sm2Dy4PtRh17
_chemical_formula_sum   'Sm2 Dy4 Pt1 Rh17'
_cell_volume   424.54634462
_cell_formula_units_Z   1
loop_
 _symmetry_equiv_pos_site_id
 _symmetry_equiv_pos_as_xyz
  1  'x, y, z'
loop_
 _atom_site_type_symbol
 _atom_site_label
 _atom_site_symmetry_multiplicity
 _atom_site_fract_x
 _atom_site_fract_y
 _atom_site_fract_z
 _atom_site_occupancy
  Sm  Sm0  1  0.333328  0.666669  0.750111  1
  Sm  Sm1  1  0.666672  0.333331  0.249889  1
  Dy  Dy2  1  0.333300  0.666631  0.958078  1
  Dy  Dy3  1  0.666700  0.333369  0.041922  1
  Dy  Dy4  1  0.666690  0.333344  0.457253  1
  Dy  Dy5  1  0.333310  0.666656  0.542747  1
  Pt  Pt6  1  0.000000  0.000000  0.500000  1
  Rh  Rh7  1  0.167569  0.832452  0.373849  1
  Rh  Rh8  1  0.167593  0.335129  0.373859  1
  Rh  Rh9  1  0.664917  0.832445  0.373837  1
  Rh  Rh10  1  0.832431  0.167548  0.626151  1
  Rh  Rh11  1  0.832407  0.664871  0.626141  1
  Rh  Rh12  1  0.335083  0.167555  0.626163  1
  Rh  Rh13  1  0.832649  0.167325  0.874574  1
  Rh  Rh14  1  0.832653  0.665312  0.874589  1
  Rh  Rh15  1  0.334619  0.167299  0.874571  1
  Rh  Rh16  1  0.167351  0.832675  0.125426  1
  Rh  Rh17  1  0.167347  0.334688  0.125411  1
  Rh  Rh18  1  0.665381  0.832701  0.125429  1
  Rh  Rh19  1  0.333379  0.666675  0.250154  1
  Rh  Rh20  1  0.666621  0.333325  0.749846  1
  Rh  Rh21  1  0.999941  0.999991  0.249646  1
  Rh  Rh22  1  0.000059  0.000009  0.750354  1
  Rh  Rh23  1  0.000000  0.000000  0.000000  1
