# generated using pymatgen
data_RbPuO4
_symmetry_space_group_name_H-M   'P 1'
_cell_length_a   8.25001900
_cell_length_b   6.27451953
_cell_length_c   8.27849487
_cell_angle_alpha   88.84056364
_cell_angle_beta   90.00000000
_cell_angle_gamma   90.00000000
_symmetry_Int_Tables_number   1
_chemical_formula_structural   RbPuO4
_chemical_formula_sum   'Rb4 Pu4 O16'
_cell_volume   428.44776491
_cell_formula_units_Z   4
loop_
 _symmetry_equiv_pos_site_id
 _symmetry_equiv_pos_as_xyz
  1  'x, y, z'
loop_
 _atom_site_type_symbol
 _atom_site_label
 _atom_site_symmetry_multiplicity
 _atom_site_fract_x
 _atom_site_fract_y
 _atom_site_fract_z
 _atom_site_occupancy
  Rb  Rb0  1  0.295144  0.489101  0.253346  1
  Rb  Rb1  1  0.795144  0.510899  0.246654  1
  Rb  Rb2  1  0.704856  0.510899  0.746654  1
  Rb  Rb3  1  0.204856  0.489101  0.753346  1
  Pu  Pu4  1  0.000000  0.000000  0.000000  1
  Pu  Pu5  1  0.000000  0.000000  0.500000  1
  Pu  Pu6  1  0.500000  0.000000  0.000000  1
  Pu  Pu7  1  0.500000  0.000000  0.500000  1
  O  O8  1  0.934689  0.273699  0.950894  1
  O  O9  1  0.948657  0.275023  0.553865  1
  O  O10  1  0.448657  0.724977  0.946135  1
  O  O11  1  0.051343  0.724977  0.446135  1
  O  O12  1  0.227563  0.098486  0.996133  1
  O  O13  1  0.727563  0.901514  0.503867  1
  O  O14  1  0.772437  0.901514  0.003867  1
  O  O15  1  0.272437  0.098486  0.496133  1
  O  O16  1  0.017006  0.918215  0.730434  1
  O  O17  1  0.517006  0.081785  0.769566  1
  O  O18  1  0.982994  0.081785  0.269566  1
  O  O19  1  0.482994  0.918215  0.230434  1
  O  O20  1  0.565311  0.273699  0.450894  1
  O  O21  1  0.434689  0.726301  0.549106  1
  O  O22  1  0.065311  0.726301  0.049106  1
  O  O23  1  0.551343  0.275023  0.053865  1
