# generated using pymatgen
data_NaNd(NbSe2)6
_symmetry_space_group_name_H-M   'P 1'
_cell_length_a   6.07429300
_cell_length_b   6.07429321
_cell_length_c   15.15790400
_cell_angle_alpha   90.00000000
_cell_angle_beta   90.00000000
_cell_angle_gamma   120.00000431
_symmetry_Int_Tables_number   1
_chemical_formula_structural   NaNd(NbSe2)6
_chemical_formula_sum   'Na1 Nd1 Nb6 Se12'
_cell_volume   484.35217404
_cell_formula_units_Z   1
loop_
 _symmetry_equiv_pos_site_id
 _symmetry_equiv_pos_as_xyz
  1  'x, y, z'
loop_
 _atom_site_type_symbol
 _atom_site_label
 _atom_site_symmetry_multiplicity
 _atom_site_fract_x
 _atom_site_fract_y
 _atom_site_fract_z
 _atom_site_occupancy
  Na  Na0  1  0.333333  0.666667  0.250000  1
  Nd  Nd1  1  0.666667  0.333333  0.750000  1
  Nb  Nb2  1  0.333333  0.666667  0.999802  1
  Nb  Nb3  1  0.000000  0.000000  0.999460  1
  Nb  Nb4  1  0.666667  0.333333  0.996363  1
  Nb  Nb5  1  0.333333  0.666667  0.500198  1
  Nb  Nb6  1  0.000000  0.000000  0.500540  1
  Nb  Nb7  1  0.666667  0.333333  0.503637  1
  Se  Se8  1  0.670337  0.664862  0.391480  1
  Se  Se9  1  0.665857  0.673981  0.612406  1
  Se  Se10  1  0.008125  0.673981  0.887594  1
  Se  Se11  1  0.665857  0.991875  0.887594  1
  Se  Se12  1  0.670337  0.005475  0.108520  1
  Se  Se13  1  0.335138  0.005475  0.391480  1
  Se  Se14  1  0.008125  0.334143  0.612406  1
  Se  Se15  1  0.326019  0.991875  0.612406  1
  Se  Se16  1  0.994525  0.664862  0.108520  1
  Se  Se17  1  0.326019  0.334143  0.887594  1
  Se  Se18  1  0.994525  0.329663  0.391480  1
  Se  Se19  1  0.335138  0.329663  0.108520  1
