# generated using pymatgen
data_Tb2NdHo5(CdIr)2
_symmetry_space_group_name_H-M   'P 1'
_cell_length_a   9.64871434
_cell_length_b   9.64871478
_cell_length_c   9.64505400
_cell_angle_alpha   60.01254299
_cell_angle_beta   60.01254148
_cell_angle_gamma   59.97490586
_symmetry_Int_Tables_number   1
_chemical_formula_structural   Tb2NdHo5(CdIr)2
_chemical_formula_sum   'Tb4 Nd2 Ho10 Cd4 Ir4'
_cell_volume   634.93376997
_cell_formula_units_Z   2
loop_
 _symmetry_equiv_pos_site_id
 _symmetry_equiv_pos_as_xyz
  1  'x, y, z'
loop_
 _atom_site_type_symbol
 _atom_site_label
 _atom_site_symmetry_multiplicity
 _atom_site_fract_x
 _atom_site_fract_y
 _atom_site_fract_z
 _atom_site_occupancy
  Tb  Tb0  1  0.940267  0.559733  0.559733  1
  Tb  Tb1  1  0.559733  0.940267  0.940267  1
  Tb  Tb2  1  0.559733  0.940267  0.559733  1
  Tb  Tb3  1  0.940267  0.559733  0.940267  1
  Nd  Nd4  1  0.562566  0.562566  0.937434  1
  Nd  Nd5  1  0.937434  0.937434  0.562566  1
  Ho  Ho6  1  0.347975  0.347975  0.348314  1
  Ho  Ho7  1  0.347975  0.347975  0.955736  1
  Ho  Ho8  1  0.348314  0.955736  0.347975  1
  Ho  Ho9  1  0.955736  0.348314  0.347975  1
  Ho  Ho10  1  0.811857  0.188143  0.188143  1
  Ho  Ho11  1  0.188143  0.811857  0.811857  1
  Ho  Ho12  1  0.188143  0.811857  0.188143  1
  Ho  Ho13  1  0.811857  0.188143  0.811857  1
  Ho  Ho14  1  0.188763  0.188763  0.811237  1
  Ho  Ho15  1  0.811237  0.811237  0.188763  1
  Cd  Cd16  1  0.580885  0.580885  0.578788  1
  Cd  Cd17  1  0.580885  0.580885  0.259443  1
  Cd  Cd18  1  0.578788  0.259443  0.580885  1
  Cd  Cd19  1  0.259443  0.578788  0.580885  1
  Ir  Ir20  1  0.142517  0.142517  0.139509  1
  Ir  Ir21  1  0.142517  0.142517  0.575455  1
  Ir  Ir22  1  0.139509  0.575455  0.142517  1
  Ir  Ir23  1  0.575455  0.139509  0.142517  1
