# generated using pymatgen
data_Ce2Er14Mg3CdIr4
_symmetry_space_group_name_H-M   'P 1'
_cell_length_a   9.60641293
_cell_length_b   9.62668304
_cell_length_c   9.66456400
_cell_angle_alpha   59.86974580
_cell_angle_beta   59.79955363
_cell_angle_gamma   59.60240848
_symmetry_Int_Tables_number   1
_chemical_formula_structural   Ce2Er14Mg3CdIr4
_chemical_formula_sum   'Ce2 Er14 Mg3 Cd1 Ir4'
_cell_volume   628.49155289
_cell_formula_units_Z   1
loop_
 _symmetry_equiv_pos_site_id
 _symmetry_equiv_pos_as_xyz
  1  'x, y, z'
loop_
 _atom_site_type_symbol
 _atom_site_label
 _atom_site_symmetry_multiplicity
 _atom_site_fract_x
 _atom_site_fract_y
 _atom_site_fract_z
 _atom_site_occupancy
  Ce  Ce0  1  0.595778  0.596110  0.598551  1
  Ce  Ce1  1  0.595778  0.596110  0.209559  1
  Er  Er2  1  0.600001  0.201803  0.599098  1
  Er  Er3  1  0.203752  0.599721  0.598263  1
  Er  Er4  1  0.063034  0.437112  0.437917  1
  Er  Er5  1  0.438320  0.061812  0.061372  1
  Er  Er6  1  0.438320  0.061812  0.438494  1
  Er  Er7  1  0.063034  0.437112  0.061937  1
  Er  Er8  1  0.436975  0.436184  0.063420  1
  Er  Er9  1  0.063229  0.063474  0.436648  1
  Er  Er10  1  0.190056  0.813971  0.813389  1
  Er  Er11  1  0.814578  0.187634  0.184185  1
  Er  Er12  1  0.814578  0.187634  0.813603  1
  Er  Er13  1  0.190056  0.813971  0.182585  1
  Er  Er14  1  0.815499  0.815117  0.184692  1
  Er  Er15  1  0.191766  0.187295  0.810470  1
  Mg  Mg16  1  0.825872  0.829165  0.831272  1
  Mg  Mg17  1  0.825872  0.829165  0.513690  1
  Mg  Mg18  1  0.824973  0.511939  0.831544  1
  Cd  Cd19  1  0.503867  0.830381  0.832876  1
  Ir  Ir20  1  0.393224  0.392535  0.391395  1
  Ir  Ir21  1  0.393224  0.392535  0.822846  1
  Ir  Ir22  1  0.395120  0.822806  0.391037  1
  Ir  Ir23  1  0.823090  0.394601  0.391155  1
