# generated using pymatgen
data_Nd3Tm(Sc4Bi3)4
_symmetry_space_group_name_H-M   'P 1'
_cell_length_a   7.95310126
_cell_length_b   9.10887100
_cell_length_c   11.66510338
_cell_angle_alpha   90.00000000
_cell_angle_beta   89.97073721
_cell_angle_gamma   90.00000000
_symmetry_Int_Tables_number   1
_chemical_formula_structural   Nd3Tm(Sc4Bi3)4
_chemical_formula_sum   'Nd3 Tm1 Sc16 Bi12'
_cell_volume   845.06399600
_cell_formula_units_Z   1
loop_
 _symmetry_equiv_pos_site_id
 _symmetry_equiv_pos_as_xyz
  1  'x, y, z'
loop_
 _atom_site_type_symbol
 _atom_site_label
 _atom_site_symmetry_multiplicity
 _atom_site_fract_x
 _atom_site_fract_y
 _atom_site_fract_z
 _atom_site_occupancy
  Nd  Nd0  1  0.182059  0.250000  0.780616  1
  Nd  Nd1  1  0.818792  0.750000  0.219460  1
  Nd  Nd2  1  0.317999  0.750000  0.280391  1
  Tm  Tm3  1  0.683484  0.250000  0.717782  1
  Sc  Sc4  1  0.016785  0.250000  0.512871  1
  Sc  Sc5  1  0.981681  0.750000  0.489790  1
  Sc  Sc6  1  0.483997  0.750000  0.010471  1
  Sc  Sc7  1  0.517432  0.250000  0.987899  1
  Sc  Sc8  1  0.348567  0.250000  0.279431  1
  Sc  Sc9  1  0.652156  0.750000  0.722051  1
  Sc  Sc10  1  0.150466  0.750000  0.776617  1
  Sc  Sc11  1  0.847538  0.250000  0.221403  1
  Sc  Sc12  1  0.191015  0.067778  0.063679  1
  Sc  Sc13  1  0.808912  0.932899  0.935685  1
  Sc  Sc14  1  0.306709  0.933126  0.563833  1
  Sc  Sc15  1  0.808912  0.567101  0.935685  1
  Sc  Sc16  1  0.692328  0.066974  0.436939  1
  Sc  Sc17  1  0.191015  0.432222  0.063679  1
  Sc  Sc18  1  0.692328  0.433026  0.436939  1
  Sc  Sc19  1  0.306709  0.566874  0.563833  1
  Bi  Bi20  1  0.404723  0.250000  0.532337  1
  Bi  Bi21  1  0.598545  0.750000  0.471655  1
  Bi  Bi22  1  0.100754  0.750000  0.027806  1
  Bi  Bi23  1  0.898163  0.250000  0.969441  1
  Bi  Bi24  1  0.064062  0.014415  0.331462  1
  Bi  Bi25  1  0.931295  0.988976  0.670319  1
  Bi  Bi26  1  0.440456  0.988920  0.828760  1
  Bi  Bi27  1  0.931295  0.511024  0.670319  1
  Bi  Bi28  1  0.563651  0.014155  0.169313  1
  Bi  Bi29  1  0.064062  0.485585  0.331462  1
  Bi  Bi30  1  0.563651  0.485845  0.169313  1
  Bi  Bi31  1  0.440456  0.511080  0.828760  1
