# generated using pymatgen
data_TiV3InSe8
_symmetry_space_group_name_H-M   'P 1'
_cell_length_a   7.44370063
_cell_length_b   7.49174244
_cell_length_c   7.44061616
_cell_angle_alpha   60.22043360
_cell_angle_beta   60.00592566
_cell_angle_gamma   60.22971416
_symmetry_Int_Tables_number   1
_chemical_formula_structural   TiV3InSe8
_chemical_formula_sum   'Ti1 V3 In1 Se8'
_cell_volume   294.41120135
_cell_formula_units_Z   1
loop_
 _symmetry_equiv_pos_site_id
 _symmetry_equiv_pos_as_xyz
  1  'x, y, z'
loop_
 _atom_site_type_symbol
 _atom_site_label
 _atom_site_symmetry_multiplicity
 _atom_site_fract_x
 _atom_site_fract_y
 _atom_site_fract_z
 _atom_site_occupancy
  Ti  Ti0  1  0.517378  0.947677  0.517528  1
  V  V1  1  0.518874  0.513981  0.518870  1
  V  V2  1  0.518845  0.513946  0.948317  1
  V  V3  1  0.948163  0.513991  0.518920  1
  In  In4  1  0.126460  0.120385  0.126655  1
  Se  Se5  1  0.750834  0.752046  0.751047  1
  Se  Se6  1  0.262890  0.272536  0.701834  1
  Se  Se7  1  0.268314  0.695182  0.268213  1
  Se  Se8  1  0.702026  0.272449  0.262739  1
  Se  Se9  1  0.751324  0.245999  0.751304  1
  Se  Se10  1  0.246199  0.752073  0.750864  1
  Se  Se11  1  0.262868  0.272532  0.262736  1
  Se  Se12  1  0.750840  0.752199  0.245957  1
