# generated using pymatgen
data_NdY3(In2Pd3)4
_symmetry_space_group_name_H-M   'P 1'
_cell_length_a   4.64102400
_cell_length_b   9.83533493
_cell_length_c   10.39497100
_cell_angle_alpha   89.95576112
_cell_angle_beta   90.00000000
_cell_angle_gamma   90.00000000
_symmetry_Int_Tables_number   1
_chemical_formula_structural   NdY3(In2Pd3)4
_chemical_formula_sum   'Nd1 Y3 In8 Pd12'
_cell_volume   474.48896955
_cell_formula_units_Z   1
loop_
 _symmetry_equiv_pos_site_id
 _symmetry_equiv_pos_as_xyz
  1  'x, y, z'
loop_
 _atom_site_type_symbol
 _atom_site_label
 _atom_site_symmetry_multiplicity
 _atom_site_fract_x
 _atom_site_fract_y
 _atom_site_fract_z
 _atom_site_occupancy
  Nd  Nd0  1  0.250000  0.446876  0.727767  1
  Y  Y1  1  0.250000  0.053838  0.224389  1
  Y  Y2  1  0.750000  0.553873  0.275053  1
  Y  Y3  1  0.750000  0.945647  0.775982  1
  In  In4  1  0.250000  0.885931  0.511379  1
  In  In5  1  0.250000  0.614456  0.014794  1
  In  In6  1  0.750000  0.113996  0.487447  1
  In  In7  1  0.750000  0.385623  0.987636  1
  In  In8  1  0.250000  0.162003  0.896516  1
  In  In9  1  0.250000  0.335828  0.394297  1
  In  In10  1  0.750000  0.836347  0.105026  1
  In  In11  1  0.750000  0.665405  0.603345  1
  Pd  Pd12  1  0.250000  0.139844  0.625898  1
  Pd  Pd13  1  0.250000  0.357433  0.125497  1
  Pd  Pd14  1  0.750000  0.857642  0.373788  1
  Pd  Pd15  1  0.750000  0.645613  0.875835  1
  Pd  Pd16  1  0.250000  0.748500  0.739922  1
  Pd  Pd17  1  0.250000  0.756164  0.239871  1
  Pd  Pd18  1  0.750000  0.255000  0.259842  1
  Pd  Pd19  1  0.750000  0.240424  0.759687  1
  Pd  Pd20  1  0.250000  0.895844  0.973598  1
  Pd  Pd21  1  0.250000  0.604133  0.470676  1
  Pd  Pd22  1  0.750000  0.102883  0.027415  1
  Pd  Pd23  1  0.750000  0.396695  0.524340  1
