# generated using pymatgen
data_Hf2ScIn3Rh2
_symmetry_space_group_name_H-M   'P 1'
_cell_length_a   7.44470800
_cell_length_b   7.54149879
_cell_length_c   3.29689500
_cell_angle_alpha   90.00000000
_cell_angle_beta   90.00000000
_cell_angle_gamma   119.57634988
_symmetry_Int_Tables_number   1
_chemical_formula_structural   Hf2ScIn3Rh2
_chemical_formula_sum   'Hf2 Sc1 In3 Rh2'
_cell_volume   160.98273113
_cell_formula_units_Z   1
loop_
 _symmetry_equiv_pos_site_id
 _symmetry_equiv_pos_as_xyz
  1  'x, y, z'
loop_
 _atom_site_type_symbol
 _atom_site_label
 _atom_site_symmetry_multiplicity
 _atom_site_fract_x
 _atom_site_fract_y
 _atom_site_fract_z
 _atom_site_occupancy
  Hf  Hf0  1  0.577670  0.577414  0.500000  1
  Hf  Hf1  1  0.000256  0.422586  0.500000  1
  Sc  Sc2  1  0.420233  0.000000  0.500000  1
  In  In3  1  0.765644  0.000000  0.000000  1
  In  In4  1  0.232927  0.231943  0.000000  1
  In  In5  1  0.000983  0.768057  0.000000  1
  Rh  Rh6  1  0.332544  0.662801  0.000000  1
  Rh  Rh7  1  0.669743  0.337199  0.000000  1
