# generated using pymatgen
data_Tb2Co8CuTcP6
_symmetry_space_group_name_H-M   'P 1'
_cell_length_a   3.71058100
_cell_length_b   10.36956100
_cell_length_c   11.81714500
_cell_angle_alpha   90.00000000
_cell_angle_beta   90.00000000
_cell_angle_gamma   90.00000000
_symmetry_Int_Tables_number   1
_chemical_formula_structural   Tb2Co8CuTcP6
_chemical_formula_sum   'Tb4 Co16 Cu2 Tc2 P12'
_cell_volume   454.68942291
_cell_formula_units_Z   2
loop_
 _symmetry_equiv_pos_site_id
 _symmetry_equiv_pos_as_xyz
  1  'x, y, z'
loop_
 _atom_site_type_symbol
 _atom_site_label
 _atom_site_symmetry_multiplicity
 _atom_site_fract_x
 _atom_site_fract_y
 _atom_site_fract_z
 _atom_site_occupancy
  Tb  Tb0  1  0.250000  0.583423  0.703101  1
  Tb  Tb1  1  0.250000  0.916577  0.203101  1
  Tb  Tb2  1  0.750000  0.417052  0.296163  1
  Tb  Tb3  1  0.750000  0.082948  0.796163  1
  Co  Co4  1  0.250000  0.408098  0.487137  1
  Co  Co5  1  0.250000  0.091902  0.987137  1
  Co  Co6  1  0.750000  0.593525  0.510824  1
  Co  Co7  1  0.750000  0.906475  0.010824  1
  Co  Co8  1  0.250000  0.220444  0.175728  1
  Co  Co9  1  0.250000  0.279556  0.675728  1
  Co  Co10  1  0.750000  0.778143  0.823281  1
  Co  Co11  1  0.750000  0.721857  0.323281  1
  Co  Co12  1  0.250000  0.884755  0.701898  1
  Co  Co13  1  0.250000  0.615245  0.201898  1
  Co  Co14  1  0.750000  0.116632  0.301313  1
  Co  Co15  1  0.750000  0.383368  0.801313  1
  Co  Co16  1  0.250000  0.463969  0.932454  1
  Co  Co17  1  0.250000  0.036031  0.432454  1
  Co  Co18  1  0.750000  0.532785  0.069350  1
  Co  Co19  1  0.750000  0.967215  0.569350  1
  Cu  Cu20  1  0.750000  0.286612  0.009255  1
  Cu  Cu21  1  0.750000  0.213388  0.509255  1
  Tc  Tc22  1  0.250000  0.709848  0.990352  1
  Tc  Tc23  1  0.250000  0.790152  0.490352  1
  P  P24  1  0.250000  0.420195  0.114131  1
  P  P25  1  0.250000  0.079805  0.614131  1
  P  P26  1  0.750000  0.578597  0.887937  1
  P  P27  1  0.750000  0.921403  0.387937  1
  P  P28  1  0.250000  0.271001  0.863307  1
  P  P29  1  0.250000  0.228999  0.363307  1
  P  P30  1  0.750000  0.728544  0.132935  1
  P  P31  1  0.750000  0.771456  0.632935  1
  P  P32  1  0.250000  0.597395  0.391955  1
  P  P33  1  0.250000  0.902605  0.891955  1
  P  P34  1  0.750000  0.400169  0.608877  1
  P  P35  1  0.750000  0.099831  0.108877  1
