# generated using pymatgen
data_Tb2ThSc2AlIr3
_symmetry_space_group_name_H-M   'P 1'
_cell_length_a   7.17015330
_cell_length_b   7.17015411
_cell_length_c   4.29583000
_cell_angle_alpha   90.00000000
_cell_angle_beta   90.00000000
_cell_angle_gamma   118.83903433
_symmetry_Int_Tables_number   1
_chemical_formula_structural   Tb2ThSc2AlIr3
_chemical_formula_sum   'Tb2 Th1 Sc2 Al1 Ir3'
_cell_volume   193.46274713
_cell_formula_units_Z   1
loop_
 _symmetry_equiv_pos_site_id
 _symmetry_equiv_pos_as_xyz
  1  'x, y, z'
loop_
 _atom_site_type_symbol
 _atom_site_label
 _atom_site_symmetry_multiplicity
 _atom_site_fract_x
 _atom_site_fract_y
 _atom_site_fract_z
 _atom_site_occupancy
  Tb  Tb0  1  0.411585  0.012328  0.500000  1
  Tb  Tb1  1  0.012328  0.411585  0.500000  1
  Th  Th2  1  0.567744  0.567744  0.500000  1
  Sc  Sc3  1  0.759647  0.014042  0.000000  1
  Sc  Sc4  1  0.014042  0.759647  0.000000  1
  Al  Al5  1  0.234717  0.234717  0.000000  1
  Ir  Ir6  1  0.346233  0.662650  0.000000  1
  Ir  Ir7  1  0.662650  0.346233  0.000000  1
  Ir  Ir8  1  0.991056  0.991056  0.500000  1
