# generated using pymatgen
data_Dy6Ho4Si5As
_symmetry_space_group_name_H-M   'P 1'
_cell_length_a   8.43522200
_cell_length_b   8.45014061
_cell_length_c   6.30649900
_cell_angle_alpha   90.00000000
_cell_angle_beta   90.00000000
_cell_angle_gamma   119.94161534
_symmetry_Int_Tables_number   1
_chemical_formula_structural   Dy6Ho4Si5As
_chemical_formula_sum   'Dy6 Ho4 Si5 As1'
_cell_volume   389.52435780
_cell_formula_units_Z   1
loop_
 _symmetry_equiv_pos_site_id
 _symmetry_equiv_pos_as_xyz
  1  'x, y, z'
loop_
 _atom_site_type_symbol
 _atom_site_label
 _atom_site_symmetry_multiplicity
 _atom_site_fract_x
 _atom_site_fract_y
 _atom_site_fract_z
 _atom_site_occupancy
  Dy  Dy0  1  0.996515  0.753625  0.750000  1
  Dy  Dy1  1  0.000211  0.244048  0.250000  1
  Dy  Dy2  1  0.756163  0.755952  0.250000  1
  Dy  Dy3  1  0.758198  0.000000  0.750000  1
  Dy  Dy4  1  0.242890  0.246375  0.750000  1
  Dy  Dy5  1  0.243148  0.000000  0.250000  1
  Ho  Ho6  1  0.332993  0.663894  0.498778  1
  Ho  Ho7  1  0.669100  0.336106  0.001222  1
  Ho  Ho8  1  0.669100  0.336106  0.498778  1
  Ho  Ho9  1  0.332993  0.663894  0.001222  1
  Si  Si10  1  0.394215  0.393172  0.250000  1
  Si  Si11  1  0.001043  0.606828  0.250000  1
  Si  Si12  1  0.999792  0.394126  0.750000  1
  Si  Si13  1  0.605666  0.605874  0.750000  1
  Si  Si14  1  0.606769  0.000000  0.250000  1
  As  As15  1  0.391203  0.000000  0.750000  1
