# generated using pymatgen
data_Y4MgAl19Pt12
_symmetry_space_group_name_H-M   'P 1'
_cell_length_a   4.08517400
_cell_length_b   7.46894160
_cell_length_c   20.57799872
_cell_angle_alpha   90.09747165
_cell_angle_beta   90.00000000
_cell_angle_gamma   90.00000000
_symmetry_Int_Tables_number   1
_chemical_formula_structural   Y4MgAl19Pt12
_chemical_formula_sum   'Y4 Mg1 Al19 Pt12'
_cell_volume   627.87346658
_cell_formula_units_Z   1
loop_
 _symmetry_equiv_pos_site_id
 _symmetry_equiv_pos_as_xyz
  1  'x, y, z'
loop_
 _atom_site_type_symbol
 _atom_site_label
 _atom_site_symmetry_multiplicity
 _atom_site_fract_x
 _atom_site_fract_y
 _atom_site_fract_z
 _atom_site_occupancy
  Y  Y0  1  0.250000  0.118304  0.639230  1
  Y  Y1  1  0.750000  0.883899  0.359478  1
  Y  Y2  1  0.250000  0.385847  0.138017  1
  Y  Y3  1  0.750000  0.614667  0.860673  1
  Mg  Mg4  1  0.750000  0.359219  0.383119  1
  Al  Al5  1  0.750000  0.884613  0.983884  1
  Al  Al6  1  0.750000  0.684422  0.199967  1
  Al  Al7  1  0.250000  0.868829  0.496156  1
  Al  Al8  1  0.250000  0.630807  0.990918  1
  Al  Al9  1  0.250000  0.315951  0.799458  1
  Al  Al10  1  0.750000  0.068625  0.209332  1
  Al  Al11  1  0.250000  0.640478  0.618587  1
  Al  Al12  1  0.250000  0.567495  0.290927  1
  Al  Al13  1  0.250000  0.182604  0.299261  1
  Al  Al14  1  0.750000  0.145279  0.881975  1
  Al  Al15  1  0.250000  0.929036  0.791036  1
  Al  Al16  1  0.750000  0.369362  0.008087  1
  Al  Al17  1  0.750000  0.620862  0.485124  1
  Al  Al18  1  0.750000  0.128504  0.509598  1
  Al  Al19  1  0.250000  0.116327  0.016021  1
  Al  Al20  1  0.250000  0.855363  0.117755  1
  Al  Al21  1  0.250000  0.385096  0.512425  1
  Al  Al22  1  0.750000  0.428551  0.708333  1
  Al  Al23  1  0.750000  0.816276  0.701722  1
  Pt  Pt24  1  0.750000  0.378709  0.254628  1
  Pt  Pt25  1  0.250000  0.876360  0.240820  1
  Pt  Pt26  1  0.250000  0.619978  0.741486  1
  Pt  Pt27  1  0.750000  0.121780  0.759051  1
  Pt  Pt28  1  0.250000  0.145952  0.428107  1
  Pt  Pt29  1  0.750000  0.417337  0.584395  1
  Pt  Pt30  1  0.750000  0.081834  0.085765  1
  Pt  Pt31  1  0.250000  0.918939  0.914563  1
  Pt  Pt32  1  0.750000  0.839520  0.575923  1
  Pt  Pt33  1  0.250000  0.339848  0.926210  1
  Pt  Pt34  1  0.750000  0.659971  0.073288  1
  Pt  Pt35  1  0.250000  0.599356  0.414681  1
