# generated using pymatgen
data_Hf4Fe3Si4Rh
_symmetry_space_group_name_H-M   'P 1'
_cell_length_a   3.94299300
_cell_length_b   6.38333855
_cell_length_c   7.13311115
_cell_angle_alpha   90.54905472
_cell_angle_beta   90.00000000
_cell_angle_gamma   90.00000000
_symmetry_Int_Tables_number   1
_chemical_formula_structural   Hf4Fe3Si4Rh
_chemical_formula_sum   'Hf4 Fe3 Si4 Rh1'
_cell_volume   179.52830676
_cell_formula_units_Z   1
loop_
 _symmetry_equiv_pos_site_id
 _symmetry_equiv_pos_as_xyz
  1  'x, y, z'
loop_
 _atom_site_type_symbol
 _atom_site_label
 _atom_site_symmetry_multiplicity
 _atom_site_fract_x
 _atom_site_fract_y
 _atom_site_fract_z
 _atom_site_occupancy
  Hf  Hf0  1  0.250000  0.498129  0.192666  1
  Hf  Hf1  1  0.750000  0.491917  0.811717  1
  Hf  Hf2  1  0.250000  0.009619  0.298936  1
  Hf  Hf3  1  0.750000  0.998047  0.700760  1
  Fe  Fe4  1  0.750000  0.846077  0.064746  1
  Fe  Fe5  1  0.250000  0.156474  0.934552  1
  Fe  Fe6  1  0.750000  0.344536  0.432525  1
  Si  Si7  1  0.250000  0.789420  0.902239  1
  Si  Si8  1  0.750000  0.211950  0.108164  1
  Si  Si9  1  0.250000  0.279833  0.608983  1
  Si  Si10  1  0.750000  0.716139  0.377480  1
  Rh  Rh11  1  0.250000  0.657859  0.567232  1
