# generated using pymatgen
data_YTm2In3Ga2Pd
_symmetry_space_group_name_H-M   'P 1'
_cell_length_a   7.24568400
_cell_length_b   7.24483058
_cell_length_c   4.43220600
_cell_angle_alpha   90.00000000
_cell_angle_beta   90.00000000
_cell_angle_gamma   119.99609810
_symmetry_Int_Tables_number   1
_chemical_formula_structural   YTm2In3Ga2Pd
_chemical_formula_sum   'Y1 Tm2 In3 Ga2 Pd1'
_cell_volume   201.50010028
_cell_formula_units_Z   1
loop_
 _symmetry_equiv_pos_site_id
 _symmetry_equiv_pos_as_xyz
  1  'x, y, z'
loop_
 _atom_site_type_symbol
 _atom_site_label
 _atom_site_symmetry_multiplicity
 _atom_site_fract_x
 _atom_site_fract_y
 _atom_site_fract_z
 _atom_site_occupancy
  Y  Y0  1  0.000000  0.585562  0.000000  1
  Tm  Tm1  1  0.412890  0.412516  0.000000  1
  Tm  Tm2  1  0.587110  0.999626  0.000000  1
  In  In3  1  0.750646  0.750726  0.500000  1
  In  In4  1  0.000000  0.249103  0.500000  1
  In  In5  1  0.249354  0.000081  0.500000  1
  Ga  Ga6  1  0.335264  0.667220  0.500000  1
  Ga  Ga7  1  0.664736  0.331955  0.500000  1
  Pd  Pd8  1  0.000000  0.003211  0.000000  1
