# generated using pymatgen
data_DyY2Zr2Sn3O
_symmetry_space_group_name_H-M   'P 1'
_cell_length_a   8.77694053
_cell_length_b   8.77166412
_cell_length_c   6.04963300
_cell_angle_alpha   90.00000000
_cell_angle_beta   90.00000000
_cell_angle_gamma   119.98011528
_symmetry_Int_Tables_number   1
_chemical_formula_structural   DyY2Zr2Sn3O
_chemical_formula_sum   'Dy2 Y4 Zr4 Sn6 O2'
_cell_volume   403.43334910
_cell_formula_units_Z   2
loop_
 _symmetry_equiv_pos_site_id
 _symmetry_equiv_pos_as_xyz
  1  'x, y, z'
loop_
 _atom_site_type_symbol
 _atom_site_label
 _atom_site_symmetry_multiplicity
 _atom_site_fract_x
 _atom_site_fract_y
 _atom_site_fract_z
 _atom_site_occupancy
  Dy  Dy0  1  0.000000  0.773087  0.750000  1
  Dy  Dy1  1  0.000000  0.226913  0.250000  1
  Y  Y2  1  0.227352  0.227407  0.750000  1
  Y  Y3  1  0.227352  0.999945  0.250000  1
  Y  Y4  1  0.772648  0.772593  0.250000  1
  Y  Y5  1  0.772648  0.000055  0.750000  1
  Zr  Zr6  1  0.333263  0.666632  0.000000  1
  Zr  Zr7  1  0.333263  0.666632  0.500000  1
  Zr  Zr8  1  0.666737  0.333368  0.000000  1
  Zr  Zr9  1  0.666737  0.333368  0.500000  1
  Sn  Sn10  1  0.000000  0.593795  0.250000  1
  Sn  Sn11  1  0.000000  0.406205  0.750000  1
  Sn  Sn12  1  0.406163  0.406198  0.250000  1
  Sn  Sn13  1  0.593837  0.593802  0.750000  1
  Sn  Sn14  1  0.406163  0.999965  0.750000  1
  Sn  Sn15  1  0.593837  0.000035  0.250000  1
  O  O16  1  0.000000  0.000000  0.000000  1
  O  O17  1  0.000000  0.000000  0.500000  1
