# generated using pymatgen
data_CeY6Tm13Sn16
_symmetry_space_group_name_H-M   'P 1'
_cell_length_a   7.98463169
_cell_length_b   8.12420431
_cell_length_c   15.34311400
_cell_angle_alpha   90.01668617
_cell_angle_beta   90.03731394
_cell_angle_gamma   89.87618985
_symmetry_Int_Tables_number   1
_chemical_formula_structural   CeY6Tm13Sn16
_chemical_formula_sum   'Ce1 Y6 Tm13 Sn16'
_cell_volume   995.28649784
_cell_formula_units_Z   1
loop_
 _symmetry_equiv_pos_site_id
 _symmetry_equiv_pos_as_xyz
  1  'x, y, z'
loop_
 _atom_site_type_symbol
 _atom_site_label
 _atom_site_symmetry_multiplicity
 _atom_site_fract_x
 _atom_site_fract_y
 _atom_site_fract_z
 _atom_site_occupancy
  Ce  Ce0  1  0.016446  0.180363  0.905674  1
  Y  Y1  1  0.019413  0.179685  0.597337  1
  Y  Y2  1  0.481159  0.678740  0.403581  1
  Y  Y3  1  0.981425  0.820679  0.096328  1
  Y  Y4  1  0.480702  0.678213  0.096202  1
  Y  Y5  1  0.981150  0.820885  0.403663  1
  Y  Y6  1  0.518452  0.321918  0.595418  1
  Tm  Tm7  1  0.363644  0.836298  0.876658  1
  Tm  Tm8  1  0.863947  0.662842  0.622976  1
  Tm  Tm9  1  0.635439  0.162601  0.376320  1
  Tm  Tm10  1  0.134993  0.337263  0.122752  1
  Tm  Tm11  1  0.634740  0.162862  0.123418  1
  Tm  Tm12  1  0.135926  0.337430  0.376701  1
  Tm  Tm13  1  0.364072  0.837512  0.623629  1
  Tm  Tm14  1  0.864363  0.661924  0.877234  1
  Tm  Tm15  1  0.522570  0.322209  0.902729  1
  Tm  Tm16  1  0.196148  0.503242  0.749915  1
  Tm  Tm17  1  0.695703  0.995687  0.749588  1
  Tm  Tm18  1  0.803857  0.496345  0.249870  1
  Tm  Tm19  1  0.304506  0.003957  0.250043  1
  Sn  Sn20  1  0.300036  0.038504  0.041548  1
  Sn  Sn21  1  0.797261  0.460475  0.458417  1
  Sn  Sn22  1  0.702920  0.961616  0.541586  1
  Sn  Sn23  1  0.207013  0.536528  0.957802  1
  Sn  Sn24  1  0.699920  0.960446  0.958747  1
  Sn  Sn25  1  0.202450  0.540168  0.541289  1
  Sn  Sn26  1  0.297532  0.039208  0.458719  1
  Sn  Sn27  1  0.795062  0.460239  0.040964  1
  Sn  Sn28  1  0.561147  0.618905  0.750374  1
  Sn  Sn29  1  0.060898  0.880755  0.750981  1
  Sn  Sn30  1  0.437878  0.380706  0.249665  1
  Sn  Sn31  1  0.938564  0.119785  0.249649  1
  Sn  Sn32  1  0.330671  0.149577  0.750842  1
  Sn  Sn33  1  0.827102  0.352435  0.749980  1
  Sn  Sn34  1  0.671924  0.851500  0.249748  1
  Sn  Sn35  1  0.170958  0.648496  0.249656  1
