# generated using pymatgen
data_NdHo2(Co3P2)3
_symmetry_space_group_name_H-M   'P 1'
_cell_length_a   3.70099400
_cell_length_b   10.51116600
_cell_length_c   12.17843000
_cell_angle_alpha   90.00000000
_cell_angle_beta   90.00000000
_cell_angle_gamma   90.00000000
_symmetry_Int_Tables_number   1
_chemical_formula_structural   NdHo2(Co3P2)3
_chemical_formula_sum   'Nd2 Ho4 Co18 P12'
_cell_volume   473.76238904
_cell_formula_units_Z   2
loop_
 _symmetry_equiv_pos_site_id
 _symmetry_equiv_pos_as_xyz
  1  'x, y, z'
loop_
 _atom_site_type_symbol
 _atom_site_label
 _atom_site_symmetry_multiplicity
 _atom_site_fract_x
 _atom_site_fract_y
 _atom_site_fract_z
 _atom_site_occupancy
  Nd  Nd0  1  0.000000  0.500000  0.521979  1
  Nd  Nd1  1  0.500000  0.000000  0.478021  1
  Ho  Ho2  1  0.500000  0.817536  0.204900  1
  Ho  Ho3  1  0.500000  0.182464  0.204900  1
  Ho  Ho4  1  0.000000  0.682464  0.795100  1
  Ho  Ho5  1  0.000000  0.317536  0.795100  1
  Co  Co6  1  0.000000  0.500000  0.986547  1
  Co  Co7  1  0.500000  0.000000  0.013453  1
  Co  Co8  1  0.500000  0.296792  0.428750  1
  Co  Co9  1  0.500000  0.703208  0.428750  1
  Co  Co10  1  0.000000  0.203208  0.571250  1
  Co  Co11  1  0.000000  0.796792  0.571250  1
  Co  Co12  1  0.500000  0.879437  0.712863  1
  Co  Co13  1  0.500000  0.120563  0.712863  1
  Co  Co14  1  0.000000  0.620563  0.287137  1
  Co  Co15  1  0.000000  0.379437  0.287137  1
  Co  Co16  1  0.500000  0.333280  0.994989  1
  Co  Co17  1  0.500000  0.666720  0.994989  1
  Co  Co18  1  0.000000  0.166720  0.005011  1
  Co  Co19  1  0.000000  0.833280  0.005011  1
  Co  Co20  1  0.500000  0.500000  0.156461  1
  Co  Co21  1  0.000000  0.000000  0.843539  1
  Co  Co22  1  0.500000  0.500000  0.706556  1
  Co  Co23  1  0.000000  0.000000  0.293444  1
  P  P24  1  0.500000  0.307828  0.617702  1
  P  P25  1  0.500000  0.692172  0.617702  1
  P  P26  1  0.000000  0.192172  0.382298  1
  P  P27  1  0.000000  0.807828  0.382298  1
  P  P28  1  0.500000  0.500000  0.883653  1
  P  P29  1  0.000000  0.000000  0.116347  1
  P  P30  1  0.500000  0.846559  0.893991  1
  P  P31  1  0.500000  0.153441  0.893991  1
  P  P32  1  0.000000  0.653441  0.106009  1
  P  P33  1  0.000000  0.346559  0.106009  1
  P  P34  1  0.500000  0.500000  0.339501  1
  P  P35  1  0.000000  0.000000  0.660499  1
