# generated using pymatgen
data_Pr10Si4SnIr
_symmetry_space_group_name_H-M   'P 1'
_cell_length_a   7.75888708
_cell_length_b   7.75888714
_cell_length_c   9.27613993
_cell_angle_alpha   114.72210627
_cell_angle_beta   114.72210387
_cell_angle_gamma   90.00000191
_symmetry_Int_Tables_number   1
_chemical_formula_structural   Pr10Si4SnIr
_chemical_formula_sum   'Pr10 Si4 Sn1 Ir1'
_cell_volume   450.28313607
_cell_formula_units_Z   1
loop_
 _symmetry_equiv_pos_site_id
 _symmetry_equiv_pos_as_xyz
  1  'x, y, z'
loop_
 _atom_site_type_symbol
 _atom_site_label
 _atom_site_symmetry_multiplicity
 _atom_site_fract_x
 _atom_site_fract_y
 _atom_site_fract_z
 _atom_site_occupancy
  Pr  Pr0  1  0.473642  0.473642  0.947282  1
  Pr  Pr1  1  0.026358  0.026358  0.052718  1
  Pr  Pr2  1  0.944762  0.800441  0.282788  1
  Pr  Pr3  1  0.338027  0.482347  0.282788  1
  Pr  Pr4  1  0.800441  0.338027  0.282788  1
  Pr  Pr5  1  0.482347  0.944762  0.282788  1
  Pr  Pr6  1  0.017653  0.161973  0.717212  1
  Pr  Pr7  1  0.699559  0.555238  0.717212  1
  Pr  Pr8  1  0.161973  0.699559  0.717212  1
  Pr  Pr9  1  0.555238  0.017653  0.717212  1
  Si  Si10  1  0.614335  0.885665  0.000000  1
  Si  Si11  1  0.385665  0.114335  0.000000  1
  Si  Si12  1  0.885665  0.385665  0.000000  1
  Si  Si13  1  0.114335  0.614335  0.000000  1
  Sn  Sn14  1  0.250000  0.250000  0.500000  1
  Ir  Ir15  1  0.750000  0.750000  0.500000  1
