# generated using pymatgen
data_TaNbSb2(Se4O13)2
_symmetry_space_group_name_H-M   'P 1'
_cell_length_a   6.96091425
_cell_length_b   7.52218942
_cell_length_c   11.59573554
_cell_angle_alpha   71.70708381
_cell_angle_beta   90.22494488
_cell_angle_gamma   90.18093935
_symmetry_Int_Tables_number   1
_chemical_formula_structural   TaNbSb2(Se4O13)2
_chemical_formula_sum   'Ta1 Nb1 Sb2 Se8 O26'
_cell_volume   576.47867476
_cell_formula_units_Z   1
loop_
 _symmetry_equiv_pos_site_id
 _symmetry_equiv_pos_as_xyz
  1  'x, y, z'
loop_
 _atom_site_type_symbol
 _atom_site_label
 _atom_site_symmetry_multiplicity
 _atom_site_fract_x
 _atom_site_fract_y
 _atom_site_fract_z
 _atom_site_occupancy
  Ta  Ta0  1  0.503394  0.919043  0.396495  1
  Nb  Nb1  1  0.004244  0.348862  0.048001  1
  Sb  Sb2  1  0.501833  0.418037  0.395958  1
  Sb  Sb3  1  0.004341  0.847088  0.050031  1
  Se  Se4  1  0.513445  0.893438  0.710891  1
  Se  Se5  1  0.487031  0.401757  0.701323  1
  Se  Se6  1  0.071706  0.048540  0.732033  1
  Se  Se7  1  0.928192  0.554741  0.721960  1
  Se  Se8  1  0.068583  0.673362  0.383332  1
  Se  Se9  1  0.936019  0.177782  0.384665  1
  Se  Se10  1  0.568219  0.592349  0.061863  1
  Se  Se11  1  0.439810  0.089900  0.060898  1
  O  O12  1  0.095946  0.505935  0.635624  1
  O  O13  1  0.912646  0.008747  0.636777  1
  O  O14  1  0.576023  0.691820  0.812005  1
  O  O15  1  0.422376  0.210316  0.810400  1
  O  O16  1  0.248812  0.866555  0.727035  1
  O  O17  1  0.753243  0.372681  0.715346  1
  O  O18  1  0.574787  0.665858  0.401090  1
  O  O19  1  0.428591  0.166706  0.395176  1
  O  O20  1  0.521627  0.827811  0.576525  1
  O  O21  1  0.467900  0.307088  0.577384  1
  O  O22  1  0.221325  0.847267  0.400755  1
  O  O23  1  0.787374  0.353755  0.406231  1
  O  O24  1  0.982857  0.265619  0.233143  1
  O  O25  1  0.998217  0.769749  0.233965  1
  O  O26  1  0.286403  0.272706  0.060384  1
  O  O27  1  0.717706  0.779636  0.063120  1
  O  O28  1  0.290377  0.914208  0.037548  1
  O  O29  1  0.718543  0.418468  0.044367  1
  O  O30  1  0.014522  0.432825  0.868599  1
  O  O31  1  0.960488  0.913802  0.869569  1
  O  O32  1  0.931608  0.097569  0.049693  1
  O  O33  1  0.078707  0.595258  0.054239  1
  O  O34  1  0.485197  0.997611  0.213665  1
  O  O35  1  0.500078  0.500309  0.212281  1
  O  O36  1  0.215843  0.486733  0.380347  1
  O  O37  1  0.781991  0.993470  0.385278  1
