# generated using pymatgen
data_Zr9Ti9(Si8Mo)2
_symmetry_space_group_name_H-M   'P 1'
_cell_length_a   6.85011600
_cell_length_b   6.85011628
_cell_length_c   12.58918905
_cell_angle_alpha   89.90417285
_cell_angle_beta   90.09582485
_cell_angle_gamma   89.90579161
_symmetry_Int_Tables_number   1
_chemical_formula_structural   Zr9Ti9(Si8Mo)2
_chemical_formula_sum   'Zr9 Ti9 Si16 Mo2'
_cell_volume   590.73380102
_cell_formula_units_Z   1
loop_
 _symmetry_equiv_pos_site_id
 _symmetry_equiv_pos_as_xyz
  1  'x, y, z'
loop_
 _atom_site_type_symbol
 _atom_site_label
 _atom_site_symmetry_multiplicity
 _atom_site_fract_x
 _atom_site_fract_y
 _atom_site_fract_z
 _atom_site_occupancy
  Zr  Zr0  1  0.999841  0.658058  0.030670  1
  Zr  Zr1  1  0.998906  0.342601  0.530787  1
  Zr  Zr2  1  0.658058  0.999841  0.969330  1
  Zr  Zr3  1  0.157002  0.499763  0.780220  1
  Zr  Zr4  1  0.841593  0.501123  0.282812  1
  Zr  Zr5  1  0.499763  0.157002  0.219780  1
  Zr  Zr6  1  0.501123  0.841593  0.717188  1
  Zr  Zr7  1  0.342601  0.998906  0.469213  1
  Zr  Zr8  1  0.329952  0.329952  0.000000  1
  Ti  Ti9  1  0.345858  0.504703  0.378980  1
  Ti  Ti10  1  0.847459  0.995087  0.373394  1
  Ti  Ti11  1  0.005499  0.151666  0.127891  1
  Ti  Ti12  1  0.995087  0.847459  0.626606  1
  Ti  Ti13  1  0.653935  0.497059  0.875949  1
  Ti  Ti14  1  0.504703  0.345858  0.621020  1
  Ti  Ti15  1  0.497059  0.653935  0.124051  1
  Ti  Ti16  1  0.151666  0.005499  0.872109  1
  Ti  Ti17  1  0.670340  0.670340  0.500000  1
  Si  Si18  1  0.044783  0.706265  0.436678  1
  Si  Si19  1  0.948854  0.293157  0.934697  1
  Si  Si20  1  0.706265  0.044783  0.563322  1
  Si  Si21  1  0.204116  0.459346  0.190304  1
  Si  Si22  1  0.793116  0.544354  0.685066  1
  Si  Si23  1  0.459346  0.204116  0.809696  1
  Si  Si24  1  0.544354  0.793116  0.314934  1
  Si  Si25  1  0.293157  0.948854  0.065303  1
  Si  Si26  1  0.866037  0.794934  0.822235  1
  Si  Si27  1  0.133675  0.205508  0.323802  1
  Si  Si28  1  0.794934  0.866037  0.177765  1
  Si  Si29  1  0.293533  0.633963  0.572433  1
  Si  Si30  1  0.710965  0.366870  0.073970  1
  Si  Si31  1  0.633963  0.293533  0.427567  1
  Si  Si32  1  0.366870  0.710965  0.926030  1
  Si  Si33  1  0.205508  0.133675  0.676198  1
  Mo  Mo34  1  0.829540  0.170535  0.748495  1
  Mo  Mo35  1  0.170535  0.829540  0.251505  1
