# generated using pymatgen
data_Sc4Al2(GaTc)3
_symmetry_space_group_name_H-M   'P 1'
_cell_length_a   5.33854233
_cell_length_b   5.32747199
_cell_length_c   8.49007500
_cell_angle_alpha   90.00000000
_cell_angle_beta   90.00000000
_cell_angle_gamma   119.93141389
_symmetry_Int_Tables_number   1
_chemical_formula_structural   Sc4Al2(GaTc)3
_chemical_formula_sum   'Sc4 Al2 Ga3 Tc3'
_cell_volume   209.25977700
_cell_formula_units_Z   1
loop_
 _symmetry_equiv_pos_site_id
 _symmetry_equiv_pos_as_xyz
  1  'x, y, z'
loop_
 _atom_site_type_symbol
 _atom_site_label
 _atom_site_symmetry_multiplicity
 _atom_site_fract_x
 _atom_site_fract_y
 _atom_site_fract_z
 _atom_site_occupancy
  Sc  Sc0  1  0.330881  0.665442  0.441354  1
  Sc  Sc1  1  0.662040  0.331020  0.550299  1
  Sc  Sc2  1  0.662040  0.331020  0.949701  1
  Sc  Sc3  1  0.330881  0.665442  0.058646  1
  Al  Al4  1  0.193798  0.846430  0.750000  1
  Al  Al5  1  0.193798  0.347367  0.750000  1
  Ga  Ga6  1  0.829988  0.165935  0.250000  1
  Ga  Ga7  1  0.829988  0.664055  0.250000  1
  Ga  Ga8  1  0.330458  0.165230  0.250000  1
  Tc  Tc9  1  0.979220  0.989610  0.509178  1
  Tc  Tc10  1  0.979220  0.989610  0.990822  1
  Tc  Tc11  1  0.677686  0.838843  0.750000  1
