# generated using pymatgen
data_CeLu14Th(CdCo)4
_symmetry_space_group_name_H-M   'P 1'
_cell_length_a   9.33193046
_cell_length_b   9.37806987
_cell_length_c   9.27740900
_cell_angle_alpha   60.35443894
_cell_angle_beta   60.19308320
_cell_angle_gamma   60.06488810
_symmetry_Int_Tables_number   1
_chemical_formula_structural   CeLu14Th(CdCo)4
_chemical_formula_sum   'Ce1 Lu14 Th1 Cd4 Co4'
_cell_volume   576.75841341
_cell_formula_units_Z   1
loop_
 _symmetry_equiv_pos_site_id
 _symmetry_equiv_pos_as_xyz
  1  'x, y, z'
loop_
 _atom_site_type_symbol
 _atom_site_label
 _atom_site_symmetry_multiplicity
 _atom_site_fract_x
 _atom_site_fract_y
 _atom_site_fract_z
 _atom_site_occupancy
  Ce  Ce0  1  0.155746  0.516116  0.164070  1
  Lu  Lu1  1  0.691944  0.316670  0.685486  1
  Lu  Lu2  1  0.691944  0.316670  0.305901  1
  Lu  Lu3  1  0.939040  0.562124  0.560184  1
  Lu  Lu4  1  0.538850  0.155003  0.153073  1
  Lu  Lu5  1  0.149056  0.146799  0.544317  1
  Lu  Lu6  1  0.935646  0.931101  0.566627  1
  Lu  Lu7  1  0.315206  0.693336  0.305724  1
  Lu  Lu8  1  0.562534  0.940803  0.937838  1
  Lu  Lu9  1  0.562534  0.940803  0.558825  1
  Lu  Lu10  1  0.684712  0.693287  0.311000  1
  Lu  Lu11  1  0.566395  0.569378  0.932114  1
  Lu  Lu12  1  0.939040  0.562124  0.938652  1
  Lu  Lu13  1  0.315206  0.693336  0.685735  1
  Lu  Lu14  1  0.149056  0.146799  0.159827  1
  Th  Th15  1  0.316429  0.318022  0.682774  1
  Cd  Cd16  1  0.914548  0.241779  0.921836  1
  Cd  Cd17  1  0.919363  0.917191  0.918917  1
  Cd  Cd18  1  0.919363  0.917191  0.244530  1
  Cd  Cd19  1  0.244553  0.912876  0.921285  1
  Co  Co20  1  0.349368  0.354407  0.918316  1
  Co  Co21  1  0.358838  0.925319  0.357922  1
  Co  Co22  1  0.931268  0.374454  0.347140  1
  Co  Co23  1  0.349368  0.354407  0.377909  1
