# generated using pymatgen
data_Tb4Al4Ir3Pt
_symmetry_space_group_name_H-M   'P 1'
_cell_length_a   4.30831900
_cell_length_b   6.89233604
_cell_length_c   7.90551305
_cell_angle_alpha   90.01261495
_cell_angle_beta   90.00000000
_cell_angle_gamma   90.00000000
_symmetry_Int_Tables_number   1
_chemical_formula_structural   Tb4Al4Ir3Pt
_chemical_formula_sum   'Tb4 Al4 Ir3 Pt1'
_cell_volume   234.74932122
_cell_formula_units_Z   1
loop_
 _symmetry_equiv_pos_site_id
 _symmetry_equiv_pos_as_xyz
  1  'x, y, z'
loop_
 _atom_site_type_symbol
 _atom_site_label
 _atom_site_symmetry_multiplicity
 _atom_site_fract_x
 _atom_site_fract_y
 _atom_site_fract_z
 _atom_site_occupancy
  Tb  Tb0  1  0.250000  0.027128  0.679219  1
  Tb  Tb1  1  0.250000  0.534109  0.817374  1
  Tb  Tb2  1  0.750000  0.970588  0.318538  1
  Tb  Tb3  1  0.750000  0.472727  0.184662  1
  Al  Al4  1  0.250000  0.140123  0.065603  1
  Al  Al5  1  0.250000  0.641318  0.436462  1
  Al  Al6  1  0.750000  0.855140  0.936983  1
  Al  Al7  1  0.750000  0.359978  0.561125  1
  Ir  Ir8  1  0.250000  0.268538  0.383181  1
  Ir  Ir9  1  0.250000  0.768698  0.115838  1
  Ir  Ir10  1  0.750000  0.731815  0.617386  1
  Pt  Pt11  1  0.750000  0.229838  0.883629  1
