# generated using pymatgen
data_Cs13Nb2(Tl3As5)2
_symmetry_space_group_name_H-M   'P 1'
_cell_length_a   9.92223784
_cell_length_b   9.97488227
_cell_length_c   14.26385800
_cell_angle_alpha   83.22926184
_cell_angle_beta   80.51304771
_cell_angle_gamma   64.61676006
_symmetry_Int_Tables_number   1
_chemical_formula_structural   Cs13Nb2(Tl3As5)2
_chemical_formula_sum   'Cs13 Nb2 Tl6 As10'
_cell_volume   1256.23750159
_cell_formula_units_Z   1
loop_
 _symmetry_equiv_pos_site_id
 _symmetry_equiv_pos_as_xyz
  1  'x, y, z'
loop_
 _atom_site_type_symbol
 _atom_site_label
 _atom_site_symmetry_multiplicity
 _atom_site_fract_x
 _atom_site_fract_y
 _atom_site_fract_z
 _atom_site_occupancy
  Cs  Cs0  1  0.501381  0.863339  0.357211  1
  Cs  Cs1  1  0.498619  0.136661  0.642789  1
  Cs  Cs2  1  0.852836  0.582810  0.879336  1
  Cs  Cs3  1  0.147164  0.417190  0.120664  1
  Cs  Cs4  1  0.088202  0.772749  0.429944  1
  Cs  Cs5  1  0.911798  0.227251  0.570056  1
  Cs  Cs6  1  0.743615  0.682311  0.590557  1
  Cs  Cs7  1  0.256385  0.317689  0.409443  1
  Cs  Cs8  1  0.500000  0.500000  0.000000  1
  Cs  Cs9  1  0.311782  0.924924  0.084737  1
  Cs  Cs10  1  0.688218  0.075076  0.915263  1
  Cs  Cs11  1  0.894624  0.854023  0.171244  1
  Cs  Cs12  1  0.105376  0.145977  0.828756  1
  Nb  Nb13  1  0.378124  0.742471  0.776753  1
  Nb  Nb14  1  0.621876  0.257529  0.223247  1
  Tl  Tl15  1  0.024087  0.810858  0.706947  1
  Tl  Tl16  1  0.975913  0.189142  0.293053  1
  Tl  Tl17  1  0.616455  0.445378  0.409722  1
  Tl  Tl18  1  0.383545  0.554622  0.590278  1
  Tl  Tl19  1  0.722627  0.565193  0.168927  1
  Tl  Tl20  1  0.277373  0.434807  0.831073  1
  As  As21  1  0.441322  0.531564  0.250397  1
  As  As22  1  0.558678  0.468436  0.749603  1
  As  As23  1  0.148972  0.749213  0.890460  1
  As  As24  1  0.851028  0.250787  0.109540  1
  As  As25  1  0.710387  0.126193  0.380465  1
  As  As26  1  0.289613  0.873807  0.619535  1
  As  As27  1  0.876881  0.518374  0.344666  1
  As  As28  1  0.123119  0.481626  0.655334  1
  As  As29  1  0.500522  0.868963  0.841822  1
  As  As30  1  0.499478  0.131037  0.158178  1
