# generated using pymatgen
data_Ba2SrMo8P8PbO48
_symmetry_space_group_name_H-M   'P 1'
_cell_length_a   12.52941372
_cell_length_b   6.43274373
_cell_length_c   12.05925500
_cell_angle_alpha   88.50168042
_cell_angle_beta   89.88167151
_cell_angle_gamma   89.97878940
_symmetry_Int_Tables_number   1
_chemical_formula_structural   Ba2SrMo8P8PbO48
_chemical_formula_sum   'Ba2 Sr1 Mo8 P8 Pb1 O48'
_cell_volume   971.62351400
_cell_formula_units_Z   1
loop_
 _symmetry_equiv_pos_site_id
 _symmetry_equiv_pos_as_xyz
  1  'x, y, z'
loop_
 _atom_site_type_symbol
 _atom_site_label
 _atom_site_symmetry_multiplicity
 _atom_site_fract_x
 _atom_site_fract_y
 _atom_site_fract_z
 _atom_site_occupancy
  Ba  Ba0  1  0.632065  0.999910  0.759575  1
  Ba  Ba1  1  0.866844  0.999686  0.259171  1
  Sr  Sr2  1  0.374623  0.002119  0.233971  1
  Mo  Mo3  1  0.875272  0.257037  0.906742  1
  Mo  Mo4  1  0.368338  0.749093  0.593086  1
  Mo  Mo5  1  0.384365  0.252550  0.902814  1
  Mo  Mo6  1  0.624302  0.257393  0.407180  1
  Mo  Mo7  1  0.611026  0.739373  0.098502  1
  Mo  Mo8  1  0.132442  0.748840  0.094040  1
  Mo  Mo9  1  0.888469  0.738112  0.598444  1
  Mo  Mo10  1  0.115500  0.250713  0.400984  1
  P  P11  1  0.431712  0.247547  0.612976  1
  P  P12  1  0.376477  0.756582  0.959443  1
  P  P13  1  0.068237  0.247304  0.112640  1
  P  P14  1  0.938790  0.761632  0.888189  1
  P  P15  1  0.623308  0.241807  0.041057  1
  P  P16  1  0.124050  0.755403  0.458479  1
  P  P17  1  0.876717  0.241125  0.540726  1
  P  P18  1  0.561452  0.761946  0.387772  1
  Pb  Pb19  1  0.125817  0.996770  0.732792  1
  O  O20  1  0.995471  0.239893  0.834216  1
  O  O21  1  0.911759  0.436290  0.606368  1
  O  O22  1  0.744926  0.237689  0.026277  1
  O  O23  1  0.354928  0.065469  0.587752  1
  O  O24  1  0.365555  0.219577  0.045815  1
  O  O25  1  0.489499  0.750503  0.663395  1
  O  O26  1  0.255492  0.239916  0.850150  1
  O  O27  1  0.543650  0.210064  0.563922  1
  O  O28  1  0.450652  0.807025  0.436654  1
  O  O29  1  0.376956  0.444946  0.563031  1
  O  O30  1  0.867217  0.764012  0.456361  1
  O  O31  1  0.642732  0.938806  0.412455  1
  O  O32  1  0.717544  0.288547  0.300819  1
  O  O33  1  0.886855  0.560342  0.936475  1
  O  O34  1  0.956831  0.210764  0.062934  1
  O  O35  1  0.407904  0.555722  0.897539  1
  O  O36  1  0.255224  0.766006  0.973018  1
  O  O37  1  0.047802  0.260401  0.238719  1
  O  O38  1  0.587882  0.437593  0.106279  1
  O  O39  1  0.587896  0.054088  0.117731  1
  O  O40  1  0.563280  0.239533  0.929882  1
  O  O41  1  0.911393  0.052310  0.616914  1
  O  O42  1  0.010752  0.751221  0.164215  1
  O  O43  1  0.857673  0.939099  0.912366  1
  O  O44  1  0.937613  0.239174  0.429714  1
  O  O45  1  0.450626  0.261457  0.738956  1
  O  O46  1  0.245006  0.768061  0.472102  1
  O  O47  1  0.781900  0.287262  0.800830  1
  O  O48  1  0.226973  0.736225  0.200361  1
  O  O49  1  0.145606  0.066050  0.087855  1
  O  O50  1  0.094218  0.554206  0.396213  1
  O  O51  1  0.434315  0.762378  0.072243  1
  O  O52  1  0.049091  0.804871  0.937873  1
  O  O53  1  0.123881  0.445162  0.064395  1
  O  O54  1  0.631972  0.766107  0.956239  1
  O  O55  1  0.065272  0.757974  0.571433  1
  O  O56  1  0.739965  0.740834  0.151749  1
  O  O57  1  0.959793  0.748728  0.761746  1
  O  O58  1  0.759918  0.739371  0.653072  1
  O  O59  1  0.612040  0.560143  0.437244  1
  O  O60  1  0.273129  0.731822  0.699608  1
  O  O61  1  0.504272  0.237161  0.335353  1
  O  O62  1  0.755333  0.237407  0.525468  1
  O  O63  1  0.135550  0.220006  0.543778  1
  O  O64  1  0.541224  0.748761  0.261805  1
  O  O65  1  0.243689  0.231270  0.345728  1
  O  O66  1  0.414581  0.941370  0.882266  1
  O  O67  1  0.084353  0.939442  0.382094  1
