# generated using pymatgen
data_Pr2Dy2Al17GeIr6
_symmetry_space_group_name_H-M   'P 1'
_cell_length_a   7.58769702
_cell_length_b   7.58769733
_cell_length_c   9.56515700
_cell_angle_alpha   90.00000000
_cell_angle_beta   90.00000000
_cell_angle_gamma   119.56587214
_symmetry_Int_Tables_number   1
_chemical_formula_structural   Pr2Dy2Al17GeIr6
_chemical_formula_sum   'Pr2 Dy2 Al17 Ge1 Ir6'
_cell_volume   478.98949358
_cell_formula_units_Z   1
loop_
 _symmetry_equiv_pos_site_id
 _symmetry_equiv_pos_as_xyz
  1  'x, y, z'
loop_
 _atom_site_type_symbol
 _atom_site_label
 _atom_site_symmetry_multiplicity
 _atom_site_fract_x
 _atom_site_fract_y
 _atom_site_fract_z
 _atom_site_occupancy
  Pr  Pr0  1  0.993788  0.675699  0.750000  1
  Pr  Pr1  1  0.675699  0.993788  0.750000  1
  Dy  Dy2  1  0.002936  0.328443  0.250000  1
  Dy  Dy3  1  0.328443  0.002936  0.250000  1
  Al  Al4  1  0.872820  0.872820  0.250000  1
  Al  Al5  1  0.002785  0.337931  0.568259  1
  Al  Al6  1  0.999418  0.664596  0.421236  1
  Al  Al7  1  0.999418  0.664596  0.078764  1
  Al  Al8  1  0.337931  0.002785  0.931741  1
  Al  Al9  1  0.002785  0.337931  0.931741  1
  Al  Al10  1  0.664596  0.999418  0.078764  1
  Al  Al11  1  0.664596  0.999418  0.421236  1
  Al  Al12  1  0.337931  0.002785  0.568259  1
  Al  Al13  1  0.331667  0.331667  0.062972  1
  Al  Al14  1  0.662450  0.662450  0.960431  1
  Al  Al15  1  0.662450  0.662450  0.539569  1
  Al  Al16  1  0.331667  0.331667  0.437028  1
  Al  Al17  1  0.335884  0.549559  0.750000  1
  Al  Al18  1  0.660337  0.450052  0.250000  1
  Al  Al19  1  0.549559  0.335884  0.750000  1
  Al  Al20  1  0.450052  0.660337  0.250000  1
  Ge  Ge21  1  0.138363  0.138363  0.750000  1
  Ir  Ir22  1  0.669189  0.327034  0.498000  1
  Ir  Ir23  1  0.327034  0.669189  0.498000  1
  Ir  Ir24  1  0.327034  0.669189  0.002000  1
  Ir  Ir25  1  0.669189  0.327034  0.002000  1
  Ir  Ir26  1  0.000990  0.000990  0.497870  1
  Ir  Ir27  1  0.000990  0.000990  0.002130  1
