# generated using pymatgen
data_Ti5AlRh9Au
_symmetry_space_group_name_H-M   'P 1'
_cell_length_a   4.09323500
_cell_length_b   5.43539349
_cell_length_c   10.62593883
_cell_angle_alpha   91.43995548
_cell_angle_beta   90.00000000
_cell_angle_gamma   90.00000000
_symmetry_Int_Tables_number   1
_chemical_formula_structural   Ti5AlRh9Au
_chemical_formula_sum   'Ti5 Al1 Rh9 Au1'
_cell_volume   236.33487435
_cell_formula_units_Z   1
loop_
 _symmetry_equiv_pos_site_id
 _symmetry_equiv_pos_as_xyz
  1  'x, y, z'
loop_
 _atom_site_type_symbol
 _atom_site_label
 _atom_site_symmetry_multiplicity
 _atom_site_fract_x
 _atom_site_fract_y
 _atom_site_fract_z
 _atom_site_occupancy
  Ti  Ti0  1  0.000000  0.483517  0.503201  1
  Ti  Ti1  1  0.500000  0.356624  0.131704  1
  Ti  Ti2  1  0.500000  0.677440  0.858058  1
  Ti  Ti3  1  0.500000  0.816425  0.364386  1
  Ti  Ti4  1  0.500000  0.159764  0.646799  1
  Al  Al5  1  0.000000  0.007635  0.995134  1
  Rh  Rh6  1  0.000000  0.988285  0.502746  1
  Rh  Rh7  1  0.000000  0.511840  0.998136  1
  Rh  Rh8  1  0.000000  0.910100  0.760138  1
  Rh  Rh9  1  0.000000  0.588678  0.259102  1
  Rh  Rh10  1  0.000000  0.406257  0.738092  1
  Rh  Rh11  1  0.500000  0.307590  0.392100  1
  Rh  Rh12  1  0.500000  0.684110  0.607692  1
  Rh  Rh13  1  0.500000  0.819030  0.109550  1
  Rh  Rh14  1  0.500000  0.197507  0.891118  1
  Au  Au15  1  0.000000  0.085199  0.242043  1
