# generated using pymatgen
data_Ta4Ir2PdS12
_symmetry_space_group_name_H-M   'P 1'
_cell_length_a   7.02780164
_cell_length_b   7.02780156
_cell_length_c   18.92891841
_cell_angle_alpha   70.04442647
_cell_angle_beta   70.04442656
_cell_angle_gamma   28.15999717
_symmetry_Int_Tables_number   1
_chemical_formula_structural   Ta4Ir2PdS12
_chemical_formula_sum   'Ta4 Ir2 Pd1 S12'
_cell_volume   412.99722597
_cell_formula_units_Z   1
loop_
 _symmetry_equiv_pos_site_id
 _symmetry_equiv_pos_as_xyz
  1  'x, y, z'
loop_
 _atom_site_type_symbol
 _atom_site_label
 _atom_site_symmetry_multiplicity
 _atom_site_fract_x
 _atom_site_fract_y
 _atom_site_fract_z
 _atom_site_occupancy
  Ta  Ta0  1  0.623493  0.623493  0.850006  1
  Ta  Ta1  1  0.376507  0.376507  0.149994  1
  Ta  Ta2  1  0.744786  0.744786  0.592974  1
  Ta  Ta3  1  0.255214  0.255214  0.407026  1
  Ir  Ir4  1  0.229692  0.229692  0.717777  1
  Ir  Ir5  1  0.770308  0.770308  0.282223  1
  Pd  Pd6  1  0.000000  0.000000  0.000000  1
  S  S7  1  0.980367  0.980367  0.881622  1
  S  S8  1  0.019633  0.019633  0.118378  1
  S  S9  1  0.628537  0.628537  0.402495  1
  S  S10  1  0.371463  0.371463  0.597505  1
  S  S11  1  0.144726  0.144726  0.550287  1
  S  S12  1  0.855274  0.855274  0.449713  1
  S  S13  1  0.806733  0.806733  0.767086  1
  S  S14  1  0.193267  0.193267  0.232914  1
  S  S15  1  0.179864  0.179864  0.925004  1
  S  S16  1  0.820136  0.820136  0.074996  1
  S  S17  1  0.605731  0.605731  0.718439  1
  S  S18  1  0.394269  0.394269  0.281561  1
