# generated using pymatgen
data_Ba20In3Si8Sn
_symmetry_space_group_name_H-M   'P 1'
_cell_length_a   8.60131900
_cell_length_b   8.60131900
_cell_length_c   17.53492200
_cell_angle_alpha   90.00000000
_cell_angle_beta   90.00000000
_cell_angle_gamma   90.00000000
_symmetry_Int_Tables_number   1
_chemical_formula_structural   Ba20In3Si8Sn
_chemical_formula_sum   'Ba20 In3 Si8 Sn1'
_cell_volume   1297.28067290
_cell_formula_units_Z   1
loop_
 _symmetry_equiv_pos_site_id
 _symmetry_equiv_pos_as_xyz
  1  'x, y, z'
loop_
 _atom_site_type_symbol
 _atom_site_label
 _atom_site_symmetry_multiplicity
 _atom_site_fract_x
 _atom_site_fract_y
 _atom_site_fract_z
 _atom_site_occupancy
  Ba  Ba0  1  0.311941  0.668609  0.112177  1
  Ba  Ba1  1  0.168609  0.188059  0.112177  1
  Ba  Ba2  1  0.500000  0.000000  0.734163  1
  Ba  Ba3  1  0.328405  0.687835  0.388577  1
  Ba  Ba4  1  0.669803  0.687705  0.887889  1
  Ba  Ba5  1  0.187835  0.171595  0.388577  1
  Ba  Ba6  1  0.671595  0.312165  0.388577  1
  Ba  Ba7  1  0.169167  0.810352  0.611222  1
  Ba  Ba8  1  0.330197  0.312295  0.887889  1
  Ba  Ba9  1  0.187705  0.830197  0.887889  1
  Ba  Ba10  1  0.500000  0.000000  0.233399  1
  Ba  Ba11  1  0.830833  0.189648  0.611222  1
  Ba  Ba12  1  0.310352  0.330833  0.611222  1
  Ba  Ba13  1  0.812165  0.828405  0.388577  1
  Ba  Ba14  1  0.812295  0.169803  0.887889  1
  Ba  Ba15  1  0.831391  0.811941  0.112177  1
  Ba  Ba16  1  0.000000  0.500000  0.266469  1
  Ba  Ba17  1  0.000000  0.500000  0.766138  1
  Ba  Ba18  1  0.688059  0.331391  0.112177  1
  Ba  Ba19  1  0.689648  0.669167  0.611222  1
  In  In20  1  0.000000  0.500000  0.988083  1
  In  In21  1  0.500000  0.000000  0.012331  1
  In  In22  1  0.500000  0.000000  0.512771  1
  Si  Si23  1  0.098977  0.100158  0.749594  1
  Si  Si24  1  0.399842  0.598977  0.749594  1
  Si  Si25  1  0.599867  0.599215  0.250356  1
  Si  Si26  1  0.099215  0.900133  0.250356  1
  Si  Si27  1  0.600158  0.401023  0.749594  1
  Si  Si28  1  0.901023  0.899842  0.749594  1
  Si  Si29  1  0.400133  0.400785  0.250356  1
  Si  Si30  1  0.900785  0.099867  0.250356  1
  Sn  Sn31  1  0.000000  0.500000  0.487387  1
