# generated using pymatgen
data_Lu3ScAl18Rh5Au
_symmetry_space_group_name_H-M   'P 1'
_cell_length_a   7.54502801
_cell_length_b   7.54218878
_cell_length_c   9.37952316
_cell_angle_alpha   89.98834061
_cell_angle_beta   89.95664434
_cell_angle_gamma   119.53609960
_symmetry_Int_Tables_number   1
_chemical_formula_structural   Lu3ScAl18Rh5Au
_chemical_formula_sum   'Lu3 Sc1 Al18 Rh5 Au1'
_cell_volume   464.38763289
_cell_formula_units_Z   1
loop_
 _symmetry_equiv_pos_site_id
 _symmetry_equiv_pos_as_xyz
  1  'x, y, z'
loop_
 _atom_site_type_symbol
 _atom_site_label
 _atom_site_symmetry_multiplicity
 _atom_site_fract_x
 _atom_site_fract_y
 _atom_site_fract_z
 _atom_site_occupancy
  Lu  Lu0  1  0.004547  0.325452  0.748949  1
  Lu  Lu1  1  0.675026  0.995841  0.250975  1
  Lu  Lu2  1  0.324881  0.004178  0.748817  1
  Sc  Sc3  1  0.995974  0.674726  0.251004  1
  Al  Al4  1  0.133786  0.132821  0.256508  1
  Al  Al5  1  0.864471  0.863731  0.743215  1
  Al  Al6  1  0.999995  0.347392  0.083546  1
  Al  Al7  1  0.999583  0.655913  0.922339  1
  Al  Al8  1  0.001156  0.664079  0.572217  1
  Al  Al9  1  0.333542  0.995931  0.421999  1
  Al  Al10  1  0.998695  0.338698  0.422050  1
  Al  Al11  1  0.663620  0.000858  0.575139  1
  Al  Al12  1  0.655297  0.999313  0.920018  1
  Al  Al13  1  0.341515  0.997589  0.082966  1
  Al  Al14  1  0.332686  0.332618  0.552386  1
  Al  Al15  1  0.669780  0.667687  0.443958  1
  Al  Al16  1  0.661285  0.659073  0.061455  1
  Al  Al17  1  0.341395  0.341392  0.941986  1
  Al  Al18  1  0.338462  0.553828  0.251324  1
  Al  Al19  1  0.661053  0.447815  0.748772  1
  Al  Al20  1  0.556208  0.341062  0.251423  1
  Al  Al21  1  0.447211  0.660337  0.748765  1
  Rh  Rh22  1  0.671921  0.327522  0.000245  1
  Rh  Rh23  1  0.328073  0.672067  0.000324  1
  Rh  Rh24  1  0.328038  0.672142  0.499844  1
  Rh  Rh25  1  0.672002  0.327425  0.499925  1
  Rh  Rh26  1  0.999875  0.000049  0.499919  1
  Au  Au27  1  0.999922  0.000462  0.999933  1
