# generated using pymatgen
data_Li2AcErSi4
_symmetry_space_group_name_H-M   'P 1'
_cell_length_a   3.89659100
_cell_length_b   7.83675713
_cell_length_c   10.56811121
_cell_angle_alpha   89.67464875
_cell_angle_beta   90.00000000
_cell_angle_gamma   90.00000000
_symmetry_Int_Tables_number   1
_chemical_formula_structural   Li2AcErSi4
_chemical_formula_sum   'Li4 Ac2 Er2 Si8'
_cell_volume   322.70937591
_cell_formula_units_Z   2
loop_
 _symmetry_equiv_pos_site_id
 _symmetry_equiv_pos_as_xyz
  1  'x, y, z'
loop_
 _atom_site_type_symbol
 _atom_site_label
 _atom_site_symmetry_multiplicity
 _atom_site_fract_x
 _atom_site_fract_y
 _atom_site_fract_z
 _atom_site_occupancy
  Li  Li0  1  0.250000  0.997433  0.386225  1
  Li  Li1  1  0.750000  0.002567  0.613775  1
  Li  Li2  1  0.250000  0.489994  0.103838  1
  Li  Li3  1  0.750000  0.510006  0.896162  1
  Ac  Ac4  1  0.250000  0.643494  0.637100  1
  Ac  Ac5  1  0.750000  0.356506  0.362900  1
  Er  Er6  1  0.250000  0.129237  0.866889  1
  Er  Er7  1  0.750000  0.870763  0.133111  1
  Si  Si8  1  0.750000  0.257517  0.058326  1
  Si  Si9  1  0.250000  0.742483  0.941674  1
  Si  Si10  1  0.750000  0.788118  0.415076  1
  Si  Si11  1  0.250000  0.211882  0.584924  1
  Si  Si12  1  0.750000  0.847899  0.832543  1
  Si  Si13  1  0.250000  0.152101  0.167457  1
  Si  Si14  1  0.750000  0.324732  0.689676  1
  Si  Si15  1  0.250000  0.675268  0.310324  1
