# generated using pymatgen
data_Y2Zr2TaNb(B2Ru5)2
_symmetry_space_group_name_H-M   'P 1'
_cell_length_a   9.59309900
_cell_length_b   9.59309942
_cell_length_c   3.13024900
_cell_angle_alpha   90.00000000
_cell_angle_beta   90.00000000
_cell_angle_gamma   89.51096923
_symmetry_Int_Tables_number   1
_chemical_formula_structural   Y2Zr2TaNb(B2Ru5)2
_chemical_formula_sum   'Y2 Zr2 Ta1 Nb1 B4 Ru10'
_cell_volume   288.05866138
_cell_formula_units_Z   1
loop_
 _symmetry_equiv_pos_site_id
 _symmetry_equiv_pos_as_xyz
  1  'x, y, z'
loop_
 _atom_site_type_symbol
 _atom_site_label
 _atom_site_symmetry_multiplicity
 _atom_site_fract_x
 _atom_site_fract_y
 _atom_site_fract_z
 _atom_site_occupancy
  Y  Y0  1  0.323892  0.824110  0.000000  1
  Y  Y1  1  0.676108  0.175890  0.000000  1
  Zr  Zr2  1  0.825229  0.675014  0.000000  1
  Zr  Zr3  1  0.174771  0.324986  0.000000  1
  Ta  Ta4  1  0.000000  0.000000  0.000000  1
  Nb  Nb5  1  0.500000  0.500000  0.000000  1
  B  B6  1  0.621676  0.878324  0.000000  1
  B  B7  1  0.378324  0.121676  0.000000  1
  B  B8  1  0.120196  0.620180  0.000000  1
  B  B9  1  0.879804  0.379820  0.000000  1
  Ru  Ru10  1  0.577460  0.716534  0.500000  1
  Ru  Ru11  1  0.422540  0.283466  0.500000  1
  Ru  Ru12  1  0.063927  0.778783  0.500000  1
  Ru  Ru13  1  0.936073  0.221217  0.500000  1
  Ru  Ru14  1  0.278410  0.563914  0.500000  1
  Ru  Ru15  1  0.721590  0.436086  0.500000  1
  Ru  Ru16  1  0.216241  0.077287  0.500000  1
  Ru  Ru17  1  0.783759  0.922713  0.500000  1
  Ru  Ru18  1  0.500000  0.000000  0.500000  1
  Ru  Ru19  1  0.000000  0.500000  0.500000  1
