# generated using pymatgen
data_Tb12Pr8Si15P
_symmetry_space_group_name_H-M   'P 1'
_cell_length_a   7.55647756
_cell_length_b   7.83340605
_cell_length_c   14.87940500
_cell_angle_alpha   90.00000000
_cell_angle_beta   90.00000000
_cell_angle_gamma   90.38234073
_symmetry_Int_Tables_number   1
_chemical_formula_structural   Tb12Pr8Si15P
_chemical_formula_sum   'Tb12 Pr8 Si15 P1'
_cell_volume   880.73637054
_cell_formula_units_Z   1
loop_
 _symmetry_equiv_pos_site_id
 _symmetry_equiv_pos_as_xyz
  1  'x, y, z'
loop_
 _atom_site_type_symbol
 _atom_site_label
 _atom_site_symmetry_multiplicity
 _atom_site_fract_x
 _atom_site_fract_y
 _atom_site_fract_z
 _atom_site_occupancy
  Tb  Tb0  1  0.317563  0.172763  0.625658  1
  Tb  Tb1  1  0.678319  0.821353  0.377377  1
  Tb  Tb2  1  0.652494  0.989066  0.750000  1
  Tb  Tb3  1  0.177348  0.680409  0.377172  1
  Tb  Tb4  1  0.818708  0.323476  0.877659  1
  Tb  Tb5  1  0.818708  0.323476  0.622341  1
  Tb  Tb6  1  0.845476  0.487894  0.250000  1
  Tb  Tb7  1  0.347356  0.013276  0.250000  1
  Tb  Tb8  1  0.317563  0.172763  0.874342  1
  Tb  Tb9  1  0.177348  0.680409  0.122828  1
  Tb  Tb10  1  0.678319  0.821353  0.122623  1
  Tb  Tb11  1  0.154187  0.509667  0.750000  1
  Pr  Pr12  1  0.023150  0.181128  0.402465  1
  Pr  Pr13  1  0.521915  0.320121  0.402959  1
  Pr  Pr14  1  0.478852  0.679052  0.901397  1
  Pr  Pr15  1  0.478852  0.679052  0.598603  1
  Pr  Pr16  1  0.980756  0.821311  0.601719  1
  Pr  Pr17  1  0.980756  0.821311  0.898281  1
  Pr  Pr18  1  0.521915  0.320121  0.097041  1
  Pr  Pr19  1  0.023150  0.181128  0.097535  1
  Si  Si20  1  0.470118  0.609837  0.250000  1
  Si  Si21  1  0.015859  0.124760  0.750000  1
  Si  Si22  1  0.526277  0.386381  0.750000  1
  Si  Si23  1  0.146631  0.468705  0.540087  1
  Si  Si24  1  0.970744  0.891541  0.250000  1
  Si  Si25  1  0.730197  0.119392  0.250000  1
  Si  Si26  1  0.856329  0.532880  0.039339  1
  Si  Si27  1  0.355451  0.969008  0.038610  1
  Si  Si28  1  0.146631  0.468705  0.959913  1
  Si  Si29  1  0.643432  0.029588  0.540428  1
  Si  Si30  1  0.355451  0.969008  0.461390  1
  Si  Si31  1  0.856329  0.532880  0.460661  1
  Si  Si32  1  0.773101  0.623036  0.750000  1
  Si  Si33  1  0.230083  0.381282  0.250000  1
  Si  Si34  1  0.643432  0.029588  0.959572  1
  P  P35  1  0.287202  0.864284  0.750000  1
