# generated using pymatgen
data_SrCu6Ni3P5
_symmetry_space_group_name_H-M   'P 1'
_cell_length_a   6.72864500
_cell_length_b   6.72959728
_cell_length_c   10.76187001
_cell_angle_alpha   89.99987118
_cell_angle_beta   90.00008224
_cell_angle_gamma   119.99675932
_symmetry_Int_Tables_number   1
_chemical_formula_structural   SrCu6Ni3P5
_chemical_formula_sum   'Sr2 Cu12 Ni6 P10'
_cell_volume   422.03575480
_cell_formula_units_Z   2
loop_
 _symmetry_equiv_pos_site_id
 _symmetry_equiv_pos_as_xyz
  1  'x, y, z'
loop_
 _atom_site_type_symbol
 _atom_site_label
 _atom_site_symmetry_multiplicity
 _atom_site_fract_x
 _atom_site_fract_y
 _atom_site_fract_z
 _atom_site_occupancy
  Sr  Sr0  1  0.999999  0.000030  0.999962  1
  Sr  Sr1  1  0.999998  0.000027  0.500038  1
  Cu  Cu2  1  0.538065  0.076133  0.106356  1
  Cu  Cu3  1  0.461963  0.923897  0.606404  1
  Cu  Cu4  1  0.923888  0.461949  0.106363  1
  Cu  Cu5  1  0.538038  0.461959  0.106357  1
  Cu  Cu6  1  0.461966  0.538032  0.606415  1
  Cu  Cu7  1  0.076073  0.538012  0.606416  1
  Cu  Cu8  1  0.461960  0.923893  0.893598  1
  Cu  Cu9  1  0.461970  0.538033  0.893585  1
  Cu  Cu10  1  0.076071  0.538019  0.893584  1
  Cu  Cu11  1  0.923886  0.461933  0.393638  1
  Cu  Cu12  1  0.538034  0.461955  0.393645  1
  Cu  Cu13  1  0.538063  0.076120  0.393641  1
  Ni  Ni14  1  0.202493  0.404999  0.250000  1
  Ni  Ni15  1  0.797391  0.594777  0.749994  1
  Ni  Ni16  1  0.595137  0.797596  0.249998  1
  Ni  Ni17  1  0.202413  0.797584  0.249998  1
  Ni  Ni18  1  0.797389  0.202553  0.750003  1
  Ni  Ni19  1  0.405136  0.202523  0.750003  1
  P  P20  1  0.333352  0.666733  0.072199  1
  P  P21  1  0.666646  0.333296  0.572101  1
  P  P22  1  0.666646  0.333299  0.927898  1
  P  P23  1  0.333349  0.666726  0.427800  1
  P  P24  1  0.839925  0.679882  0.250002  1
  P  P25  1  0.160054  0.320095  0.750003  1
  P  P26  1  0.320067  0.160051  0.250000  1
  P  P27  1  0.839978  0.160038  0.249998  1
  P  P28  1  0.160016  0.839921  0.749999  1
  P  P29  1  0.679930  0.839933  0.750001  1
