# generated using pymatgen
data_Dy8Ho11ScSi13Ir3
_symmetry_space_group_name_H-M   'P 1'
_cell_length_a   7.25555910
_cell_length_b   7.79648527
_cell_length_c   14.51238600
_cell_angle_alpha   90.00000000
_cell_angle_beta   90.00000000
_cell_angle_gamma   90.04865596
_symmetry_Int_Tables_number   1
_chemical_formula_structural   Dy8Ho11ScSi13Ir3
_chemical_formula_sum   'Dy8 Ho11 Sc1 Si13 Ir3'
_cell_volume   820.93431823
_cell_formula_units_Z   1
loop_
 _symmetry_equiv_pos_site_id
 _symmetry_equiv_pos_as_xyz
  1  'x, y, z'
loop_
 _atom_site_type_symbol
 _atom_site_label
 _atom_site_symmetry_multiplicity
 _atom_site_fract_x
 _atom_site_fract_y
 _atom_site_fract_z
 _atom_site_occupancy
  Dy  Dy0  1  0.008263  0.179707  0.094363  1
  Dy  Dy1  1  0.988334  0.825130  0.906316  1
  Dy  Dy2  1  0.488129  0.685156  0.905363  1
  Dy  Dy3  1  0.988334  0.825130  0.593684  1
  Dy  Dy4  1  0.509458  0.321833  0.095417  1
  Dy  Dy5  1  0.008263  0.179707  0.405637  1
  Dy  Dy6  1  0.509458  0.321833  0.404583  1
  Dy  Dy7  1  0.488129  0.685156  0.594637  1
  Ho  Ho8  1  0.155528  0.521352  0.750000  1
  Ho  Ho9  1  0.830542  0.490346  0.250000  1
  Ho  Ho10  1  0.328404  0.012320  0.250000  1
  Ho  Ho11  1  0.318442  0.174066  0.628303  1
  Ho  Ho12  1  0.681497  0.827010  0.372728  1
  Ho  Ho13  1  0.182266  0.673736  0.372000  1
  Ho  Ho14  1  0.681497  0.827010  0.127272  1
  Ho  Ho15  1  0.830846  0.314143  0.627632  1
  Ho  Ho16  1  0.318442  0.174066  0.871697  1
  Ho  Ho17  1  0.830846  0.314143  0.872368  1
  Ho  Ho18  1  0.182266  0.673736  0.128000  1
  Sc  Sc19  1  0.673129  0.983097  0.750000  1
  Si  Si20  1  0.529696  0.403507  0.750000  1
  Si  Si21  1  0.289975  0.866686  0.750000  1
  Si  Si22  1  0.723770  0.135067  0.250000  1
  Si  Si23  1  0.220811  0.367172  0.250000  1
  Si  Si24  1  0.768980  0.630610  0.750000  1
  Si  Si25  1  0.156133  0.471897  0.539450  1
  Si  Si26  1  0.845753  0.529625  0.464877  1
  Si  Si27  1  0.344517  0.971822  0.463679  1
  Si  Si28  1  0.845753  0.529625  0.035123  1
  Si  Si29  1  0.650123  0.029243  0.541024  1
  Si  Si30  1  0.156133  0.471897  0.960550  1
  Si  Si31  1  0.650123  0.029243  0.958976  1
  Si  Si32  1  0.344517  0.971822  0.036321  1
  Ir  Ir33  1  0.021129  0.084277  0.750000  1
  Ir  Ir34  1  0.973844  0.906494  0.250000  1
  Ir  Ir35  1  0.476668  0.592335  0.250000  1
