# generated using pymatgen
data_Na2LaGa7
_symmetry_space_group_name_H-M   'P 1'
_cell_length_a   5.86768588
_cell_length_b   5.86768621
_cell_length_c   17.57764800
_cell_angle_alpha   90.00000000
_cell_angle_beta   90.00000000
_cell_angle_gamma   134.86721346
_symmetry_Int_Tables_number   1
_chemical_formula_structural   Na2LaGa7
_chemical_formula_sum   'Na4 La2 Ga14'
_cell_volume   428.92728955
_cell_formula_units_Z   2
loop_
 _symmetry_equiv_pos_site_id
 _symmetry_equiv_pos_as_xyz
  1  'x, y, z'
loop_
 _atom_site_type_symbol
 _atom_site_label
 _atom_site_symmetry_multiplicity
 _atom_site_fract_x
 _atom_site_fract_y
 _atom_site_fract_z
 _atom_site_occupancy
  Na  Na0  1  0.840913  0.159087  0.947477  1
  Na  Na1  1  0.159087  0.840913  0.447477  1
  Na  Na2  1  0.159087  0.840913  0.052523  1
  Na  Na3  1  0.840913  0.159087  0.552523  1
  La  La4  1  0.337906  0.662094  0.250000  1
  La  La5  1  0.662094  0.337906  0.750000  1
  Ga  Ga6  1  0.125343  0.874657  0.874446  1
  Ga  Ga7  1  0.874657  0.125343  0.374446  1
  Ga  Ga8  1  0.874657  0.125343  0.125554  1
  Ga  Ga9  1  0.125343  0.874657  0.625554  1
  Ga  Ga10  1  0.542272  0.457728  0.930377  1
  Ga  Ga11  1  0.457728  0.542272  0.430377  1
  Ga  Ga12  1  0.457728  0.542272  0.069623  1
  Ga  Ga13  1  0.542272  0.457728  0.569623  1
  Ga  Ga14  1  0.046541  0.953459  0.250000  1
  Ga  Ga15  1  0.953459  0.046541  0.750000  1
  Ga  Ga16  1  0.361407  0.638593  0.827035  1
  Ga  Ga17  1  0.638593  0.361407  0.327035  1
  Ga  Ga18  1  0.638593  0.361407  0.172965  1
  Ga  Ga19  1  0.361407  0.638593  0.672965  1
