# generated using pymatgen
data_FeIr5W2
_symmetry_space_group_name_H-M   'P 1'
_cell_length_a   5.50285919
_cell_length_b   5.50285951
_cell_length_c   4.38968800
_cell_angle_alpha   90.00000000
_cell_angle_beta   90.00000000
_cell_angle_gamma   120.10989482
_symmetry_Int_Tables_number   1
_chemical_formula_structural   FeIr5W2
_chemical_formula_sum   'Fe1 Ir5 W2'
_cell_volume   114.98974701
_cell_formula_units_Z   1
loop_
 _symmetry_equiv_pos_site_id
 _symmetry_equiv_pos_as_xyz
  1  'x, y, z'
loop_
 _atom_site_type_symbol
 _atom_site_label
 _atom_site_symmetry_multiplicity
 _atom_site_fract_x
 _atom_site_fract_y
 _atom_site_fract_z
 _atom_site_occupancy
  Fe  Fe0  1  0.832342  0.167658  0.750000  1
  Ir  Ir1  1  0.159656  0.331029  0.250000  1
  Ir  Ir2  1  0.668971  0.840344  0.250000  1
  Ir  Ir3  1  0.165410  0.834590  0.250000  1
  Ir  Ir4  1  0.835014  0.666456  0.750000  1
  Ir  Ir5  1  0.333544  0.164986  0.750000  1
  W  W6  1  0.333986  0.666014  0.750000  1
  W  W7  1  0.671076  0.328924  0.250000  1
