# generated using pymatgen
data_Ca8Si13Ni3
_symmetry_space_group_name_H-M   'P 1'
_cell_length_a   8.11754400
_cell_length_b   8.11754509
_cell_length_c   8.58717100
_cell_angle_alpha   90.00000000
_cell_angle_beta   90.00000000
_cell_angle_gamma   120.00000371
_symmetry_Int_Tables_number   1
_chemical_formula_structural   Ca8Si13Ni3
_chemical_formula_sum   'Ca8 Si13 Ni3'
_cell_volume   490.03837115
_cell_formula_units_Z   1
loop_
 _symmetry_equiv_pos_site_id
 _symmetry_equiv_pos_as_xyz
  1  'x, y, z'
loop_
 _atom_site_type_symbol
 _atom_site_label
 _atom_site_symmetry_multiplicity
 _atom_site_fract_x
 _atom_site_fract_y
 _atom_site_fract_z
 _atom_site_occupancy
  Ca  Ca0  1  0.499338  0.500662  0.755395  1
  Ca  Ca1  1  0.499706  0.500294  0.244703  1
  Ca  Ca2  1  0.001323  0.500662  0.755395  1
  Ca  Ca3  1  0.000589  0.500294  0.244703  1
  Ca  Ca4  1  0.499338  0.998677  0.755395  1
  Ca  Ca5  1  0.499706  0.999411  0.244703  1
  Ca  Ca6  1  0.000000  0.000000  0.756201  1
  Ca  Ca7  1  0.000000  0.000000  0.243348  1
  Si  Si8  1  0.828925  0.171075  0.000045  1
  Si  Si9  1  0.171179  0.828821  0.999942  1
  Si  Si10  1  0.342150  0.171075  0.000045  1
  Si  Si11  1  0.174501  0.825499  0.500659  1
  Si  Si12  1  0.657642  0.828821  0.999942  1
  Si  Si13  1  0.838981  0.161019  0.499476  1
  Si  Si14  1  0.828925  0.657850  0.000045  1
  Si  Si15  1  0.651001  0.825499  0.500659  1
  Si  Si16  1  0.171179  0.342358  0.999942  1
  Si  Si17  1  0.322038  0.161019  0.499476  1
  Si  Si18  1  0.174501  0.348999  0.500659  1
  Si  Si19  1  0.838981  0.677962  0.499476  1
  Si  Si20  1  0.666667  0.333333  0.501553  1
  Ni  Ni21  1  0.666667  0.333333  0.999888  1
  Ni  Ni22  1  0.333333  0.666667  0.002128  1
  Ni  Ni23  1  0.333333  0.666667  0.496222  1
