# generated using pymatgen
data_Er8Nb12Si15Sn
_symmetry_space_group_name_H-M   'P 1'
_cell_length_a   6.89565000
_cell_length_b   7.10789630
_cell_length_c   13.40430900
_cell_angle_alpha   90.00000000
_cell_angle_beta   90.00000000
_cell_angle_gamma   89.91787590
_symmetry_Int_Tables_number   1
_chemical_formula_structural   Er8Nb12Si15Sn
_chemical_formula_sum   'Er8 Nb12 Si15 Sn1'
_cell_volume   656.99229733
_cell_formula_units_Z   1
loop_
 _symmetry_equiv_pos_site_id
 _symmetry_equiv_pos_as_xyz
  1  'x, y, z'
loop_
 _atom_site_type_symbol
 _atom_site_label
 _atom_site_symmetry_multiplicity
 _atom_site_fract_x
 _atom_site_fract_y
 _atom_site_fract_z
 _atom_site_occupancy
  Er  Er0  1  0.503800  0.327450  0.096729  1
  Er  Er1  1  0.003107  0.173408  0.402856  1
  Er  Er2  1  0.490297  0.670975  0.591715  1
  Er  Er3  1  0.004966  0.836544  0.911417  1
  Er  Er4  1  0.490297  0.670975  0.908285  1
  Er  Er5  1  0.004966  0.836544  0.588583  1
  Er  Er6  1  0.503800  0.327450  0.403271  1
  Er  Er7  1  0.003107  0.173408  0.097144  1
  Nb  Nb8  1  0.660403  0.017456  0.750000  1
  Nb  Nb9  1  0.172714  0.487079  0.750000  1
  Nb  Nb10  1  0.337135  0.990649  0.250000  1
  Nb  Nb11  1  0.836218  0.507605  0.250000  1
  Nb  Nb12  1  0.837384  0.316800  0.622829  1
  Nb  Nb13  1  0.335955  0.173632  0.875683  1
  Nb  Nb14  1  0.162998  0.675337  0.125388  1
  Nb  Nb15  1  0.662603  0.824130  0.374340  1
  Nb  Nb16  1  0.162998  0.675337  0.374612  1
  Nb  Nb17  1  0.662603  0.824130  0.125660  1
  Nb  Nb18  1  0.837384  0.316800  0.877171  1
  Nb  Nb19  1  0.335955  0.173632  0.624317  1
  Si  Si20  1  0.297076  0.872125  0.750000  1
  Si  Si21  1  0.204733  0.373644  0.250000  1
  Si  Si22  1  0.703929  0.125935  0.250000  1
  Si  Si23  1  0.537396  0.371778  0.750000  1
  Si  Si24  1  0.042002  0.122886  0.750000  1
  Si  Si25  1  0.458550  0.622151  0.250000  1
  Si  Si26  1  0.957917  0.875932  0.250000  1
  Si  Si27  1  0.662393  0.033810  0.539595  1
  Si  Si28  1  0.160564  0.462858  0.959421  1
  Si  Si29  1  0.336538  0.964995  0.042737  1
  Si  Si30  1  0.835977  0.535623  0.459024  1
  Si  Si31  1  0.336538  0.964995  0.457263  1
  Si  Si32  1  0.835977  0.535623  0.040976  1
  Si  Si33  1  0.662393  0.033810  0.960405  1
  Si  Si34  1  0.160564  0.462858  0.540579  1
  Sn  Sn35  1  0.798764  0.641636  0.750000  1
