# generated using pymatgen
data_Nd6Al24Os5Rh3
_symmetry_space_group_name_H-M   'P 1'
_cell_length_a   8.88961634
_cell_length_b   8.91211408
_cell_length_c   9.68773461
_cell_angle_alpha   90.04150733
_cell_angle_beta   89.83539218
_cell_angle_gamma   119.44566276
_symmetry_Int_Tables_number   1
_chemical_formula_structural   Nd6Al24Os5Rh3
_chemical_formula_sum   'Nd6 Al24 Os5 Rh3'
_cell_volume   668.36485115
_cell_formula_units_Z   1
loop_
 _symmetry_equiv_pos_site_id
 _symmetry_equiv_pos_as_xyz
  1  'x, y, z'
loop_
 _atom_site_type_symbol
 _atom_site_label
 _atom_site_symmetry_multiplicity
 _atom_site_fract_x
 _atom_site_fract_y
 _atom_site_fract_z
 _atom_site_occupancy
  Nd  Nd0  1  0.186377  0.380508  0.250438  1
  Nd  Nd1  1  0.813623  0.619492  0.749562  1
  Nd  Nd2  1  0.617287  0.814015  0.251026  1
  Nd  Nd3  1  0.382713  0.185985  0.748974  1
  Nd  Nd4  1  0.193699  0.809677  0.250624  1
  Nd  Nd5  1  0.806301  0.190323  0.749376  1
  Al  Al6  1  0.333977  0.667658  0.018429  1
  Al  Al7  1  0.666023  0.332342  0.981571  1
  Al  Al8  1  0.667844  0.333249  0.518358  1
  Al  Al9  1  0.332156  0.666751  0.481642  1
  Al  Al10  1  0.161713  0.326730  0.574836  1
  Al  Al11  1  0.838287  0.673270  0.425164  1
  Al  Al12  1  0.673009  0.837402  0.574990  1
  Al  Al13  1  0.836130  0.673598  0.076008  1
  Al  Al14  1  0.326991  0.162598  0.425010  1
  Al  Al15  1  0.163870  0.326402  0.923992  1
  Al  Al16  1  0.163653  0.834603  0.574215  1
  Al  Al17  1  0.326829  0.162177  0.075150  1
  Al  Al18  1  0.836347  0.165397  0.425785  1
  Al  Al19  1  0.673171  0.837823  0.924850  1
  Al  Al20  1  0.833568  0.162029  0.075484  1
  Al  Al21  1  0.166432  0.837971  0.924516  1
  Al  Al22  1  0.561903  0.127326  0.249682  1
  Al  Al23  1  0.438097  0.872674  0.750318  1
  Al  Al24  1  0.874508  0.438703  0.250260  1
  Al  Al25  1  0.125492  0.561297  0.749740  1
  Al  Al26  1  0.561683  0.438471  0.249766  1
  Al  Al27  1  0.438317  0.561529  0.750234  1
  Al  Al28  1  0.999089  0.001467  0.250065  1
  Al  Al29  1  0.000911  0.998533  0.749935  1
  Os  Os30  1  0.500000  0.000000  0.000000  1
  Os  Os31  1  0.500000  0.000000  0.500000  1
  Os  Os32  1  0.000000  0.500000  0.500000  1
  Os  Os33  1  0.000000  0.000000  0.000000  1
  Os  Os34  1  0.000000  0.000000  0.500000  1
  Rh  Rh35  1  0.000000  0.500000  0.000000  1
  Rh  Rh36  1  0.500000  0.500000  0.000000  1
  Rh  Rh37  1  0.500000  0.500000  0.500000  1
