# generated using pymatgen
data_Tm6Sc3Al13Os7
_symmetry_space_group_name_H-M   'P 1'
_cell_length_a   9.04592389
_cell_length_b   9.04592441
_cell_length_c   9.04592398
_cell_angle_alpha   59.95654274
_cell_angle_beta   59.95654033
_cell_angle_gamma   59.95653870
_symmetry_Int_Tables_number   1
_chemical_formula_structural   Tm6Sc3Al13Os7
_chemical_formula_sum   'Tm6 Sc3 Al13 Os7'
_cell_volume   522.89629753
_cell_formula_units_Z   1
loop_
 _symmetry_equiv_pos_site_id
 _symmetry_equiv_pos_as_xyz
  1  'x, y, z'
loop_
 _atom_site_type_symbol
 _atom_site_label
 _atom_site_symmetry_multiplicity
 _atom_site_fract_x
 _atom_site_fract_y
 _atom_site_fract_z
 _atom_site_occupancy
  Tm  Tm0  1  0.709306  0.709306  0.287055  1
  Tm  Tm1  1  0.297991  0.703749  0.297991  1
  Tm  Tm2  1  0.703749  0.297991  0.297991  1
  Tm  Tm3  1  0.297991  0.297991  0.703749  1
  Tm  Tm4  1  0.709306  0.287055  0.709306  1
  Tm  Tm5  1  0.287055  0.709306  0.709306  1
  Sc  Sc6  1  0.883415  0.883415  0.355617  1
  Sc  Sc7  1  0.883415  0.355617  0.883415  1
  Sc  Sc8  1  0.355617  0.883415  0.883415  1
  Al  Al9  1  0.875354  0.875354  0.875354  1
  Al  Al10  1  0.123791  0.123791  0.633986  1
  Al  Al11  1  0.123791  0.633986  0.123791  1
  Al  Al12  1  0.633986  0.123791  0.123791  1
  Al  Al13  1  0.120470  0.120470  0.120470  1
  Al  Al14  1  0.668443  0.668443  0.995124  1
  Al  Al15  1  0.668443  0.995124  0.668443  1
  Al  Al16  1  0.995124  0.668443  0.668443  1
  Al  Al17  1  0.668517  0.668517  0.668517  1
  Al  Al18  1  0.331736  0.331736  0.003538  1
  Al  Al19  1  0.331736  0.003538  0.331736  1
  Al  Al20  1  0.003538  0.331736  0.331736  1
  Al  Al21  1  0.332441  0.332441  0.332441  1
  Os  Os22  1  0.992464  0.992464  0.992464  1
  Os  Os23  1  0.002051  0.002051  0.502167  1
  Os  Os24  1  0.496558  0.002933  0.496558  1
  Os  Os25  1  0.002933  0.496558  0.496558  1
  Os  Os26  1  0.496558  0.496558  0.002933  1
  Os  Os27  1  0.002051  0.502167  0.002051  1
  Os  Os28  1  0.502167  0.002051  0.002051  1
