# generated using pymatgen
data_Pr3Pa(Pd2Pb)2
_symmetry_space_group_name_H-M   'P 1'
_cell_length_a   8.06527851
_cell_length_b   8.06527851
_cell_length_c   3.77903600
_cell_angle_alpha   90.00000000
_cell_angle_beta   90.00000000
_cell_angle_gamma   91.88355547
_symmetry_Int_Tables_number   1
_chemical_formula_structural   Pr3Pa(Pd2Pb)2
_chemical_formula_sum   'Pr3 Pa1 Pd4 Pb2'
_cell_volume   245.68862535
_cell_formula_units_Z   1
loop_
 _symmetry_equiv_pos_site_id
 _symmetry_equiv_pos_as_xyz
  1  'x, y, z'
loop_
 _atom_site_type_symbol
 _atom_site_label
 _atom_site_symmetry_multiplicity
 _atom_site_fract_x
 _atom_site_fract_y
 _atom_site_fract_z
 _atom_site_occupancy
  Pr  Pr0  1  0.676577  0.176577  0.500000  1
  Pr  Pr1  1  0.825885  0.674187  0.500000  1
  Pr  Pr2  1  0.174187  0.325885  0.500000  1
  Pa  Pa3  1  0.329773  0.829773  0.500000  1
  Pd  Pd4  1  0.883132  0.383132  0.000000  1
  Pd  Pd5  1  0.604110  0.865248  0.000000  1
  Pd  Pd6  1  0.365248  0.104110  0.000000  1
  Pd  Pd7  1  0.143050  0.643050  0.000000  1
  Pb  Pb8  1  0.498597  0.499440  0.000000  1
  Pb  Pb9  1  0.999440  0.998597  0.000000  1
