# generated using pymatgen
data_CsGaSb4
_symmetry_space_group_name_H-M   'P 1'
_cell_length_a   4.32504700
_cell_length_b   10.98237800
_cell_length_c   18.85391500
_cell_angle_alpha   90.00000000
_cell_angle_beta   90.00000000
_cell_angle_gamma   90.00000000
_symmetry_Int_Tables_number   1
_chemical_formula_structural   CsGaSb4
_chemical_formula_sum   'Cs4 Ga4 Sb16'
_cell_volume   895.54778402
_cell_formula_units_Z   4
loop_
 _symmetry_equiv_pos_site_id
 _symmetry_equiv_pos_as_xyz
  1  'x, y, z'
loop_
 _atom_site_type_symbol
 _atom_site_label
 _atom_site_symmetry_multiplicity
 _atom_site_fract_x
 _atom_site_fract_y
 _atom_site_fract_z
 _atom_site_occupancy
  Cs  Cs0  1  0.750000  0.182781  0.431211  1
  Cs  Cs1  1  0.250000  0.817219  0.568789  1
  Cs  Cs2  1  0.750000  0.682781  0.068789  1
  Cs  Cs3  1  0.250000  0.317219  0.931211  1
  Ga  Ga4  1  0.750000  0.320004  0.632063  1
  Ga  Ga5  1  0.250000  0.679996  0.367937  1
  Ga  Ga6  1  0.750000  0.820004  0.867937  1
  Ga  Ga7  1  0.250000  0.179996  0.132063  1
  Sb  Sb8  1  0.750000  0.824115  0.389132  1
  Sb  Sb9  1  0.250000  0.175885  0.610868  1
  Sb  Sb10  1  0.750000  0.324115  0.110868  1
  Sb  Sb11  1  0.250000  0.675885  0.889132  1
  Sb  Sb12  1  0.750000  0.406734  0.766169  1
  Sb  Sb13  1  0.250000  0.593266  0.233831  1
  Sb  Sb14  1  0.750000  0.906734  0.733831  1
  Sb  Sb15  1  0.250000  0.093266  0.266169  1
  Sb  Sb16  1  0.750000  0.523692  0.549723  1
  Sb  Sb17  1  0.250000  0.476308  0.450277  1
  Sb  Sb18  1  0.750000  0.023692  0.950277  1
  Sb  Sb19  1  0.250000  0.976308  0.049723  1
  Sb  Sb20  1  0.750000  0.919101  0.246624  1
  Sb  Sb21  1  0.250000  0.080899  0.753376  1
  Sb  Sb22  1  0.750000  0.419101  0.253376  1
  Sb  Sb23  1  0.250000  0.580899  0.746624  1
