# generated using pymatgen
data_Y2Sc4Pb5
_symmetry_space_group_name_H-M   'P 1'
_cell_length_a   11.29787777
_cell_length_b   11.29787726
_cell_length_c   11.29787777
_cell_angle_alpha   131.81081219
_cell_angle_beta   59.47566285
_cell_angle_gamma   147.27035215
_symmetry_Int_Tables_number   1
_chemical_formula_structural   Y2Sc4Pb5
_chemical_formula_sum   'Y4 Sc8 Pb10'
_cell_volume   576.11652483
_cell_formula_units_Z   2
loop_
 _symmetry_equiv_pos_site_id
 _symmetry_equiv_pos_as_xyz
  1  'x, y, z'
loop_
 _atom_site_type_symbol
 _atom_site_label
 _atom_site_symmetry_multiplicity
 _atom_site_fract_x
 _atom_site_fract_y
 _atom_site_fract_z
 _atom_site_occupancy
  Y  Y0  1  0.141549  0.113981  0.255530  1
  Y  Y1  1  0.858450  0.886021  0.744471  1
  Y  Y2  1  0.358450  0.613981  0.972429  1
  Y  Y3  1  0.641550  0.386020  0.027569  1
  Sc  Sc4  1  0.557043  0.250000  0.307042  1
  Sc  Sc5  1  0.942958  0.250000  0.692958  1
  Sc  Sc6  1  0.442958  0.750000  0.692958  1
  Sc  Sc7  1  0.057042  0.750000  0.307042  1
  Sc  Sc8  1  0.438506  0.238569  0.677075  1
  Sc  Sc9  1  0.561495  0.761431  0.322925  1
  Sc  Sc10  1  0.061494  0.738570  0.800064  1
  Sc  Sc11  1  0.938506  0.261432  0.199937  1
  Pb  Pb12  1  0.291143  0.299484  0.590627  1
  Pb  Pb13  1  0.708857  0.700516  0.409372  1
  Pb  Pb14  1  0.208858  0.799485  0.008341  1
  Pb  Pb15  1  0.791144  0.200515  0.991659  1
  Pb  Pb16  1  0.250000  0.250000  0.000000  1
  Pb  Pb17  1  0.749999  0.749999  0.000000  1
  Pb  Pb18  1  0.071374  0.406989  0.478363  1
  Pb  Pb19  1  0.928627  0.593011  0.521637  1
  Pb  Pb20  1  0.428627  0.906990  0.335615  1
  Pb  Pb21  1  0.571373  0.093010  0.664385  1
