# generated using pymatgen
data_Nd8ReOs2WC8
_symmetry_space_group_name_H-M   'P 1'
_cell_length_a   5.35442700
_cell_length_b   6.71366845
_cell_length_c   10.21826000
_cell_angle_alpha   90.18228950
_cell_angle_beta   90.00000000
_cell_angle_gamma   90.00000000
_symmetry_Int_Tables_number   1
_chemical_formula_structural   Nd8ReOs2WC8
_chemical_formula_sum   'Nd8 Re1 Os2 W1 C8'
_cell_volume   367.32259422
_cell_formula_units_Z   1
loop_
 _symmetry_equiv_pos_site_id
 _symmetry_equiv_pos_as_xyz
  1  'x, y, z'
loop_
 _atom_site_type_symbol
 _atom_site_label
 _atom_site_symmetry_multiplicity
 _atom_site_fract_x
 _atom_site_fract_y
 _atom_site_fract_z
 _atom_site_occupancy
  Nd  Nd0  1  0.250000  0.472776  0.785998  1
  Nd  Nd1  1  0.750000  0.030216  0.284524  1
  Nd  Nd2  1  0.250000  0.972993  0.710121  1
  Nd  Nd3  1  0.750000  0.526107  0.211870  1
  Nd  Nd4  1  0.250000  0.814039  0.049955  1
  Nd  Nd5  1  0.750000  0.684682  0.551126  1
  Nd  Nd6  1  0.250000  0.311315  0.447981  1
  Nd  Nd7  1  0.750000  0.188021  0.948015  1
  Re  Re8  1  0.750000  0.730912  0.856978  1
  Os  Os9  1  0.250000  0.269679  0.141300  1
  Os  Os10  1  0.750000  0.229929  0.643475  1
  W  W11  1  0.250000  0.770789  0.359082  1
  C  C12  1  0.250000  0.684092  0.543152  1
  C  C13  1  0.750000  0.813693  0.037369  1
  C  C14  1  0.250000  0.186677  0.962542  1
  C  C15  1  0.750000  0.312345  0.465334  1
  C  C16  1  0.250000  0.037546  0.257769  1
  C  C17  1  0.750000  0.465683  0.759172  1
  C  C18  1  0.250000  0.531301  0.241165  1
  C  C19  1  0.750000  0.967205  0.743075  1
