# generated using pymatgen
data_CeThCo22
_symmetry_space_group_name_H-M   'P 1'
_cell_length_a   7.62310124
_cell_length_b   7.62310154
_cell_length_c   7.62310125
_cell_angle_alpha   99.79453735
_cell_angle_beta   99.79452564
_cell_angle_gamma   131.28226683
_symmetry_Int_Tables_number   1
_chemical_formula_structural   CeThCo22
_chemical_formula_sum   'Ce1 Th1 Co22'
_cell_volume   303.25964604
_cell_formula_units_Z   1
loop_
 _symmetry_equiv_pos_site_id
 _symmetry_equiv_pos_as_xyz
  1  'x, y, z'
loop_
 _atom_site_type_symbol
 _atom_site_label
 _atom_site_symmetry_multiplicity
 _atom_site_fract_x
 _atom_site_fract_y
 _atom_site_fract_z
 _atom_site_occupancy
  Ce  Ce0  1  0.000000  0.000000  0.000000  1
  Th  Th1  1  0.250000  0.750000  0.500000  1
  Co  Co2  1  0.750000  0.250000  0.500000  1
  Co  Co3  1  0.763203  0.183206  0.829394  1
  Co  Co4  1  0.353811  0.933809  0.170606  1
  Co  Co5  1  0.183103  0.511673  0.079305  1
  Co  Co6  1  0.896203  0.567631  0.079305  1
  Co  Co7  1  0.488327  0.816897  0.920695  1
  Co  Co8  1  0.432369  0.103797  0.920695  1
  Co  Co9  1  0.066191  0.646189  0.829394  1
  Co  Co10  1  0.816794  0.646189  0.579998  1
  Co  Co11  1  0.488327  0.567631  0.671430  1
  Co  Co12  1  0.896203  0.816897  0.328570  1
  Co  Co13  1  0.066191  0.236797  0.420002  1
  Co  Co14  1  0.353811  0.183206  0.420002  1
  Co  Co15  1  0.763203  0.933809  0.579998  1
  Co  Co16  1  0.432369  0.511673  0.328570  1
  Co  Co17  1  0.183103  0.103797  0.671430  1
  Co  Co18  1  0.816794  0.236797  0.170606  1
  Co  Co19  1  0.500000  0.500000  0.000000  1
  Co  Co20  1  0.624948  0.874786  0.249837  1
  Co  Co21  1  0.624889  0.375052  0.249837  1
  Co  Co22  1  0.125214  0.375052  0.750163  1
  Co  Co23  1  0.624948  0.375111  0.750163  1
