# generated using pymatgen
data_Ho4Er4Tm4Co5Bi
_symmetry_space_group_name_H-M   'P 1'
_cell_length_a   8.24089812
_cell_length_b   8.24089831
_cell_length_c   8.24089854
_cell_angle_alpha   110.88762304
_cell_angle_beta   110.79760114
_cell_angle_gamma   106.76195049
_symmetry_Int_Tables_number   1
_chemical_formula_structural   Ho4Er4Tm4Co5Bi
_chemical_formula_sum   'Ho4 Er4 Tm4 Co5 Bi1'
_cell_volume   430.10743184
_cell_formula_units_Z   1
loop_
 _symmetry_equiv_pos_site_id
 _symmetry_equiv_pos_as_xyz
  1  'x, y, z'
loop_
 _atom_site_type_symbol
 _atom_site_label
 _atom_site_symmetry_multiplicity
 _atom_site_fract_x
 _atom_site_fract_y
 _atom_site_fract_z
 _atom_site_occupancy
  Ho  Ho0  1  0.287522  0.183842  0.471363  1
  Ho  Ho1  1  0.712478  0.816158  0.528637  1
  Ho  Ho2  1  0.287522  0.816158  0.103680  1
  Ho  Ho3  1  0.712478  0.183842  0.896320  1
  Er  Er4  1  0.208495  0.403119  0.194623  1
  Er  Er5  1  0.791505  0.596881  0.805377  1
  Er  Er6  1  0.208495  0.013873  0.805377  1
  Er  Er7  1  0.791505  0.986127  0.194623  1
  Tm  Tm8  1  0.622593  0.312137  0.310456  1
  Tm  Tm9  1  0.377407  0.687863  0.689544  1
  Tm  Tm10  1  0.001682  0.312137  0.689544  1
  Tm  Tm11  1  0.998318  0.687863  0.310456  1
  Co  Co12  1  0.000000  0.374978  0.374978  1
  Co  Co13  1  0.000000  0.625022  0.625022  1
  Co  Co14  1  0.388070  0.888070  0.500000  1
  Co  Co15  1  0.611930  0.111930  0.500000  1
  Co  Co16  1  0.000000  0.000000  0.000000  1
  Bi  Bi17  1  0.500000  0.500000  0.000000  1
