# generated using pymatgen
data_Nd4GaB4Ir9
_symmetry_space_group_name_H-M   'P 1'
_cell_length_a   10.93525597
_cell_length_b   10.93525579
_cell_length_c   10.93525560
_cell_angle_alpha   29.62076642
_cell_angle_beta   29.62076765
_cell_angle_gamma   29.62076880
_symmetry_Int_Tables_number   1
_chemical_formula_structural   Nd4GaB4Ir9
_chemical_formula_sum   'Nd4 Ga1 B4 Ir9'
_cell_volume   282.79818235
_cell_formula_units_Z   1
loop_
 _symmetry_equiv_pos_site_id
 _symmetry_equiv_pos_as_xyz
  1  'x, y, z'
loop_
 _atom_site_type_symbol
 _atom_site_label
 _atom_site_symmetry_multiplicity
 _atom_site_fract_x
 _atom_site_fract_y
 _atom_site_fract_z
 _atom_site_occupancy
  Nd  Nd0  1  0.149219  0.149219  0.149219  1
  Nd  Nd1  1  0.950314  0.950314  0.950314  1
  Nd  Nd2  1  0.850781  0.850781  0.850781  1
  Nd  Nd3  1  0.049686  0.049686  0.049686  1
  Ga  Ga4  1  0.500000  0.500000  0.500000  1
  B  B5  1  0.616292  0.616292  0.616292  1
  B  B6  1  0.717854  0.717854  0.717854  1
  B  B7  1  0.383708  0.383708  0.383708  1
  B  B8  1  0.282146  0.282146  0.282146  1
  Ir  Ir9  1  0.403674  0.902395  0.403674  1
  Ir  Ir10  1  0.902395  0.403674  0.403674  1
  Ir  Ir11  1  0.500000  0.500000  0.000000  1
  Ir  Ir12  1  0.500000  0.000000  0.500000  1
  Ir  Ir13  1  0.000000  0.500000  0.500000  1
  Ir  Ir14  1  0.596326  0.097605  0.596326  1
  Ir  Ir15  1  0.596326  0.596326  0.097605  1
  Ir  Ir16  1  0.097605  0.596326  0.596326  1
  Ir  Ir17  1  0.403674  0.403674  0.902395  1
