# generated using pymatgen
data_Ti11V8Si16Pd
_symmetry_space_group_name_H-M   'P 1'
_cell_length_a   6.53761506
_cell_length_b   6.53761561
_cell_length_c   11.99366900
_cell_angle_alpha   89.74242465
_cell_angle_beta   90.25757537
_cell_angle_gamma   89.76711656
_symmetry_Int_Tables_number   1
_chemical_formula_structural   Ti11V8Si16Pd
_chemical_formula_sum   'Ti11 V8 Si16 Pd1'
_cell_volume   512.59974496
_cell_formula_units_Z   1
loop_
 _symmetry_equiv_pos_site_id
 _symmetry_equiv_pos_as_xyz
  1  'x, y, z'
loop_
 _atom_site_type_symbol
 _atom_site_label
 _atom_site_symmetry_multiplicity
 _atom_site_fract_x
 _atom_site_fract_y
 _atom_site_fract_z
 _atom_site_occupancy
  Ti  Ti0  1  0.999588  0.343404  0.220558  1
  Ti  Ti1  1  0.160423  0.502885  0.469168  1
  Ti  Ti2  1  0.834397  0.499345  0.969878  1
  Ti  Ti3  1  0.502885  0.160423  0.530832  1
  Ti  Ti4  1  0.499345  0.834397  0.030122  1
  Ti  Ti5  1  0.997875  0.659256  0.720263  1
  Ti  Ti6  1  0.343404  0.999588  0.779442  1
  Ti  Ti7  1  0.659256  0.997875  0.279737  1
  Ti  Ti8  1  0.333472  0.667192  0.248924  1
  Ti  Ti9  1  0.667192  0.333472  0.751076  1
  Ti  Ti10  1  0.834144  0.834144  0.500000  1
  V  V11  1  0.995155  0.153755  0.622801  1
  V  V12  1  0.346398  0.500018  0.870162  1
  V  V13  1  0.653780  0.505878  0.371570  1
  V  V14  1  0.500018  0.346398  0.129838  1
  V  V15  1  0.505878  0.653780  0.628430  1
  V  V16  1  0.004095  0.836919  0.121204  1
  V  V17  1  0.153755  0.995155  0.377199  1
  V  V18  1  0.836919  0.004095  0.878796  1
  Si  Si19  1  0.043003  0.296492  0.814449  1
  Si  Si20  1  0.208207  0.543501  0.060025  1
  Si  Si21  1  0.798909  0.458052  0.562785  1
  Si  Si22  1  0.543501  0.208207  0.939975  1
  Si  Si23  1  0.458052  0.798909  0.437215  1
  Si  Si24  1  0.958218  0.702515  0.312686  1
  Si  Si25  1  0.296492  0.043003  0.185551  1
  Si  Si26  1  0.702515  0.958218  0.687314  1
  Si  Si27  1  0.290546  0.365609  0.673271  1
  Si  Si28  1  0.126610  0.789855  0.922404  1
  Si  Si29  1  0.866823  0.209406  0.422906  1
  Si  Si30  1  0.789855  0.126610  0.077596  1
  Si  Si31  1  0.209406  0.866823  0.577094  1
  Si  Si32  1  0.709141  0.633756  0.173498  1
  Si  Si33  1  0.365609  0.290546  0.326729  1
  Si  Si34  1  0.633756  0.709141  0.826502  1
  Pd  Pd35  1  0.171380  0.171380  0.000000  1
