# generated using pymatgen
data_Yb4GdTh3(ReC2)4
_symmetry_space_group_name_H-M   'P 1'
_cell_length_a   5.22003300
_cell_length_b   6.52801672
_cell_length_c   10.32723538
_cell_angle_alpha   90.20393996
_cell_angle_beta   90.00000000
_cell_angle_gamma   90.00000000
_symmetry_Int_Tables_number   1
_chemical_formula_structural   Yb4GdTh3(ReC2)4
_chemical_formula_sum   'Yb4 Gd1 Th3 Re4 C8'
_cell_volume   351.91342189
_cell_formula_units_Z   1
loop_
 _symmetry_equiv_pos_site_id
 _symmetry_equiv_pos_as_xyz
  1  'x, y, z'
loop_
 _atom_site_type_symbol
 _atom_site_label
 _atom_site_symmetry_multiplicity
 _atom_site_fract_x
 _atom_site_fract_y
 _atom_site_fract_z
 _atom_site_occupancy
  Yb  Yb0  1  0.250000  0.535202  0.233753  1
  Yb  Yb1  1  0.750000  0.466569  0.769391  1
  Yb  Yb2  1  0.750000  0.962487  0.723911  1
  Yb  Yb3  1  0.250000  0.032333  0.274530  1
  Gd  Gd4  1  0.250000  0.697467  0.556369  1
  Th  Th5  1  0.750000  0.301655  0.445872  1
  Th  Th6  1  0.750000  0.797081  0.055386  1
  Th  Th7  1  0.250000  0.202261  0.947157  1
  Re  Re8  1  0.250000  0.727315  0.858819  1
  Re  Re9  1  0.750000  0.274328  0.138164  1
  Re  Re10  1  0.750000  0.775036  0.362819  1
  Re  Re11  1  0.250000  0.226901  0.638704  1
  C  C12  1  0.250000  0.466898  0.754489  1
  C  C13  1  0.750000  0.534118  0.246468  1
  C  C14  1  0.750000  0.034958  0.255024  1
  C  C15  1  0.250000  0.965010  0.742678  1
  C  C16  1  0.250000  0.823789  0.038341  1
  C  C17  1  0.750000  0.179054  0.959152  1
  C  C18  1  0.750000  0.679618  0.538284  1
  C  C19  1  0.250000  0.317919  0.460693  1
