# generated using pymatgen
data_Zr18Ta5(IrO2)3
_symmetry_space_group_name_H-M   'P 1'
_cell_length_a   8.64042399
_cell_length_b   8.68390959
_cell_length_c   8.66456000
_cell_angle_alpha   90.00000000
_cell_angle_beta   90.00000000
_cell_angle_gamma   119.53200661
_symmetry_Int_Tables_number   1
_chemical_formula_structural   Zr18Ta5(IrO2)3
_chemical_formula_sum   'Zr18 Ta5 Ir3 O6'
_cell_volume   565.66106514
_cell_formula_units_Z   1
loop_
 _symmetry_equiv_pos_site_id
 _symmetry_equiv_pos_as_xyz
  1  'x, y, z'
loop_
 _atom_site_type_symbol
 _atom_site_label
 _atom_site_symmetry_multiplicity
 _atom_site_fract_x
 _atom_site_fract_y
 _atom_site_fract_z
 _atom_site_occupancy
  Zr  Zr0  1  0.451622  0.905608  0.250000  1
  Zr  Zr1  1  0.547413  0.095233  0.750000  1
  Zr  Zr2  1  0.094590  0.548178  0.250000  1
  Zr  Zr3  1  0.905493  0.453467  0.750000  1
  Zr  Zr4  1  0.454222  0.547667  0.250000  1
  Zr  Zr5  1  0.549156  0.456652  0.750000  1
  Zr  Zr6  1  0.203753  0.408248  0.563131  1
  Zr  Zr7  1  0.794076  0.588438  0.440146  1
  Zr  Zr8  1  0.587030  0.793527  0.559945  1
  Zr  Zr9  1  0.794076  0.588438  0.059854  1
  Zr  Zr10  1  0.412536  0.206955  0.435985  1
  Zr  Zr11  1  0.203753  0.408248  0.936869  1
  Zr  Zr12  1  0.205958  0.791313  0.565438  1
  Zr  Zr13  1  0.412536  0.206955  0.064015  1
  Zr  Zr14  1  0.793632  0.205496  0.433078  1
  Zr  Zr15  1  0.587030  0.793527  0.940055  1
  Zr  Zr16  1  0.793632  0.205496  0.066922  1
  Zr  Zr17  1  0.205958  0.791313  0.934562  1
  Ta  Ta18  1  0.112927  0.219948  0.250000  1
  Ta  Ta19  1  0.891683  0.781014  0.750000  1
  Ta  Ta20  1  0.779422  0.887592  0.250000  1
  Ta  Ta21  1  0.005519  0.003639  0.994101  1
  Ta  Ta22  1  0.005519  0.003639  0.505899  1
  Ir  Ir23  1  0.225417  0.111627  0.750000  1
  Ir  Ir24  1  0.110080  0.887993  0.250000  1
  Ir  Ir25  1  0.884473  0.115317  0.750000  1
  O  O26  1  0.495558  0.999599  0.997603  1
  O  O27  1  0.002031  0.501538  0.999595  1
  O  O28  1  0.495558  0.999599  0.502397  1
  O  O29  1  0.496657  0.496097  0.998410  1
  O  O30  1  0.002031  0.501538  0.500405  1
  O  O31  1  0.496657  0.496097  0.501590  1
