# generated using pymatgen
data_Gd6Er4Ir5Os
_symmetry_space_group_name_H-M   'P 1'
_cell_length_a   10.98134500
_cell_length_b   11.01832200
_cell_length_c   6.26994600
_cell_angle_alpha   90.00000000
_cell_angle_beta   90.00000000
_cell_angle_gamma   90.00000000
_symmetry_Int_Tables_number   1
_chemical_formula_structural   Gd6Er4Ir5Os
_chemical_formula_sum   'Gd12 Er8 Ir10 Os2'
_cell_volume   758.63835614
_cell_formula_units_Z   2
loop_
 _symmetry_equiv_pos_site_id
 _symmetry_equiv_pos_as_xyz
  1  'x, y, z'
loop_
 _atom_site_type_symbol
 _atom_site_label
 _atom_site_symmetry_multiplicity
 _atom_site_fract_x
 _atom_site_fract_y
 _atom_site_fract_z
 _atom_site_occupancy
  Gd  Gd0  1  0.292125  0.087453  0.375008  1
  Gd  Gd1  1  0.292125  0.912547  0.875008  1
  Gd  Gd2  1  0.707875  0.087453  0.875008  1
  Gd  Gd3  1  0.707875  0.912547  0.375008  1
  Gd  Gd4  1  0.587534  0.792168  0.876917  1
  Gd  Gd5  1  0.587534  0.207832  0.376917  1
  Gd  Gd6  1  0.412466  0.792168  0.376917  1
  Gd  Gd7  1  0.412466  0.207832  0.876917  1
  Gd  Gd8  1  0.208426  0.412681  0.624584  1
  Gd  Gd9  1  0.208426  0.587319  0.124584  1
  Gd  Gd10  1  0.791574  0.412681  0.124584  1
  Gd  Gd11  1  0.791574  0.587319  0.624584  1
  Er  Er12  1  0.914454  0.709413  0.122030  1
  Er  Er13  1  0.914454  0.290587  0.622030  1
  Er  Er14  1  0.085546  0.709413  0.622030  1
  Er  Er15  1  0.085546  0.290587  0.122030  1
  Er  Er16  1  0.000000  0.000000  0.496969  1
  Er  Er17  1  0.000000  0.000000  0.996969  1
  Er  Er18  1  0.500000  0.500000  0.003053  1
  Er  Er19  1  0.500000  0.500000  0.503053  1
  Ir  Ir20  1  0.852635  0.154859  0.247884  1
  Ir  Ir21  1  0.852635  0.845141  0.747884  1
  Ir  Ir22  1  0.147365  0.154859  0.747884  1
  Ir  Ir23  1  0.147365  0.845141  0.247884  1
  Ir  Ir24  1  0.654380  0.349665  0.750912  1
  Ir  Ir25  1  0.654380  0.650335  0.250912  1
  Ir  Ir26  1  0.345620  0.349665  0.250912  1
  Ir  Ir27  1  0.345620  0.650335  0.750912  1
  Ir  Ir28  1  0.000000  0.500000  0.877547  1
  Ir  Ir29  1  0.000000  0.500000  0.377547  1
  Os  Os30  1  0.500000  0.000000  0.127763  1
  Os  Os31  1  0.500000  0.000000  0.627763  1
