# generated using pymatgen
data_Y6Th2Mg2FeCo
_symmetry_space_group_name_H-M   'P 1'
_cell_length_a   9.66181536
_cell_length_b   9.66181445
_cell_length_c   9.69143800
_cell_angle_alpha   59.89853099
_cell_angle_beta   59.89853413
_cell_angle_gamma   59.81741782
_symmetry_Int_Tables_number   1
_chemical_formula_structural   Y6Th2Mg2FeCo
_chemical_formula_sum   'Y12 Th4 Mg4 Fe2 Co2'
_cell_volume   637.85485077
_cell_formula_units_Z   2
loop_
 _symmetry_equiv_pos_site_id
 _symmetry_equiv_pos_as_xyz
  1  'x, y, z'
loop_
 _atom_site_type_symbol
 _atom_site_label
 _atom_site_symmetry_multiplicity
 _atom_site_fract_x
 _atom_site_fract_y
 _atom_site_fract_z
 _atom_site_occupancy
  Y  Y0  1  0.813641  0.186718  0.187250  1
  Y  Y1  1  0.186718  0.813641  0.812391  1
  Y  Y2  1  0.186718  0.813641  0.187250  1
  Y  Y3  1  0.813641  0.186718  0.812391  1
  Y  Y4  1  0.187111  0.187111  0.812889  1
  Y  Y5  1  0.813230  0.813230  0.186770  1
  Y  Y6  1  0.936799  0.561717  0.564704  1
  Y  Y7  1  0.561717  0.936799  0.936780  1
  Y  Y8  1  0.561717  0.936799  0.564704  1
  Y  Y9  1  0.936799  0.561717  0.936780  1
  Y  Y10  1  0.563153  0.563153  0.936847  1
  Y  Y11  1  0.936742  0.936742  0.563258  1
  Th  Th12  1  0.342342  0.342342  0.345657  1
  Th  Th13  1  0.342342  0.342342  0.969661  1
  Th  Th14  1  0.341280  0.970506  0.344107  1
  Th  Th15  1  0.970506  0.341280  0.344107  1
  Mg  Mg16  1  0.579057  0.579057  0.580592  1
  Mg  Mg17  1  0.579057  0.579057  0.261292  1
  Mg  Mg18  1  0.579023  0.260322  0.580327  1
  Mg  Mg19  1  0.260322  0.579023  0.580327  1
  Fe  Fe20  1  0.147903  0.147903  0.144418  1
  Fe  Fe21  1  0.147903  0.147903  0.559776  1
  Co  Co22  1  0.146415  0.565864  0.143860  1
  Co  Co23  1  0.565864  0.146415  0.143860  1
