# generated using pymatgen
data_Dy3Cd3AgPb2
_symmetry_space_group_name_H-M   'P 1'
_cell_length_a   7.59554700
_cell_length_b   7.59554618
_cell_length_c   4.56378700
_cell_angle_alpha   90.00000000
_cell_angle_beta   90.00000000
_cell_angle_gamma   119.99999921
_symmetry_Int_Tables_number   1
_chemical_formula_structural   Dy3Cd3AgPb2
_chemical_formula_sum   'Dy3 Cd3 Ag1 Pb2'
_cell_volume   228.02059052
_cell_formula_units_Z   1
loop_
 _symmetry_equiv_pos_site_id
 _symmetry_equiv_pos_as_xyz
  1  'x, y, z'
loop_
 _atom_site_type_symbol
 _atom_site_label
 _atom_site_symmetry_multiplicity
 _atom_site_fract_x
 _atom_site_fract_y
 _atom_site_fract_z
 _atom_site_occupancy
  Dy  Dy0  1  0.411313  0.411313  0.500000  1
  Dy  Dy1  1  0.588687  0.000000  0.500000  1
  Dy  Dy2  1  0.000000  0.588687  0.500000  1
  Cd  Cd3  1  0.765409  0.765409  0.000000  1
  Cd  Cd4  1  0.234591  0.000000  0.000000  1
  Cd  Cd5  1  0.000000  0.234591  0.000000  1
  Ag  Ag6  1  0.000000  0.000000  0.500000  1
  Pb  Pb7  1  0.666667  0.333333  0.000000  1
  Pb  Pb8  1  0.333333  0.666667  0.000000  1
