# generated using pymatgen
data_Ho2LuZn3(GaNi)6
_symmetry_space_group_name_H-M   'P 1'
_cell_length_a   4.12217200
_cell_length_b   8.82135874
_cell_length_c   8.82380981
_cell_angle_alpha   119.99080960
_cell_angle_beta   90.00000000
_cell_angle_gamma   90.00000000
_symmetry_Int_Tables_number   1
_chemical_formula_structural   Ho2LuZn3(GaNi)6
_chemical_formula_sum   'Ho2 Lu1 Zn3 Ga6 Ni6'
_cell_volume   277.90001841
_cell_formula_units_Z   1
loop_
 _symmetry_equiv_pos_site_id
 _symmetry_equiv_pos_as_xyz
  1  'x, y, z'
loop_
 _atom_site_type_symbol
 _atom_site_label
 _atom_site_symmetry_multiplicity
 _atom_site_fract_x
 _atom_site_fract_y
 _atom_site_fract_z
 _atom_site_occupancy
  Ho  Ho0  1  0.500000  0.333381  0.666787  1
  Ho  Ho1  1  0.500000  0.666594  0.333213  1
  Lu  Lu2  1  0.000000  0.999788  0.000000  1
  Zn  Zn3  1  0.500000  0.708677  0.000000  1
  Zn  Zn4  1  0.500000  0.291294  0.291361  1
  Zn  Zn5  1  0.500000  0.999933  0.708639  1
  Ga  Ga6  1  0.000000  0.508904  0.000000  1
  Ga  Ga7  1  0.000000  0.491214  0.491054  1
  Ga  Ga8  1  0.000000  0.000160  0.508946  1
  Ga  Ga9  1  0.500000  0.288321  0.000000  1
  Ga  Ga10  1  0.500000  0.711589  0.711494  1
  Ga  Ga11  1  0.500000  0.000094  0.288506  1
  Ni  Ni12  1  0.000000  0.176457  0.366389  1
  Ni  Ni13  1  0.000000  0.189673  0.823779  1
  Ni  Ni14  1  0.000000  0.633813  0.809765  1
  Ni  Ni15  1  0.000000  0.810067  0.633611  1
  Ni  Ni16  1  0.000000  0.365894  0.176221  1
  Ni  Ni17  1  0.000000  0.824047  0.190235  1
