# generated using pymatgen
data_ErTm3MnB12Os
_symmetry_space_group_name_H-M   'P 1'
_cell_length_a   3.57667400
_cell_length_b   9.05794947
_cell_length_c   11.43278116
_cell_angle_alpha   90.04744347
_cell_angle_beta   90.00000000
_cell_angle_gamma   90.00000000
_symmetry_Int_Tables_number   1
_chemical_formula_structural   ErTm3MnB12Os
_chemical_formula_sum   'Er2 Tm6 Mn2 B24 Os2'
_cell_volume   370.39148389
_cell_formula_units_Z   2
loop_
 _symmetry_equiv_pos_site_id
 _symmetry_equiv_pos_as_xyz
  1  'x, y, z'
loop_
 _atom_site_type_symbol
 _atom_site_label
 _atom_site_symmetry_multiplicity
 _atom_site_fract_x
 _atom_site_fract_y
 _atom_site_fract_z
 _atom_site_occupancy
  Er  Er0  1  0.000000  0.326440  0.416030  1
  Er  Er1  1  0.000000  0.673560  0.583970  1
  Tm  Tm2  1  0.000000  0.820116  0.087654  1
  Tm  Tm3  1  0.000000  0.179884  0.912346  1
  Tm  Tm4  1  0.000000  0.939796  0.371315  1
  Tm  Tm5  1  0.000000  0.060204  0.628686  1
  Tm  Tm6  1  0.000000  0.445894  0.131083  1
  Tm  Tm7  1  0.000000  0.554106  0.868916  1
  Mn  Mn8  1  0.000000  0.638254  0.320134  1
  Mn  Mn9  1  0.000000  0.361746  0.679866  1
  B  B10  1  0.500000  0.553870  0.432485  1
  B  B11  1  0.500000  0.446130  0.567515  1
  B  B12  1  0.500000  0.053219  0.066553  1
  B  B13  1  0.500000  0.946781  0.933447  1
  B  B14  1  0.500000  0.746440  0.418133  1
  B  B15  1  0.500000  0.253560  0.581867  1
  B  B16  1  0.500000  0.249691  0.080721  1
  B  B17  1  0.500000  0.750309  0.919279  1
  B  B18  1  0.500000  0.789907  0.266061  1
  B  B19  1  0.500000  0.210093  0.733939  1
  B  B20  1  0.500000  0.292454  0.235306  1
  B  B21  1  0.500000  0.707545  0.764694  1
  B  B22  1  0.500000  0.631321  0.186470  1
  B  B23  1  0.500000  0.368679  0.813530  1
  B  B24  1  0.500000  0.130825  0.315196  1
  B  B25  1  0.500000  0.869175  0.684804  1
  B  B26  1  0.500000  0.981013  0.212694  1
  B  B27  1  0.500000  0.018987  0.787306  1
  B  B28  1  0.500000  0.484930  0.288700  1
  B  B29  1  0.500000  0.515070  0.711300  1
  B  B30  1  0.500000  0.603339  0.028623  1
  B  B31  1  0.500000  0.396661  0.971377  1
  B  B32  1  0.500000  0.103769  0.471361  1
  B  B33  1  0.500000  0.896231  0.528639  1
  Os  Os34  1  0.000000  0.137775  0.178721  1
  Os  Os35  1  0.000000  0.862225  0.821279  1
