# generated using pymatgen
data_Y20Cd6CuTc
_symmetry_space_group_name_H-M   'P 1'
_cell_length_a   9.66212800
_cell_length_b   9.66212774
_cell_length_c   9.89380500
_cell_angle_alpha   90.00000000
_cell_angle_beta   90.00000000
_cell_angle_gamma   120.00000090
_symmetry_Int_Tables_number   1
_chemical_formula_structural   Y20Cd6CuTc
_chemical_formula_sum   'Y20 Cd6 Cu1 Tc1'
_cell_volume   799.90707042
_cell_formula_units_Z   1
loop_
 _symmetry_equiv_pos_site_id
 _symmetry_equiv_pos_as_xyz
  1  'x, y, z'
loop_
 _atom_site_type_symbol
 _atom_site_label
 _atom_site_symmetry_multiplicity
 _atom_site_fract_x
 _atom_site_fract_y
 _atom_site_fract_z
 _atom_site_occupancy
  Y  Y0  1  0.000000  0.000000  0.500555  1
  Y  Y1  1  0.000000  0.000000  0.999445  1
  Y  Y2  1  0.209876  0.790124  0.440535  1
  Y  Y3  1  0.209876  0.419752  0.440535  1
  Y  Y4  1  0.580248  0.790124  0.440535  1
  Y  Y5  1  0.790533  0.209467  0.558049  1
  Y  Y6  1  0.790533  0.581064  0.558049  1
  Y  Y7  1  0.418936  0.209467  0.558049  1
  Y  Y8  1  0.790533  0.209467  0.941951  1
  Y  Y9  1  0.790533  0.581064  0.941951  1
  Y  Y10  1  0.418936  0.209467  0.941951  1
  Y  Y11  1  0.209876  0.790124  0.059465  1
  Y  Y12  1  0.209876  0.419752  0.059465  1
  Y  Y13  1  0.580248  0.790124  0.059465  1
  Y  Y14  1  0.540350  0.459650  0.250000  1
  Y  Y15  1  0.540350  0.080700  0.250000  1
  Y  Y16  1  0.919300  0.459650  0.250000  1
  Y  Y17  1  0.456884  0.543116  0.750000  1
  Y  Y18  1  0.456884  0.913768  0.750000  1
  Y  Y19  1  0.086232  0.543116  0.750000  1
  Cd  Cd20  1  0.885492  0.114508  0.250000  1
  Cd  Cd21  1  0.885492  0.770984  0.250000  1
  Cd  Cd22  1  0.229016  0.114508  0.250000  1
  Cd  Cd23  1  0.114429  0.885571  0.750000  1
  Cd  Cd24  1  0.114429  0.228857  0.750000  1
  Cd  Cd25  1  0.771143  0.885571  0.750000  1
  Cu  Cu26  1  0.666667  0.333333  0.750000  1
  Tc  Tc27  1  0.333333  0.666667  0.250000  1
