# generated using pymatgen
data_Sm4HoTm3(B6Os)4
_symmetry_space_group_name_H-M   'P 1'
_cell_length_a   3.66776700
_cell_length_b   9.16816407
_cell_length_c   11.58341609
_cell_angle_alpha   90.01390395
_cell_angle_beta   90.00000000
_cell_angle_gamma   90.00000000
_symmetry_Int_Tables_number   1
_chemical_formula_structural   Sm4HoTm3(B6Os)4
_chemical_formula_sum   'Sm4 Ho1 Tm3 B24 Os4'
_cell_volume   389.51192594
_cell_formula_units_Z   1
loop_
 _symmetry_equiv_pos_site_id
 _symmetry_equiv_pos_as_xyz
  1  'x, y, z'
loop_
 _atom_site_type_symbol
 _atom_site_label
 _atom_site_symmetry_multiplicity
 _atom_site_fract_x
 _atom_site_fract_y
 _atom_site_fract_z
 _atom_site_occupancy
  Sm  Sm0  1  0.000000  0.322170  0.414256  1
  Sm  Sm1  1  0.000000  0.677862  0.586007  1
  Sm  Sm2  1  0.000000  0.821938  0.085685  1
  Sm  Sm3  1  0.000000  0.178093  0.914116  1
  Ho  Ho4  1  0.000000  0.944267  0.372796  1
  Tm  Tm5  1  0.000000  0.055874  0.627645  1
  Tm  Tm6  1  0.000000  0.444276  0.127116  1
  Tm  Tm7  1  0.000000  0.555732  0.872722  1
  B  B8  1  0.500000  0.555098  0.431512  1
  B  B9  1  0.500000  0.444561  0.568602  1
  B  B10  1  0.500000  0.055464  0.068334  1
  B  B11  1  0.500000  0.944624  0.931441  1
  B  B12  1  0.500000  0.749007  0.418217  1
  B  B13  1  0.500000  0.250351  0.581880  1
  B  B14  1  0.500000  0.249886  0.081708  1
  B  B15  1  0.500000  0.750248  0.918183  1
  B  B16  1  0.500000  0.790580  0.266397  1
  B  B17  1  0.500000  0.208807  0.733473  1
  B  B18  1  0.500000  0.291539  0.233306  1
  B  B19  1  0.500000  0.708728  0.766609  1
  B  B20  1  0.500000  0.630454  0.184809  1
  B  B21  1  0.500000  0.369387  0.815075  1
  B  B22  1  0.500000  0.131247  0.314750  1
  B  B23  1  0.500000  0.869300  0.685043  1
  B  B24  1  0.500000  0.984636  0.213591  1
  B  B25  1  0.500000  0.015741  0.785964  1
  B  B26  1  0.500000  0.484041  0.285835  1
  B  B27  1  0.500000  0.515781  0.714106  1
  B  B28  1  0.500000  0.603024  0.028217  1
  B  B29  1  0.500000  0.396965  0.971684  1
  B  B30  1  0.500000  0.103987  0.472137  1
  B  B31  1  0.500000  0.896560  0.529019  1
  Os  Os32  1  0.000000  0.637983  0.319767  1
  Os  Os33  1  0.000000  0.361333  0.680296  1
  Os  Os34  1  0.000000  0.139252  0.179773  1
  Os  Os35  1  0.000000  0.861204  0.819930  1
