# generated using pymatgen
data_Y4Tm16Cd6CoRu
_symmetry_space_group_name_H-M   'P 1'
_cell_length_a   9.49561608
_cell_length_b   9.49353260
_cell_length_c   9.67584600
_cell_angle_alpha   90.00000000
_cell_angle_beta   90.00000000
_cell_angle_gamma   119.99274607
_symmetry_Int_Tables_number   1
_chemical_formula_structural   Y4Tm16Cd6CoRu
_chemical_formula_sum   'Y4 Tm16 Cd6 Co1 Ru1'
_cell_volume   755.44406339
_cell_formula_units_Z   1
loop_
 _symmetry_equiv_pos_site_id
 _symmetry_equiv_pos_as_xyz
  1  'x, y, z'
loop_
 _atom_site_type_symbol
 _atom_site_label
 _atom_site_symmetry_multiplicity
 _atom_site_fract_x
 _atom_site_fract_y
 _atom_site_fract_z
 _atom_site_occupancy
  Y  Y0  1  0.916638  0.458319  0.250000  1
  Y  Y1  1  0.458923  0.540999  0.750000  1
  Y  Y2  1  0.458923  0.917925  0.750000  1
  Y  Y3  1  0.081897  0.540949  0.750000  1
  Tm  Tm4  1  0.000053  0.000027  0.499814  1
  Tm  Tm5  1  0.000053  0.000027  0.000186  1
  Tm  Tm6  1  0.212793  0.788639  0.435547  1
  Tm  Tm7  1  0.212793  0.424155  0.435547  1
  Tm  Tm8  1  0.575902  0.787952  0.435286  1
  Tm  Tm9  1  0.790018  0.209107  0.559426  1
  Tm  Tm10  1  0.790018  0.580911  0.559426  1
  Tm  Tm11  1  0.419241  0.209620  0.559072  1
  Tm  Tm12  1  0.790018  0.209107  0.940574  1
  Tm  Tm13  1  0.790018  0.580911  0.940574  1
  Tm  Tm14  1  0.419241  0.209620  0.940928  1
  Tm  Tm15  1  0.212793  0.788639  0.064453  1
  Tm  Tm16  1  0.212793  0.424155  0.064453  1
  Tm  Tm17  1  0.575902  0.787952  0.064714  1
  Tm  Tm18  1  0.540717  0.458540  0.250000  1
  Tm  Tm19  1  0.540717  0.082176  0.250000  1
  Cd  Cd20  1  0.885035  0.113919  0.250000  1
  Cd  Cd21  1  0.885035  0.771117  0.250000  1
  Cd  Cd22  1  0.229743  0.114872  0.250000  1
  Cd  Cd23  1  0.114064  0.886172  0.750000  1
  Cd  Cd24  1  0.114064  0.227892  0.750000  1
  Cd  Cd25  1  0.772006  0.886003  0.750000  1
  Co  Co26  1  0.333622  0.666812  0.250000  1
  Ru  Ru27  1  0.666976  0.333488  0.750000  1
