# generated using pymatgen
data_ThP12Os3Ru
_symmetry_space_group_name_H-M   'P 1'
_cell_length_a   7.03227863
_cell_length_b   7.03227781
_cell_length_c   7.03227809
_cell_angle_alpha   109.46216760
_cell_angle_beta   109.46217026
_cell_angle_gamma   109.46216962
_symmetry_Int_Tables_number   1
_chemical_formula_structural   ThP12Os3Ru
_chemical_formula_sum   'Th1 P12 Os3 Ru1'
_cell_volume   267.80068962
_cell_formula_units_Z   1
loop_
 _symmetry_equiv_pos_site_id
 _symmetry_equiv_pos_as_xyz
  1  'x, y, z'
loop_
 _atom_site_type_symbol
 _atom_site_label
 _atom_site_symmetry_multiplicity
 _atom_site_fract_x
 _atom_site_fract_y
 _atom_site_fract_z
 _atom_site_occupancy
  Th  Th0  1  0.000000  0.000000  0.000000  1
  P  P1  1  0.855658  0.644704  0.501171  1
  P  P2  1  0.144342  0.355296  0.498829  1
  P  P3  1  0.143672  0.644686  0.788378  1
  P  P4  1  0.856328  0.355314  0.211622  1
  P  P5  1  0.644704  0.501171  0.855658  1
  P  P6  1  0.355296  0.498829  0.144342  1
  P  P7  1  0.644686  0.788378  0.143672  1
  P  P8  1  0.355314  0.211622  0.856328  1
  P  P9  1  0.501171  0.855658  0.644704  1
  P  P10  1  0.498829  0.144342  0.355296  1
  P  P11  1  0.211622  0.856328  0.355314  1
  P  P12  1  0.788378  0.143672  0.644686  1
  Os  Os13  1  0.500000  0.000000  0.000000  1
  Os  Os14  1  0.000000  0.500000  0.000000  1
  Os  Os15  1  0.000000  0.000000  0.500000  1
  Ru  Ru16  1  0.500000  0.500000  0.500000  1
