# generated using pymatgen
data_PrDy3(CI)2
_symmetry_space_group_name_H-M   'P 1'
_cell_length_a   3.79263600
_cell_length_b   3.79263776
_cell_length_c   15.09192000
_cell_angle_alpha   90.00000000
_cell_angle_beta   90.00000000
_cell_angle_gamma   120.00001954
_symmetry_Int_Tables_number   1
_chemical_formula_structural   PrDy3(CI)2
_chemical_formula_sum   'Pr1 Dy3 C2 I2'
_cell_volume   187.99987833
_cell_formula_units_Z   1
loop_
 _symmetry_equiv_pos_site_id
 _symmetry_equiv_pos_as_xyz
  1  'x, y, z'
loop_
 _atom_site_type_symbol
 _atom_site_label
 _atom_site_symmetry_multiplicity
 _atom_site_fract_x
 _atom_site_fract_y
 _atom_site_fract_z
 _atom_site_occupancy
  Pr  Pr0  1  0.333333  0.666667  0.415179  1
  Dy  Dy1  1  0.333333  0.666667  0.080056  1
  Dy  Dy2  1  0.666667  0.333333  0.590840  1
  Dy  Dy3  1  0.666667  0.333333  0.913025  1
  C  C4  1  0.000000  0.000000  0.995678  1
  C  C5  1  0.000000  0.000000  0.513423  1
  I  I6  1  0.666667  0.333333  0.237650  1
  I  I7  1  0.333333  0.666667  0.754148  1
