# generated using pymatgen
data_YbPaTcB6
_symmetry_space_group_name_H-M   'P 1'
_cell_length_a   3.71276900
_cell_length_b   9.20676900
_cell_length_c   11.42512300
_cell_angle_alpha   90.00000000
_cell_angle_beta   90.00000000
_cell_angle_gamma   90.00000000
_symmetry_Int_Tables_number   1
_chemical_formula_structural   YbPaTcB6
_chemical_formula_sum   'Yb4 Pa4 Tc4 B24'
_cell_volume   390.54048410
_cell_formula_units_Z   4
loop_
 _symmetry_equiv_pos_site_id
 _symmetry_equiv_pos_as_xyz
  1  'x, y, z'
loop_
 _atom_site_type_symbol
 _atom_site_label
 _atom_site_symmetry_multiplicity
 _atom_site_fract_x
 _atom_site_fract_y
 _atom_site_fract_z
 _atom_site_occupancy
  Yb  Yb0  1  0.000000  0.949929  0.382076  1
  Yb  Yb1  1  0.000000  0.050071  0.617924  1
  Yb  Yb2  1  0.000000  0.449929  0.117924  1
  Yb  Yb3  1  0.000000  0.550071  0.882076  1
  Pa  Pa4  1  0.000000  0.327772  0.410311  1
  Pa  Pa5  1  0.000000  0.672228  0.589689  1
  Pa  Pa6  1  0.000000  0.827772  0.089689  1
  Pa  Pa7  1  0.000000  0.172228  0.910311  1
  Tc  Tc8  1  0.000000  0.641001  0.322491  1
  Tc  Tc9  1  0.000000  0.358999  0.677509  1
  Tc  Tc10  1  0.000000  0.141001  0.177509  1
  Tc  Tc11  1  0.000000  0.858999  0.822491  1
  B  B12  1  0.500000  0.552909  0.431918  1
  B  B13  1  0.500000  0.447091  0.568082  1
  B  B14  1  0.500000  0.052909  0.068082  1
  B  B15  1  0.500000  0.947091  0.931918  1
  B  B16  1  0.500000  0.746357  0.422265  1
  B  B17  1  0.500000  0.253643  0.577735  1
  B  B18  1  0.500000  0.246357  0.077735  1
  B  B19  1  0.500000  0.753643  0.922265  1
  B  B20  1  0.500000  0.796757  0.269974  1
  B  B21  1  0.500000  0.203243  0.730026  1
  B  B22  1  0.500000  0.296757  0.230026  1
  B  B23  1  0.500000  0.703243  0.769974  1
  B  B24  1  0.500000  0.638420  0.187670  1
  B  B25  1  0.500000  0.361580  0.812330  1
  B  B26  1  0.500000  0.138420  0.312330  1
  B  B27  1  0.500000  0.861580  0.687670  1
  B  B28  1  0.500000  0.985877  0.215456  1
  B  B29  1  0.500000  0.014123  0.784544  1
  B  B30  1  0.500000  0.485877  0.284544  1
  B  B31  1  0.500000  0.514123  0.715456  1
  B  B32  1  0.500000  0.634277  0.037929  1
  B  B33  1  0.500000  0.365723  0.962071  1
  B  B34  1  0.500000  0.134277  0.462071  1
  B  B35  1  0.500000  0.865723  0.537929  1
