# generated using pymatgen
data_DyErSi2NiRu
_symmetry_space_group_name_H-M   'P 1'
_cell_length_a   4.20654800
_cell_length_b   6.87221379
_cell_length_c   7.21759189
_cell_angle_alpha   91.70771162
_cell_angle_beta   90.00000000
_cell_angle_gamma   90.00000000
_symmetry_Int_Tables_number   1
_chemical_formula_structural   DyErSi2NiRu
_chemical_formula_sum   'Dy2 Er2 Si4 Ni2 Ru2'
_cell_volume   208.55562176
_cell_formula_units_Z   2
loop_
 _symmetry_equiv_pos_site_id
 _symmetry_equiv_pos_as_xyz
  1  'x, y, z'
loop_
 _atom_site_type_symbol
 _atom_site_label
 _atom_site_symmetry_multiplicity
 _atom_site_fract_x
 _atom_site_fract_y
 _atom_site_fract_z
 _atom_site_occupancy
  Dy  Dy0  1  0.250000  0.992252  0.798273  1
  Dy  Dy1  1  0.750000  0.007748  0.201727  1
  Er  Er2  1  0.250000  0.490614  0.684889  1
  Er  Er3  1  0.750000  0.509386  0.315111  1
  Si  Si4  1  0.250000  0.300281  0.098081  1
  Si  Si5  1  0.750000  0.699719  0.901919  1
  Si  Si6  1  0.250000  0.802601  0.400977  1
  Si  Si7  1  0.750000  0.197399  0.599023  1
  Ni  Ni8  1  0.750000  0.831083  0.576016  1
  Ni  Ni9  1  0.250000  0.168917  0.423984  1
  Ru  Ru10  1  0.750000  0.343553  0.929449  1
  Ru  Ru11  1  0.250000  0.656447  0.070551  1
