# generated using pymatgen
data_Ce8ZrSi6Mo
_symmetry_space_group_name_H-M   'P 1'
_cell_length_a   5.60902315
_cell_length_b   8.46020281
_cell_length_c   8.46020266
_cell_angle_alpha   83.71117634
_cell_angle_beta   70.66434769
_cell_angle_gamma   70.66436933
_symmetry_Int_Tables_number   1
_chemical_formula_structural   Ce8ZrSi6Mo
_chemical_formula_sum   'Ce8 Zr1 Si6 Mo1'
_cell_volume   357.45402249
_cell_formula_units_Z   1
loop_
 _symmetry_equiv_pos_site_id
 _symmetry_equiv_pos_as_xyz
  1  'x, y, z'
loop_
 _atom_site_type_symbol
 _atom_site_label
 _atom_site_symmetry_multiplicity
 _atom_site_fract_x
 _atom_site_fract_y
 _atom_site_fract_z
 _atom_site_occupancy
  Ce  Ce0  1  0.094041  0.133408  0.677991  1
  Ce  Ce1  1  0.906037  0.866572  0.321762  1
  Ce  Ce2  1  0.772552  0.321937  0.133275  1
  Ce  Ce3  1  0.405959  0.322009  0.866592  1
  Ce  Ce4  1  0.227694  0.677796  0.866650  1
  Ce  Ce5  1  0.593963  0.678238  0.133428  1
  Ce  Ce6  1  0.727448  0.866725  0.678063  1
  Ce  Ce7  1  0.272306  0.133350  0.322204  1
  Zr  Zr8  1  0.250000  0.499954  0.500046  1
  Si  Si9  1  0.130463  0.500171  0.209633  1
  Si  Si10  1  0.840256  0.499988  0.790368  1
  Si  Si11  1  0.369537  0.790367  0.499829  1
  Si  Si12  1  0.659744  0.209632  0.500012  1
  Si  Si13  1  0.250000  0.999967  0.000033  1
  Si  Si14  1  0.750000  0.999909  0.000091  1
  Mo  Mo15  1  0.750000  0.499977  0.500023  1
