# generated using pymatgen
data_La5Sc2PaBi10
_symmetry_space_group_name_H-M   'P 1'
_cell_length_a   9.80708404
_cell_length_b   9.80869248
_cell_length_c   6.58531300
_cell_angle_alpha   90.00000000
_cell_angle_beta   90.00000000
_cell_angle_gamma   120.00542003
_symmetry_Int_Tables_number   1
_chemical_formula_structural   La5Sc2PaBi10
_chemical_formula_sum   'La5 Sc2 Pa1 Bi10'
_cell_volume   548.57289756
_cell_formula_units_Z   1
loop_
 _symmetry_equiv_pos_site_id
 _symmetry_equiv_pos_as_xyz
  1  'x, y, z'
loop_
 _atom_site_type_symbol
 _atom_site_label
 _atom_site_symmetry_multiplicity
 _atom_site_fract_x
 _atom_site_fract_y
 _atom_site_fract_z
 _atom_site_occupancy
  La  La0  1  0.378491  0.378389  0.250000  1
  La  La1  1  0.383602  0.001694  0.750000  1
  La  La2  1  0.616398  0.618091  0.750000  1
  La  La3  1  0.621509  0.999899  0.250000  1
  La  La4  1  0.000000  0.380830  0.750000  1
  Sc  Sc5  1  0.000000  0.001528  0.998617  1
  Sc  Sc6  1  0.000000  0.001528  0.501383  1
  Pa  Pa7  1  0.000000  0.618677  0.250000  1
  Bi  Bi8  1  0.000000  0.266949  0.250000  1
  Bi  Bi9  1  0.327200  0.666663  0.496153  1
  Bi  Bi10  1  0.672800  0.339462  0.003847  1
  Bi  Bi11  1  0.327200  0.666663  0.003847  1
  Bi  Bi12  1  0.261663  0.261170  0.750000  1
  Bi  Bi13  1  0.738337  0.999508  0.750000  1
  Bi  Bi14  1  0.000000  0.732409  0.750000  1
  Bi  Bi15  1  0.744469  0.735774  0.250000  1
  Bi  Bi16  1  0.255531  0.991306  0.250000  1
  Bi  Bi17  1  0.672800  0.339462  0.496153  1
