# generated using pymatgen
data_La20ReSi3Sb8
_symmetry_space_group_name_H-M   'P 1'
_cell_length_a   8.34544539
_cell_length_b   9.50422600
_cell_length_c   12.74514671
_cell_angle_alpha   90.00000000
_cell_angle_beta   89.88242508
_cell_angle_gamma   90.00000000
_symmetry_Int_Tables_number   1
_chemical_formula_structural   La20ReSi3Sb8
_chemical_formula_sum   'La20 Re1 Si3 Sb8'
_cell_volume   1010.90466136
_cell_formula_units_Z   1
loop_
 _symmetry_equiv_pos_site_id
 _symmetry_equiv_pos_as_xyz
  1  'x, y, z'
loop_
 _atom_site_type_symbol
 _atom_site_label
 _atom_site_symmetry_multiplicity
 _atom_site_fract_x
 _atom_site_fract_y
 _atom_site_fract_z
 _atom_site_occupancy
  La  La0  1  0.039780  0.750000  0.502955  1
  La  La1  1  0.973178  0.250000  0.496821  1
  La  La2  1  0.537325  0.250000  0.001570  1
  La  La3  1  0.461600  0.750000  0.999077  1
  La  La4  1  0.873061  0.750000  0.800955  1
  La  La5  1  0.135065  0.250000  0.207330  1
  La  La6  1  0.362717  0.250000  0.707947  1
  La  La7  1  0.631781  0.750000  0.293717  1
  La  La8  1  0.694647  0.539050  0.561361  1
  La  La9  1  0.305958  0.455680  0.438165  1
  La  La10  1  0.185784  0.470965  0.939025  1
  La  La11  1  0.305958  0.044320  0.438165  1
  La  La12  1  0.816141  0.544564  0.058952  1
  La  La13  1  0.694647  0.960950  0.561361  1
  La  La14  1  0.816141  0.955436  0.058952  1
  La  La15  1  0.185784  0.029035  0.939025  1
  La  La16  1  0.333925  0.750000  0.716661  1
  La  La17  1  0.657753  0.250000  0.289863  1
  La  La18  1  0.838294  0.250000  0.785064  1
  La  La19  1  0.149299  0.750000  0.203415  1
  Re  Re20  1  0.092162  0.750000  0.978201  1
  Si  Si21  1  0.923856  0.250000  0.017960  1
  Si  Si22  1  0.570683  0.250000  0.519457  1
  Si  Si23  1  0.429765  0.750000  0.487548  1
  Sb  Sb24  1  0.573864  0.507020  0.825477  1
  Sb  Sb25  1  0.425014  0.491230  0.174697  1
  Sb  Sb26  1  0.072021  0.489544  0.672696  1
  Sb  Sb27  1  0.425014  0.008770  0.174697  1
  Sb  Sb28  1  0.921450  0.509381  0.325356  1
  Sb  Sb29  1  0.573864  0.992980  0.825477  1
  Sb  Sb30  1  0.921450  0.990619  0.325356  1
  Sb  Sb31  1  0.072021  0.010456  0.672696  1
