# generated using pymatgen
data_Sc4Be4Si2(IrRh)5
_symmetry_space_group_name_H-M   'P 1'
_cell_length_a   9.44112680
_cell_length_b   9.43802080
_cell_length_c   3.07282000
_cell_angle_alpha   90.00000000
_cell_angle_beta   90.00000000
_cell_angle_gamma   90.04713155
_symmetry_Int_Tables_number   1
_chemical_formula_structural   Sc4Be4Si2(IrRh)5
_chemical_formula_sum   'Sc4 Be4 Si2 Ir5 Rh5'
_cell_volume   273.80522684
_cell_formula_units_Z   1
loop_
 _symmetry_equiv_pos_site_id
 _symmetry_equiv_pos_as_xyz
  1  'x, y, z'
loop_
 _atom_site_type_symbol
 _atom_site_label
 _atom_site_symmetry_multiplicity
 _atom_site_fract_x
 _atom_site_fract_y
 _atom_site_fract_z
 _atom_site_occupancy
  Sc  Sc0  1  0.174311  0.674825  0.000000  1
  Sc  Sc1  1  0.675008  0.826219  0.000000  1
  Sc  Sc2  1  0.324217  0.173203  0.000000  1
  Sc  Sc3  1  0.826819  0.324175  0.000000  1
  Be  Be4  1  0.375482  0.874344  0.000000  1
  Be  Be5  1  0.874632  0.625001  0.000000  1
  Be  Be6  1  0.125765  0.375857  0.000000  1
  Be  Be7  1  0.624498  0.126006  0.000000  1
  Si  Si8  1  0.999920  0.999991  0.000000  1
  Si  Si9  1  0.500120  0.500217  0.000000  1
  Ir  Ir10  1  0.999891  0.500505  0.500000  1
  Ir  Ir11  1  0.500348  0.999747  0.500000  1
  Ir  Ir12  1  0.794463  0.066769  0.500000  1
  Ir  Ir13  1  0.205302  0.932184  0.500000  1
  Ir  Ir14  1  0.067378  0.205772  0.500000  1
  Rh  Rh15  1  0.295900  0.432058  0.500000  1
  Rh  Rh16  1  0.704096  0.568469  0.500000  1
  Rh  Rh17  1  0.567551  0.296150  0.500000  1
  Rh  Rh18  1  0.431969  0.703976  0.500000  1
  Rh  Rh19  1  0.932331  0.794533  0.500000  1
