# generated using pymatgen
data_Ho3Ta(ZnRh2)4
_symmetry_space_group_name_H-M   'P 1'
_cell_length_a   6.05940200
_cell_length_b   6.06968500
_cell_length_c   7.01810700
_cell_angle_alpha   89.99983009
_cell_angle_beta   89.99980494
_cell_angle_gamma   90.00192680
_symmetry_Int_Tables_number   1
_chemical_formula_structural   Ho3Ta(ZnRh2)4
_chemical_formula_sum   'Ho3 Ta1 Zn4 Rh8'
_cell_volume   258.11658116
_cell_formula_units_Z   1
loop_
 _symmetry_equiv_pos_site_id
 _symmetry_equiv_pos_as_xyz
  1  'x, y, z'
loop_
 _atom_site_type_symbol
 _atom_site_label
 _atom_site_symmetry_multiplicity
 _atom_site_fract_x
 _atom_site_fract_y
 _atom_site_fract_z
 _atom_site_occupancy
  Ho  Ho0  1  0.750000  0.250009  0.000012  1
  Ho  Ho1  1  0.250003  0.750015  0.000000  1
  Ho  Ho2  1  0.749996  0.250003  0.499988  1
  Ta  Ta3  1  0.250000  0.750007  0.499988  1
  Zn  Zn4  1  0.250002  0.250009  0.000001  1
  Zn  Zn5  1  0.750001  0.749995  0.000014  1
  Zn  Zn6  1  0.750002  0.749999  0.499980  1
  Zn  Zn7  1  0.250004  0.249988  0.499994  1
  Rh  Rh8  1  0.493489  0.993737  0.260779  1
  Rh  Rh9  1  0.006494  0.993744  0.260794  1
  Rh  Rh10  1  0.493505  0.506254  0.260768  1
  Rh  Rh11  1  0.006476  0.506259  0.260775  1
  Rh  Rh12  1  0.493518  0.993731  0.739225  1
  Rh  Rh13  1  0.006507  0.993734  0.739219  1
  Rh  Rh14  1  0.493512  0.506260  0.739226  1
  Rh  Rh15  1  0.006492  0.506256  0.739233  1
