# generated using pymatgen
data_La16Y4Ir11Rh
_symmetry_space_group_name_H-M   'P 1'
_cell_length_a   11.37053900
_cell_length_b   11.37053900
_cell_length_c   6.56112100
_cell_angle_alpha   90.00000000
_cell_angle_beta   90.00000000
_cell_angle_gamma   90.00000000
_symmetry_Int_Tables_number   1
_chemical_formula_structural   La16Y4Ir11Rh
_chemical_formula_sum   'La16 Y4 Ir11 Rh1'
_cell_volume   848.28180405
_cell_formula_units_Z   1
loop_
 _symmetry_equiv_pos_site_id
 _symmetry_equiv_pos_as_xyz
  1  'x, y, z'
loop_
 _atom_site_type_symbol
 _atom_site_label
 _atom_site_symmetry_multiplicity
 _atom_site_fract_x
 _atom_site_fract_y
 _atom_site_fract_z
 _atom_site_occupancy
  La  La0  1  0.287579  0.088407  0.389613  1
  La  La1  1  0.287584  0.911547  0.886961  1
  La  La2  1  0.712416  0.088453  0.886961  1
  La  La3  1  0.712421  0.911593  0.389613  1
  La  La4  1  0.588453  0.787584  0.886961  1
  La  La5  1  0.588407  0.212421  0.389613  1
  La  La6  1  0.411593  0.787579  0.389613  1
  La  La7  1  0.411547  0.212416  0.886961  1
  La  La8  1  0.211937  0.411776  0.612265  1
  La  La9  1  0.211917  0.588306  0.112111  1
  La  La10  1  0.788083  0.411694  0.112111  1
  La  La11  1  0.788063  0.588224  0.612265  1
  La  La12  1  0.911694  0.711917  0.112111  1
  La  La13  1  0.911776  0.288063  0.612265  1
  La  La14  1  0.088224  0.711937  0.612265  1
  La  La15  1  0.088306  0.288083  0.112111  1
  Y  Y16  1  0.000000  0.000000  0.500024  1
  Y  Y17  1  0.000000  0.000000  0.999960  1
  Y  Y18  1  0.500000  0.500000  0.999960  1
  Y  Y19  1  0.500000  0.500000  0.500024  1
  Ir  Ir20  1  0.849408  0.149372  0.249605  1
  Ir  Ir21  1  0.849750  0.850270  0.749600  1
  Ir  Ir22  1  0.150250  0.149730  0.749600  1
  Ir  Ir23  1  0.150592  0.850628  0.249605  1
  Ir  Ir24  1  0.649730  0.349750  0.749600  1
  Ir  Ir25  1  0.649372  0.650592  0.249605  1
  Ir  Ir26  1  0.350628  0.349408  0.249605  1
  Ir  Ir27  1  0.350270  0.650250  0.749600  1
  Ir  Ir28  1  0.500000  0.000000  0.619412  1
  Ir  Ir29  1  0.000000  0.500000  0.881062  1
  Ir  Ir30  1  0.000000  0.500000  0.381079  1
  Rh  Rh31  1  0.500000  0.000000  0.117856  1
