# generated using pymatgen
data_Pr3Ho6ThPb8
_symmetry_space_group_name_H-M   'P 1'
_cell_length_a   8.30075600
_cell_length_b   8.37496918
_cell_length_c   15.76360495
_cell_angle_alpha   89.88519468
_cell_angle_beta   90.00000000
_cell_angle_gamma   90.00000000
_symmetry_Int_Tables_number   1
_chemical_formula_structural   Pr3Ho6ThPb8
_chemical_formula_sum   'Pr6 Ho12 Th2 Pb16'
_cell_volume   1095.86116398
_cell_formula_units_Z   2
loop_
 _symmetry_equiv_pos_site_id
 _symmetry_equiv_pos_as_xyz
  1  'x, y, z'
loop_
 _atom_site_type_symbol
 _atom_site_label
 _atom_site_symmetry_multiplicity
 _atom_site_fract_x
 _atom_site_fract_y
 _atom_site_fract_z
 _atom_site_occupancy
  Pr  Pr0  1  0.524129  0.322660  0.097632  1
  Pr  Pr1  1  0.024129  0.177340  0.402368  1
  Pr  Pr2  1  0.524382  0.322522  0.402357  1
  Pr  Pr3  1  0.024382  0.177478  0.097643  1
  Pr  Pr4  1  0.474616  0.677355  0.902544  1
  Pr  Pr5  1  0.974616  0.822645  0.597456  1
  Ho  Ho6  1  0.633371  0.158128  0.622473  1
  Ho  Ho7  1  0.133371  0.341872  0.877527  1
  Ho  Ho8  1  0.366295  0.841869  0.122580  1
  Ho  Ho9  1  0.866295  0.658131  0.377420  1
  Ho  Ho10  1  0.367113  0.841697  0.377536  1
  Ho  Ho11  1  0.867113  0.658303  0.122464  1
  Ho  Ho12  1  0.633770  0.158399  0.877423  1
  Ho  Ho13  1  0.133770  0.341601  0.622577  1
  Ho  Ho14  1  0.799399  0.495647  0.750286  1
  Ho  Ho15  1  0.299399  0.004353  0.749714  1
  Ho  Ho16  1  0.200995  0.504522  0.250148  1
  Ho  Ho17  1  0.700995  0.995478  0.249852  1
  Th  Th18  1  0.475532  0.677533  0.597277  1
  Th  Th19  1  0.975532  0.822467  0.902723  1
  Pb  Pb20  1  0.705800  0.958733  0.456736  1
  Pb  Pb21  1  0.205800  0.541267  0.043264  1
  Pb  Pb22  1  0.293068  0.039912  0.956070  1
  Pb  Pb23  1  0.793068  0.460088  0.543930  1
  Pb  Pb24  1  0.294057  0.039435  0.544089  1
  Pb  Pb25  1  0.794057  0.460565  0.955911  1
  Pb  Pb26  1  0.706982  0.959022  0.043058  1
  Pb  Pb27  1  0.206982  0.540978  0.456942  1
  Pb  Pb28  1  0.437141  0.370599  0.749455  1
  Pb  Pb29  1  0.937141  0.129401  0.750545  1
  Pb  Pb30  1  0.563422  0.629636  0.249944  1
  Pb  Pb31  1  0.063422  0.870364  0.250056  1
  Pb  Pb32  1  0.662525  0.850323  0.750155  1
  Pb  Pb33  1  0.162525  0.649677  0.749845  1
  Pb  Pb34  1  0.337403  0.149672  0.250021  1
  Pb  Pb35  1  0.837403  0.350328  0.249979  1
