# generated using pymatgen
data_DyLu(Bi3O7)2
_symmetry_space_group_name_H-M   'P 1'
_cell_length_a   6.63007232
_cell_length_b   6.83744802
_cell_length_c   7.82607864
_cell_angle_alpha   106.67831238
_cell_angle_beta   89.42354530
_cell_angle_gamma   99.28061728
_symmetry_Int_Tables_number   1
_chemical_formula_structural   DyLu(Bi3O7)2
_chemical_formula_sum   'Dy1 Lu1 Bi6 O14'
_cell_volume   335.15792879
_cell_formula_units_Z   1
loop_
 _symmetry_equiv_pos_site_id
 _symmetry_equiv_pos_as_xyz
  1  'x, y, z'
loop_
 _atom_site_type_symbol
 _atom_site_label
 _atom_site_symmetry_multiplicity
 _atom_site_fract_x
 _atom_site_fract_y
 _atom_site_fract_z
 _atom_site_occupancy
  Dy  Dy0  1  0.538898  0.996396  0.751151  1
  Lu  Lu1  1  0.462028  0.004382  0.249729  1
  Bi  Bi2  1  0.000547  0.000174  0.499292  1
  Bi  Bi3  1  0.000040  0.000164  0.001834  1
  Bi  Bi4  1  0.260409  0.520449  0.879493  1
  Bi  Bi5  1  0.737487  0.482107  0.120764  1
  Bi  Bi6  1  0.722835  0.462067  0.606868  1
  Bi  Bi7  1  0.276211  0.535812  0.389094  1
  O  O8  1  0.464924  0.665773  0.185170  1
  O  O9  1  0.536334  0.341682  0.817103  1
  O  O10  1  0.305796  0.943334  0.956498  1
  O  O11  1  0.694421  0.054513  0.051292  1
  O  O12  1  0.299625  0.920374  0.510094  1
  O  O13  1  0.700874  0.078954  0.483143  1
  O  O14  1  0.527676  0.344503  0.349148  1
  O  O15  1  0.468454  0.649221  0.647327  1
  O  O16  1  0.916309  0.674207  0.959884  1
  O  O17  1  0.083255  0.325688  0.040379  1
  O  O18  1  0.095322  0.325955  0.623280  1
  O  O19  1  0.902645  0.674071  0.377636  1
  O  O20  1  0.877524  0.934060  0.733657  1
  O  O21  1  0.128387  0.066113  0.267164  1
