# generated using pymatgen
data_Nd2ThIn3NiRu2
_symmetry_space_group_name_H-M   'P 1'
_cell_length_a   7.60708400
_cell_length_b   7.60708349
_cell_length_c   3.98712100
_cell_angle_alpha   90.00000000
_cell_angle_beta   90.00000000
_cell_angle_gamma   118.64934794
_symmetry_Int_Tables_number   1
_chemical_formula_structural   Nd2ThIn3NiRu2
_chemical_formula_sum   'Nd2 Th1 In3 Ni1 Ru2'
_cell_volume   202.47796024
_cell_formula_units_Z   1
loop_
 _symmetry_equiv_pos_site_id
 _symmetry_equiv_pos_as_xyz
  1  'x, y, z'
loop_
 _atom_site_type_symbol
 _atom_site_label
 _atom_site_symmetry_multiplicity
 _atom_site_fract_x
 _atom_site_fract_y
 _atom_site_fract_z
 _atom_site_occupancy
  Nd  Nd0  1  0.410549  0.997685  0.500000  1
  Nd  Nd1  1  0.997685  0.410549  0.500000  1
  Th  Th2  1  0.576943  0.576943  0.500000  1
  In  In3  1  0.754122  0.007404  0.000000  1
  In  In4  1  0.007404  0.754122  0.000000  1
  In  In5  1  0.232626  0.232626  0.000000  1
  Ni  Ni6  1  0.992671  0.992671  0.500000  1
  Ru  Ru7  1  0.363864  0.664136  0.000000  1
  Ru  Ru8  1  0.664136  0.363864  0.000000  1
