# generated using pymatgen
data_Sm6Zn(P3Rh5)4
_symmetry_space_group_name_H-M   'P 1'
_cell_length_a   13.54817700
_cell_length_b   13.54817635
_cell_length_c   3.93490300
_cell_angle_alpha   90.00000000
_cell_angle_beta   90.00000000
_cell_angle_gamma   119.99999914
_symmetry_Int_Tables_number   1
_chemical_formula_structural   Sm6Zn(P3Rh5)4
_chemical_formula_sum   'Sm6 Zn1 P12 Rh20'
_cell_volume   625.49863952
_cell_formula_units_Z   1
loop_
 _symmetry_equiv_pos_site_id
 _symmetry_equiv_pos_as_xyz
  1  'x, y, z'
loop_
 _atom_site_type_symbol
 _atom_site_label
 _atom_site_symmetry_multiplicity
 _atom_site_fract_x
 _atom_site_fract_y
 _atom_site_fract_z
 _atom_site_occupancy
  Sm  Sm0  1  0.531034  0.717296  0.250776  1
  Sm  Sm1  1  0.282704  0.813738  0.250776  1
  Sm  Sm2  1  0.186262  0.468966  0.250776  1
  Sm  Sm3  1  0.468966  0.282704  0.749224  1
  Sm  Sm4  1  0.717296  0.186262  0.749224  1
  Sm  Sm5  1  0.813738  0.531034  0.749224  1
  Zn  Zn6  1  0.000000  0.000000  0.000000  1
  P  P7  1  0.524793  0.136617  0.249746  1
  P  P8  1  0.863383  0.388176  0.249746  1
  P  P9  1  0.611824  0.475207  0.249746  1
  P  P10  1  0.949614  0.722294  0.246635  1
  P  P11  1  0.277706  0.227320  0.246635  1
  P  P12  1  0.772680  0.050386  0.246635  1
  P  P13  1  0.388176  0.524793  0.750254  1
  P  P14  1  0.475207  0.863383  0.750254  1
  P  P15  1  0.136617  0.611824  0.750254  1
  P  P16  1  0.722294  0.772680  0.753365  1
  P  P17  1  0.227320  0.949614  0.753365  1
  P  P18  1  0.050386  0.277706  0.753365  1
  Rh  Rh19  1  0.333333  0.666667  0.751549  1
  Rh  Rh20  1  0.921677  0.252369  0.246976  1
  Rh  Rh21  1  0.747631  0.669308  0.246976  1
  Rh  Rh22  1  0.330692  0.078323  0.246976  1
  Rh  Rh23  1  0.442179  0.026485  0.749423  1
  Rh  Rh24  1  0.973515  0.415694  0.749423  1
  Rh  Rh25  1  0.584306  0.557821  0.749423  1
  Rh  Rh26  1  0.666667  0.333333  0.248451  1
  Rh  Rh27  1  0.095522  0.202200  0.257594  1
  Rh  Rh28  1  0.797800  0.893322  0.257594  1
  Rh  Rh29  1  0.106678  0.904478  0.257594  1
  Rh  Rh30  1  0.026485  0.584306  0.250577  1
  Rh  Rh31  1  0.415694  0.442179  0.250577  1
  Rh  Rh32  1  0.557821  0.973515  0.250577  1
  Rh  Rh33  1  0.669308  0.921677  0.753024  1
  Rh  Rh34  1  0.078323  0.747631  0.753024  1
  Rh  Rh35  1  0.252369  0.330692  0.753024  1
  Rh  Rh36  1  0.904478  0.797800  0.742406  1
  Rh  Rh37  1  0.202200  0.106678  0.742406  1
  Rh  Rh38  1  0.893322  0.095522  0.742406  1
