# generated using pymatgen
data_TbSmHoSi6Pd17Pt3
_symmetry_space_group_name_H-M   'P 1'
_cell_length_a   8.73064357
_cell_length_b   8.73064489
_cell_length_c   8.73064400
_cell_angle_alpha   60.00000335
_cell_angle_beta   59.99999837
_cell_angle_gamma   60.00000171
_symmetry_Int_Tables_number   1
_chemical_formula_structural   TbSmHoSi6Pd17Pt3
_chemical_formula_sum   'Tb1 Sm1 Ho1 Si6 Pd17 Pt3'
_cell_volume   470.56960911
_cell_formula_units_Z   1
loop_
 _symmetry_equiv_pos_site_id
 _symmetry_equiv_pos_as_xyz
  1  'x, y, z'
loop_
 _atom_site_type_symbol
 _atom_site_label
 _atom_site_symmetry_multiplicity
 _atom_site_fract_x
 _atom_site_fract_y
 _atom_site_fract_z
 _atom_site_occupancy
  Tb  Tb0  1  0.749128  0.749128  0.750072  1
  Sm  Sm1  1  0.250565  0.250565  0.250137  1
  Ho  Ho2  1  0.999994  0.999994  0.000082  1
  Si  Si3  1  0.731713  0.267590  0.266794  1
  Si  Si4  1  0.268850  0.731489  0.732795  1
  Si  Si5  1  0.267590  0.731713  0.266794  1
  Si  Si6  1  0.731489  0.268850  0.732795  1
  Si  Si7  1  0.267955  0.267955  0.731560  1
  Si  Si8  1  0.732890  0.732890  0.267762  1
  Pd  Pd9  1  0.383098  0.847198  0.383568  1
  Pd  Pd10  1  0.617605  0.617605  0.150109  1
  Pd  Pd11  1  0.619320  0.148199  0.616476  1
  Pd  Pd12  1  0.847198  0.383098  0.383568  1
  Pd  Pd13  1  0.148199  0.619320  0.616476  1
  Pd  Pd14  1  0.345251  0.999353  0.000106  1
  Pd  Pd15  1  0.655179  0.999354  0.000365  1
  Pd  Pd16  1  0.999470  0.345241  0.656013  1
  Pd  Pd17  1  0.999300  0.655473  0.345906  1
  Pd  Pd18  1  0.999353  0.345251  0.000106  1
  Pd  Pd19  1  0.655473  0.999300  0.345906  1
  Pd  Pd20  1  0.999354  0.655179  0.000365  1
  Pd  Pd21  1  0.345241  0.999470  0.656013  1
  Pd  Pd22  1  0.999270  0.999270  0.345992  1
  Pd  Pd23  1  0.999450  0.999450  0.655916  1
  Pd  Pd24  1  0.655309  0.345173  0.000122  1
  Pd  Pd25  1  0.345173  0.655309  0.000122  1
  Pt  Pt26  1  0.386017  0.386017  0.386255  1
  Pt  Pt27  1  0.616417  0.616417  0.613665  1
  Pt  Pt28  1  0.384152  0.384152  0.844160  1
