# generated using pymatgen
data_MgSc4Si12Ir19
_symmetry_space_group_name_H-M   'P 1'
_cell_length_a   12.71866200
_cell_length_b   12.74434360
_cell_length_c   3.93464400
_cell_angle_alpha   90.00000000
_cell_angle_beta   90.00000000
_cell_angle_gamma   119.93336216
_symmetry_Int_Tables_number   1
_chemical_formula_structural   MgSc4Si12Ir19
_chemical_formula_sum   'Mg1 Sc4 Si12 Ir19'
_cell_volume   552.69585258
_cell_formula_units_Z   1
loop_
 _symmetry_equiv_pos_site_id
 _symmetry_equiv_pos_as_xyz
  1  'x, y, z'
loop_
 _atom_site_type_symbol
 _atom_site_label
 _atom_site_symmetry_multiplicity
 _atom_site_fract_x
 _atom_site_fract_y
 _atom_site_fract_z
 _atom_site_occupancy
  Mg  Mg0  1  0.817564  0.000000  0.500000  1
  Sc  Sc1  1  0.333049  0.666300  0.000000  1
  Sc  Sc2  1  0.666750  0.333700  0.000000  1
  Sc  Sc3  1  0.000256  0.817173  0.500000  1
  Sc  Sc4  1  0.183082  0.182827  0.500000  1
  Si  Si5  1  0.178633  0.000000  0.000000  1
  Si  Si6  1  0.000441  0.179930  0.000000  1
  Si  Si7  1  0.820511  0.820070  0.000000  1
  Si  Si8  1  0.168737  0.481605  0.500000  1
  Si  Si9  1  0.518617  0.688153  0.500000  1
  Si  Si10  1  0.312213  0.829998  0.500000  1
  Si  Si11  1  0.687131  0.518395  0.500000  1
  Si  Si12  1  0.830463  0.311847  0.500000  1
  Si  Si13  1  0.482214  0.170002  0.500000  1
  Si  Si14  1  0.633513  0.000000  0.000000  1
  Si  Si15  1  0.000269  0.634458  0.000000  1
  Si  Si16  1  0.365811  0.365542  0.000000  1
  Ir  Ir17  1  0.446741  0.000000  0.000000  1
  Ir  Ir18  1  0.002486  0.449550  0.000000  1
  Ir  Ir19  1  0.552936  0.550450  0.000000  1
  Ir  Ir20  1  0.361352  0.489410  0.500000  1
  Ir  Ir21  1  0.510874  0.872511  0.500000  1
  Ir  Ir22  1  0.128003  0.639384  0.500000  1
  Ir  Ir23  1  0.871942  0.510590  0.500000  1
  Ir  Ir24  1  0.638363  0.127489  0.500000  1
  Ir  Ir25  1  0.488619  0.360616  0.500000  1
  Ir  Ir26  1  0.183240  0.375512  0.000000  1
  Ir  Ir27  1  0.623604  0.807516  0.000000  1
  Ir  Ir28  1  0.192294  0.817767  0.000000  1
  Ir  Ir29  1  0.807728  0.624488  0.000000  1
  Ir  Ir30  1  0.816087  0.192484  0.000000  1
  Ir  Ir31  1  0.374528  0.182233  0.000000  1
  Ir  Ir32  1  0.281568  0.000000  0.500000  1
  Ir  Ir33  1  0.000926  0.281265  0.500000  1
  Ir  Ir34  1  0.719661  0.718735  0.500000  1
  Ir  Ir35  1  0.999794  0.000000  0.000000  1
