# generated using pymatgen
data_Na4Ni3RhO8
_symmetry_space_group_name_H-M   'P 1'
_cell_length_a   6.35212719
_cell_length_b   6.35212725
_cell_length_c   6.35212682
_cell_angle_alpha   57.59788442
_cell_angle_beta   57.59788087
_cell_angle_gamma   57.59788736
_symmetry_Int_Tables_number   1
_chemical_formula_structural   Na4Ni3RhO8
_chemical_formula_sum   'Na4 Ni3 Rh1 O8'
_cell_volume   171.22750704
_cell_formula_units_Z   1
loop_
 _symmetry_equiv_pos_site_id
 _symmetry_equiv_pos_as_xyz
  1  'x, y, z'
loop_
 _atom_site_type_symbol
 _atom_site_label
 _atom_site_symmetry_multiplicity
 _atom_site_fract_x
 _atom_site_fract_y
 _atom_site_fract_z
 _atom_site_occupancy
  Na  Na0  1  0.500000  0.500000  0.000000  1
  Na  Na1  1  0.000000  0.500000  0.500000  1
  Na  Na2  1  0.000000  0.000000  0.000000  1
  Na  Na3  1  0.500000  0.000000  0.500000  1
  Ni  Ni4  1  0.000000  0.000000  0.500000  1
  Ni  Ni5  1  0.500000  0.000000  0.000000  1
  Ni  Ni6  1  0.000000  0.500000  0.000000  1
  Rh  Rh7  1  0.500000  0.500000  0.500000  1
  O  O8  1  0.272008  0.272008  0.750425  1
  O  O9  1  0.727992  0.727992  0.249575  1
  O  O10  1  0.750425  0.272008  0.272008  1
  O  O11  1  0.249575  0.727992  0.727992  1
  O  O12  1  0.228228  0.228228  0.228228  1
  O  O13  1  0.771772  0.771772  0.771772  1
  O  O14  1  0.272008  0.750425  0.272008  1
  O  O15  1  0.727992  0.249575  0.727992  1
