# generated using pymatgen
data_Tb3DyOsI4
_symmetry_space_group_name_H-M   'P 1'
_cell_length_a   11.69390602
_cell_length_b   11.69444881
_cell_length_c   6.21061408
_cell_angle_alpha   90.04880068
_cell_angle_beta   90.04399994
_cell_angle_gamma   89.97010933
_symmetry_Int_Tables_number   1
_chemical_formula_structural   Tb3DyOsI4
_chemical_formula_sum   'Tb6 Dy2 Os2 I8'
_cell_volume   849.32431071
_cell_formula_units_Z   2
loop_
 _symmetry_equiv_pos_site_id
 _symmetry_equiv_pos_as_xyz
  1  'x, y, z'
loop_
 _atom_site_type_symbol
 _atom_site_label
 _atom_site_symmetry_multiplicity
 _atom_site_fract_x
 _atom_site_fract_y
 _atom_site_fract_z
 _atom_site_occupancy
  Tb  Tb0  1  0.807190  0.079456  0.001047  1
  Tb  Tb1  1  0.079541  0.807221  0.500989  1
  Tb  Tb2  1  0.079081  0.192556  0.001048  1
  Tb  Tb3  1  0.192774  0.078897  0.501028  1
  Tb  Tb4  1  0.921025  0.807265  0.998970  1
  Tb  Tb5  1  0.920357  0.192590  0.498962  1
  Dy  Dy6  1  0.191285  0.920957  0.998860  1
  Dy  Dy7  1  0.808741  0.921494  0.498865  1
  Os  Os8  1  0.000181  0.999693  0.249979  1
  Os  Os9  1  0.999818  0.000026  0.749974  1
  I  I10  1  0.653993  0.143101  0.487793  1
  I  I11  1  0.855055  0.656015  0.507139  1
  I  I12  1  0.344267  0.144309  0.992854  1
  I  I13  1  0.144709  0.344340  0.492839  1
  I  I14  1  0.655653  0.855291  0.007268  1
  I  I15  1  0.346124  0.856485  0.512390  1
  I  I16  1  0.143723  0.654189  0.987751  1
  I  I17  1  0.856482  0.346114  0.012245  1
