# generated using pymatgen
data_Tb4DyCo14P12Ru5
_symmetry_space_group_name_H-M   'P 1'
_cell_length_a   12.13210517
_cell_length_b   12.12433118
_cell_length_c   3.73943300
_cell_angle_alpha   90.00000000
_cell_angle_beta   90.00000000
_cell_angle_gamma   119.89664378
_symmetry_Int_Tables_number   1
_chemical_formula_structural   Tb4DyCo14P12Ru5
_chemical_formula_sum   'Tb4 Dy1 Co14 P12 Ru5'
_cell_volume   476.84992133
_cell_formula_units_Z   1
loop_
 _symmetry_equiv_pos_site_id
 _symmetry_equiv_pos_as_xyz
  1  'x, y, z'
loop_
 _atom_site_type_symbol
 _atom_site_label
 _atom_site_symmetry_multiplicity
 _atom_site_fract_x
 _atom_site_fract_y
 _atom_site_fract_z
 _atom_site_occupancy
  Tb  Tb0  1  0.662597  0.333970  0.000000  1
  Tb  Tb1  1  0.333272  0.666443  0.000000  1
  Tb  Tb2  1  0.185564  0.184062  0.500000  1
  Tb  Tb3  1  0.817480  0.000336  0.500000  1
  Dy  Dy4  1  0.000088  0.818514  0.500000  1
  Co  Co5  1  0.827751  0.199372  0.000000  1
  Co  Co6  1  0.801038  0.628422  0.000000  1
  Co  Co7  1  0.374593  0.178155  0.000000  1
  Co  Co8  1  0.194642  0.819543  0.000000  1
  Co  Co9  1  0.623597  0.803090  0.000000  1
  Co  Co10  1  0.181100  0.374831  0.000000  1
  Co  Co11  1  0.479893  0.358274  0.500000  1
  Co  Co12  1  0.130929  0.644154  0.500000  1
  Co  Co13  1  0.513595  0.869329  0.500000  1
  Co  Co14  1  0.357170  0.483755  0.500000  1
  Co  Co15  1  0.715815  0.717762  0.500000  1
  Co  Co16  1  0.281249  0.997941  0.500000  1
  Co  Co17  1  0.002795  0.283372  0.500000  1
  Co  Co18  1  0.999495  0.999030  0.000000  1
  P  P19  1  0.363374  0.363049  0.000000  1
  P  P20  1  0.633517  0.995206  0.000000  1
  P  P21  1  0.004360  0.639353  0.000000  1
  P  P22  1  0.838842  0.313883  0.500000  1
  P  P23  1  0.681737  0.522325  0.500000  1
  P  P24  1  0.473400  0.166113  0.500000  1
  P  P25  1  0.312661  0.834654  0.500000  1
  P  P26  1  0.520873  0.685997  0.500000  1
  P  P27  1  0.167017  0.477937  0.500000  1
  P  P28  1  0.819019  0.820751  0.000000  1
  P  P29  1  0.179822  0.999494  0.000000  1
  P  P30  1  0.002417  0.180121  0.000000  1
  Ru  Ru31  1  0.551511  0.553487  0.000000  1
  Ru  Ru32  1  0.440893  0.991387  0.000000  1
  Ru  Ru33  1  0.009188  0.450708  0.000000  1
  Ru  Ru34  1  0.642395  0.124043  0.500000  1
  Ru  Ru35  1  0.876314  0.521133  0.500000  1
