# generated using pymatgen
data_Tm5Lu15Bi11Te
_symmetry_space_group_name_H-M   'P 1'
_cell_length_a   8.09193270
_cell_length_b   9.35807700
_cell_length_c   11.80969800
_cell_angle_alpha   90.00000000
_cell_angle_beta   89.72427309
_cell_angle_gamma   90.00000000
_symmetry_Int_Tables_number   1
_chemical_formula_structural   Tm5Lu15Bi11Te
_chemical_formula_sum   'Tm5 Lu15 Bi11 Te1'
_cell_volume   894.27819058
_cell_formula_units_Z   1
loop_
 _symmetry_equiv_pos_site_id
 _symmetry_equiv_pos_as_xyz
  1  'x, y, z'
loop_
 _atom_site_type_symbol
 _atom_site_label
 _atom_site_symmetry_multiplicity
 _atom_site_fract_x
 _atom_site_fract_y
 _atom_site_fract_z
 _atom_site_occupancy
  Tm  Tm0  1  0.147398  0.750000  0.781245  1
  Tm  Tm1  1  0.186907  0.250000  0.782583  1
  Tm  Tm2  1  0.812344  0.750000  0.217146  1
  Tm  Tm3  1  0.314250  0.750000  0.283602  1
  Tm  Tm4  1  0.680882  0.250000  0.713340  1
  Lu  Lu5  1  0.021247  0.250000  0.510811  1
  Lu  Lu6  1  0.979449  0.750000  0.490174  1
  Lu  Lu7  1  0.477426  0.750000  0.010062  1
  Lu  Lu8  1  0.522576  0.250000  0.989254  1
  Lu  Lu9  1  0.357017  0.250000  0.285411  1
  Lu  Lu10  1  0.646024  0.750000  0.717350  1
  Lu  Lu11  1  0.851234  0.250000  0.218490  1
  Lu  Lu12  1  0.191829  0.068292  0.060405  1
  Lu  Lu13  1  0.808606  0.933028  0.940225  1
  Lu  Lu14  1  0.310553  0.935302  0.558204  1
  Lu  Lu15  1  0.808606  0.566972  0.940225  1
  Lu  Lu16  1  0.689076  0.070035  0.441825  1
  Lu  Lu17  1  0.191829  0.431708  0.060405  1
  Lu  Lu18  1  0.689076  0.429965  0.441825  1
  Lu  Lu19  1  0.310553  0.564698  0.558204  1
  Bi  Bi20  1  0.599960  0.750000  0.457210  1
  Bi  Bi21  1  0.097754  0.750000  0.043318  1
  Bi  Bi22  1  0.902399  0.250000  0.957231  1
  Bi  Bi23  1  0.066801  0.004813  0.326142  1
  Bi  Bi24  1  0.933938  0.996737  0.675159  1
  Bi  Bi25  1  0.434704  0.996293  0.824401  1
  Bi  Bi26  1  0.933938  0.503263  0.675159  1
  Bi  Bi27  1  0.566360  0.004063  0.173862  1
  Bi  Bi28  1  0.066801  0.495187  0.326142  1
  Bi  Bi29  1  0.566360  0.495937  0.173862  1
  Bi  Bi30  1  0.434704  0.503707  0.824401  1
  Te  Te31  1  0.399398  0.250000  0.542326  1
