# generated using pymatgen
data_Ta3Nb13(SiTe4)4
_symmetry_space_group_name_H-M   'P 1'
_cell_length_a   4.83418900
_cell_length_b   10.97545164
_cell_length_c   19.25063700
_cell_angle_alpha   89.94729526
_cell_angle_beta   90.00000000
_cell_angle_gamma   90.00000000
_symmetry_Int_Tables_number   1
_chemical_formula_structural   Ta3Nb13(SiTe4)4
_chemical_formula_sum   'Ta3 Nb13 Si4 Te16'
_cell_volume   1021.38846184
_cell_formula_units_Z   1
loop_
 _symmetry_equiv_pos_site_id
 _symmetry_equiv_pos_as_xyz
  1  'x, y, z'
loop_
 _atom_site_type_symbol
 _atom_site_label
 _atom_site_symmetry_multiplicity
 _atom_site_fract_x
 _atom_site_fract_y
 _atom_site_fract_z
 _atom_site_occupancy
  Ta  Ta0  1  0.000000  0.687726  0.443845  1
  Ta  Ta1  1  0.000000  0.312088  0.556035  1
  Ta  Ta2  1  0.000000  0.188234  0.056127  1
  Nb  Nb3  1  0.500000  0.563347  0.384455  1
  Nb  Nb4  1  0.500000  0.436488  0.615411  1
  Nb  Nb5  1  0.500000  0.063516  0.115576  1
  Nb  Nb6  1  0.500000  0.936093  0.884502  1
  Nb  Nb7  1  0.500000  0.702759  0.536223  1
  Nb  Nb8  1  0.500000  0.297020  0.463648  1
  Nb  Nb9  1  0.500000  0.203028  0.963537  1
  Nb  Nb10  1  0.500000  0.796784  0.036327  1
  Nb  Nb11  1  0.000000  0.811510  0.943851  1
  Nb  Nb12  1  0.000000  0.401489  0.392595  1
  Nb  Nb13  1  0.000000  0.598310  0.607267  1
  Nb  Nb14  1  0.000000  0.901818  0.107563  1
  Nb  Nb15  1  0.000000  0.098586  0.892620  1
  Si  Si16  1  0.250133  0.499900  0.499932  1
  Si  Si17  1  0.749946  0.000133  0.000074  1
  Si  Si18  1  0.749867  0.499900  0.499932  1
  Si  Si19  1  0.250054  0.000133  0.000074  1
  Te  Te20  1  0.000000  0.846157  0.561192  1
  Te  Te21  1  0.000000  0.153624  0.438693  1
  Te  Te22  1  0.000000  0.346549  0.938622  1
  Te  Te23  1  0.000000  0.654308  0.062263  1
  Te  Te24  1  0.500000  0.332162  0.316853  1
  Te  Te25  1  0.500000  0.667654  0.683042  1
  Te  Te26  1  0.500000  0.832181  0.183127  1
  Te  Te27  1  0.500000  0.167426  0.816844  1
  Te  Te28  1  0.500000  0.821687  0.403986  1
  Te  Te29  1  0.500000  0.178116  0.595898  1
  Te  Te30  1  0.500000  0.321785  0.095700  1
  Te  Te31  1  0.500000  0.678009  0.904333  1
  Te  Te32  1  0.000000  0.608895  0.302860  1
  Te  Te33  1  0.000000  0.390875  0.696998  1
  Te  Te34  1  0.000000  0.109486  0.197142  1
  Te  Te35  1  0.000000  0.892223  0.802850  1
