# generated using pymatgen
data_Dy4ScOs7
_symmetry_space_group_name_H-M   'P 1'
_cell_length_a   5.39977600
_cell_length_b   5.39977720
_cell_length_c   8.87894500
_cell_angle_alpha   90.00000000
_cell_angle_beta   90.00000000
_cell_angle_gamma   120.00000490
_symmetry_Int_Tables_number   1
_chemical_formula_structural   Dy4ScOs7
_chemical_formula_sum   'Dy4 Sc1 Os7'
_cell_volume   224.20410565
_cell_formula_units_Z   1
loop_
 _symmetry_equiv_pos_site_id
 _symmetry_equiv_pos_as_xyz
  1  'x, y, z'
loop_
 _atom_site_type_symbol
 _atom_site_label
 _atom_site_symmetry_multiplicity
 _atom_site_fract_x
 _atom_site_fract_y
 _atom_site_fract_z
 _atom_site_occupancy
  Dy  Dy0  1  0.333333  0.666667  0.422836  1
  Dy  Dy1  1  0.666667  0.333333  0.577164  1
  Dy  Dy2  1  0.666667  0.333333  0.939619  1
  Dy  Dy3  1  0.333333  0.666667  0.060381  1
  Sc  Sc4  1  0.000000  0.000000  0.500000  1
  Os  Os5  1  0.000000  0.000000  0.000000  1
  Os  Os6  1  0.827504  0.172496  0.245039  1
  Os  Os7  1  0.827504  0.655006  0.245039  1
  Os  Os8  1  0.344994  0.172496  0.245039  1
  Os  Os9  1  0.172496  0.827504  0.754961  1
  Os  Os10  1  0.172496  0.344994  0.754961  1
  Os  Os11  1  0.655006  0.827504  0.754961  1
