# generated using pymatgen
data_TbHoGa6(NiAg)2
_symmetry_space_group_name_H-M   'P 1'
_cell_length_a   4.10949321
_cell_length_b   6.54247400
_cell_length_c   8.03936109
_cell_angle_alpha   90.00000000
_cell_angle_beta   104.80829760
_cell_angle_gamma   90.00000000
_symmetry_Int_Tables_number   1
_chemical_formula_structural   TbHoGa6(NiAg)2
_chemical_formula_sum   'Tb1 Ho1 Ga6 Ni2 Ag2'
_cell_volume   208.96922582
_cell_formula_units_Z   1
loop_
 _symmetry_equiv_pos_site_id
 _symmetry_equiv_pos_as_xyz
  1  'x, y, z'
loop_
 _atom_site_type_symbol
 _atom_site_label
 _atom_site_symmetry_multiplicity
 _atom_site_fract_x
 _atom_site_fract_y
 _atom_site_fract_z
 _atom_site_occupancy
  Tb  Tb0  1  0.127716  0.250000  0.255433  1
  Ho  Ho1  1  0.872062  0.750000  0.744123  1
  Ga  Ga2  1  0.068963  0.750000  0.137927  1
  Ga  Ga3  1  0.930905  0.250000  0.861809  1
  Ga  Ga4  1  0.685302  0.550739  0.370605  1
  Ga  Ga5  1  0.315218  0.449985  0.630436  1
  Ga  Ga6  1  0.685302  0.949261  0.370605  1
  Ga  Ga7  1  0.315218  0.050015  0.630436  1
  Ni  Ni8  1  0.223107  0.750000  0.446215  1
  Ni  Ni9  1  0.777228  0.250000  0.554455  1
  Ag  Ag10  1  0.499489  0.500857  0.998978  1
  Ag  Ag11  1  0.499489  0.999143  0.998978  1
