# generated using pymatgen
data_K3Ba(U2Te5)4
_symmetry_space_group_name_H-M   'P 1'
_cell_length_a   8.36383165
_cell_length_b   9.49462500
_cell_length_c   13.15362736
_cell_angle_alpha   89.95937732
_cell_angle_beta   89.86040086
_cell_angle_gamma   90.08514460
_symmetry_Int_Tables_number   1
_chemical_formula_structural   K3Ba(U2Te5)4
_chemical_formula_sum   'K3 Ba1 U8 Te20'
_cell_volume   1044.54403763
_cell_formula_units_Z   1
loop_
 _symmetry_equiv_pos_site_id
 _symmetry_equiv_pos_as_xyz
  1  'x, y, z'
loop_
 _atom_site_type_symbol
 _atom_site_label
 _atom_site_symmetry_multiplicity
 _atom_site_fract_x
 _atom_site_fract_y
 _atom_site_fract_z
 _atom_site_occupancy
  K  K0  1  0.056415  0.491094  0.329676  1
  K  K1  1  0.556216  0.507820  0.172352  1
  K  K2  1  0.942774  0.508460  0.666127  1
  Ba  Ba3  1  0.444128  0.492400  0.833575  1
  U  U4  1  0.025694  0.999141  0.317534  1
  U  U5  1  0.525201  0.001843  0.183310  1
  U  U6  1  0.974213  0.000287  0.681811  1
  U  U7  1  0.474907  0.997350  0.817533  1
  U  U8  1  0.075120  0.753704  0.012942  1
  U  U9  1  0.576765  0.249106  0.489085  1
  U  U10  1  0.924012  0.250641  0.988723  1
  U  U11  1  0.424005  0.749639  0.508795  1
  Te  Te12  1  0.665936  0.953649  0.406217  1
  Te  Te13  1  0.166268  0.048593  0.093781  1
  Te  Te14  1  0.334585  0.045135  0.594654  1
  Te  Te15  1  0.834051  0.953963  0.905264  1
  Te  Te16  1  0.455562  0.791395  0.001584  1
  Te  Te17  1  0.955324  0.207649  0.498714  1
  Te  Te18  1  0.544710  0.208067  0.998351  1
  Te  Te19  1  0.044758  0.791812  0.501028  1
  Te  Te20  1  0.830622  0.789311  0.185510  1
  Te  Te21  1  0.332262  0.211812  0.315843  1
  Te  Te22  1  0.168475  0.211213  0.813700  1
  Te  Te23  1  0.663978  0.783660  0.685899  1
  Te  Te24  1  0.307033  0.777742  0.282577  1
  Te  Te25  1  0.809553  0.222479  0.216003  1
  Te  Te26  1  0.690856  0.224016  0.716865  1
  Te  Te27  1  0.188396  0.776553  0.785022  1
  Te  Te28  1  0.182266  0.454808  0.066112  1
  Te  Te29  1  0.675469  0.546106  0.427194  1
  Te  Te30  1  0.824353  0.545380  0.927544  1
  Te  Te31  1  0.326096  0.455177  0.576674  1
