# generated using pymatgen
data_Ho8Ti8Re3Si16Mo
_symmetry_space_group_name_H-M   'P 1'
_cell_length_a   6.93270004
_cell_length_b   6.93270004
_cell_length_c   12.77745514
_cell_angle_alpha   89.98789758
_cell_angle_beta   90.01210242
_cell_angle_gamma   89.99785185
_symmetry_Int_Tables_number   1
_chemical_formula_structural   Ho8Ti8Re3Si16Mo
_chemical_formula_sum   'Ho8 Ti8 Re3 Si16 Mo1'
_cell_volume   614.11423578
_cell_formula_units_Z   1
loop_
 _symmetry_equiv_pos_site_id
 _symmetry_equiv_pos_as_xyz
  1  'x, y, z'
loop_
 _atom_site_type_symbol
 _atom_site_label
 _atom_site_symmetry_multiplicity
 _atom_site_fract_x
 _atom_site_fract_y
 _atom_site_fract_z
 _atom_site_occupancy
  Ho  Ho0  1  0.340626  0.000966  0.469073  1
  Ho  Ho1  1  0.499389  0.840794  0.718810  1
  Ho  Ho2  1  0.501075  0.159124  0.219286  1
  Ho  Ho3  1  0.840794  0.499389  0.281190  1
  Ho  Ho4  1  0.159124  0.501075  0.780714  1
  Ho  Ho5  1  0.659348  0.999155  0.968787  1
  Ho  Ho6  1  0.000966  0.340626  0.530927  1
  Ho  Ho7  1  0.999155  0.659348  0.031213  1
  Ti  Ti8  1  0.152578  0.006670  0.876096  1
  Ti  Ti9  1  0.493889  0.651478  0.126561  1
  Ti  Ti10  1  0.506387  0.347589  0.626021  1
  Ti  Ti11  1  0.651478  0.493889  0.873439  1
  Ti  Ti12  1  0.347589  0.506387  0.373979  1
  Ti  Ti13  1  0.847913  0.994208  0.376284  1
  Ti  Ti14  1  0.006670  0.152578  0.123904  1
  Ti  Ti15  1  0.994208  0.847913  0.623716  1
  Re  Re16  1  0.171430  0.827267  0.250646  1
  Re  Re17  1  0.827267  0.171430  0.749354  1
  Re  Re18  1  0.671894  0.671894  0.500000  1
  Si  Si19  1  0.200284  0.130213  0.683391  1
  Si  Si20  1  0.369179  0.701380  0.933806  1
  Si  Si21  1  0.630258  0.300103  0.433446  1
  Si  Si22  1  0.701380  0.369179  0.066194  1
  Si  Si23  1  0.300103  0.630258  0.566554  1
  Si  Si24  1  0.800014  0.869712  0.183559  1
  Si  Si25  1  0.130213  0.200284  0.316609  1
  Si  Si26  1  0.869712  0.800014  0.816441  1
  Si  Si27  1  0.291936  0.951899  0.066725  1
  Si  Si28  1  0.547386  0.791267  0.316562  1
  Si  Si29  1  0.453385  0.208086  0.815911  1
  Si  Si30  1  0.791267  0.547386  0.683438  1
  Si  Si31  1  0.208086  0.453385  0.184089  1
  Si  Si32  1  0.708424  0.047273  0.566613  1
  Si  Si33  1  0.951899  0.291936  0.933275  1
  Si  Si34  1  0.047273  0.708424  0.433387  1
  Mo  Mo35  1  0.327419  0.327419  0.000000  1
