# generated using pymatgen
data_Ca7Dy3(Si3H)2
_symmetry_space_group_name_H-M   'P 1'
_cell_length_a   8.90833759
_cell_length_b   8.91668091
_cell_length_c   8.91521020
_cell_angle_alpha   129.57617481
_cell_angle_beta   129.55093894
_cell_angle_gamma   74.08246335
_symmetry_Int_Tables_number   1
_chemical_formula_structural   Ca7Dy3(Si3H)2
_chemical_formula_sum   'Ca7 Dy3 Si6 H2'
_cell_volume   410.44987876
_cell_formula_units_Z   1
loop_
 _symmetry_equiv_pos_site_id
 _symmetry_equiv_pos_as_xyz
  1  'x, y, z'
loop_
 _atom_site_type_symbol
 _atom_site_label
 _atom_site_symmetry_multiplicity
 _atom_site_fract_x
 _atom_site_fract_y
 _atom_site_fract_z
 _atom_site_occupancy
  Ca  Ca0  1  0.505436  0.504204  0.005086  1
  Ca  Ca1  1  0.000350  0.999119  0.994914  1
  Ca  Ca2  1  0.681135  0.520443  0.500000  1
  Ca  Ca3  1  0.478738  0.978434  0.166271  1
  Ca  Ca4  1  0.812467  0.312163  0.833729  1
  Ca  Ca5  1  0.981720  0.812595  0.500000  1
  Ca  Ca6  1  0.313407  0.480227  0.500000  1
  Dy  Dy7  1  0.524616  0.026265  0.843358  1
  Dy  Dy8  1  0.181259  0.682908  0.156642  1
  Dy  Dy9  1  0.023563  0.184887  0.500000  1
  Si  Si10  1  0.247285  0.252390  0.986498  1
  Si  Si11  1  0.760788  0.765893  0.013502  1
  Si  Si12  1  0.881545  0.376126  0.267841  1
  Si  Si13  1  0.113704  0.608285  0.732159  1
  Si  Si14  1  0.375749  0.109778  0.500000  1
  Si  Si15  1  0.602099  0.882815  0.500000  1
  H  H16  1  0.258751  0.756265  0.500000  1
  H  H17  1  0.757389  0.247203  0.500000  1
