# generated using pymatgen
data_Nb4VTe4
_symmetry_space_group_name_H-M   'P 1'
_cell_length_a   4.97478500
_cell_length_b   11.10556200
_cell_length_c   19.32574000
_cell_angle_alpha   90.00000000
_cell_angle_beta   90.00000000
_cell_angle_gamma   90.00000000
_symmetry_Int_Tables_number   1
_chemical_formula_structural   Nb4VTe4
_chemical_formula_sum   'Nb16 V4 Te16'
_cell_volume   1067.70429475
_cell_formula_units_Z   4
loop_
 _symmetry_equiv_pos_site_id
 _symmetry_equiv_pos_as_xyz
  1  'x, y, z'
loop_
 _atom_site_type_symbol
 _atom_site_label
 _atom_site_symmetry_multiplicity
 _atom_site_fract_x
 _atom_site_fract_y
 _atom_site_fract_z
 _atom_site_occupancy
  Nb  Nb0  1  0.500000  0.564473  0.382153  1
  Nb  Nb1  1  0.500000  0.435527  0.617847  1
  Nb  Nb2  1  0.500000  0.064473  0.117847  1
  Nb  Nb3  1  0.500000  0.935527  0.882153  1
  Nb  Nb4  1  0.500000  0.705655  0.537142  1
  Nb  Nb5  1  0.500000  0.294345  0.462858  1
  Nb  Nb6  1  0.500000  0.205655  0.962858  1
  Nb  Nb7  1  0.500000  0.794345  0.037142  1
  Nb  Nb8  1  0.000000  0.693151  0.442201  1
  Nb  Nb9  1  0.000000  0.306849  0.557799  1
  Nb  Nb10  1  0.000000  0.193151  0.057799  1
  Nb  Nb11  1  0.000000  0.806849  0.942201  1
  Nb  Nb12  1  0.000000  0.399497  0.389202  1
  Nb  Nb13  1  0.000000  0.600503  0.610798  1
  Nb  Nb14  1  0.000000  0.899497  0.110798  1
  Nb  Nb15  1  0.000000  0.100503  0.889202  1
  V  V16  1  0.242571  0.500000  0.500000  1
  V  V17  1  0.757429  0.000000  0.000000  1
  V  V18  1  0.757429  0.500000  0.500000  1
  V  V19  1  0.242571  0.000000  0.000000  1
  Te  Te20  1  0.000000  0.843365  0.562120  1
  Te  Te21  1  0.000000  0.156635  0.437880  1
  Te  Te22  1  0.000000  0.343365  0.937880  1
  Te  Te23  1  0.000000  0.656635  0.062120  1
  Te  Te24  1  0.500000  0.334767  0.317774  1
  Te  Te25  1  0.500000  0.665233  0.682226  1
  Te  Te26  1  0.500000  0.834767  0.182226  1
  Te  Te27  1  0.500000  0.165233  0.817774  1
  Te  Te28  1  0.500000  0.817406  0.404785  1
  Te  Te29  1  0.500000  0.182594  0.595215  1
  Te  Te30  1  0.500000  0.317406  0.095215  1
  Te  Te31  1  0.500000  0.682594  0.904785  1
  Te  Te32  1  0.000000  0.608459  0.303111  1
  Te  Te33  1  0.000000  0.391541  0.696889  1
  Te  Te34  1  0.000000  0.108459  0.196889  1
  Te  Te35  1  0.000000  0.891541  0.803111  1
