# generated using pymatgen
data_Nd2Co12SiP6
_symmetry_space_group_name_H-M   'P 1'
_cell_length_a   9.10717500
_cell_length_b   9.10717483
_cell_length_c   3.63008600
_cell_angle_alpha   90.00000000
_cell_angle_beta   90.00000000
_cell_angle_gamma   119.99999698
_symmetry_Int_Tables_number   1
_chemical_formula_structural   Nd2Co12SiP6
_chemical_formula_sum   'Nd2 Co12 Si1 P6'
_cell_volume   260.74435481
_cell_formula_units_Z   1
loop_
 _symmetry_equiv_pos_site_id
 _symmetry_equiv_pos_as_xyz
  1  'x, y, z'
loop_
 _atom_site_type_symbol
 _atom_site_label
 _atom_site_symmetry_multiplicity
 _atom_site_fract_x
 _atom_site_fract_y
 _atom_site_fract_z
 _atom_site_occupancy
  Nd  Nd0  1  0.000000  0.000000  0.000000  1
  Nd  Nd1  1  0.333333  0.666667  0.500000  1
  Co  Co2  1  0.098787  0.391435  0.000000  1
  Co  Co3  1  0.608565  0.707351  0.000000  1
  Co  Co4  1  0.292649  0.901213  0.000000  1
  Co  Co5  1  0.049464  0.765603  0.500000  1
  Co  Co6  1  0.234397  0.283860  0.500000  1
  Co  Co7  1  0.716140  0.950536  0.500000  1
  Co  Co8  1  0.821825  0.612025  0.000000  1
  Co  Co9  1  0.387975  0.209800  0.000000  1
  Co  Co10  1  0.790200  0.178175  0.000000  1
  Co  Co11  1  0.895329  0.434655  0.500000  1
  Co  Co12  1  0.565345  0.460674  0.500000  1
  Co  Co13  1  0.539326  0.104671  0.500000  1
  Si  Si14  1  0.666667  0.333333  0.000000  1
  P  P15  1  0.772281  0.731014  0.500000  1
  P  P16  1  0.268986  0.041267  0.500000  1
  P  P17  1  0.958733  0.227719  0.500000  1
  P  P18  1  0.068243  0.627572  0.000000  1
  P  P19  1  0.372428  0.440672  0.000000  1
  P  P20  1  0.559328  0.931757  0.000000  1
