# generated using pymatgen
data_AcNdIrBr
_symmetry_space_group_name_H-M   'P 1'
_cell_length_a   8.33102761
_cell_length_b   8.33102766
_cell_length_c   8.33102711
_cell_angle_alpha   29.84745676
_cell_angle_beta   29.84745522
_cell_angle_gamma   29.84745086
_symmetry_Int_Tables_number   1
_chemical_formula_structural   AcNdIrBr
_chemical_formula_sum   'Ac1 Nd1 Ir1 Br1'
_cell_volume   126.83723122
_cell_formula_units_Z   1
loop_
 _symmetry_equiv_pos_site_id
 _symmetry_equiv_pos_as_xyz
  1  'x, y, z'
loop_
 _atom_site_type_symbol
 _atom_site_label
 _atom_site_symmetry_multiplicity
 _atom_site_fract_x
 _atom_site_fract_y
 _atom_site_fract_z
 _atom_site_occupancy
  Ac  Ac0  1  0.229570  0.229570  0.229570  1
  Nd  Nd1  1  0.767658  0.767658  0.767658  1
  Ir  Ir2  1  0.496475  0.496475  0.496475  1
  Br  Br3  1  0.006297  0.006297  0.006297  1
