# generated using pymatgen
data_Ca5Ac15Ge16
_symmetry_space_group_name_H-M   'P 1'
_cell_length_a   8.16241219
_cell_length_b   8.42906818
_cell_length_c   16.13879158
_cell_angle_alpha   90.09458204
_cell_angle_beta   87.03611843
_cell_angle_gamma   90.10764559
_symmetry_Int_Tables_number   1
_chemical_formula_structural   Ca5Ac15Ge16
_chemical_formula_sum   'Ca5 Ac15 Ge16'
_cell_volume   1108.88491951
_cell_formula_units_Z   1
loop_
 _symmetry_equiv_pos_site_id
 _symmetry_equiv_pos_as_xyz
  1  'x, y, z'
loop_
 _atom_site_type_symbol
 _atom_site_label
 _atom_site_symmetry_multiplicity
 _atom_site_fract_x
 _atom_site_fract_y
 _atom_site_fract_z
 _atom_site_occupancy
  Ca  Ca0  1  0.326370  0.827431  0.876294  1
  Ca  Ca1  1  0.179677  0.494413  0.749293  1
  Ca  Ca2  1  0.673085  0.009137  0.748583  1
  Ca  Ca3  1  0.821704  0.510737  0.253639  1
  Ca  Ca4  1  0.322289  0.987772  0.254101  1
  Ac  Ac5  1  0.851952  0.661480  0.618013  1
  Ac  Ac6  1  0.649784  0.160541  0.382520  1
  Ac  Ac7  1  0.170430  0.322035  0.122166  1
  Ac  Ac8  1  0.671137  0.173434  0.120716  1
  Ac  Ac9  1  0.150480  0.338601  0.382838  1
  Ac  Ac10  1  0.351955  0.837927  0.620112  1
  Ac  Ac11  1  0.830683  0.679704  0.876137  1
  Ac  Ac12  1  0.476775  0.312004  0.898585  1
  Ac  Ac13  1  0.999545  0.184148  0.599775  1
  Ac  Ac14  1  0.502629  0.684183  0.402490  1
  Ac  Ac15  1  0.023729  0.809238  0.099833  1
  Ac  Ac16  1  0.519020  0.688257  0.098222  1
  Ac  Ac17  1  0.002547  0.814930  0.402418  1
  Ac  Ac18  1  0.497422  0.315557  0.598774  1
  Ac  Ac19  1  0.980529  0.188500  0.899012  1
  Ge  Ge20  1  0.346194  0.027217  0.035180  1
  Ge  Ge21  1  0.798280  0.465465  0.456294  1
  Ge  Ge22  1  0.704131  0.965851  0.544619  1
  Ge  Ge23  1  0.154978  0.531085  0.958458  1
  Ge  Ge24  1  0.639276  0.967858  0.956918  1
  Ge  Ge25  1  0.204595  0.535171  0.544371  1
  Ge  Ge26  1  0.297231  0.033838  0.457772  1
  Ge  Ge27  1  0.850148  0.472574  0.038580  1
  Ge  Ge28  1  0.543432  0.596819  0.750547  1
  Ge  Ge29  1  0.046655  0.905737  0.754143  1
  Ge  Ge30  1  0.456677  0.404568  0.248552  1
  Ge  Ge31  1  0.956168  0.092587  0.248975  1
  Ge  Ge32  1  0.284399  0.131645  0.753608  1
  Ge  Ge33  1  0.784140  0.370521  0.754076  1
  Ge  Ge34  1  0.716223  0.867897  0.247239  1
  Ge  Ge35  1  0.215730  0.631143  0.247144  1
