# generated using pymatgen
data_LaYb7(ScSn3)2
_symmetry_space_group_name_H-M   'P 1'
_cell_length_a   9.16866826
_cell_length_b   9.16866868
_cell_length_c   9.15222369
_cell_angle_alpha   96.65328881
_cell_angle_beta   96.81070910
_cell_angle_gamma   139.99335733
_symmetry_Int_Tables_number   1
_chemical_formula_structural   LaYb7(ScSn3)2
_chemical_formula_sum   'La1 Yb7 Sc2 Sn6'
_cell_volume   464.66426125
_cell_formula_units_Z   1
loop_
 _symmetry_equiv_pos_site_id
 _symmetry_equiv_pos_as_xyz
  1  'x, y, z'
loop_
 _atom_site_type_symbol
 _atom_site_label
 _atom_site_symmetry_multiplicity
 _atom_site_fract_x
 _atom_site_fract_y
 _atom_site_fract_z
 _atom_site_occupancy
  La  La0  1  0.412121  0.282219  0.694339  1
  Yb  Yb1  1  0.915236  0.214788  0.130024  1
  Yb  Yb2  1  0.213676  0.082054  0.295730  1
  Yb  Yb3  1  0.783284  0.917807  0.701091  1
  Yb  Yb4  1  0.088020  0.785859  0.873879  1
  Yb  Yb5  1  0.716589  0.415590  0.132180  1
  Yb  Yb6  1  0.285416  0.586089  0.871505  1
  Yb  Yb7  1  0.585906  0.715817  0.301723  1
  Sc  Sc8  1  0.748035  0.248026  0.497465  1
  Sc  Sc9  1  0.249439  0.749431  0.497465  1
  Sn  Sn10  1  0.749281  0.749763  0.000991  1
  Sn  Sn11  1  0.251227  0.251710  0.000991  1
  Sn  Sn12  1  0.852470  0.650507  0.502978  1
  Sn  Sn13  1  0.649379  0.147923  0.797303  1
  Sn  Sn14  1  0.351250  0.850351  0.201600  1
  Sn  Sn15  1  0.148670  0.352066  0.500737  1
