# generated using pymatgen
data_Sb3ClF20
_symmetry_space_group_name_H-M   'P 1'
_cell_length_a   5.91787700
_cell_length_b   8.06392403
_cell_length_c   8.61118691
_cell_angle_alpha   89.33902355
_cell_angle_beta   90.00000000
_cell_angle_gamma   90.00000000
_symmetry_Int_Tables_number   1
_chemical_formula_structural   Sb3ClF20
_chemical_formula_sum   'Sb3 Cl1 F20'
_cell_volume   410.90978022
_cell_formula_units_Z   1
loop_
 _symmetry_equiv_pos_site_id
 _symmetry_equiv_pos_as_xyz
  1  'x, y, z'
loop_
 _atom_site_type_symbol
 _atom_site_label
 _atom_site_symmetry_multiplicity
 _atom_site_fract_x
 _atom_site_fract_y
 _atom_site_fract_z
 _atom_site_occupancy
  Sb  Sb0  1  0.250000  0.585970  0.741357  1
  Sb  Sb1  1  0.250000  0.085601  0.264603  1
  Sb  Sb2  1  0.750000  0.916054  0.744398  1
  Cl  Cl3  1  0.750000  0.415713  0.255541  1
  F  F4  1  0.750000  0.511802  0.429523  1
  F  F5  1  0.250000  0.217226  0.080155  1
  F  F6  1  0.250000  0.710616  0.925105  1
  F  F7  1  0.250000  0.990199  0.467351  1
  F  F8  1  0.022758  0.244425  0.346437  1
  F  F9  1  0.250000  0.528282  0.530014  1
  F  F10  1  0.750000  0.974972  0.532911  1
  F  F11  1  0.012199  0.444494  0.800570  1
  F  F12  1  0.550087  0.538874  0.199549  1
  F  F13  1  0.949913  0.538874  0.199549  1
  F  F14  1  0.487801  0.444494  0.800570  1
  F  F15  1  0.750000  0.330480  0.078975  1
  F  F16  1  0.477242  0.244425  0.346437  1
  F  F17  1  0.485070  0.945604  0.194765  1
  F  F18  1  0.750000  0.776188  0.920787  1
  F  F19  1  0.512980  0.054718  0.806108  1
  F  F20  1  0.987020  0.054718  0.806108  1
  F  F21  1  0.000942  0.750334  0.667209  1
  F  F22  1  0.499058  0.750334  0.667209  1
  F  F23  1  0.014930  0.945604  0.194765  1
