# generated using pymatgen
data_LiDy2(B3Ir4)2
_symmetry_space_group_name_H-M   'P 1'
_cell_length_a   9.96621820
_cell_length_b   9.12655967
_cell_length_c   5.60436300
_cell_angle_alpha   81.35444248
_cell_angle_beta   64.86966953
_cell_angle_gamma   33.77591612
_symmetry_Int_Tables_number   1
_chemical_formula_structural   LiDy2(B3Ir4)2
_chemical_formula_sum   'Li1 Dy2 B6 Ir8'
_cell_volume   234.85107948
_cell_formula_units_Z   1
loop_
 _symmetry_equiv_pos_site_id
 _symmetry_equiv_pos_as_xyz
  1  'x, y, z'
loop_
 _atom_site_type_symbol
 _atom_site_label
 _atom_site_symmetry_multiplicity
 _atom_site_fract_x
 _atom_site_fract_y
 _atom_site_fract_z
 _atom_site_occupancy
  Li  Li0  1  0.689316  0.689316  0.310684  1
  Dy  Dy1  1  0.321108  0.321108  0.678892  1
  Dy  Dy2  1  0.510018  0.510018  0.489982  1
  B  B3  1  0.670824  0.975143  0.024857  1
  B  B4  1  0.975143  0.670824  0.329176  1
  B  B5  1  0.324967  0.018881  0.981119  1
  B  B6  1  0.018881  0.324967  0.675033  1
  B  B7  1  0.168676  0.828780  0.171220  1
  B  B8  1  0.828780  0.168676  0.831324  1
  Ir  Ir9  1  0.585714  0.585714  0.914286  1
  Ir  Ir10  1  0.912282  0.912282  0.087718  1
  Ir  Ir11  1  0.414097  0.414097  0.085903  1
  Ir  Ir12  1  0.085714  0.085714  0.414286  1
  Ir  Ir13  1  0.914097  0.914097  0.585903  1
  Ir  Ir14  1  0.247543  0.247543  0.252457  1
  Ir  Ir15  1  0.085293  0.085293  0.914707  1
  Ir  Ir16  1  0.747543  0.747543  0.752457  1
