# generated using pymatgen
data_Pa2BeB10
_symmetry_space_group_name_H-M   'P 1'
_cell_length_a   4.09867400
_cell_length_b   5.49032800
_cell_length_c   10.88259300
_cell_angle_alpha   90.00000000
_cell_angle_beta   90.00000000
_cell_angle_gamma   90.00000000
_symmetry_Int_Tables_number   1
_chemical_formula_structural   Pa2BeB10
_chemical_formula_sum   'Pa4 Be2 B20'
_cell_volume   244.89169357
_cell_formula_units_Z   2
loop_
 _symmetry_equiv_pos_site_id
 _symmetry_equiv_pos_as_xyz
  1  'x, y, z'
loop_
 _atom_site_type_symbol
 _atom_site_label
 _atom_site_symmetry_multiplicity
 _atom_site_fract_x
 _atom_site_fract_y
 _atom_site_fract_z
 _atom_site_occupancy
  Pa  Pa0  1  0.500000  0.304158  0.865202  1
  Pa  Pa1  1  0.500000  0.695842  0.134798  1
  Pa  Pa2  1  0.500000  0.804158  0.634798  1
  Pa  Pa3  1  0.500000  0.195842  0.365202  1
  Be  Be4  1  0.000000  0.500000  0.500000  1
  Be  Be5  1  0.000000  0.000000  0.000000  1
  B  B6  1  0.000000  0.130339  0.536449  1
  B  B7  1  0.000000  0.869661  0.463551  1
  B  B8  1  0.000000  0.630339  0.963551  1
  B  B9  1  0.000000  0.369661  0.036449  1
  B  B10  1  0.000000  0.159894  0.697124  1
  B  B11  1  0.000000  0.840106  0.302876  1
  B  B12  1  0.301735  0.196690  0.110671  1
  B  B13  1  0.301735  0.803310  0.889329  1
  B  B14  1  0.698265  0.696690  0.389329  1
  B  B15  1  0.698265  0.303310  0.610671  1
  B  B16  1  0.698265  0.803310  0.889329  1
  B  B17  1  0.698265  0.196690  0.110671  1
  B  B18  1  0.301735  0.303310  0.610671  1
  B  B19  1  0.301735  0.696690  0.389329  1
  B  B20  1  0.000000  0.023944  0.185190  1
  B  B21  1  0.000000  0.976056  0.814810  1
  B  B22  1  0.000000  0.523944  0.314810  1
  B  B23  1  0.000000  0.476056  0.685190  1
  B  B24  1  0.000000  0.340106  0.197124  1
  B  B25  1  0.000000  0.659894  0.802876  1
