# generated using pymatgen
data_SrTl(AgTe2)2
_symmetry_space_group_name_H-M   'P 1'
_cell_length_a   12.48634635
_cell_length_b   12.48634649
_cell_length_c   12.48634700
_cell_angle_alpha   159.32919863
_cell_angle_beta   159.32920030
_cell_angle_gamma   29.39599771
_symmetry_Int_Tables_number   1
_chemical_formula_structural   SrTl(AgTe2)2
_chemical_formula_sum   'Sr1 Tl1 Ag2 Te4'
_cell_volume   242.44347335
_cell_formula_units_Z   1
loop_
 _symmetry_equiv_pos_site_id
 _symmetry_equiv_pos_as_xyz
  1  'x, y, z'
loop_
 _atom_site_type_symbol
 _atom_site_label
 _atom_site_symmetry_multiplicity
 _atom_site_fract_x
 _atom_site_fract_y
 _atom_site_fract_z
 _atom_site_occupancy
  Sr  Sr0  1  0.119702  0.119702  0.000000  1
  Tl  Tl1  1  0.880150  0.880150  0.000000  1
  Ag  Ag2  1  0.249058  0.749058  0.500000  1
  Ag  Ag3  1  0.749058  0.249058  0.500000  1
  Te  Te4  1  0.506557  0.006557  0.500000  1
  Te  Te5  1  0.006557  0.506557  0.500000  1
  Te  Te6  1  0.323275  0.323275  0.000000  1
  Te  Te7  1  0.665643  0.665643  0.000000  1
