# generated using pymatgen
data_Sc3Ta3OsRu5
_symmetry_space_group_name_H-M   'P 1'
_cell_length_a   4.49947002
_cell_length_b   6.35094003
_cell_length_c   13.61170100
_cell_angle_alpha   89.99975166
_cell_angle_beta   90.00058331
_cell_angle_gamma   89.98840146
_symmetry_Int_Tables_number   1
_chemical_formula_structural   Sc3Ta3OsRu5
_chemical_formula_sum   'Sc6 Ta6 Os2 Ru10'
_cell_volume   388.96611261
_cell_formula_units_Z   2
loop_
 _symmetry_equiv_pos_site_id
 _symmetry_equiv_pos_as_xyz
  1  'x, y, z'
loop_
 _atom_site_type_symbol
 _atom_site_label
 _atom_site_symmetry_multiplicity
 _atom_site_fract_x
 _atom_site_fract_y
 _atom_site_fract_z
 _atom_site_occupancy
  Sc  Sc0  1  0.000000  0.000000  0.000000  1
  Sc  Sc1  1  0.499875  0.499997  0.167617  1
  Sc  Sc2  1  0.999871  0.000002  0.333301  1
  Sc  Sc3  1  0.500000  0.500000  0.500000  1
  Sc  Sc4  1  0.000130  0.999998  0.666698  1
  Sc  Sc5  1  0.500126  0.500003  0.832383  1
  Ta  Ta6  1  0.000000  0.500000  0.000000  1
  Ta  Ta7  1  0.499881  0.999997  0.165930  1
  Ta  Ta8  1  0.999884  0.500000  0.333536  1
  Ta  Ta9  1  0.500000  0.000000  0.500000  1
  Ta  Ta10  1  0.000116  0.500000  0.666464  1
  Ta  Ta11  1  0.500118  0.000003  0.834069  1
  Os  Os12  1  0.500024  0.250194  0.999999  1
  Os  Os13  1  0.499976  0.749807  0.000001  1
  Ru  Ru14  1  0.999918  0.249510  0.167097  1
  Ru  Ru15  1  0.999903  0.750489  0.167098  1
  Ru  Ru16  1  0.499903  0.250550  0.333636  1
  Ru  Ru17  1  0.499891  0.749448  0.333637  1
  Ru  Ru18  1  0.999983  0.249570  0.500000  1
  Ru  Ru19  1  0.000017  0.750430  0.500000  1
  Ru  Ru20  1  0.500108  0.250551  0.666362  1
  Ru  Ru21  1  0.500096  0.749449  0.666363  1
  Ru  Ru22  1  0.000096  0.249511  0.832902  1
  Ru  Ru23  1  0.000081  0.750490  0.832903  1
