# generated using pymatgen
data_Eu3Zn22
_symmetry_space_group_name_H-M   'P 1'
_cell_length_a   12.52028908
_cell_length_b   9.01401897
_cell_length_c   9.01401900
_cell_angle_alpha   90.00000000
_cell_angle_beta   111.09875359
_cell_angle_gamma   111.09875257
_symmetry_Int_Tables_number   1
_chemical_formula_structural   Eu3Zn22
_chemical_formula_sum   'Eu6 Zn44'
_cell_volume   875.61198461
_cell_formula_units_Z   2
loop_
 _symmetry_equiv_pos_site_id
 _symmetry_equiv_pos_as_xyz
  1  'x, y, z'
loop_
 _atom_site_type_symbol
 _atom_site_label
 _atom_site_symmetry_multiplicity
 _atom_site_fract_x
 _atom_site_fract_y
 _atom_site_fract_z
 _atom_site_occupancy
  Eu  Eu0  1  0.508221  0.254110  0.004110  1
  Eu  Eu1  1  0.991780  0.495890  0.245890  1
  Eu  Eu2  1  0.250000  0.125000  0.375000  1
  Eu  Eu3  1  0.750000  0.875000  0.625000  1
  Eu  Eu4  1  0.008221  0.504110  0.754110  1
  Eu  Eu5  1  0.491779  0.745889  0.995889  1
  Zn  Zn6  1  0.000000  0.000000  0.000000  1
  Zn  Zn7  1  0.235952  0.117976  0.015731  1
  Zn  Zn8  1  0.122243  0.319079  0.078911  1
  Zn  Zn9  1  0.122243  0.803164  0.078911  1
  Zn  Zn10  1  0.248881  0.624441  0.096410  1
  Zn  Zn11  1  0.748881  0.152471  0.124441  1
  Zn  Zn12  1  0.748881  0.596410  0.124441  1
  Zn  Zn13  1  0.377757  0.421088  0.180921  1
  Zn  Zn14  1  0.377757  0.956669  0.180921  1
  Zn  Zn15  1  0.976412  0.141342  0.238206  1
  Zn  Zn16  1  0.976412  0.835070  0.238206  1
  Zn  Zn17  1  0.764048  0.882024  0.279779  1
  Zn  Zn18  1  0.622242  0.043330  0.303163  1
  Zn  Zn19  1  0.622242  0.578912  0.303163  1
  Zn  Zn20  1  0.476411  0.738205  0.335069  1
  Zn  Zn21  1  0.751119  0.375559  0.347529  1
  Zn  Zn22  1  0.523588  0.261795  0.358658  1
  Zn  Zn23  1  0.264048  0.484268  0.382024  1
  Zn  Zn24  1  0.264048  0.779779  0.382024  1
  Zn  Zn25  1  0.877758  0.196837  0.456669  1
  Zn  Zn26  1  0.877758  0.680921  0.456669  1
  Zn  Zn27  1  0.500000  0.000000  0.500000  1
  Zn  Zn28  1  0.500000  0.500000  0.500000  1
  Zn  Zn29  1  0.000000  0.000000  0.500000  1
  Zn  Zn30  1  0.122243  0.319079  0.543331  1
  Zn  Zn31  1  0.122243  0.803164  0.543331  1
  Zn  Zn32  1  0.735952  0.220221  0.617975  1
  Zn  Zn33  1  0.735952  0.515731  0.617975  1
  Zn  Zn34  1  0.476411  0.738205  0.641341  1
  Zn  Zn35  1  0.248881  0.624441  0.652472  1
  Zn  Zn36  1  0.523588  0.261795  0.664931  1
  Zn  Zn37  1  0.377757  0.421088  0.696836  1
  Zn  Zn38  1  0.377757  0.956669  0.696836  1
  Zn  Zn39  1  0.235952  0.117976  0.720222  1
  Zn  Zn40  1  0.023589  0.164931  0.761794  1
  Zn  Zn41  1  0.023589  0.858659  0.761794  1
  Zn  Zn42  1  0.622242  0.043330  0.819079  1
  Zn  Zn43  1  0.622242  0.578912  0.819079  1
  Zn  Zn44  1  0.251119  0.403590  0.875558  1
  Zn  Zn45  1  0.251119  0.847529  0.875558  1
  Zn  Zn46  1  0.751119  0.375559  0.903591  1
  Zn  Zn47  1  0.877758  0.196837  0.921089  1
  Zn  Zn48  1  0.877758  0.680921  0.921089  1
  Zn  Zn49  1  0.764048  0.882024  0.984270  1
