# generated using pymatgen
data_Pr2Mn2FeCo9P7
_symmetry_space_group_name_H-M   'P 1'
_cell_length_a   9.15755698
_cell_length_b   9.14926646
_cell_length_c   3.65160000
_cell_angle_alpha   90.00000000
_cell_angle_beta   90.00000000
_cell_angle_gamma   120.12243900
_symmetry_Int_Tables_number   1
_chemical_formula_structural   Pr2Mn2FeCo9P7
_chemical_formula_sum   'Pr2 Mn2 Fe1 Co9 P7'
_cell_volume   264.63214069
_cell_formula_units_Z   1
loop_
 _symmetry_equiv_pos_site_id
 _symmetry_equiv_pos_as_xyz
  1  'x, y, z'
loop_
 _atom_site_type_symbol
 _atom_site_label
 _atom_site_symmetry_multiplicity
 _atom_site_fract_x
 _atom_site_fract_y
 _atom_site_fract_z
 _atom_site_occupancy
  Pr  Pr0  1  0.330953  0.666135  0.000000  1
  Pr  Pr1  1  0.667164  0.334316  0.500000  1
  Mn  Mn2  1  0.217288  0.115084  0.500000  1
  Mn  Mn3  1  0.883413  0.098975  0.500000  1
  Fe  Fe4  1  0.904325  0.784142  0.500000  1
  Co  Co5  1  0.428773  0.371538  0.000000  1
  Co  Co6  1  0.629672  0.057994  0.000000  1
  Co  Co7  1  0.941921  0.572584  0.000000  1
  Co  Co8  1  0.154379  0.882353  0.000000  1
  Co  Co9  1  0.116554  0.269891  0.000000  1
  Co  Co10  1  0.726608  0.845488  0.000000  1
  Co  Co11  1  0.383979  0.951140  0.500000  1
  Co  Co12  1  0.048884  0.432527  0.500000  1
  Co  Co13  1  0.568861  0.617047  0.500000  1
  P  P14  1  0.406911  0.106088  0.000000  1
  P  P15  1  0.894630  0.301517  0.000000  1
  P  P16  1  0.703052  0.596517  0.000000  1
  P  P17  1  0.104259  0.710120  0.500000  1
  P  P18  1  0.291725  0.400398  0.500000  1
  P  P19  1  0.598634  0.890077  0.500000  1
  P  P20  1  0.998014  0.996070  0.000000  1
