# generated using pymatgen
data_Yb2Tm2Ir3RuO14
_symmetry_space_group_name_H-M   'P 1'
_cell_length_a   7.19972068
_cell_length_b   7.19043639
_cell_length_c   7.19043586
_cell_angle_alpha   60.02135123
_cell_angle_beta   60.18163404
_cell_angle_gamma   60.18163556
_symmetry_Int_Tables_number   1
_chemical_formula_structural   Yb2Tm2Ir3RuO14
_chemical_formula_sum   'Yb2 Tm2 Ir3 Ru1 O14'
_cell_volume   263.97840652
_cell_formula_units_Z   1
loop_
 _symmetry_equiv_pos_site_id
 _symmetry_equiv_pos_as_xyz
  1  'x, y, z'
loop_
 _atom_site_type_symbol
 _atom_site_label
 _atom_site_symmetry_multiplicity
 _atom_site_fract_x
 _atom_site_fract_y
 _atom_site_fract_z
 _atom_site_occupancy
  Yb  Yb0  1  0.125000  0.125000  0.625000  1
  Yb  Yb1  1  0.125000  0.625000  0.125000  1
  Tm  Tm2  1  0.125000  0.125000  0.125000  1
  Tm  Tm3  1  0.625000  0.125000  0.125000  1
  Ir  Ir4  1  0.625000  0.625000  0.625000  1
  Ir  Ir5  1  0.625000  0.125000  0.625000  1
  Ir  Ir6  1  0.625000  0.625000  0.125000  1
  Ru  Ru7  1  0.125000  0.625000  0.625000  1
  O  O8  1  0.548245  0.534581  0.959208  1
  O  O9  1  0.954639  0.538600  0.955973  1
  O  O10  1  0.295361  0.294027  0.711400  1
  O  O11  1  0.992285  0.007740  0.007740  1
  O  O12  1  0.297518  0.702322  0.702322  1
  O  O13  1  0.701755  0.715419  0.290792  1
  O  O14  1  0.710019  0.290760  0.290760  1
  O  O15  1  0.548245  0.959208  0.534581  1
  O  O16  1  0.701755  0.290792  0.715419  1
  O  O17  1  0.539981  0.959240  0.959240  1
  O  O18  1  0.954639  0.955973  0.538600  1
  O  O19  1  0.257715  0.242260  0.242260  1
  O  O20  1  0.295361  0.711400  0.294027  1
  O  O21  1  0.952482  0.547678  0.547678  1
