# generated using pymatgen
data_ErTm7Re(B8Ir)3
_symmetry_space_group_name_H-M   'P 1'
_cell_length_a   3.62704500
_cell_length_b   9.11155102
_cell_length_c   11.44468100
_cell_angle_alpha   90.13960166
_cell_angle_beta   90.00000000
_cell_angle_gamma   90.00000000
_symmetry_Int_Tables_number   1
_chemical_formula_structural   ErTm7Re(B8Ir)3
_chemical_formula_sum   'Er1 Tm7 Re1 B24 Ir3'
_cell_volume   378.22275877
_cell_formula_units_Z   1
loop_
 _symmetry_equiv_pos_site_id
 _symmetry_equiv_pos_as_xyz
  1  'x, y, z'
loop_
 _atom_site_type_symbol
 _atom_site_label
 _atom_site_symmetry_multiplicity
 _atom_site_fract_x
 _atom_site_fract_y
 _atom_site_fract_z
 _atom_site_occupancy
  Er  Er0  1  0.000000  0.320270  0.413818  1
  Tm  Tm1  1  0.000000  0.683969  0.590624  1
  Tm  Tm2  1  0.000000  0.820058  0.082414  1
  Tm  Tm3  1  0.000000  0.176234  0.912252  1
  Tm  Tm4  1  0.000000  0.943601  0.373279  1
  Tm  Tm5  1  0.000000  0.053649  0.626373  1
  Tm  Tm6  1  0.000000  0.443469  0.125979  1
  Tm  Tm7  1  0.000000  0.557385  0.874921  1
  Re  Re8  1  0.000000  0.862811  0.821587  1
  B  B9  1  0.500000  0.553721  0.434641  1
  B  B10  1  0.500000  0.447881  0.566366  1
  B  B11  1  0.500000  0.053329  0.065893  1
  B  B12  1  0.500000  0.947032  0.933781  1
  B  B13  1  0.500000  0.750567  0.420854  1
  B  B14  1  0.500000  0.250046  0.579070  1
  B  B15  1  0.500000  0.249275  0.078623  1
  B  B16  1  0.500000  0.751467  0.920210  1
  B  B17  1  0.500000  0.792599  0.264513  1
  B  B18  1  0.500000  0.207425  0.733913  1
  B  B19  1  0.500000  0.293216  0.235160  1
  B  B20  1  0.500000  0.707678  0.765826  1
  B  B21  1  0.500000  0.631093  0.183959  1
  B  B22  1  0.500000  0.368300  0.816129  1
  B  B23  1  0.500000  0.131731  0.315812  1
  B  B24  1  0.500000  0.868987  0.685079  1
  B  B25  1  0.500000  0.980887  0.212853  1
  B  B26  1  0.500000  0.018104  0.786585  1
  B  B27  1  0.500000  0.480811  0.287249  1
  B  B28  1  0.500000  0.518785  0.714098  1
  B  B29  1  0.500000  0.607439  0.030763  1
  B  B30  1  0.500000  0.390131  0.970393  1
  B  B31  1  0.500000  0.108372  0.469671  1
  B  B32  1  0.500000  0.892196  0.528567  1
  Ir  Ir33  1  0.000000  0.637385  0.322334  1
  Ir  Ir34  1  0.000000  0.362848  0.678123  1
  Ir  Ir35  1  0.000000  0.137251  0.178286  1
