# generated using pymatgen
data_Na5La(MoH9)3
_symmetry_space_group_name_H-M   'P 1'
_cell_length_a   9.43920800
_cell_length_b   9.16467315
_cell_length_c   5.22806800
_cell_angle_alpha   90.00000000
_cell_angle_beta   90.00000000
_cell_angle_gamma   119.04248441
_symmetry_Int_Tables_number   1
_chemical_formula_structural   Na5La(MoH9)3
_chemical_formula_sum   'Na5 La1 Mo3 H27'
_cell_volume   395.39790626
_cell_formula_units_Z   1
loop_
 _symmetry_equiv_pos_site_id
 _symmetry_equiv_pos_as_xyz
  1  'x, y, z'
loop_
 _atom_site_type_symbol
 _atom_site_label
 _atom_site_symmetry_multiplicity
 _atom_site_fract_x
 _atom_site_fract_y
 _atom_site_fract_z
 _atom_site_occupancy
  Na  Na0  1  0.731796  0.737510  0.500000  1
  Na  Na1  1  0.268204  0.005714  0.500000  1
  Na  Na2  1  0.000000  0.620475  0.000000  1
  Na  Na3  1  0.415037  0.413759  0.000000  1
  Na  Na4  1  0.584963  0.998722  0.000000  1
  La  La5  1  0.000000  0.255928  0.500000  1
  Mo  Mo6  1  0.686286  0.329221  0.500000  1
  Mo  Mo7  1  0.313714  0.642936  0.500000  1
  Mo  Mo8  1  0.000000  0.007677  0.000000  1
  H  H9  1  0.829468  0.340896  0.736697  1
  H  H10  1  0.684235  0.467675  0.730082  1
  H  H11  1  0.534181  0.194633  0.718242  1
  H  H12  1  0.170532  0.511429  0.263303  1
  H  H13  1  0.534181  0.194633  0.281758  1
  H  H14  1  0.829468  0.340896  0.263303  1
  H  H15  1  0.684235  0.467675  0.269918  1
  H  H16  1  0.315765  0.783440  0.730082  1
  H  H17  1  0.465819  0.660452  0.718242  1
  H  H18  1  0.179375  0.001656  0.000000  1
  H  H19  1  0.820625  0.822280  0.000000  1
  H  H20  1  0.000000  0.203559  0.000000  1
  H  H21  1  0.864699  0.000210  0.245056  1
  H  H22  1  0.135301  0.135511  0.754944  1
  H  H23  1  0.000000  0.865221  0.775991  1
  H  H24  1  0.000000  0.865221  0.224009  1
  H  H25  1  0.135301  0.135511  0.245056  1
  H  H26  1  0.864699  0.000210  0.754944  1
  H  H27  1  0.158359  0.695177  0.500000  1
  H  H28  1  0.469937  0.847879  0.500000  1
  H  H29  1  0.308480  0.446146  0.500000  1
  H  H30  1  0.530063  0.377942  0.500000  1
  H  H31  1  0.841641  0.536818  0.500000  1
  H  H32  1  0.691520  0.137666  0.500000  1
  H  H33  1  0.170532  0.511429  0.736697  1
  H  H34  1  0.315765  0.783440  0.269918  1
  H  H35  1  0.465819  0.660452  0.281758  1
