# generated using pymatgen
data_Ca12Ti12CrFe7O48
_symmetry_space_group_name_H-M   'P 1'
_cell_length_a   10.94785752
_cell_length_b   10.94156173
_cell_length_c   10.94156223
_cell_angle_alpha   109.45956760
_cell_angle_beta   109.48287803
_cell_angle_gamma   109.48287039
_symmetry_Int_Tables_number   1
_chemical_formula_structural   Ca12Ti12CrFe7O48
_chemical_formula_sum   'Ca12 Ti12 Cr1 Fe7 O48'
_cell_volume   1008.79610837
_cell_formula_units_Z   1
loop_
 _symmetry_equiv_pos_site_id
 _symmetry_equiv_pos_as_xyz
  1  'x, y, z'
loop_
 _atom_site_type_symbol
 _atom_site_label
 _atom_site_symmetry_multiplicity
 _atom_site_fract_x
 _atom_site_fract_y
 _atom_site_fract_z
 _atom_site_occupancy
  Ca  Ca0  1  0.250218  0.375128  0.124880  1
  Ca  Ca1  1  0.749782  0.624872  0.875120  1
  Ca  Ca2  1  0.750071  0.125025  0.375012  1
  Ca  Ca3  1  0.125046  0.249987  0.374975  1
  Ca  Ca4  1  0.375090  0.749752  0.124872  1
  Ca  Ca5  1  0.249929  0.874975  0.624988  1
  Ca  Ca6  1  0.874954  0.750013  0.625025  1
  Ca  Ca7  1  0.624910  0.250248  0.875128  1
  Ca  Ca8  1  0.375059  0.124988  0.250013  1
  Ca  Ca9  1  0.624941  0.875012  0.749987  1
  Ca  Ca10  1  0.125338  0.375120  0.750248  1
  Ca  Ca11  1  0.874662  0.624880  0.249752  1
  Ti  Ti12  1  0.249982  0.624968  0.375099  1
  Ti  Ti13  1  0.750018  0.375032  0.624901  1
  Ti  Ti14  1  0.749316  0.874240  0.124853  1
  Ti  Ti15  1  0.375075  0.250612  0.625760  1
  Ti  Ti16  1  0.624925  0.749388  0.374240  1
  Ti  Ti17  1  0.250684  0.125760  0.875147  1
  Ti  Ti18  1  0.125014  0.750130  0.875032  1
  Ti  Ti19  1  0.874986  0.249870  0.124968  1
  Ti  Ti20  1  0.624463  0.375147  0.249388  1
  Ti  Ti21  1  0.375537  0.624853  0.750612  1
  Ti  Ti22  1  0.874884  0.124901  0.749870  1
  Ti  Ti23  1  0.125116  0.875099  0.250130  1
  Cr  Cr24  1  0.500000  0.500000  0.000000  1
  Fe  Fe25  1  0.000000  0.000000  0.000000  1
  Fe  Fe26  1  0.500000  0.000000  0.500000  1
  Fe  Fe27  1  0.000000  0.500000  0.500000  1
  Fe  Fe28  1  0.500000  0.000000  0.000000  1
  Fe  Fe29  1  0.500000  0.500000  0.500000  1
  Fe  Fe30  1  0.000000  0.000000  0.500000  1
  Fe  Fe31  1  0.000000  0.500000  0.000000  1
  O  O32  1  0.481600  0.381542  0.299216  1
  O  O33  1  0.518400  0.618458  0.700784  1
  O  O34  1  0.582504  0.182772  0.200840  1
  O  O35  1  0.917538  0.118570  0.599955  1
  O  O36  1  0.298968  0.481384  0.381430  1
  O  O37  1  0.317556  0.917463  0.298950  1
  O  O38  1  0.417496  0.817228  0.799160  1
  O  O39  1  0.082462  0.881430  0.400045  1
  O  O40  1  0.701032  0.518616  0.618570  1
  O  O41  1  0.682444  0.082537  0.701050  1
  O  O42  1  0.018664  0.317469  0.900062  1
  O  O43  1  0.201195  0.582593  0.182531  1
  O  O44  1  0.118564  0.018605  0.201058  1
  O  O45  1  0.981336  0.682531  0.099938  1
  O  O46  1  0.798805  0.417407  0.817469  1
  O  O47  1  0.881436  0.981395  0.798942  1
  O  O48  1  0.600058  0.917675  0.118458  1
  O  O49  1  0.182868  0.481678  0.600421  1
  O  O50  1  0.399942  0.082325  0.881542  1
  O  O51  1  0.817132  0.518322  0.399579  1
  O  O52  1  0.899731  0.018068  0.317228  1
  O  O53  1  0.382506  0.581846  0.900504  1
  O  O54  1  0.100269  0.981932  0.682772  1
  O  O55  1  0.617494  0.418154  0.099496  1
  O  O56  1  0.381663  0.299160  0.481932  1
  O  O57  1  0.582447  0.899579  0.381257  1
  O  O58  1  0.618337  0.700840  0.518068  1
  O  O59  1  0.417553  0.100421  0.618743  1
  O  O60  1  0.118602  0.599938  0.917407  1
  O  O61  1  0.018606  0.201050  0.118513  1
  O  O62  1  0.881398  0.400062  0.082593  1
  O  O63  1  0.981394  0.798950  0.881487  1
  O  O64  1  0.317584  0.900045  0.018616  1
  O  O65  1  0.917506  0.298942  0.317547  1
  O  O66  1  0.682416  0.099955  0.981384  1
  O  O67  1  0.082494  0.701058  0.682453  1
  O  O68  1  0.182384  0.200784  0.582325  1
  O  O69  1  0.482002  0.599496  0.181343  1
  O  O70  1  0.817616  0.799216  0.417675  1
  O  O71  1  0.517998  0.400504  0.818657  1
  O  O72  1  0.300659  0.318657  0.918154  1
  O  O73  1  0.699341  0.681343  0.081846  1
  O  O74  1  0.201190  0.118743  0.018322  1
  O  O75  1  0.798810  0.881257  0.981678  1
  O  O76  1  0.900093  0.381487  0.582537  1
  O  O77  1  0.099907  0.618513  0.417463  1
  O  O78  1  0.599959  0.182453  0.481395  1
  O  O79  1  0.400041  0.817547  0.518605  1
