# generated using pymatgen
data_Li4Al8IrPt3
_symmetry_space_group_name_H-M   'P 1'
_cell_length_a   6.05967400
_cell_length_b   4.29197000
_cell_length_c   8.65834300
_cell_angle_alpha   90.00000000
_cell_angle_beta   90.00002269
_cell_angle_gamma   90.00000000
_symmetry_Int_Tables_number   1
_chemical_formula_structural   Li4Al8IrPt3
_chemical_formula_sum   'Li4 Al8 Ir1 Pt3'
_cell_volume   225.18565674
_cell_formula_units_Z   1
loop_
 _symmetry_equiv_pos_site_id
 _symmetry_equiv_pos_as_xyz
  1  'x, y, z'
loop_
 _atom_site_type_symbol
 _atom_site_label
 _atom_site_symmetry_multiplicity
 _atom_site_fract_x
 _atom_site_fract_y
 _atom_site_fract_z
 _atom_site_occupancy
  Li  Li0  1  0.250008  0.250001  0.123469  1
  Li  Li1  1  0.750008  0.750001  0.375217  1
  Li  Li2  1  0.249992  0.250001  0.626118  1
  Li  Li3  1  0.749993  0.750001  0.875215  1
  Al  Al4  1  0.004888  0.750001  0.121465  1
  Al  Al5  1  0.495109  0.750001  0.121472  1
  Al  Al6  1  0.998181  0.250001  0.374910  1
  Al  Al7  1  0.501824  0.250001  0.374916  1
  Al  Al8  1  0.495124  0.750001  0.628711  1
  Al  Al9  1  0.004871  0.750001  0.628719  1
  Al  Al10  1  0.496658  0.250001  0.874897  1
  Al  Al11  1  0.003342  0.250001  0.874903  1
  Ir  Ir12  1  0.250005  0.750001  0.875063  1
  Pt  Pt13  1  0.749994  0.250001  0.127381  1
  Pt  Pt14  1  0.249997  0.750001  0.375079  1
  Pt  Pt15  1  0.750004  0.250001  0.622465  1
