# generated using pymatgen
data_YbDy3B16Os3Ru
_symmetry_space_group_name_H-M   'P 1'
_cell_length_a   3.56227500
_cell_length_b   5.97616012
_cell_length_c   11.55061055
_cell_angle_alpha   89.96932273
_cell_angle_beta   90.00000000
_cell_angle_gamma   90.00000000
_symmetry_Int_Tables_number   1
_chemical_formula_structural   YbDy3B16Os3Ru
_chemical_formula_sum   'Yb1 Dy3 B16 Os3 Ru1'
_cell_volume   245.89774550
_cell_formula_units_Z   1
loop_
 _symmetry_equiv_pos_site_id
 _symmetry_equiv_pos_as_xyz
  1  'x, y, z'
loop_
 _atom_site_type_symbol
 _atom_site_label
 _atom_site_symmetry_multiplicity
 _atom_site_fract_x
 _atom_site_fract_y
 _atom_site_fract_z
 _atom_site_occupancy
  Yb  Yb0  1  0.500000  0.869957  0.649771  1
  Dy  Dy1  1  0.500000  0.627558  0.149685  1
  Dy  Dy2  1  0.500000  0.371594  0.849193  1
  Dy  Dy3  1  0.500000  0.128315  0.350694  1
  B  B4  1  0.000000  0.975708  0.191429  1
  B  B5  1  0.000000  0.024542  0.808174  1
  B  B6  1  0.000000  0.475034  0.308961  1
  B  B7  1  0.000000  0.525560  0.690949  1
  B  B8  1  0.000000  0.788953  0.314892  1
  B  B9  1  0.000000  0.210812  0.685092  1
  B  B10  1  0.000000  0.288734  0.185707  1
  B  B11  1  0.000000  0.712415  0.814105  1
  B  B12  1  0.000000  0.863516  0.470431  1
  B  B13  1  0.000000  0.136247  0.530398  1
  B  B14  1  0.000000  0.363217  0.030303  1
  B  B15  1  0.000000  0.636415  0.969504  1
  B  B16  1  0.000000  0.887602  0.046678  1
  B  B17  1  0.000000  0.111595  0.953054  1
  B  B18  1  0.000000  0.388293  0.454069  1
  B  B19  1  0.000000  0.614108  0.547261  1
  Os  Os20  1  0.500000  0.640470  0.407166  1
  Os  Os21  1  0.500000  0.359834  0.591657  1
  Os  Os22  1  0.500000  0.140282  0.092880  1
  Ru  Ru23  1  0.500000  0.859239  0.907946  1
