# generated using pymatgen
data_YbSn3Ru
_symmetry_space_group_name_H-M   'P 1'
_cell_length_a   9.75601800
_cell_length_b   9.75601800
_cell_length_c   9.75601800
_cell_angle_alpha   90.00000000
_cell_angle_beta   90.00000000
_cell_angle_gamma   90.00000000
_symmetry_Int_Tables_number   1
_chemical_formula_structural   YbSn3Ru
_chemical_formula_sum   'Yb8 Sn24 Ru8'
_cell_volume   928.57669292
_cell_formula_units_Z   8
loop_
 _symmetry_equiv_pos_site_id
 _symmetry_equiv_pos_as_xyz
  1  'x, y, z'
loop_
 _atom_site_type_symbol
 _atom_site_label
 _atom_site_symmetry_multiplicity
 _atom_site_fract_x
 _atom_site_fract_y
 _atom_site_fract_z
 _atom_site_occupancy
  Yb  Yb0  1  0.000000  0.000000  0.000000  1
  Yb  Yb1  1  0.500000  0.250000  0.000000  1
  Yb  Yb2  1  0.500000  0.750000  0.000000  1
  Yb  Yb3  1  0.000000  0.500000  0.250000  1
  Yb  Yb4  1  0.250000  0.000000  0.500000  1
  Yb  Yb5  1  0.750000  0.000000  0.500000  1
  Yb  Yb6  1  0.500000  0.500000  0.500000  1
  Yb  Yb7  1  0.000000  0.500000  0.750000  1
  Sn  Sn8  1  0.155419  0.314487  0.000000  1
  Sn  Sn9  1  0.844580  0.314487  0.000000  1
  Sn  Sn10  1  0.155419  0.685512  0.000000  1
  Sn  Sn11  1  0.844580  0.685512  0.000000  1
  Sn  Sn12  1  0.314487  0.000000  0.155419  1
  Sn  Sn13  1  0.685512  0.000000  0.155419  1
  Sn  Sn14  1  0.344581  0.500000  0.185513  1
  Sn  Sn15  1  0.655420  0.500000  0.185513  1
  Sn  Sn16  1  0.000000  0.155419  0.314487  1
  Sn  Sn17  1  0.000000  0.844580  0.314487  1
  Sn  Sn18  1  0.500000  0.185513  0.344581  1
  Sn  Sn19  1  0.500000  0.814488  0.344581  1
  Sn  Sn20  1  0.185513  0.344581  0.500000  1
  Sn  Sn21  1  0.814488  0.344581  0.500000  1
  Sn  Sn22  1  0.185513  0.655420  0.500000  1
  Sn  Sn23  1  0.814488  0.655420  0.500000  1
  Sn  Sn24  1  0.500000  0.185513  0.655420  1
  Sn  Sn25  1  0.500000  0.814488  0.655420  1
  Sn  Sn26  1  0.000000  0.155419  0.685512  1
  Sn  Sn27  1  0.000000  0.844580  0.685512  1
  Sn  Sn28  1  0.344581  0.500000  0.814488  1
  Sn  Sn29  1  0.655420  0.500000  0.814488  1
  Sn  Sn30  1  0.314487  0.000000  0.844580  1
  Sn  Sn31  1  0.685512  0.000000  0.844580  1
  Ru  Ru32  1  0.250000  0.250000  0.250000  1
  Ru  Ru33  1  0.750000  0.250000  0.250000  1
  Ru  Ru34  1  0.250000  0.750000  0.250000  1
  Ru  Ru35  1  0.750000  0.750000  0.250000  1
  Ru  Ru36  1  0.250000  0.250000  0.750000  1
  Ru  Ru37  1  0.750000  0.250000  0.750000  1
  Ru  Ru38  1  0.250000  0.750000  0.750000  1
  Ru  Ru39  1  0.750000  0.750000  0.750000  1
