# generated using pymatgen
data_Sm8Hf11ZrSn16
_symmetry_space_group_name_H-M   'P 1'
_cell_length_a   7.81986058
_cell_length_b   7.83986226
_cell_length_c   14.66275562
_cell_angle_alpha   89.99523362
_cell_angle_beta   89.96691438
_cell_angle_gamma   89.97102892
_symmetry_Int_Tables_number   1
_chemical_formula_structural   Sm8Hf11ZrSn16
_chemical_formula_sum   'Sm8 Hf11 Zr1 Sn16'
_cell_volume   898.92386279
_cell_formula_units_Z   1
loop_
 _symmetry_equiv_pos_site_id
 _symmetry_equiv_pos_as_xyz
  1  'x, y, z'
loop_
 _atom_site_type_symbol
 _atom_site_label
 _atom_site_symmetry_multiplicity
 _atom_site_fract_x
 _atom_site_fract_y
 _atom_site_fract_z
 _atom_site_occupancy
  Sm  Sm0  1  0.511794  0.324324  0.908265  1
  Sm  Sm1  1  0.011760  0.175686  0.591705  1
  Sm  Sm2  1  0.488236  0.675630  0.408239  1
  Sm  Sm3  1  0.988299  0.824458  0.091771  1
  Sm  Sm4  1  0.488244  0.675629  0.091831  1
  Sm  Sm5  1  0.988159  0.824373  0.408258  1
  Sm  Sm6  1  0.511812  0.324448  0.591677  1
  Sm  Sm7  1  0.011737  0.175677  0.908276  1
  Hf  Hf8  1  0.846776  0.661332  0.630878  1
  Hf  Hf9  1  0.653248  0.161313  0.369082  1
  Hf  Hf10  1  0.153224  0.338649  0.131017  1
  Hf  Hf11  1  0.653291  0.161274  0.130869  1
  Hf  Hf12  1  0.153250  0.338686  0.369093  1
  Hf  Hf13  1  0.346676  0.838757  0.630640  1
  Hf  Hf14  1  0.846720  0.661410  0.868967  1
  Hf  Hf15  1  0.167129  0.512285  0.749878  1
  Hf  Hf16  1  0.667587  0.987536  0.749872  1
  Hf  Hf17  1  0.832702  0.487461  0.250024  1
  Hf  Hf18  1  0.332788  0.012635  0.250064  1
  Zr  Zr19  1  0.346466  0.838636  0.869472  1
  Sn  Sn20  1  0.315781  0.043777  0.043925  1
  Sn  Sn21  1  0.815684  0.456471  0.456344  1
  Sn  Sn22  1  0.684278  0.956424  0.543647  1
  Sn  Sn23  1  0.183908  0.542804  0.956580  1
  Sn  Sn24  1  0.684794  0.956681  0.956536  1
  Sn  Sn25  1  0.184311  0.543499  0.543649  1
  Sn  Sn26  1  0.315686  0.043499  0.456332  1
  Sn  Sn27  1  0.815855  0.456547  0.043638  1
  Sn  Sn28  1  0.540684  0.616815  0.749757  1
  Sn  Sn29  1  0.040156  0.882976  0.749818  1
  Sn  Sn30  1  0.459540  0.382977  0.250042  1
  Sn  Sn31  1  0.959559  0.117052  0.250020  1
  Sn  Sn32  1  0.315364  0.155795  0.749830  1
  Sn  Sn33  1  0.815339  0.344513  0.750008  1
  Sn  Sn34  1  0.684553  0.844472  0.250011  1
  Sn  Sn35  1  0.184610  0.655499  0.249989  1
