# generated using pymatgen
data_Er4Zr4Ir3Rh
_symmetry_space_group_name_H-M   'P 1'
_cell_length_a   4.55926600
_cell_length_b   7.05873272
_cell_length_c   8.27046066
_cell_angle_alpha   90.14021172
_cell_angle_beta   90.00000000
_cell_angle_gamma   90.00000000
_symmetry_Int_Tables_number   1
_chemical_formula_structural   Er4Zr4Ir3Rh
_chemical_formula_sum   'Er4 Zr4 Ir3 Rh1'
_cell_volume   266.16446173
_cell_formula_units_Z   1
loop_
 _symmetry_equiv_pos_site_id
 _symmetry_equiv_pos_as_xyz
  1  'x, y, z'
loop_
 _atom_site_type_symbol
 _atom_site_label
 _atom_site_symmetry_multiplicity
 _atom_site_fract_x
 _atom_site_fract_y
 _atom_site_fract_z
 _atom_site_occupancy
  Er  Er0  1  0.250000  0.983326  0.324176  1
  Er  Er1  1  0.250000  0.483915  0.175477  1
  Er  Er2  1  0.750000  0.014070  0.674918  1
  Er  Er3  1  0.750000  0.519240  0.822739  1
  Zr  Zr4  1  0.250000  0.354809  0.574150  1
  Zr  Zr5  1  0.250000  0.856977  0.925699  1
  Zr  Zr6  1  0.750000  0.642963  0.424440  1
  Zr  Zr7  1  0.750000  0.145028  0.076565  1
  Ir  Ir8  1  0.250000  0.733479  0.594783  1
  Ir  Ir9  1  0.750000  0.766835  0.093569  1
  Ir  Ir10  1  0.750000  0.264427  0.406150  1
  Rh  Rh11  1  0.250000  0.234930  0.907334  1
