# generated using pymatgen
data_PrNd7(YSn3)2
_symmetry_space_group_name_H-M   'P 1'
_cell_length_a   9.24835793
_cell_length_b   9.24835786
_cell_length_c   6.79729001
_cell_angle_alpha   89.99773833
_cell_angle_beta   89.99773764
_cell_angle_gamma   120.05147049
_symmetry_Int_Tables_number   1
_chemical_formula_structural   PrNd7(YSn3)2
_chemical_formula_sum   'Pr1 Nd7 Y2 Sn6'
_cell_volume   503.23426535
_cell_formula_units_Z   1
loop_
 _symmetry_equiv_pos_site_id
 _symmetry_equiv_pos_as_xyz
  1  'x, y, z'
loop_
 _atom_site_type_symbol
 _atom_site_label
 _atom_site_symmetry_multiplicity
 _atom_site_fract_x
 _atom_site_fract_y
 _atom_site_fract_z
 _atom_site_occupancy
  Pr  Pr0  1  0.758876  0.758876  0.248699  1
  Nd  Nd1  1  0.000020  0.241518  0.248624  1
  Nd  Nd2  1  0.758536  0.000081  0.751386  1
  Nd  Nd3  1  0.333241  0.666660  0.500046  1
  Nd  Nd4  1  0.241518  0.000020  0.248624  1
  Nd  Nd5  1  0.666660  0.333241  0.500046  1
  Nd  Nd6  1  0.000081  0.758536  0.751386  1
  Nd  Nd7  1  0.241353  0.241353  0.751408  1
  Y  Y8  1  0.333249  0.666646  0.999936  1
  Y  Y9  1  0.666646  0.333249  0.999936  1
  Sn  Sn10  1  0.603074  0.603074  0.756753  1
  Sn  Sn11  1  0.396941  0.000039  0.756775  1
  Sn  Sn12  1  0.602849  0.000333  0.243208  1
  Sn  Sn13  1  0.000039  0.396941  0.756775  1
  Sn  Sn14  1  0.396586  0.396586  0.243193  1
  Sn  Sn15  1  0.000333  0.602849  0.243208  1
