# generated using pymatgen
data_HoErTm(Co3P2)3
_symmetry_space_group_name_H-M   'P 1'
_cell_length_a   3.67857200
_cell_length_b   10.48643000
_cell_length_c   12.12966400
_cell_angle_alpha   90.00000000
_cell_angle_beta   90.00000000
_cell_angle_gamma   90.00000000
_symmetry_Int_Tables_number   1
_chemical_formula_structural   HoErTm(Co3P2)3
_chemical_formula_sum   'Ho2 Er2 Tm2 Co18 P12'
_cell_volume   467.90285352
_cell_formula_units_Z   2
loop_
 _symmetry_equiv_pos_site_id
 _symmetry_equiv_pos_as_xyz
  1  'x, y, z'
loop_
 _atom_site_type_symbol
 _atom_site_label
 _atom_site_symmetry_multiplicity
 _atom_site_fract_x
 _atom_site_fract_y
 _atom_site_fract_z
 _atom_site_occupancy
  Ho  Ho0  1  0.750000  0.250000  0.477843  1
  Ho  Ho1  1  0.250000  0.750000  0.522574  1
  Er  Er2  1  0.750000  0.067539  0.205817  1
  Er  Er3  1  0.750000  0.432461  0.205817  1
  Tm  Tm4  1  0.250000  0.932198  0.794090  1
  Tm  Tm5  1  0.250000  0.567802  0.794090  1
  Co  Co6  1  0.250000  0.250000  0.840897  1
  Co  Co7  1  0.750000  0.750000  0.159159  1
  Co  Co8  1  0.250000  0.250000  0.296616  1
  Co  Co9  1  0.750000  0.750000  0.703470  1
  Co  Co10  1  0.750000  0.250000  0.013548  1
  Co  Co11  1  0.250000  0.750000  0.985471  1
  Co  Co12  1  0.250000  0.416991  0.005219  1
  Co  Co13  1  0.250000  0.083009  0.005219  1
  Co  Co14  1  0.750000  0.583459  0.994161  1
  Co  Co15  1  0.750000  0.916541  0.994161  1
  Co  Co16  1  0.250000  0.452609  0.569729  1
  Co  Co17  1  0.250000  0.047391  0.569729  1
  Co  Co18  1  0.750000  0.547506  0.430845  1
  Co  Co19  1  0.750000  0.952494  0.430845  1
  Co  Co20  1  0.250000  0.871134  0.290490  1
  Co  Co21  1  0.250000  0.628866  0.290490  1
  Co  Co22  1  0.750000  0.128568  0.709835  1
  Co  Co23  1  0.750000  0.371432  0.709835  1
  P  P24  1  0.250000  0.250000  0.117656  1
  P  P25  1  0.750000  0.750000  0.881586  1
  P  P26  1  0.250000  0.250000  0.655771  1
  P  P27  1  0.750000  0.750000  0.344519  1
  P  P28  1  0.250000  0.438943  0.383762  1
  P  P29  1  0.250000  0.061057  0.383762  1
  P  P30  1  0.750000  0.561169  0.616829  1
  P  P31  1  0.750000  0.938831  0.616829  1
  P  P32  1  0.250000  0.902565  0.107294  1
  P  P33  1  0.250000  0.597435  0.107294  1
  P  P34  1  0.750000  0.096670  0.892373  1
  P  P35  1  0.750000  0.403330  0.892373  1
