# generated using pymatgen
data_Ac3Er2(Sn5Ir2)2
_symmetry_space_group_name_H-M   'P 1'
_cell_length_a   14.32117800
_cell_length_b   14.32117800
_cell_length_c   4.70732800
_cell_angle_alpha   90.00000000
_cell_angle_beta   90.00000000
_cell_angle_gamma   90.00000000
_symmetry_Int_Tables_number   1
_chemical_formula_structural   Ac3Er2(Sn5Ir2)2
_chemical_formula_sum   'Ac6 Er4 Sn20 Ir8'
_cell_volume   965.45479925
_cell_formula_units_Z   2
loop_
 _symmetry_equiv_pos_site_id
 _symmetry_equiv_pos_as_xyz
  1  'x, y, z'
loop_
 _atom_site_type_symbol
 _atom_site_label
 _atom_site_symmetry_multiplicity
 _atom_site_fract_x
 _atom_site_fract_y
 _atom_site_fract_z
 _atom_site_occupancy
  Ac  Ac0  1  0.500000  0.500000  0.000000  1
  Ac  Ac1  1  0.000000  0.000000  0.000000  1
  Ac  Ac2  1  0.887085  0.387085  0.500000  1
  Ac  Ac3  1  0.112915  0.612915  0.500000  1
  Ac  Ac4  1  0.387085  0.112915  0.500000  1
  Ac  Ac5  1  0.612915  0.887085  0.500000  1
  Er  Er6  1  0.674609  0.174609  0.500000  1
  Er  Er7  1  0.325391  0.825391  0.500000  1
  Er  Er8  1  0.174609  0.325391  0.500000  1
  Er  Er9  1  0.825391  0.674609  0.500000  1
  Sn  Sn10  1  0.571107  0.071107  0.000000  1
  Sn  Sn11  1  0.428893  0.928893  0.000000  1
  Sn  Sn12  1  0.071107  0.428893  0.000000  1
  Sn  Sn13  1  0.928893  0.571107  0.000000  1
  Sn  Sn14  1  0.655899  0.697903  0.000000  1
  Sn  Sn15  1  0.344101  0.302097  0.000000  1
  Sn  Sn16  1  0.155899  0.802097  0.000000  1
  Sn  Sn17  1  0.844101  0.197903  0.000000  1
  Sn  Sn18  1  0.302097  0.655899  0.000000  1
  Sn  Sn19  1  0.697903  0.344101  0.000000  1
  Sn  Sn20  1  0.197903  0.155899  0.000000  1
  Sn  Sn21  1  0.802097  0.844101  0.000000  1
  Sn  Sn22  1  0.665691  0.509674  0.500000  1
  Sn  Sn23  1  0.334309  0.490326  0.500000  1
  Sn  Sn24  1  0.165691  0.990326  0.500000  1
  Sn  Sn25  1  0.834309  0.009674  0.500000  1
  Sn  Sn26  1  0.490326  0.665691  0.500000  1
  Sn  Sn27  1  0.509674  0.334309  0.500000  1
  Sn  Sn28  1  0.009674  0.165691  0.500000  1
  Sn  Sn29  1  0.990326  0.834309  0.500000  1
  Ir  Ir30  1  0.747222  0.530205  0.000000  1
  Ir  Ir31  1  0.252778  0.469795  0.000000  1
  Ir  Ir32  1  0.247222  0.969795  0.000000  1
  Ir  Ir33  1  0.752778  0.030205  0.000000  1
  Ir  Ir34  1  0.469795  0.747222  0.000000  1
  Ir  Ir35  1  0.530205  0.252778  0.000000  1
  Ir  Ir36  1  0.030205  0.247222  0.000000  1
  Ir  Ir37  1  0.969795  0.752778  0.000000  1
