# generated using pymatgen
data_ZrBiF7
_symmetry_space_group_name_H-M   'P 1'
_cell_length_a   5.86540000
_cell_length_b   6.29905559
_cell_length_c   8.50456663
_cell_angle_alpha   77.88103531
_cell_angle_beta   90.00000000
_cell_angle_gamma   90.00000000
_symmetry_Int_Tables_number   1
_chemical_formula_structural   ZrBiF7
_chemical_formula_sum   'Zr2 Bi2 F14'
_cell_volume   307.21117472
_cell_formula_units_Z   2
loop_
 _symmetry_equiv_pos_site_id
 _symmetry_equiv_pos_as_xyz
  1  'x, y, z'
loop_
 _atom_site_type_symbol
 _atom_site_label
 _atom_site_symmetry_multiplicity
 _atom_site_fract_x
 _atom_site_fract_y
 _atom_site_fract_z
 _atom_site_occupancy
  Zr  Zr0  1  0.750824  0.310674  0.276499  1
  Zr  Zr1  1  0.250824  0.689326  0.723501  1
  Bi  Bi2  1  0.237972  0.842914  0.183561  1
  Bi  Bi3  1  0.737972  0.157086  0.816439  1
  F  F4  1  0.476046  0.437109  0.731386  1
  F  F5  1  0.035211  0.944135  0.712435  1
  F  F6  1  0.999262  0.460647  0.741818  1
  F  F7  1  0.034906  0.115873  0.283079  1
  F  F8  1  0.976046  0.562891  0.268614  1
  F  F9  1  0.426714  0.053886  0.973794  1
  F  F10  1  0.926714  0.946114  0.026206  1
  F  F11  1  0.246194  0.742557  0.480493  1
  F  F12  1  0.534906  0.884127  0.716921  1
  F  F13  1  0.535211  0.055865  0.287565  1
  F  F14  1  0.499262  0.539353  0.258182  1
  F  F15  1  0.746194  0.257443  0.519507  1
  F  F16  1  0.752673  0.356537  0.029394  1
  F  F17  1  0.252673  0.643463  0.970606  1
