# generated using pymatgen
data_Dy3YErBi3
_symmetry_space_group_name_H-M   'P 1'
_cell_length_a   8.25818400
_cell_length_b   9.51949700
_cell_length_c   12.06940000
_cell_angle_alpha   90.00000000
_cell_angle_beta   90.00000000
_cell_angle_gamma   90.00000000
_symmetry_Int_Tables_number   1
_chemical_formula_structural   Dy3YErBi3
_chemical_formula_sum   'Dy12 Y4 Er4 Bi12'
_cell_volume   948.82088855
_cell_formula_units_Z   4
loop_
 _symmetry_equiv_pos_site_id
 _symmetry_equiv_pos_as_xyz
  1  'x, y, z'
loop_
 _atom_site_type_symbol
 _atom_site_label
 _atom_site_symmetry_multiplicity
 _atom_site_fract_x
 _atom_site_fract_y
 _atom_site_fract_z
 _atom_site_occupancy
  Dy  Dy0  1  0.186423  0.750000  0.718886  1
  Dy  Dy1  1  0.686423  0.750000  0.781114  1
  Dy  Dy2  1  0.813577  0.250000  0.281114  1
  Dy  Dy3  1  0.313577  0.250000  0.218886  1
  Dy  Dy4  1  0.306163  0.436664  0.940245  1
  Dy  Dy5  1  0.806163  0.063336  0.559755  1
  Dy  Dy6  1  0.693837  0.936664  0.059755  1
  Dy  Dy7  1  0.193837  0.563336  0.440245  1
  Dy  Dy8  1  0.693837  0.563336  0.059755  1
  Dy  Dy9  1  0.193837  0.936664  0.440245  1
  Dy  Dy10  1  0.306163  0.063336  0.940245  1
  Dy  Dy11  1  0.806163  0.436664  0.559755  1
  Y  Y12  1  0.354093  0.750000  0.215196  1
  Y  Y13  1  0.854093  0.750000  0.284804  1
  Y  Y14  1  0.645907  0.250000  0.784804  1
  Y  Y15  1  0.145907  0.250000  0.715196  1
  Er  Er16  1  0.026017  0.750000  0.988543  1
  Er  Er17  1  0.526017  0.750000  0.511457  1
  Er  Er18  1  0.973983  0.250000  0.011457  1
  Er  Er19  1  0.473983  0.250000  0.488543  1
  Bi  Bi20  1  0.433652  0.003601  0.673615  1
  Bi  Bi21  1  0.933652  0.496399  0.826385  1
  Bi  Bi22  1  0.566348  0.503601  0.326385  1
  Bi  Bi23  1  0.066348  0.996399  0.173615  1
  Bi  Bi24  1  0.566348  0.996399  0.326385  1
  Bi  Bi25  1  0.066348  0.503601  0.173615  1
  Bi  Bi26  1  0.433652  0.496399  0.673615  1
  Bi  Bi27  1  0.933652  0.003601  0.826385  1
  Bi  Bi28  1  0.409162  0.750000  0.957843  1
  Bi  Bi29  1  0.909162  0.750000  0.542157  1
  Bi  Bi30  1  0.590838  0.250000  0.042157  1
  Bi  Bi31  1  0.090838  0.250000  0.457843  1
