# generated using pymatgen
data_Dy2Tm4MgCo17P12
_symmetry_space_group_name_H-M   'P 1'
_cell_length_a   3.68507000
_cell_length_b   10.50469600
_cell_length_c   12.15443300
_cell_angle_alpha   90.00000000
_cell_angle_beta   90.00000000
_cell_angle_gamma   90.00000000
_symmetry_Int_Tables_number   1
_chemical_formula_structural   Dy2Tm4MgCo17P12
_chemical_formula_sum   'Dy2 Tm4 Mg1 Co17 P12'
_cell_volume   470.50466590
_cell_formula_units_Z   1
loop_
 _symmetry_equiv_pos_site_id
 _symmetry_equiv_pos_as_xyz
  1  'x, y, z'
loop_
 _atom_site_type_symbol
 _atom_site_label
 _atom_site_symmetry_multiplicity
 _atom_site_fract_x
 _atom_site_fract_y
 _atom_site_fract_z
 _atom_site_occupancy
  Dy  Dy0  1  0.000000  0.500000  0.526032  1
  Dy  Dy1  1  0.500000  0.000000  0.477528  1
  Tm  Tm2  1  0.500000  0.822331  0.207270  1
  Tm  Tm3  1  0.500000  0.177669  0.207270  1
  Tm  Tm4  1  0.000000  0.682373  0.794586  1
  Tm  Tm5  1  0.000000  0.317627  0.794586  1
  Mg  Mg6  1  0.500000  0.500000  0.153689  1
  Co  Co7  1  0.000000  0.000000  0.838189  1
  Co  Co8  1  0.500000  0.500000  0.705561  1
  Co  Co9  1  0.000000  0.000000  0.295078  1
  Co  Co10  1  0.000000  0.500000  0.986231  1
  Co  Co11  1  0.500000  0.000000  0.012246  1
  Co  Co12  1  0.500000  0.328971  0.992918  1
  Co  Co13  1  0.500000  0.671029  0.992918  1
  Co  Co14  1  0.000000  0.163355  0.001594  1
  Co  Co15  1  0.000000  0.836645  0.001594  1
  Co  Co16  1  0.500000  0.295583  0.432904  1
  Co  Co17  1  0.500000  0.704417  0.432904  1
  Co  Co18  1  0.000000  0.202277  0.570732  1
  Co  Co19  1  0.000000  0.797723  0.570732  1
  Co  Co20  1  0.500000  0.879441  0.708755  1
  Co  Co21  1  0.500000  0.120559  0.708755  1
  Co  Co22  1  0.000000  0.623573  0.292619  1
  Co  Co23  1  0.000000  0.376427  0.292619  1
  P  P24  1  0.500000  0.500000  0.883223  1
  P  P25  1  0.000000  0.000000  0.116582  1
  P  P26  1  0.500000  0.500000  0.354360  1
  P  P27  1  0.000000  0.000000  0.654368  1
  P  P28  1  0.500000  0.310060  0.618334  1
  P  P29  1  0.500000  0.689940  0.618334  1
  P  P30  1  0.000000  0.188655  0.384839  1
  P  P31  1  0.000000  0.811345  0.384839  1
  P  P32  1  0.500000  0.848880  0.889262  1
  P  P33  1  0.500000  0.151120  0.889262  1
  P  P34  1  0.000000  0.663834  0.104644  1
  P  P35  1  0.000000  0.336166  0.104644  1
