# generated using pymatgen
data_Zr2Co10Si7Mo2
_symmetry_space_group_name_H-M   'P 1'
_cell_length_a   9.17720386
_cell_length_b   9.17993589
_cell_length_c   3.64343200
_cell_angle_alpha   90.00000000
_cell_angle_beta   90.00000000
_cell_angle_gamma   120.26154142
_symmetry_Int_Tables_number   1
_chemical_formula_structural   Zr2Co10Si7Mo2
_chemical_formula_sum   'Zr2 Co10 Si7 Mo2'
_cell_volume   265.11891649
_cell_formula_units_Z   1
loop_
 _symmetry_equiv_pos_site_id
 _symmetry_equiv_pos_as_xyz
  1  'x, y, z'
loop_
 _atom_site_type_symbol
 _atom_site_label
 _atom_site_symmetry_multiplicity
 _atom_site_fract_x
 _atom_site_fract_y
 _atom_site_fract_z
 _atom_site_occupancy
  Zr  Zr0  1  0.996261  0.997855  0.000000  1
  Zr  Zr1  1  0.333324  0.667342  0.500000  1
  Co  Co2  1  0.293504  0.390793  0.000000  1
  Co  Co3  1  0.101183  0.706926  0.000000  1
  Co  Co4  1  0.379404  0.171012  0.000000  1
  Co  Co5  1  0.790288  0.617600  0.000000  1
  Co  Co6  1  0.823730  0.208099  0.000000  1
  Co  Co7  1  0.233847  0.947953  0.500000  1
  Co  Co8  1  0.049834  0.279758  0.500000  1
  Co  Co9  1  0.720767  0.775187  0.500000  1
  Co  Co10  1  0.567406  0.109897  0.500000  1
  Co  Co11  1  0.610946  0.907457  0.000000  1
  Si  Si12  1  0.657858  0.320244  0.000000  1
  Si  Si13  1  0.086113  0.449197  0.000000  1
  Si  Si14  1  0.251172  0.208285  0.500000  1
  Si  Si15  1  0.783448  0.045409  0.500000  1
  Si  Si16  1  0.960675  0.747734  0.500000  1
  Si  Si17  1  0.550990  0.637737  0.000000  1
  Si  Si18  1  0.374205  0.924965  0.000000  1
  Mo  Mo19  1  0.884789  0.447323  0.500000  1
  Mo  Mo20  1  0.550253  0.439229  0.500000  1
