# generated using pymatgen
data_SmTaN2
_symmetry_space_group_name_H-M   'P 1'
_cell_length_a   3.33224500
_cell_length_b   5.75615600
_cell_length_c   11.03537600
_cell_angle_alpha   90.00000000
_cell_angle_beta   90.00000000
_cell_angle_gamma   90.00000000
_symmetry_Int_Tables_number   1
_chemical_formula_structural   SmTaN2
_chemical_formula_sum   'Sm4 Ta4 N8'
_cell_volume   211.66868685
_cell_formula_units_Z   4
loop_
 _symmetry_equiv_pos_site_id
 _symmetry_equiv_pos_as_xyz
  1  'x, y, z'
loop_
 _atom_site_type_symbol
 _atom_site_label
 _atom_site_symmetry_multiplicity
 _atom_site_fract_x
 _atom_site_fract_y
 _atom_site_fract_z
 _atom_site_occupancy
  Sm  Sm0  1  0.250000  0.586579  0.862861  1
  Sm  Sm1  1  0.750000  0.413421  0.137139  1
  Sm  Sm2  1  0.750000  0.913421  0.362861  1
  Sm  Sm3  1  0.250000  0.086579  0.637139  1
  Ta  Ta4  1  0.250000  0.918147  0.111302  1
  Ta  Ta5  1  0.750000  0.081853  0.888698  1
  Ta  Ta6  1  0.750000  0.581853  0.611302  1
  Ta  Ta7  1  0.250000  0.418147  0.388698  1
  N  N8  1  0.250000  0.662738  0.245785  1
  N  N9  1  0.750000  0.337262  0.754215  1
  N  N10  1  0.750000  0.837262  0.745785  1
  N  N11  1  0.250000  0.162738  0.254215  1
  N  N12  1  0.250000  0.730203  0.510648  1
  N  N13  1  0.750000  0.269797  0.489352  1
  N  N14  1  0.750000  0.769797  0.010648  1
  N  N15  1  0.250000  0.230203  0.989352  1
