# generated using pymatgen
data_CoMo2(PO4)3
_symmetry_space_group_name_H-M   'P 1'
_cell_length_a   8.70866500
_cell_length_b   8.71836700
_cell_length_c   9.00841425
_cell_angle_alpha   91.58466620
_cell_angle_beta   118.68798120
_cell_angle_gamma   117.84800823
_symmetry_Int_Tables_number   1
_chemical_formula_structural   CoMo2(PO4)3
_chemical_formula_sum   'Co2 Mo4 P6 O24'
_cell_volume   501.76641785
_cell_formula_units_Z   2
loop_
 _symmetry_equiv_pos_site_id
 _symmetry_equiv_pos_as_xyz
  1  'x, y, z'
loop_
 _atom_site_type_symbol
 _atom_site_label
 _atom_site_symmetry_multiplicity
 _atom_site_fract_x
 _atom_site_fract_y
 _atom_site_fract_z
 _atom_site_occupancy
  Co  Co0  1  0.346724  0.832295  0.559511  1
  Co  Co1  1  0.653276  0.167705  0.440489  1
  Mo  Mo2  1  0.799974  0.138974  0.927323  1
  Mo  Mo3  1  0.791558  0.646070  0.432143  1
  Mo  Mo4  1  0.208442  0.353930  0.567857  1
  Mo  Mo5  1  0.200026  0.861026  0.072677  1
  P  P6  1  0.992511  0.456743  0.742678  1
  P  P7  1  0.293117  0.266339  0.245335  1
  P  P8  1  0.718624  0.974779  0.254407  1
  P  P9  1  0.281376  0.025221  0.745593  1
  P  P10  1  0.007489  0.543257  0.257322  1
  P  P11  1  0.706883  0.733661  0.754665  1
  O  O12  1  0.371763  0.131137  0.271624  1
  O  O13  1  0.832529  0.458056  0.556222  1
  O  O14  1  0.073140  0.603118  0.900345  1
  O  O15  1  0.841092  0.254612  0.725551  1
  O  O16  1  0.628237  0.868863  0.728376  1
  O  O17  1  0.167471  0.541944  0.443778  1
  O  O18  1  0.926860  0.396882  0.099655  1
  O  O19  1  0.158908  0.745388  0.274449  1
  O  O20  1  0.483189  0.072531  0.752679  1
  O  O21  1  0.894527  0.804647  0.945792  1
  O  O22  1  0.824509  0.527871  0.260393  1
  O  O23  1  0.122860  0.834458  0.588333  1
  O  O24  1  0.529596  0.540526  0.712097  1
  O  O25  1  0.221293  0.255105  0.375538  1
  O  O26  1  0.293259  0.007616  0.915823  1
  O  O27  1  0.230032  0.168030  0.688526  1
  O  O28  1  0.769968  0.831970  0.311474  1
  O  O29  1  0.706741  0.992384  0.084177  1
  O  O30  1  0.778707  0.744895  0.624462  1
  O  O31  1  0.470404  0.459474  0.287903  1
  O  O32  1  0.877140  0.165542  0.411667  1
  O  O33  1  0.175491  0.472129  0.739607  1
  O  O34  1  0.105473  0.195353  0.054208  1
  O  O35  1  0.516811  0.927469  0.247321  1
