# generated using pymatgen
data_Hf5Al16GaIr3Pt4
_symmetry_space_group_name_H-M   'P 1'
_cell_length_a   8.70987307
_cell_length_b   8.77046894
_cell_length_c   8.77746304
_cell_angle_alpha   59.51728318
_cell_angle_beta   60.20141891
_cell_angle_gamma   60.28129233
_symmetry_Int_Tables_number   1
_chemical_formula_structural   Hf5Al16GaIr3Pt4
_chemical_formula_sum   'Hf5 Al16 Ga1 Ir3 Pt4'
_cell_volume   474.06968801
_cell_formula_units_Z   1
loop_
 _symmetry_equiv_pos_site_id
 _symmetry_equiv_pos_as_xyz
  1  'x, y, z'
loop_
 _atom_site_type_symbol
 _atom_site_label
 _atom_site_symmetry_multiplicity
 _atom_site_fract_x
 _atom_site_fract_y
 _atom_site_fract_z
 _atom_site_occupancy
  Hf  Hf0  1  0.322394  0.677606  0.677606  1
  Hf  Hf1  1  0.289604  0.710396  0.295996  1
  Hf  Hf2  1  0.704004  0.295996  0.710396  1
  Hf  Hf3  1  0.289975  0.291834  0.710025  1
  Hf  Hf4  1  0.708166  0.710025  0.291834  1
  Al  Al5  1  0.378761  0.339351  0.334784  1
  Al  Al6  1  0.674423  0.654050  0.654243  1
  Al  Al7  1  0.345950  0.325577  0.982715  1
  Al  Al8  1  0.345757  0.982715  0.325577  1
  Al  Al9  1  0.660649  0.621239  0.052896  1
  Al  Al10  1  0.665216  0.052896  0.621239  1
  Al  Al11  1  0.947104  0.334784  0.339351  1
  Al  Al12  1  0.017285  0.654243  0.654050  1
  Al  Al13  1  0.109867  0.118360  0.123443  1
  Al  Al14  1  0.887117  0.874437  0.866948  1
  Al  Al15  1  0.125563  0.112883  0.628503  1
  Al  Al16  1  0.133052  0.628503  0.112883  1
  Al  Al17  1  0.881640  0.890133  0.351670  1
  Al  Al18  1  0.876557  0.351670  0.890133  1
  Al  Al19  1  0.648330  0.123443  0.118360  1
  Al  Al20  1  0.371497  0.866948  0.874437  1
  Ga  Ga21  1  0.552983  0.447017  0.447017  1
  Ir  Ir22  1  0.013008  0.986992  0.496113  1
  Ir  Ir23  1  0.503887  0.496113  0.986992  1
  Ir  Ir24  1  0.008935  0.991065  0.991065  1
  Pt  Pt25  1  0.512757  0.987243  0.987243  1
  Pt  Pt26  1  0.012757  0.487243  0.487243  1
  Pt  Pt27  1  0.010137  0.497378  0.989863  1
  Pt  Pt28  1  0.502622  0.989863  0.497378  1
