# generated using pymatgen
data_Sc3Ga3Ru2Au
_symmetry_space_group_name_H-M   'P 1'
_cell_length_a   7.46001800
_cell_length_b   7.46001741
_cell_length_c   3.25493600
_cell_angle_alpha   90.00000000
_cell_angle_beta   90.00000000
_cell_angle_gamma   119.99999374
_symmetry_Int_Tables_number   1
_chemical_formula_structural   Sc3Ga3Ru2Au
_chemical_formula_sum   'Sc3 Ga3 Ru2 Au1'
_cell_volume   156.87467148
_cell_formula_units_Z   1
loop_
 _symmetry_equiv_pos_site_id
 _symmetry_equiv_pos_as_xyz
  1  'x, y, z'
loop_
 _atom_site_type_symbol
 _atom_site_label
 _atom_site_symmetry_multiplicity
 _atom_site_fract_x
 _atom_site_fract_y
 _atom_site_fract_z
 _atom_site_occupancy
  Sc  Sc0  1  0.373080  0.979172  0.500000  1
  Sc  Sc1  1  0.020828  0.393907  0.500000  1
  Sc  Sc2  1  0.606093  0.626920  0.500000  1
  Ga  Ga3  1  0.720008  0.992683  0.000000  1
  Ga  Ga4  1  0.272676  0.279993  0.000000  1
  Ga  Ga5  1  0.007317  0.727325  0.000000  1
  Ru  Ru6  1  0.333333  0.666666  0.000000  1
  Ru  Ru7  1  0.000000  0.000000  0.500000  1
  Au  Au8  1  0.666667  0.333333  0.000000  1
