# generated using pymatgen
data_Ho16CdHg3(IrPt)2
_symmetry_space_group_name_H-M   'P 1'
_cell_length_a   9.58477496
_cell_length_b   9.59335412
_cell_length_c   9.56001100
_cell_angle_alpha   60.11491049
_cell_angle_beta   60.08543404
_cell_angle_gamma   60.30102721
_symmetry_Int_Tables_number   1
_chemical_formula_structural   Ho16CdHg3(IrPt)2
_chemical_formula_sum   'Ho16 Cd1 Hg3 Ir2 Pt2'
_cell_volume   623.92578712
_cell_formula_units_Z   1
loop_
 _symmetry_equiv_pos_site_id
 _symmetry_equiv_pos_as_xyz
  1  'x, y, z'
loop_
 _atom_site_type_symbol
 _atom_site_label
 _atom_site_symmetry_multiplicity
 _atom_site_fract_x
 _atom_site_fract_y
 _atom_site_fract_z
 _atom_site_occupancy
  Ho  Ho0  1  0.602098  0.601646  0.597385  1
  Ho  Ho1  1  0.602098  0.601646  0.198872  1
  Ho  Ho2  1  0.608347  0.189148  0.601253  1
  Ho  Ho3  1  0.186699  0.608636  0.602332  1
  Ho  Ho4  1  0.056149  0.440991  0.441219  1
  Ho  Ho5  1  0.440057  0.056827  0.062261  1
  Ho  Ho6  1  0.440057  0.056827  0.440856  1
  Ho  Ho7  1  0.056149  0.440991  0.061642  1
  Ho  Ho8  1  0.441041  0.441619  0.058670  1
  Ho  Ho9  1  0.060697  0.060668  0.439318  1
  Ho  Ho10  1  0.187206  0.814424  0.811506  1
  Ho  Ho11  1  0.813590  0.188625  0.186522  1
  Ho  Ho12  1  0.813590  0.188625  0.811263  1
  Ho  Ho13  1  0.187206  0.814424  0.186863  1
  Ho  Ho14  1  0.812530  0.813349  0.187061  1
  Ho  Ho15  1  0.186573  0.188489  0.812469  1
  Cd  Cd16  1  0.506988  0.830051  0.831480  1
  Hg  Hg17  1  0.833999  0.835703  0.836562  1
  Hg  Hg18  1  0.833999  0.835703  0.493735  1
  Hg  Hg19  1  0.833600  0.493399  0.836500  1
  Ir  Ir20  1  0.390303  0.822903  0.393398  1
  Ir  Ir21  1  0.823030  0.390646  0.393163  1
  Pt  Pt22  1  0.391999  0.392331  0.395720  1
  Pt  Pt23  1  0.391999  0.392331  0.819951  1
