# generated using pymatgen
data_Ce7NdSi15Ge
_symmetry_space_group_name_H-M   'P 1'
_cell_length_a   8.15975700
_cell_length_b   8.17278960
_cell_length_c   8.30835100
_cell_angle_alpha   89.91524939
_cell_angle_beta   90.00000000
_cell_angle_gamma   119.94726800
_symmetry_Int_Tables_number   1
_chemical_formula_structural   Ce7NdSi15Ge
_chemical_formula_sum   'Ce7 Nd1 Si15 Ge1'
_cell_volume   480.09026709
_cell_formula_units_Z   1
loop_
 _symmetry_equiv_pos_site_id
 _symmetry_equiv_pos_as_xyz
  1  'x, y, z'
loop_
 _atom_site_type_symbol
 _atom_site_label
 _atom_site_symmetry_multiplicity
 _atom_site_fract_x
 _atom_site_fract_y
 _atom_site_fract_z
 _atom_site_occupancy
  Ce  Ce0  1  0.999827  0.999653  0.749397  1
  Ce  Ce1  1  0.999978  0.999956  0.250879  1
  Ce  Ce2  1  0.500719  0.499211  0.748102  1
  Ce  Ce3  1  0.500651  0.001303  0.748404  1
  Ce  Ce4  1  0.998490  0.499211  0.748102  1
  Ce  Ce5  1  0.501051  0.499081  0.251929  1
  Ce  Ce6  1  0.998031  0.499081  0.251929  1
  Nd  Nd7  1  0.501480  0.002958  0.251361  1
  Si  Si8  1  0.667530  0.335061  0.998732  1
  Si  Si9  1  0.667336  0.334671  0.501569  1
  Si  Si10  1  0.332721  0.665442  0.499821  1
  Si  Si11  1  0.832944  0.168333  0.998558  1
  Si  Si12  1  0.832145  0.664288  0.000322  1
  Si  Si13  1  0.335388  0.168333  0.998558  1
  Si  Si14  1  0.834382  0.167314  0.501051  1
  Si  Si15  1  0.832973  0.665947  0.499386  1
  Si  Si16  1  0.332931  0.167314  0.501051  1
  Si  Si17  1  0.165148  0.833111  0.500918  1
  Si  Si18  1  0.667963  0.833111  0.500918  1
  Si  Si19  1  0.166507  0.333014  0.499473  1
  Si  Si20  1  0.161299  0.837318  0.999610  1
  Si  Si21  1  0.676020  0.837318  0.999610  1
  Si  Si22  1  0.162007  0.324012  0.000974  1
  Ge  Ge23  1  0.332480  0.664959  0.999345  1
