# generated using pymatgen
data_Yb4Sb4Pd3Pt
_symmetry_space_group_name_H-M   'P 1'
_cell_length_a   4.66915800
_cell_length_b   7.35407434
_cell_length_c   7.91402348
_cell_angle_alpha   89.64857968
_cell_angle_beta   90.00000000
_cell_angle_gamma   90.00000000
_symmetry_Int_Tables_number   1
_chemical_formula_structural   Yb4Sb4Pd3Pt
_chemical_formula_sum   'Yb4 Sb4 Pd3 Pt1'
_cell_volume   271.74136417
_cell_formula_units_Z   1
loop_
 _symmetry_equiv_pos_site_id
 _symmetry_equiv_pos_as_xyz
  1  'x, y, z'
loop_
 _atom_site_type_symbol
 _atom_site_label
 _atom_site_symmetry_multiplicity
 _atom_site_fract_x
 _atom_site_fract_y
 _atom_site_fract_z
 _atom_site_occupancy
  Yb  Yb0  1  0.250000  0.490762  0.203909  1
  Yb  Yb1  1  0.750000  0.509794  0.796010  1
  Yb  Yb2  1  0.250000  0.993493  0.297477  1
  Yb  Yb3  1  0.750000  0.008772  0.702234  1
  Sb  Sb4  1  0.250000  0.307321  0.592366  1
  Sb  Sb5  1  0.750000  0.197111  0.091849  1
  Sb  Sb6  1  0.250000  0.802820  0.908155  1
  Sb  Sb7  1  0.750000  0.693443  0.407794  1
  Pd  Pd8  1  0.250000  0.189155  0.919572  1
  Pd  Pd9  1  0.750000  0.810257  0.080004  1
  Pd  Pd10  1  0.250000  0.694136  0.580111  1
  Pt  Pt11  1  0.750000  0.302936  0.420519  1
