# generated using pymatgen
data_YEr3V2Pt2F28
_symmetry_space_group_name_H-M   'P 1'
_cell_length_a   5.50304929
_cell_length_b   8.83789563
_cell_length_c   11.84016958
_cell_angle_alpha   62.77940515
_cell_angle_beta   90.31376307
_cell_angle_gamma   90.17706918
_symmetry_Int_Tables_number   1
_chemical_formula_structural   YEr3V2Pt2F28
_chemical_formula_sum   'Y1 Er3 V2 Pt2 F28'
_cell_volume   512.06895219
_cell_formula_units_Z   1
loop_
 _symmetry_equiv_pos_site_id
 _symmetry_equiv_pos_as_xyz
  1  'x, y, z'
loop_
 _atom_site_type_symbol
 _atom_site_label
 _atom_site_symmetry_multiplicity
 _atom_site_fract_x
 _atom_site_fract_y
 _atom_site_fract_z
 _atom_site_occupancy
  Y  Y0  1  0.238313  0.815495  0.767361  1
  Er  Er1  1  0.258764  0.811464  0.264229  1
  Er  Er2  1  0.741237  0.189541  0.735687  1
  Er  Er3  1  0.761666  0.184059  0.232790  1
  V  V4  1  0.753864  0.725652  0.043962  1
  V  V5  1  0.246079  0.273641  0.957017  1
  Pt  Pt6  1  0.259889  0.273716  0.454547  1
  Pt  Pt7  1  0.740247  0.726574  0.544525  1
  F  F8  1  0.933126  0.700468  0.415180  1
  F  F9  1  0.067422  0.299566  0.584240  1
  F  F10  1  0.455310  0.288971  0.078962  1
  F  F11  1  0.546450  0.710096  0.921808  1
  F  F12  1  0.480396  0.737111  0.136180  1
  F  F13  1  0.519096  0.263130  0.864108  1
  F  F14  1  0.962783  0.277473  0.359442  1
  F  F15  1  0.036720  0.721679  0.639604  1
  F  F16  1  0.960520  0.749434  0.165506  1
  F  F17  1  0.039841  0.250640  0.834827  1
  F  F18  1  0.448853  0.256350  0.319502  1
  F  F19  1  0.553663  0.742942  0.680109  1
  F  F20  1  0.766340  0.492990  0.134973  1
  F  F21  1  0.233408  0.505788  0.865455  1
  F  F22  1  0.274766  0.523328  0.354290  1
  F  F23  1  0.725245  0.477077  0.645499  1
  F  F24  1  0.963156  0.281706  0.049224  1
  F  F25  1  0.035790  0.717109  0.952459  1
  F  F26  1  0.435335  0.720601  0.458378  1
  F  F27  1  0.564104  0.279592  0.541247  1
  F  F28  1  0.743730  0.975976  0.450276  1
  F  F29  1  0.256313  0.024637  0.548623  1
  F  F30  1  0.240526  0.040610  0.049687  1
  F  F31  1  0.759530  0.958844  0.950678  1
  F  F32  1  0.584475  0.967856  0.232302  1
  F  F33  1  0.416640  0.034676  0.767804  1
  F  F34  1  0.082958  0.024598  0.270541  1
  F  F35  1  0.913446  0.976613  0.728978  1
