# generated using pymatgen
data_Tm20Ga3Bi8Pt
_symmetry_space_group_name_H-M   'P 1'
_cell_length_a   7.97101433
_cell_length_b   9.22074500
_cell_length_c   11.92462664
_cell_angle_alpha   90.00000000
_cell_angle_beta   90.24107262
_cell_angle_gamma   90.00000000
_symmetry_Int_Tables_number   1
_chemical_formula_structural   Tm20Ga3Bi8Pt
_chemical_formula_sum   'Tm20 Ga3 Bi8 Pt1'
_cell_volume   876.43668580
_cell_formula_units_Z   1
loop_
 _symmetry_equiv_pos_site_id
 _symmetry_equiv_pos_as_xyz
  1  'x, y, z'
loop_
 _atom_site_type_symbol
 _atom_site_label
 _atom_site_symmetry_multiplicity
 _atom_site_fract_x
 _atom_site_fract_y
 _atom_site_fract_z
 _atom_site_occupancy
  Tm  Tm0  1  0.679409  0.955049  0.437857  1
  Tm  Tm1  1  0.818872  0.555189  0.937096  1
  Tm  Tm2  1  0.326488  0.441619  0.561952  1
  Tm  Tm3  1  0.180905  0.055491  0.060897  1
  Tm  Tm4  1  0.326488  0.058381  0.561952  1
  Tm  Tm5  1  0.180905  0.444509  0.060897  1
  Tm  Tm6  1  0.679409  0.544951  0.437857  1
  Tm  Tm7  1  0.818872  0.944811  0.937096  1
  Tm  Tm8  1  0.326055  0.750000  0.283440  1
  Tm  Tm9  1  0.170728  0.750000  0.784562  1
  Tm  Tm10  1  0.669602  0.250000  0.712197  1
  Tm  Tm11  1  0.827548  0.250000  0.214360  1
  Tm  Tm12  1  0.037298  0.750000  0.496559  1
  Tm  Tm13  1  0.460129  0.750000  0.997019  1
  Tm  Tm14  1  0.949679  0.250000  0.500458  1
  Tm  Tm15  1  0.535906  0.250000  0.002552  1
  Tm  Tm16  1  0.857235  0.750000  0.205677  1
  Tm  Tm17  1  0.642405  0.750000  0.708534  1
  Tm  Tm18  1  0.143044  0.250000  0.794946  1
  Tm  Tm19  1  0.367842  0.250000  0.298534  1
  Ga  Ga20  1  0.093889  0.750000  0.026206  1
  Ga  Ga21  1  0.407264  0.750000  0.524597  1
  Ga  Ga22  1  0.904004  0.250000  0.973049  1
  Bi  Bi23  1  0.564425  0.988696  0.173589  1
  Bi  Bi24  1  0.938972  0.510412  0.675187  1
  Bi  Bi25  1  0.435777  0.491040  0.825599  1
  Bi  Bi26  1  0.065061  0.010076  0.324285  1
  Bi  Bi27  1  0.435777  0.008960  0.825599  1
  Bi  Bi28  1  0.065061  0.489924  0.324285  1
  Bi  Bi29  1  0.564425  0.511304  0.173589  1
  Bi  Bi30  1  0.938972  0.989588  0.675187  1
  Pt  Pt31  1  0.587552  0.250000  0.484386  1
