# generated using pymatgen
data_LuMgAlZnPt2
_symmetry_space_group_name_H-M   'P 1'
_cell_length_a   4.16878700
_cell_length_b   6.62368769
_cell_length_c   7.87292025
_cell_angle_alpha   93.12344212
_cell_angle_beta   90.00000000
_cell_angle_gamma   90.00000000
_symmetry_Int_Tables_number   1
_chemical_formula_structural   LuMgAlZnPt2
_chemical_formula_sum   'Lu2 Mg2 Al2 Zn2 Pt4'
_cell_volume   217.06997896
_cell_formula_units_Z   2
loop_
 _symmetry_equiv_pos_site_id
 _symmetry_equiv_pos_as_xyz
  1  'x, y, z'
loop_
 _atom_site_type_symbol
 _atom_site_label
 _atom_site_symmetry_multiplicity
 _atom_site_fract_x
 _atom_site_fract_y
 _atom_site_fract_z
 _atom_site_occupancy
  Lu  Lu0  1  0.750000  0.965365  0.686598  1
  Lu  Lu1  1  0.250000  0.034635  0.313402  1
  Mg  Mg2  1  0.250000  0.534621  0.165112  1
  Mg  Mg3  1  0.750000  0.465379  0.834888  1
  Al  Al4  1  0.250000  0.638755  0.551227  1
  Al  Al5  1  0.750000  0.361245  0.448773  1
  Zn  Zn6  1  0.750000  0.848007  0.060424  1
  Zn  Zn7  1  0.250000  0.151993  0.939576  1
  Pt  Pt8  1  0.250000  0.750178  0.864581  1
  Pt  Pt9  1  0.750000  0.249822  0.135419  1
  Pt  Pt10  1  0.750000  0.728716  0.374602  1
  Pt  Pt11  1  0.250000  0.271284  0.625398  1
