# generated using pymatgen
data_AcNd(Si3Ni5)2
_symmetry_space_group_name_H-M   'P 1'
_cell_length_a   6.18438100
_cell_length_b   6.18438152
_cell_length_c   11.71639900
_cell_angle_alpha   90.00000000
_cell_angle_beta   90.00000000
_cell_angle_gamma   145.00910237
_symmetry_Int_Tables_number   1
_chemical_formula_structural   AcNd(Si3Ni5)2
_chemical_formula_sum   'Ac1 Nd1 Si6 Ni10'
_cell_volume   256.96821886
_cell_formula_units_Z   1
loop_
 _symmetry_equiv_pos_site_id
 _symmetry_equiv_pos_as_xyz
  1  'x, y, z'
loop_
 _atom_site_type_symbol
 _atom_site_label
 _atom_site_symmetry_multiplicity
 _atom_site_fract_x
 _atom_site_fract_y
 _atom_site_fract_z
 _atom_site_occupancy
  Ac  Ac0  1  0.337188  0.662812  0.250000  1
  Nd  Nd1  1  0.660686  0.339314  0.750000  1
  Si  Si2  1  0.611046  0.388954  0.250000  1
  Si  Si3  1  0.387102  0.612898  0.750000  1
  Si  Si4  1  0.116587  0.883413  0.539898  1
  Si  Si5  1  0.883614  0.116386  0.467187  1
  Si  Si6  1  0.883614  0.116386  0.032813  1
  Si  Si7  1  0.116587  0.883413  0.960102  1
  Ni  Ni8  1  0.052921  0.947079  0.143875  1
  Ni  Ni9  1  0.052921  0.947079  0.356125  1
  Ni  Ni10  1  0.695964  0.304036  0.436981  1
  Ni  Ni11  1  0.303279  0.696721  0.568078  1
  Ni  Ni12  1  0.303279  0.696721  0.931922  1
  Ni  Ni13  1  0.695964  0.304036  0.063019  1
  Ni  Ni14  1  0.500307  0.499693  0.501812  1
  Ni  Ni15  1  0.500307  0.499693  0.998188  1
  Ni  Ni16  1  0.949317  0.050683  0.647134  1
  Ni  Ni17  1  0.949317  0.050683  0.852866  1
