# generated using pymatgen
data_Mn2InFeRh4
_symmetry_space_group_name_H-M   'P 1'
_cell_length_a   6.17863800
_cell_length_b   6.17828900
_cell_length_c   6.20452600
_cell_angle_alpha   90.00000000
_cell_angle_beta   90.00000000
_cell_angle_gamma   89.99996291
_symmetry_Int_Tables_number   1
_chemical_formula_structural   Mn2InFeRh4
_chemical_formula_sum   'Mn4 In2 Fe2 Rh8'
_cell_volume   236.84792224
_cell_formula_units_Z   2
loop_
 _symmetry_equiv_pos_site_id
 _symmetry_equiv_pos_as_xyz
  1  'x, y, z'
loop_
 _atom_site_type_symbol
 _atom_site_label
 _atom_site_symmetry_multiplicity
 _atom_site_fract_x
 _atom_site_fract_y
 _atom_site_fract_z
 _atom_site_occupancy
  Mn  Mn0  1  0.750031  0.249999  0.000000  1
  Mn  Mn1  1  0.249968  0.750001  0.000000  1
  Mn  Mn2  1  0.250013  0.750001  0.499999  1
  Mn  Mn3  1  0.749986  0.249999  0.500001  1
  In  In4  1  0.749935  0.749999  0.499999  1
  In  In5  1  0.250064  0.250001  0.500001  1
  Fe  Fe6  1  0.249928  0.250001  0.000000  1
  Fe  Fe7  1  0.750071  0.749999  0.000000  1
  Rh  Rh8  1  0.499997  0.000000  0.236305  1
  Rh  Rh9  1  0.499999  0.500001  0.236305  1
  Rh  Rh10  1  0.000000  0.000000  0.236402  1
  Rh  Rh11  1  0.000000  0.499998  0.236402  1
  Rh  Rh12  1  0.000000  0.000000  0.763599  1
  Rh  Rh13  1  0.000000  0.500001  0.763599  1
  Rh  Rh14  1  0.500002  0.000000  0.763695  1
  Rh  Rh15  1  0.500002  0.499999  0.763695  1
