# generated using pymatgen
data_NaLi2(YbPt2)3
_symmetry_space_group_name_H-M   'P 1'
_cell_length_a   5.49122700
_cell_length_b   5.49122718
_cell_length_c   8.24293800
_cell_angle_alpha   90.00000000
_cell_angle_beta   90.00000000
_cell_angle_gamma   120.00000494
_symmetry_Int_Tables_number   1
_chemical_formula_structural   NaLi2(YbPt2)3
_chemical_formula_sum   'Na1 Li2 Yb3 Pt6'
_cell_volume   215.25410982
_cell_formula_units_Z   1
loop_
 _symmetry_equiv_pos_site_id
 _symmetry_equiv_pos_as_xyz
  1  'x, y, z'
loop_
 _atom_site_type_symbol
 _atom_site_label
 _atom_site_symmetry_multiplicity
 _atom_site_fract_x
 _atom_site_fract_y
 _atom_site_fract_z
 _atom_site_occupancy
  Na  Na0  1  0.666667  0.333333  0.937342  1
  Li  Li1  1  0.000000  0.000000  0.998960  1
  Li  Li2  1  0.000000  0.000000  0.498658  1
  Yb  Yb3  1  0.333333  0.666666  0.058923  1
  Yb  Yb4  1  0.333333  0.666666  0.432519  1
  Yb  Yb5  1  0.666667  0.333333  0.576990  1
  Pt  Pt6  1  0.336261  0.168130  0.254576  1
  Pt  Pt7  1  0.831868  0.168130  0.254576  1
  Pt  Pt8  1  0.831871  0.663740  0.254576  1
  Pt  Pt9  1  0.167576  0.335151  0.744294  1
  Pt  Pt10  1  0.167575  0.832425  0.744294  1
  Pt  Pt11  1  0.664849  0.832425  0.744294  1
