# generated using pymatgen
data_Ti16Co5Ir3
_symmetry_space_group_name_H-M   'P 1'
_cell_length_a   8.02162713
_cell_length_b   8.02162716
_cell_length_c   8.02162635
_cell_angle_alpha   60.31795084
_cell_angle_beta   60.31795371
_cell_angle_gamma   60.31794953
_symmetry_Int_Tables_number   1
_chemical_formula_structural   Ti16Co5Ir3
_chemical_formula_sum   'Ti16 Co5 Ir3'
_cell_volume   367.60852351
_cell_formula_units_Z   1
loop_
 _symmetry_equiv_pos_site_id
 _symmetry_equiv_pos_as_xyz
  1  'x, y, z'
loop_
 _atom_site_type_symbol
 _atom_site_label
 _atom_site_symmetry_multiplicity
 _atom_site_fract_x
 _atom_site_fract_y
 _atom_site_fract_z
 _atom_site_occupancy
  Ti  Ti0  1  0.073207  0.641014  0.641014  1
  Ti  Ti1  1  0.641014  0.073207  0.641014  1
  Ti  Ti2  1  0.641014  0.641014  0.073207  1
  Ti  Ti3  1  0.644580  0.644580  0.644580  1
  Ti  Ti4  1  0.805672  0.805672  0.193536  1
  Ti  Ti5  1  0.194505  0.194505  0.805294  1
  Ti  Ti6  1  0.805672  0.193536  0.805672  1
  Ti  Ti7  1  0.194505  0.805294  0.194505  1
  Ti  Ti8  1  0.193536  0.805672  0.805672  1
  Ti  Ti9  1  0.805294  0.194505  0.194505  1
  Ti  Ti10  1  0.435802  0.435802  0.068702  1
  Ti  Ti11  1  0.064393  0.064393  0.435800  1
  Ti  Ti12  1  0.435802  0.068702  0.435802  1
  Ti  Ti13  1  0.064393  0.435800  0.064393  1
  Ti  Ti14  1  0.068702  0.435802  0.435802  1
  Ti  Ti15  1  0.435800  0.064393  0.064393  1
  Co  Co16  1  0.414195  0.414195  0.414195  1
  Co  Co17  1  0.430578  0.857160  0.857160  1
  Co  Co18  1  0.857160  0.430578  0.857160  1
  Co  Co19  1  0.857160  0.857160  0.430578  1
  Co  Co20  1  0.854634  0.854634  0.854634  1
  Ir  Ir21  1  0.755428  0.413477  0.413477  1
  Ir  Ir22  1  0.413477  0.755428  0.413477  1
  Ir  Ir23  1  0.413477  0.413477  0.755428  1
