# generated using pymatgen
data_Ho5Lu5(ZnIn3)2
_symmetry_space_group_name_H-M   'P 1'
_cell_length_a   9.04237078
_cell_length_b   9.04237095
_cell_length_c   6.64976600
_cell_angle_alpha   90.00000000
_cell_angle_beta   90.00000000
_cell_angle_gamma   119.92805573
_symmetry_Int_Tables_number   1
_chemical_formula_structural   Ho5Lu5(ZnIn3)2
_chemical_formula_sum   'Ho5 Lu5 Zn2 In6'
_cell_volume   471.21164485
_cell_formula_units_Z   1
loop_
 _symmetry_equiv_pos_site_id
 _symmetry_equiv_pos_as_xyz
  1  'x, y, z'
loop_
 _atom_site_type_symbol
 _atom_site_label
 _atom_site_symmetry_multiplicity
 _atom_site_fract_x
 _atom_site_fract_y
 _atom_site_fract_z
 _atom_site_occupancy
  Ho  Ho0  1  0.274108  0.998199  0.750000  1
  Ho  Ho1  1  0.724180  0.997694  0.250000  1
  Ho  Ho2  1  0.998199  0.274108  0.750000  1
  Ho  Ho3  1  0.997694  0.724180  0.250000  1
  Ho  Ho4  1  0.730940  0.730940  0.750000  1
  Lu  Lu5  1  0.331887  0.664128  0.500074  1
  Lu  Lu6  1  0.664128  0.331887  0.500074  1
  Lu  Lu7  1  0.664128  0.331887  0.999926  1
  Lu  Lu8  1  0.331887  0.664128  0.999926  1
  Lu  Lu9  1  0.277332  0.277332  0.250000  1
  Zn  Zn10  1  0.005981  0.005981  0.495173  1
  Zn  Zn11  1  0.005981  0.005981  0.004827  1
  In  In12  1  0.618068  0.999582  0.750000  1
  In  In13  1  0.377509  0.001383  0.250000  1
  In  In14  1  0.999582  0.618068  0.750000  1
  In  In15  1  0.001383  0.377509  0.250000  1
  In  In16  1  0.379694  0.379694  0.750000  1
  In  In17  1  0.617320  0.617320  0.250000  1
