# generated using pymatgen
data_Zr10InGa2Bi4Pb
_symmetry_space_group_name_H-M   'P 1'
_cell_length_a   8.88697606
_cell_length_b   8.86256149
_cell_length_c   5.94021300
_cell_angle_alpha   90.00000000
_cell_angle_beta   90.00000000
_cell_angle_gamma   120.25940012
_symmetry_Int_Tables_number   1
_chemical_formula_structural   Zr10InGa2Bi4Pb
_chemical_formula_sum   'Zr10 In1 Ga2 Bi4 Pb1'
_cell_volume   404.11482171
_cell_formula_units_Z   1
loop_
 _symmetry_equiv_pos_site_id
 _symmetry_equiv_pos_as_xyz
  1  'x, y, z'
loop_
 _atom_site_type_symbol
 _atom_site_label
 _atom_site_symmetry_multiplicity
 _atom_site_fract_x
 _atom_site_fract_y
 _atom_site_fract_z
 _atom_site_occupancy
  Zr  Zr0  1  0.665724  0.333682  0.997018  1
  Zr  Zr1  1  0.333332  0.665420  0.997031  1
  Zr  Zr2  1  0.333332  0.665420  0.502969  1
  Zr  Zr3  1  0.665724  0.333682  0.502982  1
  Zr  Zr4  1  0.733798  0.730812  0.750000  1
  Zr  Zr5  1  0.268099  0.003683  0.750000  1
  Zr  Zr6  1  0.005805  0.270163  0.750000  1
  Zr  Zr7  1  0.259959  0.261265  0.250000  1
  Zr  Zr8  1  0.737975  0.999856  0.250000  1
  Zr  Zr9  1  0.998356  0.737341  0.250000  1
  In  In10  1  0.388130  0.387435  0.750000  1
  Ga  Ga11  1  0.000465  0.000199  0.994383  1
  Ga  Ga12  1  0.000465  0.000199  0.505617  1
  Bi  Bi13  1  0.614527  0.000473  0.750000  1
  Bi  Bi14  1  0.604636  0.604386  0.250000  1
  Bi  Bi15  1  0.388555  0.999776  0.250000  1
  Bi  Bi16  1  0.999731  0.391348  0.250000  1
  Pb  Pb17  1  0.001387  0.614860  0.750000  1
