# generated using pymatgen
data_Cs2TlSbSe3
_symmetry_space_group_name_H-M   'P 1'
_cell_length_a   10.43157400
_cell_length_b   10.43157400
_cell_length_c   10.43157400
_cell_angle_alpha   90.00000000
_cell_angle_beta   90.00000000
_cell_angle_gamma   90.00000000
_symmetry_Int_Tables_number   1
_chemical_formula_structural   Cs2TlSbSe3
_chemical_formula_sum   'Cs8 Tl4 Sb4 Se12'
_cell_volume   1135.14026682
_cell_formula_units_Z   4
loop_
 _symmetry_equiv_pos_site_id
 _symmetry_equiv_pos_as_xyz
  1  'x, y, z'
loop_
 _atom_site_type_symbol
 _atom_site_label
 _atom_site_symmetry_multiplicity
 _atom_site_fract_x
 _atom_site_fract_y
 _atom_site_fract_z
 _atom_site_occupancy
  Cs  Cs0  1  0.304887  0.304887  0.304887  1
  Cs  Cs1  1  0.195113  0.695113  0.804887  1
  Cs  Cs2  1  0.804887  0.195113  0.695113  1
  Cs  Cs3  1  0.695113  0.804887  0.195113  1
  Cs  Cs4  1  0.569301  0.569301  0.569301  1
  Cs  Cs5  1  0.930699  0.430699  0.069301  1
  Cs  Cs6  1  0.069301  0.930699  0.430699  1
  Cs  Cs7  1  0.430699  0.069301  0.930699  1
  Tl  Tl8  1  0.807037  0.807037  0.807037  1
  Tl  Tl9  1  0.692963  0.192963  0.307037  1
  Tl  Tl10  1  0.307037  0.692963  0.192963  1
  Tl  Tl11  1  0.192963  0.307037  0.692963  1
  Sb  Sb12  1  0.032494  0.032494  0.032494  1
  Sb  Sb13  1  0.467506  0.967506  0.532494  1
  Sb  Sb14  1  0.532494  0.467506  0.967506  1
  Sb  Sb15  1  0.967506  0.532494  0.467506  1
  Se  Se16  1  0.208646  0.595986  0.473830  1
  Se  Se17  1  0.473830  0.208646  0.595986  1
  Se  Se18  1  0.595986  0.473830  0.208646  1
  Se  Se19  1  0.904014  0.526170  0.708646  1
  Se  Se20  1  0.973830  0.291354  0.404014  1
  Se  Se21  1  0.404014  0.973830  0.291354  1
  Se  Se22  1  0.026170  0.791354  0.095986  1
  Se  Se23  1  0.526170  0.708646  0.904014  1
  Se  Se24  1  0.095986  0.026170  0.791354  1
  Se  Se25  1  0.708646  0.904014  0.526170  1
  Se  Se26  1  0.791354  0.095986  0.026170  1
  Se  Se27  1  0.291354  0.404014  0.973830  1
