# generated using pymatgen
data_Er2Fe8MoP6W
_symmetry_space_group_name_H-M   'P 1'
_cell_length_a   3.69671600
_cell_length_b   10.38312800
_cell_length_c   12.01529000
_cell_angle_alpha   90.00000000
_cell_angle_beta   90.00000000
_cell_angle_gamma   90.00000000
_symmetry_Int_Tables_number   1
_chemical_formula_structural   Er2Fe8MoP6W
_chemical_formula_sum   'Er4 Fe16 Mo2 P12 W2'
_cell_volume   461.18858823
_cell_formula_units_Z   2
loop_
 _symmetry_equiv_pos_site_id
 _symmetry_equiv_pos_as_xyz
  1  'x, y, z'
loop_
 _atom_site_type_symbol
 _atom_site_label
 _atom_site_symmetry_multiplicity
 _atom_site_fract_x
 _atom_site_fract_y
 _atom_site_fract_z
 _atom_site_occupancy
  Er  Er0  1  0.250000  0.583378  0.708630  1
  Er  Er1  1  0.250000  0.916622  0.208630  1
  Er  Er2  1  0.750000  0.417511  0.290922  1
  Er  Er3  1  0.750000  0.082489  0.790922  1
  Fe  Fe4  1  0.250000  0.411154  0.492654  1
  Fe  Fe5  1  0.250000  0.088847  0.992654  1
  Fe  Fe6  1  0.750000  0.590280  0.507940  1
  Fe  Fe7  1  0.750000  0.909720  0.007940  1
  Fe  Fe8  1  0.250000  0.217328  0.177308  1
  Fe  Fe9  1  0.250000  0.282672  0.677308  1
  Fe  Fe10  1  0.750000  0.781587  0.823755  1
  Fe  Fe11  1  0.750000  0.718413  0.323755  1
  Fe  Fe12  1  0.250000  0.878889  0.699663  1
  Fe  Fe13  1  0.250000  0.621111  0.199663  1
  Fe  Fe14  1  0.750000  0.122190  0.299671  1
  Fe  Fe15  1  0.750000  0.377810  0.799671  1
  Fe  Fe16  1  0.250000  0.463843  0.933221  1
  Fe  Fe17  1  0.250000  0.036157  0.433221  1
  Fe  Fe18  1  0.750000  0.536746  0.065722  1
  Fe  Fe19  1  0.750000  0.963254  0.565722  1
  Mo  Mo20  1  0.750000  0.293199  0.011412  1
  Mo  Mo21  1  0.750000  0.206801  0.511412  1
  P  P22  1  0.250000  0.424077  0.113638  1
  P  P23  1  0.250000  0.075923  0.613638  1
  P  P24  1  0.750000  0.575458  0.885483  1
  P  P25  1  0.750000  0.924542  0.385483  1
  P  P26  1  0.250000  0.265867  0.865715  1
  P  P27  1  0.250000  0.234133  0.365715  1
  P  P28  1  0.750000  0.732999  0.135828  1
  P  P29  1  0.750000  0.767001  0.635828  1
  P  P30  1  0.250000  0.594695  0.385811  1
  P  P31  1  0.250000  0.905305  0.885811  1
  P  P32  1  0.750000  0.405305  0.613163  1
  P  P33  1  0.750000  0.094695  0.113163  1
  W  W34  1  0.250000  0.705634  0.989464  1
  W  W35  1  0.250000  0.794366  0.489464  1
