# generated using pymatgen
data_Sm3Sn3Pd2Ru
_symmetry_space_group_name_H-M   'P 1'
_cell_length_a   7.74920600
_cell_length_b   7.74920528
_cell_length_c   3.93317400
_cell_angle_alpha   90.00000000
_cell_angle_beta   90.00000000
_cell_angle_gamma   119.99999454
_symmetry_Int_Tables_number   1
_chemical_formula_structural   Sm3Sn3Pd2Ru
_chemical_formula_sum   'Sm3 Sn3 Pd2 Ru1'
_cell_volume   204.54467929
_cell_formula_units_Z   1
loop_
 _symmetry_equiv_pos_site_id
 _symmetry_equiv_pos_as_xyz
  1  'x, y, z'
loop_
 _atom_site_type_symbol
 _atom_site_label
 _atom_site_symmetry_multiplicity
 _atom_site_fract_x
 _atom_site_fract_y
 _atom_site_fract_z
 _atom_site_occupancy
  Sm  Sm0  1  0.403909  0.403909  0.500000  1
  Sm  Sm1  1  0.596091  0.000000  0.500000  1
  Sm  Sm2  1  0.000000  0.596091  0.500000  1
  Sn  Sn3  1  0.744456  0.744456  0.000000  1
  Sn  Sn4  1  0.255544  0.000000  0.000000  1
  Sn  Sn5  1  0.000000  0.255544  0.000000  1
  Pd  Pd6  1  0.666667  0.333333  0.000000  1
  Pd  Pd7  1  0.333333  0.666667  0.000000  1
  Ru  Ru8  1  0.000000  0.000000  0.500000  1
