# generated using pymatgen
data_CsLi3Ho2Se5
_symmetry_space_group_name_H-M   'P 1'
_cell_length_a   4.18869500
_cell_length_b   7.98995781
_cell_length_c   17.57259800
_cell_angle_alpha   90.00000000
_cell_angle_beta   90.00000000
_cell_angle_gamma   74.80396419
_symmetry_Int_Tables_number   1
_chemical_formula_structural   CsLi3Ho2Se5
_chemical_formula_sum   'Cs2 Li6 Ho4 Se10'
_cell_volume   567.54734682
_cell_formula_units_Z   2
loop_
 _symmetry_equiv_pos_site_id
 _symmetry_equiv_pos_as_xyz
  1  'x, y, z'
loop_
 _atom_site_type_symbol
 _atom_site_label
 _atom_site_symmetry_multiplicity
 _atom_site_fract_x
 _atom_site_fract_y
 _atom_site_fract_z
 _atom_site_occupancy
  Cs  Cs0  1  0.932691  0.134618  0.250000  1
  Cs  Cs1  1  0.067310  0.865382  0.750000  1
  Li  Li2  1  0.420014  0.159974  0.041574  1
  Li  Li3  1  0.644913  0.710172  0.250000  1
  Li  Li4  1  0.420014  0.159974  0.458426  1
  Li  Li5  1  0.579987  0.840026  0.541574  1
  Li  Li6  1  0.355088  0.289828  0.750000  1
  Li  Li7  1  0.579987  0.840026  0.958426  1
  Ho  Ho8  1  0.195735  0.608534  0.094118  1
  Ho  Ho9  1  0.195735  0.608534  0.405881  1
  Ho  Ho10  1  0.804266  0.391466  0.594119  1
  Ho  Ho11  1  0.804266  0.391466  0.905881  1
  Se  Se12  1  0.824605  0.350790  0.068354  1
  Se  Se13  1  0.570666  0.858669  0.109705  1
  Se  Se14  1  0.234118  0.531765  0.250000  1
  Se  Se15  1  0.570666  0.858669  0.390295  1
  Se  Se16  1  0.824605  0.350790  0.431646  1
  Se  Se17  1  0.175397  0.649208  0.568353  1
  Se  Se18  1  0.429335  0.141331  0.609705  1
  Se  Se19  1  0.765883  0.468235  0.750000  1
  Se  Se20  1  0.429335  0.141331  0.890295  1
  Se  Se21  1  0.175397  0.649208  0.931646  1
