# generated using pymatgen
data_KLiLu(P3Pd10)2
_symmetry_space_group_name_H-M   'P 1'
_cell_length_a   8.66130958
_cell_length_b   8.66130923
_cell_length_c   8.66130900
_cell_angle_alpha   59.99999706
_cell_angle_beta   59.99999838
_cell_angle_gamma   59.99999540
_symmetry_Int_Tables_number   1
_chemical_formula_structural   KLiLu(P3Pd10)2
_chemical_formula_sum   'K1 Li1 Lu1 P6 Pd20'
_cell_volume   459.44720169
_cell_formula_units_Z   1
loop_
 _symmetry_equiv_pos_site_id
 _symmetry_equiv_pos_as_xyz
  1  'x, y, z'
loop_
 _atom_site_type_symbol
 _atom_site_label
 _atom_site_symmetry_multiplicity
 _atom_site_fract_x
 _atom_site_fract_y
 _atom_site_fract_z
 _atom_site_occupancy
  K  K0  1  0.250000  0.250000  0.250000  1
  Li  Li1  1  0.000000  0.000000  0.000000  1
  Lu  Lu2  1  0.750000  0.750000  0.750000  1
  P  P3  1  0.738834  0.261166  0.261166  1
  P  P4  1  0.261166  0.738834  0.738834  1
  P  P5  1  0.261166  0.738834  0.261166  1
  P  P6  1  0.738834  0.261166  0.738834  1
  P  P7  1  0.261166  0.261166  0.738834  1
  P  P8  1  0.738834  0.738834  0.261166  1
  Pd  Pd9  1  0.389690  0.389690  0.389690  1
  Pd  Pd10  1  0.617477  0.617477  0.617477  1
  Pd  Pd11  1  0.389690  0.389690  0.830933  1
  Pd  Pd12  1  0.389690  0.830933  0.389690  1
  Pd  Pd13  1  0.617477  0.617477  0.147570  1
  Pd  Pd14  1  0.617477  0.147570  0.617477  1
  Pd  Pd15  1  0.830933  0.389690  0.389690  1
  Pd  Pd16  1  0.147570  0.617477  0.617477  1
  Pd  Pd17  1  0.348918  0.995009  0.995009  1
  Pd  Pd18  1  0.661065  0.995009  0.995009  1
  Pd  Pd19  1  0.995009  0.348918  0.661065  1
  Pd  Pd20  1  0.995009  0.661065  0.348918  1
  Pd  Pd21  1  0.995009  0.348918  0.995009  1
  Pd  Pd22  1  0.661065  0.995009  0.348918  1
  Pd  Pd23  1  0.995009  0.661065  0.995009  1
  Pd  Pd24  1  0.348918  0.995009  0.661065  1
  Pd  Pd25  1  0.995009  0.995009  0.348918  1
  Pd  Pd26  1  0.995009  0.995009  0.661065  1
  Pd  Pd27  1  0.661065  0.348918  0.995009  1
  Pd  Pd28  1  0.348918  0.661065  0.995009  1
