# generated using pymatgen
data_Rb3Ba(PaS3)2
_symmetry_space_group_name_H-M   'P 1'
_cell_length_a   7.33625763
_cell_length_b   7.33625854
_cell_length_c   7.99756900
_cell_angle_alpha   81.10520464
_cell_angle_beta   81.10519563
_cell_angle_gamma   120.00484154
_symmetry_Int_Tables_number   1
_chemical_formula_structural   Rb3Ba(PaS3)2
_chemical_formula_sum   'Rb3 Ba1 Pa2 S6'
_cell_volume   354.47555290
_cell_formula_units_Z   1
loop_
 _symmetry_equiv_pos_site_id
 _symmetry_equiv_pos_as_xyz
  1  'x, y, z'
loop_
 _atom_site_type_symbol
 _atom_site_label
 _atom_site_symmetry_multiplicity
 _atom_site_fract_x
 _atom_site_fract_y
 _atom_site_fract_z
 _atom_site_occupancy
  Rb  Rb0  1  0.659048  0.340952  0.500000  1
  Rb  Rb1  1  0.340952  0.659048  0.500000  1
  Rb  Rb2  1  0.000000  0.000000  0.500000  1
  Ba  Ba3  1  0.500000  0.500000  0.000000  1
  Pa  Pa4  1  0.832695  0.167305  0.000000  1
  Pa  Pa5  1  0.167305  0.832695  0.000000  1
  S  S6  1  0.800159  0.800159  0.199569  1
  S  S7  1  0.199841  0.199841  0.800431  1
  S  S8  1  0.431737  0.064178  0.201850  1
  S  S9  1  0.568263  0.935822  0.798150  1
  S  S10  1  0.935822  0.568263  0.798150  1
  S  S11  1  0.064178  0.431737  0.201850  1
