# generated using pymatgen
data_Cs2Rb2P4PdPt
_symmetry_space_group_name_H-M   'P 1'
_cell_length_a   7.93722863
_cell_length_b   7.93722794
_cell_length_c   6.31228806
_cell_angle_alpha   89.62547402
_cell_angle_beta   90.37452499
_cell_angle_gamma   128.33860583
_symmetry_Int_Tables_number   1
_chemical_formula_structural   Cs2Rb2P4PdPt
_chemical_formula_sum   'Cs2 Rb2 P4 Pd1 Pt1'
_cell_volume   311.90889129
_cell_formula_units_Z   1
loop_
 _symmetry_equiv_pos_site_id
 _symmetry_equiv_pos_as_xyz
  1  'x, y, z'
loop_
 _atom_site_type_symbol
 _atom_site_label
 _atom_site_symmetry_multiplicity
 _atom_site_fract_x
 _atom_site_fract_y
 _atom_site_fract_z
 _atom_site_occupancy
  Cs  Cs0  1  0.414618  0.585382  0.247490  1
  Cs  Cs1  1  0.585382  0.414618  0.752510  1
  Rb  Rb2  1  0.787850  0.212150  0.250200  1
  Rb  Rb3  1  0.212150  0.787850  0.749800  1
  P  P4  1  0.946059  0.737554  0.249709  1
  P  P5  1  0.053941  0.262446  0.750291  1
  P  P6  1  0.262446  0.053941  0.249709  1
  P  P7  1  0.737554  0.946059  0.750291  1
  Pd  Pd8  1  0.000000  0.000000  0.500000  1
  Pt  Pt9  1  0.000000  0.000000  0.000000  1
