# generated using pymatgen
data_Yb4HfZr(SnO6)2
_symmetry_space_group_name_H-M   'P 1'
_cell_length_a   5.51976492
_cell_length_b   5.74155240
_cell_length_c   7.95378363
_cell_angle_alpha   90.09120983
_cell_angle_beta   89.76729770
_cell_angle_gamma   89.95152909
_symmetry_Int_Tables_number   1
_chemical_formula_structural   Yb4HfZr(SnO6)2
_chemical_formula_sum   'Yb4 Hf1 Zr1 Sn2 O12'
_cell_volume   252.06897596
_cell_formula_units_Z   1
loop_
 _symmetry_equiv_pos_site_id
 _symmetry_equiv_pos_as_xyz
  1  'x, y, z'
loop_
 _atom_site_type_symbol
 _atom_site_label
 _atom_site_symmetry_multiplicity
 _atom_site_fract_x
 _atom_site_fract_y
 _atom_site_fract_z
 _atom_site_occupancy
  Yb  Yb0  1  0.982486  0.058178  0.251032  1
  Yb  Yb1  1  0.484240  0.442782  0.746952  1
  Yb  Yb2  1  0.515760  0.557218  0.253048  1
  Yb  Yb3  1  0.017514  0.941822  0.748968  1
  Hf  Hf4  1  0.000000  0.500000  0.500000  1
  Zr  Zr5  1  0.500000  0.000000  0.000000  1
  Sn  Sn6  1  0.500000  0.000000  0.500000  1
  Sn  Sn7  1  0.000000  0.500000  0.000000  1
  O  O8  1  0.612442  0.042664  0.747535  1
  O  O9  1  0.195510  0.200458  0.558376  1
  O  O10  1  0.192202  0.198766  0.941244  1
  O  O11  1  0.696222  0.303331  0.060157  1
  O  O12  1  0.695638  0.302004  0.443211  1
  O  O13  1  0.110220  0.457625  0.250677  1
  O  O14  1  0.889780  0.542375  0.749323  1
  O  O15  1  0.304362  0.697996  0.556789  1
  O  O16  1  0.303778  0.696669  0.939843  1
  O  O17  1  0.807798  0.801234  0.058756  1
  O  O18  1  0.804490  0.799542  0.441624  1
  O  O19  1  0.387558  0.957336  0.252465  1
