# generated using pymatgen
data_Ho3Sc(P3Ir4)2
_symmetry_space_group_name_H-M   'P 1'
_cell_length_a   3.98277600
_cell_length_b   11.25847900
_cell_length_c   12.88705000
_cell_angle_alpha   90.00000000
_cell_angle_beta   90.00000000
_cell_angle_gamma   90.00000000
_symmetry_Int_Tables_number   1
_chemical_formula_structural   Ho3Sc(P3Ir4)2
_chemical_formula_sum   'Ho6 Sc2 P12 Ir16'
_cell_volume   577.85532145
_cell_formula_units_Z   2
loop_
 _symmetry_equiv_pos_site_id
 _symmetry_equiv_pos_as_xyz
  1  'x, y, z'
loop_
 _atom_site_type_symbol
 _atom_site_label
 _atom_site_symmetry_multiplicity
 _atom_site_fract_x
 _atom_site_fract_y
 _atom_site_fract_z
 _atom_site_occupancy
  Ho  Ho0  1  0.000000  0.500000  0.520659  1
  Ho  Ho1  1  0.500000  0.000000  0.479341  1
  Ho  Ho2  1  0.500000  0.819569  0.203150  1
  Ho  Ho3  1  0.500000  0.180431  0.203150  1
  Ho  Ho4  1  0.000000  0.680431  0.796850  1
  Ho  Ho5  1  0.000000  0.319569  0.796850  1
  Sc  Sc6  1  0.500000  0.500000  0.157615  1
  Sc  Sc7  1  0.000000  0.000000  0.842385  1
  P  P8  1  0.500000  0.313111  0.617442  1
  P  P9  1  0.500000  0.686889  0.617442  1
  P  P10  1  0.000000  0.186889  0.382558  1
  P  P11  1  0.000000  0.813111  0.382558  1
  P  P12  1  0.500000  0.500000  0.878404  1
  P  P13  1  0.000000  0.000000  0.121596  1
  P  P14  1  0.500000  0.843527  0.888125  1
  P  P15  1  0.500000  0.156473  0.888125  1
  P  P16  1  0.000000  0.656473  0.111875  1
  P  P17  1  0.000000  0.343527  0.111875  1
  P  P18  1  0.500000  0.500000  0.358318  1
  P  P19  1  0.000000  0.000000  0.641682  1
  Ir  Ir20  1  0.000000  0.500000  0.987750  1
  Ir  Ir21  1  0.500000  0.000000  0.012250  1
  Ir  Ir22  1  0.500000  0.289806  0.430814  1
  Ir  Ir23  1  0.500000  0.710194  0.430814  1
  Ir  Ir24  1  0.000000  0.210194  0.569186  1
  Ir  Ir25  1  0.000000  0.789806  0.569186  1
  Ir  Ir26  1  0.500000  0.872489  0.708930  1
  Ir  Ir27  1  0.500000  0.127511  0.708930  1
  Ir  Ir28  1  0.000000  0.627511  0.291070  1
  Ir  Ir29  1  0.000000  0.372489  0.291070  1
  Ir  Ir30  1  0.500000  0.330608  0.983206  1
  Ir  Ir31  1  0.500000  0.669392  0.983206  1
  Ir  Ir32  1  0.000000  0.169392  0.016794  1
  Ir  Ir33  1  0.000000  0.830608  0.016794  1
  Ir  Ir34  1  0.500000  0.500000  0.699676  1
  Ir  Ir35  1  0.000000  0.000000  0.300324  1
