# generated using pymatgen
data_HoEr5Zn23P
_symmetry_space_group_name_H-M   'P 1'
_cell_length_a   9.01121502
_cell_length_b   9.01112413
_cell_length_c   9.01113400
_cell_angle_alpha   60.00083744
_cell_angle_beta   60.00001109
_cell_angle_gamma   59.99988495
_symmetry_Int_Tables_number   1
_chemical_formula_structural   HoEr5Zn23P
_chemical_formula_sum   'Ho1 Er5 Zn23 P1'
_cell_volume   517.40328552
_cell_formula_units_Z   1
loop_
 _symmetry_equiv_pos_site_id
 _symmetry_equiv_pos_as_xyz
  1  'x, y, z'
loop_
 _atom_site_type_symbol
 _atom_site_label
 _atom_site_symmetry_multiplicity
 _atom_site_fract_x
 _atom_site_fract_y
 _atom_site_fract_z
 _atom_site_occupancy
  Ho  Ho0  1  0.711722  0.288279  0.288278  1
  Er  Er1  1  0.711326  0.288668  0.711459  1
  Er  Er2  1  0.711328  0.711453  0.288673  1
  Er  Er3  1  0.288395  0.711610  0.711605  1
  Er  Er4  1  0.288549  0.711452  0.288670  1
  Er  Er5  1  0.288546  0.288670  0.711454  1
  Zn  Zn6  1  0.624533  0.124853  0.124861  1
  Zn  Zn7  1  0.125051  0.624857  0.125031  1
  Zn  Zn8  1  0.125050  0.125039  0.624856  1
  Zn  Zn9  1  0.125749  0.124856  0.124857  1
  Zn  Zn10  1  0.375152  0.874947  0.874939  1
  Zn  Zn11  1  0.875147  0.375458  0.874253  1
  Zn  Zn12  1  0.875148  0.874247  0.375462  1
  Zn  Zn13  1  0.874968  0.874942  0.874944  1
  Zn  Zn14  1  0.499919  0.000079  0.000081  1
  Zn  Zn15  1  0.499837  0.999835  0.500165  1
  Zn  Zn16  1  0.499836  0.500165  0.999836  1
  Zn  Zn17  1  0.999920  0.500081  0.500079  1
  Zn  Zn18  1  0.000165  0.500165  0.999835  1
  Zn  Zn19  1  0.000161  0.999837  0.500164  1
  Zn  Zn20  1  0.999983  0.000016  0.000015  1
  Zn  Zn21  1  0.010850  0.329807  0.329805  1
  Zn  Zn22  1  0.329834  0.010423  0.329911  1
  Zn  Zn23  1  0.329836  0.329908  0.010425  1
  Zn  Zn24  1  0.329541  0.329807  0.329805  1
  Zn  Zn25  1  0.989576  0.670170  0.670166  1
  Zn  Zn26  1  0.670190  0.989159  0.670457  1
  Zn  Zn27  1  0.670187  0.670464  0.989156  1
  Zn  Zn28  1  0.670087  0.670169  0.670172  1
  P  P29  1  0.499414  0.500586  0.500585  1
