# generated using pymatgen
data_Rb14TaNb(In3As5)2
_symmetry_space_group_name_H-M   'P 1'
_cell_length_a   8.70388870
_cell_length_b   9.63016133
_cell_length_c   14.56224156
_cell_angle_alpha   85.57220545
_cell_angle_beta   84.04603272
_cell_angle_gamma   86.89989370
_symmetry_Int_Tables_number   1
_chemical_formula_structural   Rb14TaNb(In3As5)2
_chemical_formula_sum   'Rb14 Ta1 Nb1 In6 As10'
_cell_volume   1209.09000407
_cell_formula_units_Z   1
loop_
 _symmetry_equiv_pos_site_id
 _symmetry_equiv_pos_as_xyz
  1  'x, y, z'
loop_
 _atom_site_type_symbol
 _atom_site_label
 _atom_site_symmetry_multiplicity
 _atom_site_fract_x
 _atom_site_fract_y
 _atom_site_fract_z
 _atom_site_occupancy
  Rb  Rb0  1  0.829568  0.366363  0.644131  1
  Rb  Rb1  1  0.815419  0.812307  0.131523  1
  Rb  Rb2  1  0.242677  0.006763  0.467460  1
  Rb  Rb3  1  0.270467  0.255247  0.252473  1
  Rb  Rb4  1  0.741084  0.500544  0.973748  1
  Rb  Rb5  1  0.258917  0.499491  0.026205  1
  Rb  Rb6  1  0.688491  0.082644  0.883878  1
  Rb  Rb7  1  0.757331  0.993253  0.532478  1
  Rb  Rb8  1  0.729287  0.744658  0.747558  1
  Rb  Rb9  1  0.322571  0.337084  0.604246  1
  Rb  Rb10  1  0.170476  0.633656  0.355847  1
  Rb  Rb11  1  0.184530  0.187649  0.868524  1
  Rb  Rb12  1  0.311534  0.917298  0.116185  1
  Rb  Rb13  1  0.677400  0.663072  0.395766  1
  Ta  Ta14  1  0.646476  0.396263  0.226697  1
  Nb  Nb15  1  0.353614  0.603546  0.773333  1
  In  In16  1  0.056105  0.814707  0.871374  1
  In  In17  1  0.944499  0.184936  0.128429  1
  In  In18  1  0.367537  0.952653  0.700744  1
  In  In19  1  0.091661  0.720086  0.621519  1
  In  In20  1  0.908862  0.279687  0.378759  1
  In  In21  1  0.632340  0.046570  0.299438  1
  As  As22  1  0.926256  0.454967  0.208995  1
  As  As23  1  0.618497  0.199139  0.123203  1
  As  As24  1  0.072834  0.545224  0.790986  1
  As  As25  1  0.580255  0.300569  0.392537  1
  As  As26  1  0.419599  0.700248  0.606900  1
  As  As27  1  0.030096  0.996990  0.700397  1
  As  As28  1  0.515086  0.397603  0.810809  1
  As  As29  1  0.485260  0.601816  0.189260  1
  As  As30  1  0.381294  0.801972  0.877006  1
  As  As31  1  0.969977  0.002995  0.299596  1
