# generated using pymatgen
data_Lu10Cd5In3Pd4
_symmetry_space_group_name_H-M   'P 1'
_cell_length_a   3.55833400
_cell_length_b   7.87217508
_cell_length_c   17.98603900
_cell_angle_alpha   90.10036733
_cell_angle_beta   90.00000000
_cell_angle_gamma   90.00000000
_symmetry_Int_Tables_number   1
_chemical_formula_structural   Lu10Cd5In3Pd4
_chemical_formula_sum   'Lu10 Cd5 In3 Pd4'
_cell_volume   503.82106208
_cell_formula_units_Z   1
loop_
 _symmetry_equiv_pos_site_id
 _symmetry_equiv_pos_as_xyz
  1  'x, y, z'
loop_
 _atom_site_type_symbol
 _atom_site_label
 _atom_site_symmetry_multiplicity
 _atom_site_fract_x
 _atom_site_fract_y
 _atom_site_fract_z
 _atom_site_occupancy
  Lu  Lu0  1  0.500000  0.244751  0.781502  1
  Lu  Lu1  1  0.500000  0.755541  0.218759  1
  Lu  Lu2  1  0.500000  0.257814  0.281832  1
  Lu  Lu3  1  0.500000  0.744863  0.718565  1
  Lu  Lu4  1  0.500000  0.114827  0.583596  1
  Lu  Lu5  1  0.500000  0.883288  0.416493  1
  Lu  Lu6  1  0.500000  0.383887  0.083613  1
  Lu  Lu7  1  0.500000  0.615598  0.916294  1
  Lu  Lu8  1  0.500000  0.000726  0.999438  1
  Lu  Lu9  1  0.500000  0.499231  0.500646  1
  Cd  Cd10  1  0.000000  0.575255  0.352456  1
  Cd  Cd11  1  0.000000  0.211132  0.433122  1
  Cd  Cd12  1  0.000000  0.787915  0.567045  1
  Cd  Cd13  1  0.000000  0.289505  0.932902  1
  Cd  Cd14  1  0.000000  0.711529  0.066910  1
  In  In15  1  0.000000  0.074434  0.147722  1
  In  In16  1  0.000000  0.924959  0.852485  1
  In  In17  1  0.000000  0.424891  0.647283  1
  Pd  Pd18  1  0.000000  0.030441  0.696267  1
  Pd  Pd19  1  0.000000  0.969543  0.303607  1
  Pd  Pd20  1  0.000000  0.469274  0.195883  1
  Pd  Pd21  1  0.000000  0.530595  0.803580  1
