# generated using pymatgen
data_Lu3AlIn2Ga2Pd
_symmetry_space_group_name_H-M   'P 1'
_cell_length_a   7.02817300
_cell_length_b   6.93327277
_cell_length_c   4.31791400
_cell_angle_alpha   90.00000000
_cell_angle_beta   90.00000000
_cell_angle_gamma   119.55433588
_symmetry_Int_Tables_number   1
_chemical_formula_structural   Lu3AlIn2Ga2Pd
_chemical_formula_sum   'Lu3 Al1 In2 Ga2 Pd1'
_cell_volume   183.02828803
_cell_formula_units_Z   1
loop_
 _symmetry_equiv_pos_site_id
 _symmetry_equiv_pos_as_xyz
  1  'x, y, z'
loop_
 _atom_site_type_symbol
 _atom_site_label
 _atom_site_symmetry_multiplicity
 _atom_site_fract_x
 _atom_site_fract_y
 _atom_site_fract_z
 _atom_site_occupancy
  Lu  Lu0  1  0.000000  0.577045  0.500000  1
  Lu  Lu1  1  0.415674  0.415536  0.500000  1
  Lu  Lu2  1  0.584326  0.999863  0.500000  1
  Al  Al3  1  0.000000  0.241789  0.000000  1
  In  In4  1  0.748446  0.753945  0.000000  1
  In  In5  1  0.251554  0.005500  0.000000  1
  Ga  Ga6  1  0.320208  0.652060  0.000000  1
  Ga  Ga7  1  0.679792  0.331851  0.000000  1
  Pd  Pd8  1  0.000000  0.022411  0.500000  1
