# generated using pymatgen
data_Sr9YbSi5Ge
_symmetry_space_group_name_H-M   'P 1'
_cell_length_a   9.77944889
_cell_length_b   9.77944928
_cell_length_c   9.77944875
_cell_angle_alpha   131.65036256
_cell_angle_beta   131.65036394
_cell_angle_gamma   70.78180484
_symmetry_Int_Tables_number   1
_chemical_formula_structural   Sr9YbSi5Ge
_chemical_formula_sum   'Sr9 Yb1 Si5 Ge1'
_cell_volume   511.48460520
_cell_formula_units_Z   1
loop_
 _symmetry_equiv_pos_site_id
 _symmetry_equiv_pos_as_xyz
  1  'x, y, z'
loop_
 _atom_site_type_symbol
 _atom_site_label
 _atom_site_symmetry_multiplicity
 _atom_site_fract_x
 _atom_site_fract_y
 _atom_site_fract_z
 _atom_site_occupancy
  Sr  Sr0  1  0.538713  0.042709  0.861154  1
  Sr  Sr1  1  0.181555  0.677558  0.138846  1
  Sr  Sr2  1  0.042709  0.181555  0.503996  1
  Sr  Sr3  1  0.677558  0.538713  0.496004  1
  Sr  Sr4  1  0.461898  0.956685  0.138835  1
  Sr  Sr5  1  0.817849  0.323062  0.861165  1
  Sr  Sr6  1  0.956685  0.817849  0.494787  1
  Sr  Sr7  1  0.323062  0.461898  0.505213  1
  Sr  Sr8  1  0.999857  0.999857  0.000000  1
  Yb  Yb9  1  0.500107  0.500107  0.000000  1
  Si  Si10  1  0.750262  0.750262  0.000000  1
  Si  Si11  1  0.887846  0.394405  0.282252  1
  Si  Si12  1  0.112153  0.605593  0.717748  1
  Si  Si13  1  0.394405  0.112153  0.506560  1
  Si  Si14  1  0.605593  0.887846  0.493440  1
  Ge  Ge15  1  0.249748  0.249748  0.000000  1
