# generated using pymatgen
data_Th10Si15Ag3Au2
_symmetry_space_group_name_H-M   'P 1'
_cell_length_a   4.21936875
_cell_length_b   4.26731467
_cell_length_c   35.92913398
_cell_angle_alpha   86.57849965
_cell_angle_beta   86.66319094
_cell_angle_gamma   89.99603816
_symmetry_Int_Tables_number   1
_chemical_formula_structural   Th10Si15Ag3Au2
_chemical_formula_sum   'Th10 Si15 Ag3 Au2'
_cell_volume   644.66579844
_cell_formula_units_Z   1
loop_
 _symmetry_equiv_pos_site_id
 _symmetry_equiv_pos_as_xyz
  1  'x, y, z'
loop_
 _atom_site_type_symbol
 _atom_site_label
 _atom_site_symmetry_multiplicity
 _atom_site_fract_x
 _atom_site_fract_y
 _atom_site_fract_z
 _atom_site_occupancy
  Th  Th0  1  0.948270  0.448095  0.103641  1
  Th  Th1  1  0.348084  0.848144  0.303600  1
  Th  Th2  1  0.748365  0.248495  0.502729  1
  Th  Th3  1  0.148529  0.648514  0.702468  1
  Th  Th4  1  0.548750  0.048290  0.902908  1
  Th  Th5  1  0.002281  0.002535  0.994870  1
  Th  Th6  1  0.401842  0.401852  0.196581  1
  Th  Th7  1  0.801930  0.801798  0.396793  1
  Th  Th8  1  0.201600  0.201315  0.597315  1
  Th  Th9  1  0.602240  0.602312  0.795643  1
  Si  Si10  1  0.666184  0.165961  0.667795  1
  Si  Si11  1  0.066592  0.566440  0.866824  1
  Si  Si12  1  0.917228  0.917027  0.165738  1
  Si  Si13  1  0.317245  0.316897  0.365671  1
  Si  Si14  1  0.717427  0.717234  0.565024  1
  Si  Si15  1  0.117726  0.117623  0.764643  1
  Si  Si16  1  0.517284  0.517223  0.965385  1
  Si  Si17  1  0.432822  0.932813  0.134245  1
  Si  Si18  1  0.832620  0.332642  0.334698  1
  Si  Si19  1  0.232640  0.733087  0.534735  1
  Si  Si20  1  0.633189  0.133424  0.733575  1
  Si  Si21  1  0.033615  0.533867  0.932617  1
  Si  Si22  1  0.484694  0.484812  0.031112  1
  Si  Si23  1  0.884060  0.884325  0.231610  1
  Si  Si24  1  0.284007  0.284406  0.431301  1
  Ag  Ag25  1  0.467185  0.967369  0.065190  1
  Ag  Ag26  1  0.866943  0.366915  0.266034  1
  Ag  Ag27  1  0.267052  0.766907  0.465791  1
  Au  Au28  1  0.683288  0.683306  0.633684  1
  Au  Au29  1  0.083506  0.083571  0.833381  1
