# generated using pymatgen
data_SmHg(PdPt)2
_symmetry_space_group_name_H-M   'P 1'
_cell_length_a   5.40920257
_cell_length_b   5.41872843
_cell_length_c   5.41872807
_cell_angle_alpha   60.11307516
_cell_angle_beta   60.05813470
_cell_angle_gamma   60.05813026
_symmetry_Int_Tables_number   1
_chemical_formula_structural   SmHg(PdPt)2
_chemical_formula_sum   'Sm1 Hg1 Pd2 Pt2'
_cell_volume   112.50308891
_cell_formula_units_Z   1
loop_
 _symmetry_equiv_pos_site_id
 _symmetry_equiv_pos_as_xyz
  1  'x, y, z'
loop_
 _atom_site_type_symbol
 _atom_site_label
 _atom_site_symmetry_multiplicity
 _atom_site_fract_x
 _atom_site_fract_y
 _atom_site_fract_z
 _atom_site_occupancy
  Sm  Sm0  1  0.251047  0.248953  0.248953  1
  Hg  Hg1  1  0.000155  0.999845  0.999845  1
  Pd  Pd2  1  0.123508  0.625709  0.625709  1
  Pd  Pd3  1  0.625074  0.625709  0.625709  1
  Pt  Pt4  1  0.625108  0.625654  0.124131  1
  Pt  Pt5  1  0.625108  0.124131  0.625654  1
