# generated using pymatgen
data_Li5InPb4
_symmetry_space_group_name_H-M   'P 1'
_cell_length_a   3.65318500
_cell_length_b   3.65318500
_cell_length_c   16.70403200
_cell_angle_alpha   90.00000000
_cell_angle_beta   90.00000000
_cell_angle_gamma   90.00000000
_symmetry_Int_Tables_number   1
_chemical_formula_structural   Li5InPb4
_chemical_formula_sum   'Li5 In1 Pb4'
_cell_volume   222.92801287
_cell_formula_units_Z   1
loop_
 _symmetry_equiv_pos_site_id
 _symmetry_equiv_pos_as_xyz
  1  'x, y, z'
loop_
 _atom_site_type_symbol
 _atom_site_label
 _atom_site_symmetry_multiplicity
 _atom_site_fract_x
 _atom_site_fract_y
 _atom_site_fract_z
 _atom_site_occupancy
  Li  Li0  1  0.500000  0.500000  0.093437  1
  Li  Li1  1  0.500000  0.500000  0.297713  1
  Li  Li2  1  0.500000  0.500000  0.500000  1
  Li  Li3  1  0.500000  0.500000  0.702287  1
  Li  Li4  1  0.500000  0.500000  0.906563  1
  In  In5  1  0.000000  0.000000  0.000000  1
  Pb  Pb6  1  0.000000  0.000000  0.194547  1
  Pb  Pb7  1  0.000000  0.000000  0.399183  1
  Pb  Pb8  1  0.000000  0.000000  0.600817  1
  Pb  Pb9  1  0.000000  0.000000  0.805453  1
