# generated using pymatgen
data_Tb2YbGa9Pd2
_symmetry_space_group_name_H-M   'P 1'
_cell_length_a   8.17089099
_cell_length_b   8.17089249
_cell_length_c   8.17089122
_cell_angle_alpha   149.08897647
_cell_angle_beta   109.22723411
_cell_angle_gamma   79.20581508
_symmetry_Int_Tables_number   1
_chemical_formula_structural   Tb2YbGa9Pd2
_chemical_formula_sum   'Tb2 Yb1 Ga9 Pd2'
_cell_volume   259.45101592
_cell_formula_units_Z   1
loop_
 _symmetry_equiv_pos_site_id
 _symmetry_equiv_pos_as_xyz
  1  'x, y, z'
loop_
 _atom_site_type_symbol
 _atom_site_label
 _atom_site_symmetry_multiplicity
 _atom_site_fract_x
 _atom_site_fract_y
 _atom_site_fract_z
 _atom_site_occupancy
  Tb  Tb0  1  0.500219  0.500219  0.000000  1
  Tb  Tb1  1  0.200542  0.200542  0.000000  1
  Yb  Yb2  1  0.800470  0.800470  0.000000  1
  Ga  Ga3  1  0.077650  0.360565  0.717086  1
  Ga  Ga4  1  0.918743  0.637194  0.281549  1
  Ga  Ga5  1  0.643480  0.360565  0.282914  1
  Ga  Ga6  1  0.355644  0.637194  0.718451  1
  Ga  Ga7  1  0.792949  0.157984  0.634966  1
  Ga  Ga8  1  0.211654  0.844824  0.366830  1
  Ga  Ga9  1  0.523017  0.157984  0.365034  1
  Ga  Ga10  1  0.477995  0.844824  0.633170  1
  Ga  Ga11  1  0.999824  0.499824  0.500000  1
  Pd  Pd12  1  0.816458  0.998907  0.817551  1
  Pd  Pd13  1  0.181355  0.998907  0.182449  1
