# generated using pymatgen
data_Sc2Co5P6Ir3Rh2
_symmetry_space_group_name_H-M   'P 1'
_cell_length_a   3.72959900
_cell_length_b   10.45775600
_cell_length_c   12.09648400
_cell_angle_alpha   90.00000000
_cell_angle_beta   90.00000000
_cell_angle_gamma   90.00000000
_symmetry_Int_Tables_number   1
_chemical_formula_structural   Sc2Co5P6Ir3Rh2
_chemical_formula_sum   'Sc4 Co10 P12 Ir6 Rh4'
_cell_volume   471.80202409
_cell_formula_units_Z   2
loop_
 _symmetry_equiv_pos_site_id
 _symmetry_equiv_pos_as_xyz
  1  'x, y, z'
loop_
 _atom_site_type_symbol
 _atom_site_label
 _atom_site_symmetry_multiplicity
 _atom_site_fract_x
 _atom_site_fract_y
 _atom_site_fract_z
 _atom_site_occupancy
  Sc  Sc0  1  0.250000  0.587461  0.714183  1
  Sc  Sc1  1  0.250000  0.912539  0.214183  1
  Sc  Sc2  1  0.750000  0.423257  0.290209  1
  Sc  Sc3  1  0.750000  0.076743  0.790209  1
  Co  Co4  1  0.750000  0.776947  0.821952  1
  Co  Co5  1  0.750000  0.723053  0.321952  1
  Co  Co6  1  0.250000  0.877416  0.696851  1
  Co  Co7  1  0.250000  0.622584  0.196851  1
  Co  Co8  1  0.750000  0.110444  0.301700  1
  Co  Co9  1  0.750000  0.389556  0.801700  1
  Co  Co10  1  0.250000  0.462896  0.931005  1
  Co  Co11  1  0.250000  0.037104  0.431005  1
  Co  Co12  1  0.750000  0.538107  0.068589  1
  Co  Co13  1  0.750000  0.961893  0.568589  1
  P  P14  1  0.250000  0.432456  0.112915  1
  P  P15  1  0.250000  0.067544  0.612915  1
  P  P16  1  0.750000  0.578521  0.887129  1
  P  P17  1  0.750000  0.921479  0.387129  1
  P  P18  1  0.250000  0.270899  0.869130  1
  P  P19  1  0.250000  0.229101  0.369130  1
  P  P20  1  0.750000  0.728282  0.140472  1
  P  P21  1  0.750000  0.771718  0.640472  1
  P  P22  1  0.250000  0.605928  0.375149  1
  P  P23  1  0.250000  0.894072  0.875149  1
  P  P24  1  0.750000  0.405814  0.621344  1
  P  P25  1  0.750000  0.094186  0.121344  1
  Ir  Ir26  1  0.250000  0.414301  0.471544  1
  Ir  Ir27  1  0.250000  0.085699  0.971544  1
  Ir  Ir28  1  0.750000  0.596701  0.526470  1
  Ir  Ir29  1  0.750000  0.903299  0.026470  1
  Ir  Ir30  1  0.250000  0.226457  0.179978  1
  Ir  Ir31  1  0.250000  0.273544  0.679978  1
  Rh  Rh32  1  0.250000  0.711795  0.983785  1
  Rh  Rh33  1  0.250000  0.788205  0.483785  1
  Rh  Rh34  1  0.750000  0.279726  0.007595  1
  Rh  Rh35  1  0.750000  0.220274  0.507595  1
