# generated using pymatgen
data_Zr4GaSi3Mo4
_symmetry_space_group_name_H-M   'P 1'
_cell_length_a   3.53419000
_cell_length_b   7.03981564
_cell_length_c   8.32445537
_cell_angle_alpha   90.41474345
_cell_angle_beta   90.00000000
_cell_angle_gamma   90.00000000
_symmetry_Int_Tables_number   1
_chemical_formula_structural   Zr4GaSi3Mo4
_chemical_formula_sum   'Zr4 Ga1 Si3 Mo4'
_cell_volume   207.10740668
_cell_formula_units_Z   1
loop_
 _symmetry_equiv_pos_site_id
 _symmetry_equiv_pos_as_xyz
  1  'x, y, z'
loop_
 _atom_site_type_symbol
 _atom_site_label
 _atom_site_symmetry_multiplicity
 _atom_site_fract_x
 _atom_site_fract_y
 _atom_site_fract_z
 _atom_site_occupancy
  Zr  Zr0  1  0.250000  0.045492  0.329860  1
  Zr  Zr1  1  0.750000  0.948734  0.667745  1
  Zr  Zr2  1  0.250000  0.543686  0.168526  1
  Zr  Zr3  1  0.750000  0.456817  0.837542  1
  Ga  Ga4  1  0.250000  0.253897  0.637943  1
  Si  Si5  1  0.750000  0.746541  0.362224  1
  Si  Si6  1  0.250000  0.756128  0.863120  1
  Si  Si7  1  0.750000  0.243269  0.136796  1
  Mo  Mo8  1  0.750000  0.375719  0.432893  1
  Mo  Mo9  1  0.250000  0.632319  0.558936  1
  Mo  Mo10  1  0.750000  0.868945  0.062168  1
  Mo  Mo11  1  0.250000  0.128453  0.942248  1
