# generated using pymatgen
data_Zr3Pa2MnSb3
_symmetry_space_group_name_H-M   'P 1'
_cell_length_a   5.96206300
_cell_length_b   9.00073166
_cell_length_c   8.79694837
_cell_angle_alpha   120.76929953
_cell_angle_beta   90.00000000
_cell_angle_gamma   90.00000000
_symmetry_Int_Tables_number   1
_chemical_formula_structural   Zr3Pa2MnSb3
_chemical_formula_sum   'Zr6 Pa4 Mn2 Sb6'
_cell_volume   405.61867496
_cell_formula_units_Z   2
loop_
 _symmetry_equiv_pos_site_id
 _symmetry_equiv_pos_as_xyz
  1  'x, y, z'
loop_
 _atom_site_type_symbol
 _atom_site_label
 _atom_site_symmetry_multiplicity
 _atom_site_fract_x
 _atom_site_fract_y
 _atom_site_fract_z
 _atom_site_occupancy
  Zr  Zr0  1  0.750000  0.260253  0.000000  1
  Zr  Zr1  1  0.250000  0.739747  0.000000  1
  Zr  Zr2  1  0.000000  0.670280  0.340557  1
  Zr  Zr3  1  0.000000  0.329720  0.659443  1
  Zr  Zr4  1  0.500000  0.329720  0.659443  1
  Zr  Zr5  1  0.500000  0.670280  0.340557  1
  Pa  Pa6  1  0.750000  0.763395  0.764555  1
  Pa  Pa7  1  0.250000  0.236605  0.235445  1
  Pa  Pa8  1  0.750000  0.998840  0.235445  1
  Pa  Pa9  1  0.250000  0.001160  0.764555  1
  Mn  Mn10  1  0.000000  0.000000  0.000000  1
  Mn  Mn11  1  0.500000  0.000000  0.000000  1
  Sb  Sb12  1  0.750000  0.398937  0.392892  1
  Sb  Sb13  1  0.250000  0.601063  0.607108  1
  Sb  Sb14  1  0.750000  0.006046  0.607108  1
  Sb  Sb15  1  0.250000  0.993954  0.392892  1
  Sb  Sb16  1  0.750000  0.595769  0.000000  1
  Sb  Sb17  1  0.250000  0.404231  0.000000  1
