# generated using pymatgen
data_Zr10FeSiBiPb5
_symmetry_space_group_name_H-M   'P 1'
_cell_length_a   8.83101869
_cell_length_b   8.83101815
_cell_length_c   5.92173410
_cell_angle_alpha   89.98945627
_cell_angle_beta   89.98946268
_cell_angle_gamma   119.92991042
_symmetry_Int_Tables_number   1
_chemical_formula_structural   Zr10FeSiBiPb5
_chemical_formula_sum   'Zr10 Fe1 Si1 Bi1 Pb5'
_cell_volume   400.22792023
_cell_formula_units_Z   1
loop_
 _symmetry_equiv_pos_site_id
 _symmetry_equiv_pos_as_xyz
  1  'x, y, z'
loop_
 _atom_site_type_symbol
 _atom_site_label
 _atom_site_symmetry_multiplicity
 _atom_site_fract_x
 _atom_site_fract_y
 _atom_site_fract_z
 _atom_site_occupancy
  Zr  Zr0  1  0.666875  0.333328  0.500572  1
  Zr  Zr1  1  0.333328  0.666875  0.500572  1
  Zr  Zr2  1  0.333478  0.666966  0.999306  1
  Zr  Zr3  1  0.666966  0.333478  0.999306  1
  Zr  Zr4  1  0.750156  0.750156  0.257632  1
  Zr  Zr5  1  0.248655  0.998965  0.258171  1
  Zr  Zr6  1  0.998965  0.248655  0.258171  1
  Zr  Zr7  1  0.250332  0.250332  0.741913  1
  Zr  Zr8  1  0.750294  0.000176  0.742032  1
  Zr  Zr9  1  0.000176  0.750294  0.742032  1
  Fe  Fe10  1  0.999278  0.999278  0.500691  1
  Si  Si11  1  0.999709  0.999709  0.999571  1
  Bi  Bi12  1  0.393753  0.393753  0.248993  1
  Pb  Pb13  1  0.606489  0.999997  0.248234  1
  Pb  Pb14  1  0.999997  0.606489  0.248234  1
  Pb  Pb15  1  0.608312  0.608312  0.751629  1
  Pb  Pb16  1  0.393282  0.999954  0.751471  1
  Pb  Pb17  1  0.999954  0.393282  0.751471  1
