# generated using pymatgen
data_K(Cr5S8)2
_symmetry_space_group_name_H-M   'P 1'
_cell_length_a   6.91545359
_cell_length_b   9.15992755
_cell_length_c   9.33893031
_cell_angle_alpha   72.47640584
_cell_angle_beta   68.25165087
_cell_angle_gamma   79.09066902
_symmetry_Int_Tables_number   1
_chemical_formula_structural   K(Cr5S8)2
_chemical_formula_sum   'K1 Cr10 S16'
_cell_volume   521.94828379
_cell_formula_units_Z   1
loop_
 _symmetry_equiv_pos_site_id
 _symmetry_equiv_pos_as_xyz
  1  'x, y, z'
loop_
 _atom_site_type_symbol
 _atom_site_label
 _atom_site_symmetry_multiplicity
 _atom_site_fract_x
 _atom_site_fract_y
 _atom_site_fract_z
 _atom_site_occupancy
  K  K0  1  0.000000  0.000000  0.000000  1
  Cr  Cr1  1  0.816750  0.409912  0.162601  1
  Cr  Cr2  1  0.316779  0.406931  0.162914  1
  Cr  Cr3  1  0.683221  0.593069  0.837086  1
  Cr  Cr4  1  0.183250  0.590088  0.837399  1
  Cr  Cr5  1  0.500000  0.000000  0.500000  1
  Cr  Cr6  1  0.000000  0.000000  0.500000  1
  Cr  Cr7  1  0.841883  0.686050  0.472108  1
  Cr  Cr8  1  0.342861  0.685543  0.471173  1
  Cr  Cr9  1  0.657139  0.314457  0.528827  1
  Cr  Cr10  1  0.158117  0.313950  0.527892  1
  S  S11  1  0.629680  0.828230  0.326048  1
  S  S12  1  0.129436  0.828177  0.326212  1
  S  S13  1  0.870564  0.171823  0.673788  1
  S  S14  1  0.370320  0.171770  0.673952  1
  S  S15  1  0.958419  0.474756  0.345525  1
  S  S16  1  0.459103  0.474865  0.345232  1
  S  S17  1  0.540897  0.525135  0.654768  1
  S  S18  1  0.041581  0.525244  0.654475  1
  S  S19  1  0.339899  0.655406  0.990705  1
  S  S20  1  0.840954  0.656942  0.990166  1
  S  S21  1  0.159046  0.343058  0.009834  1
  S  S22  1  0.660101  0.344594  0.009295  1
  S  S23  1  0.786481  0.153390  0.350333  1
  S  S24  1  0.286509  0.153337  0.350405  1
  S  S25  1  0.713491  0.846663  0.649595  1
  S  S26  1  0.213519  0.846610  0.649667  1
