# generated using pymatgen
data_TbNd8ErPb6
_symmetry_space_group_name_H-M   'P 1'
_cell_length_a   9.33060800
_cell_length_b   9.33060838
_cell_length_c   6.85211900
_cell_angle_alpha   90.00000000
_cell_angle_beta   90.00000000
_cell_angle_gamma   119.99999865
_symmetry_Int_Tables_number   1
_chemical_formula_structural   TbNd8ErPb6
_chemical_formula_sum   'Tb1 Nd8 Er1 Pb6'
_cell_volume   516.62502611
_cell_formula_units_Z   1
loop_
 _symmetry_equiv_pos_site_id
 _symmetry_equiv_pos_as_xyz
  1  'x, y, z'
loop_
 _atom_site_type_symbol
 _atom_site_label
 _atom_site_symmetry_multiplicity
 _atom_site_fract_x
 _atom_site_fract_y
 _atom_site_fract_z
 _atom_site_occupancy
  Tb  Tb0  1  0.333333  0.666667  0.500000  1
  Nd  Nd1  1  0.666667  0.333333  0.000000  1
  Nd  Nd2  1  0.333333  0.666667  0.000000  1
  Nd  Nd3  1  0.759741  0.759609  0.748535  1
  Nd  Nd4  1  0.240391  0.000132  0.748535  1
  Nd  Nd5  1  0.999868  0.240259  0.748535  1
  Nd  Nd6  1  0.240391  0.240259  0.251465  1
  Nd  Nd7  1  0.759741  0.000132  0.251465  1
  Nd  Nd8  1  0.999868  0.759609  0.251465  1
  Er  Er9  1  0.666667  0.333333  0.500000  1
  Pb  Pb10  1  0.396093  0.395634  0.744134  1
  Pb  Pb11  1  0.604366  0.000458  0.744134  1
  Pb  Pb12  1  0.999542  0.603907  0.744134  1
  Pb  Pb13  1  0.604366  0.603907  0.255866  1
  Pb  Pb14  1  0.396093  0.000458  0.255866  1
  Pb  Pb15  1  0.999542  0.395634  0.255866  1
