# generated using pymatgen
data_Sr9Tc4HgN14
_symmetry_space_group_name_H-M   'P 1'
_cell_length_a   6.51858085
_cell_length_b   9.18579621
_cell_length_c   9.52896611
_cell_angle_alpha   115.05481801
_cell_angle_beta   100.21195343
_cell_angle_gamma   90.36326144
_symmetry_Int_Tables_number   1
_chemical_formula_structural   Sr9Tc4HgN14
_chemical_formula_sum   'Sr9 Tc4 Hg1 N14'
_cell_volume   506.57513074
_cell_formula_units_Z   1
loop_
 _symmetry_equiv_pos_site_id
 _symmetry_equiv_pos_as_xyz
  1  'x, y, z'
loop_
 _atom_site_type_symbol
 _atom_site_label
 _atom_site_symmetry_multiplicity
 _atom_site_fract_x
 _atom_site_fract_y
 _atom_site_fract_z
 _atom_site_occupancy
  Sr  Sr0  1  0.258106  0.976562  0.554405  1
  Sr  Sr1  1  0.702071  0.419344  0.860876  1
  Sr  Sr2  1  0.286423  0.590433  0.161800  1
  Sr  Sr3  1  0.395300  0.795761  0.911427  1
  Sr  Sr4  1  0.616639  0.234014  0.110456  1
  Sr  Sr5  1  0.125121  0.401264  0.662266  1
  Sr  Sr6  1  0.874952  0.828145  0.741068  1
  Sr  Sr7  1  0.117580  0.169794  0.239904  1
  Sr  Sr8  1  0.723320  0.989666  0.419721  1
  Tc  Tc9  1  0.579401  0.352658  0.483103  1
  Tc  Tc10  1  0.419854  0.632235  0.532993  1
  Tc  Tc11  1  0.131981  0.210241  0.904833  1
  Tc  Tc12  1  0.879590  0.797824  0.077062  1
  Hg  Hg13  1  0.873461  0.593499  0.341108  1
  N  N14  1  0.588197  0.560360  0.676321  1
  N  N15  1  0.406122  0.426901  0.338884  1
  N  N16  1  0.190701  0.708453  0.619228  1
  N  N17  1  0.820145  0.265255  0.414928  1
  N  N18  1  0.425652  0.194723  0.501466  1
  N  N19  1  0.546289  0.800167  0.511686  1
  N  N20  1  0.969841  0.124427  0.703627  1
  N  N21  1  0.054293  0.891552  0.271452  1
  N  N22  1  0.249062  0.061269  0.967059  1
  N  N23  1  0.779478  0.954424  0.017777  1
  N  N24  1  0.351944  0.345335  0.914942  1
  N  N25  1  0.970498  0.324328  0.044086  1
  N  N26  1  0.021432  0.653953  0.930685  1
  N  N27  1  0.642550  0.697410  0.086839  1
