# generated using pymatgen
data_PrTmSc2(ZnSn)4
_symmetry_space_group_name_H-M   'P 1'
_cell_length_a   4.48148900
_cell_length_b   4.48149034
_cell_length_c   15.48767000
_cell_angle_alpha   90.00000000
_cell_angle_beta   90.00000000
_cell_angle_gamma   120.00001227
_symmetry_Int_Tables_number   1
_chemical_formula_structural   PrTmSc2(ZnSn)4
_chemical_formula_sum   'Pr1 Tm1 Sc2 Zn4 Sn4'
_cell_volume   269.37759031
_cell_formula_units_Z   1
loop_
 _symmetry_equiv_pos_site_id
 _symmetry_equiv_pos_as_xyz
  1  'x, y, z'
loop_
 _atom_site_type_symbol
 _atom_site_label
 _atom_site_symmetry_multiplicity
 _atom_site_fract_x
 _atom_site_fract_y
 _atom_site_fract_z
 _atom_site_occupancy
  Pr  Pr0  1  0.000000  0.000000  0.000000  1
  Tm  Tm1  1  0.000000  0.000000  0.500000  1
  Sc  Sc2  1  0.000000  0.000000  0.254304  1
  Sc  Sc3  1  0.000000  0.000000  0.745696  1
  Zn  Zn4  1  0.333333  0.666667  0.336566  1
  Zn  Zn5  1  0.666667  0.333333  0.663434  1
  Zn  Zn6  1  0.666667  0.333333  0.833390  1
  Zn  Zn7  1  0.333333  0.666667  0.166610  1
  Sn  Sn8  1  0.333333  0.666667  0.875991  1
  Sn  Sn9  1  0.666667  0.333333  0.124009  1
  Sn  Sn10  1  0.666667  0.333333  0.386194  1
  Sn  Sn11  1  0.333333  0.666667  0.613806  1
