# generated using pymatgen
data_TmLu3ReB12Ru
_symmetry_space_group_name_H-M   'P 1'
_cell_length_a   3.61119100
_cell_length_b   9.05321250
_cell_length_c   11.42179100
_cell_angle_alpha   90.19782814
_cell_angle_beta   90.00000000
_cell_angle_gamma   90.00000000
_symmetry_Int_Tables_number   1
_chemical_formula_structural   TmLu3ReB12Ru
_chemical_formula_sum   'Tm2 Lu6 Re2 B24 Ru2'
_cell_volume   373.40901105
_cell_formula_units_Z   2
loop_
 _symmetry_equiv_pos_site_id
 _symmetry_equiv_pos_as_xyz
  1  'x, y, z'
loop_
 _atom_site_type_symbol
 _atom_site_label
 _atom_site_symmetry_multiplicity
 _atom_site_fract_x
 _atom_site_fract_y
 _atom_site_fract_z
 _atom_site_occupancy
  Tm  Tm0  1  0.000000  0.320367  0.412343  1
  Tm  Tm1  1  0.000000  0.679633  0.587657  1
  Lu  Lu2  1  0.000000  0.824297  0.084330  1
  Lu  Lu3  1  0.000000  0.175703  0.915670  1
  Lu  Lu4  1  0.000000  0.943186  0.370717  1
  Lu  Lu5  1  0.000000  0.056814  0.629283  1
  Lu  Lu6  1  0.000000  0.443167  0.128684  1
  Lu  Lu7  1  0.000000  0.556833  0.871316  1
  Re  Re8  1  0.000000  0.138580  0.179648  1
  Re  Re9  1  0.000000  0.861420  0.820352  1
  B  B10  1  0.500000  0.553975  0.433528  1
  B  B11  1  0.500000  0.446025  0.566472  1
  B  B12  1  0.500000  0.052916  0.066107  1
  B  B13  1  0.500000  0.947084  0.933893  1
  B  B14  1  0.500000  0.750047  0.419352  1
  B  B15  1  0.500000  0.249953  0.580648  1
  B  B16  1  0.500000  0.250335  0.080005  1
  B  B17  1  0.500000  0.749665  0.919995  1
  B  B18  1  0.500000  0.792032  0.265149  1
  B  B19  1  0.500000  0.207968  0.734851  1
  B  B20  1  0.500000  0.293189  0.235080  1
  B  B21  1  0.500000  0.706811  0.764920  1
  B  B22  1  0.500000  0.630929  0.184801  1
  B  B23  1  0.500000  0.369071  0.815199  1
  B  B24  1  0.500000  0.130917  0.315791  1
  B  B25  1  0.500000  0.869083  0.684209  1
  B  B26  1  0.500000  0.981144  0.212497  1
  B  B27  1  0.500000  0.018856  0.787503  1
  B  B28  1  0.500000  0.482589  0.287738  1
  B  B29  1  0.500000  0.517411  0.712262  1
  B  B30  1  0.500000  0.602306  0.028482  1
  B  B31  1  0.500000  0.397694  0.971518  1
  B  B32  1  0.500000  0.101977  0.472040  1
  B  B33  1  0.500000  0.898023  0.527960  1
  Ru  Ru34  1  0.000000  0.638473  0.321041  1
  Ru  Ru35  1  0.000000  0.361527  0.678959  1
