# generated using pymatgen
data_Ti13Al9(CoIr3)2
_symmetry_space_group_name_H-M   'P 1'
_cell_length_a   8.70285037
_cell_length_b   8.70284945
_cell_length_c   8.70285021
_cell_angle_alpha   59.82415035
_cell_angle_beta   59.82415178
_cell_angle_gamma   59.82415836
_symmetry_Int_Tables_number   1
_chemical_formula_structural   Ti13Al9(CoIr3)2
_chemical_formula_sum   'Ti13 Al9 Co2 Ir6'
_cell_volume   464.22940331
_cell_formula_units_Z   1
loop_
 _symmetry_equiv_pos_site_id
 _symmetry_equiv_pos_as_xyz
  1  'x, y, z'
loop_
 _atom_site_type_symbol
 _atom_site_label
 _atom_site_symmetry_multiplicity
 _atom_site_fract_x
 _atom_site_fract_y
 _atom_site_fract_z
 _atom_site_occupancy
  Ti  Ti0  1  0.201395  0.201395  0.797845  1
  Ti  Ti1  1  0.797845  0.201395  0.201395  1
  Ti  Ti2  1  0.201395  0.797845  0.201395  1
  Ti  Ti3  1  0.803874  0.803874  0.184370  1
  Ti  Ti4  1  0.184370  0.803874  0.803874  1
  Ti  Ti5  1  0.803874  0.184370  0.803874  1
  Ti  Ti6  1  0.381440  0.381440  0.381440  1
  Ti  Ti7  1  0.381864  0.856653  0.381864  1
  Ti  Ti8  1  0.856653  0.381864  0.381864  1
  Ti  Ti9  1  0.381864  0.381864  0.856653  1
  Ti  Ti10  1  0.840802  0.481051  0.840802  1
  Ti  Ti11  1  0.481051  0.840802  0.840802  1
  Ti  Ti12  1  0.840802  0.840802  0.481051  1
  Al  Al13  1  0.158092  0.158092  0.158092  1
  Al  Al14  1  0.161082  0.519224  0.161082  1
  Al  Al15  1  0.519224  0.161082  0.161082  1
  Al  Al16  1  0.161082  0.161082  0.519224  1
  Al  Al17  1  0.617529  0.617529  0.617529  1
  Al  Al18  1  0.617290  0.150693  0.617290  1
  Al  Al19  1  0.150693  0.617290  0.617290  1
  Al  Al20  1  0.617290  0.617290  0.150693  1
  Al  Al21  1  0.830186  0.830186  0.830186  1
  Co  Co22  1  0.501629  0.501629  0.501629  1
  Co  Co23  1  0.003057  0.003057  0.003057  1
  Ir  Ir24  1  0.003075  0.003075  0.498510  1
  Ir  Ir25  1  0.498510  0.003075  0.003075  1
  Ir  Ir26  1  0.003075  0.498510  0.003075  1
  Ir  Ir27  1  0.499262  0.499262  0.002433  1
  Ir  Ir28  1  0.002433  0.499262  0.499262  1
  Ir  Ir29  1  0.499262  0.002433  0.499262  1
