# generated using pymatgen
data_La2MnAl20Ir3
_symmetry_space_group_name_H-M   'P 1'
_cell_length_a   6.88575202
_cell_length_b   6.89887051
_cell_length_c   9.19614414
_cell_angle_alpha   90.19356330
_cell_angle_beta   89.96715031
_cell_angle_gamma   97.21596248
_symmetry_Int_Tables_number   1
_chemical_formula_structural   La2MnAl20Ir3
_chemical_formula_sum   'La2 Mn1 Al20 Ir3'
_cell_volume   433.39035416
_cell_formula_units_Z   1
loop_
 _symmetry_equiv_pos_site_id
 _symmetry_equiv_pos_as_xyz
  1  'x, y, z'
loop_
 _atom_site_type_symbol
 _atom_site_label
 _atom_site_symmetry_multiplicity
 _atom_site_fract_x
 _atom_site_fract_y
 _atom_site_fract_z
 _atom_site_occupancy
  La  La0  1  0.872831  0.123055  0.748379  1
  La  La1  1  0.127169  0.876945  0.251621  1
  Mn  Mn2  1  0.500000  0.000000  0.500000  1
  Al  Al3  1  0.617738  0.372697  0.549002  1
  Al  Al4  1  0.382262  0.627303  0.450998  1
  Al  Al5  1  0.380073  0.621404  0.052473  1
  Al  Al6  1  0.619927  0.378596  0.947527  1
  Al  Al7  1  0.229570  0.220348  0.497122  1
  Al  Al8  1  0.770430  0.779652  0.502878  1
  Al  Al9  1  0.775343  0.776590  0.001493  1
  Al  Al10  1  0.224657  0.223410  0.998507  1
  Al  Al11  1  0.839306  0.161559  0.105514  1
  Al  Al12  1  0.160694  0.838441  0.894486  1
  Al  Al13  1  0.165942  0.842607  0.601347  1
  Al  Al14  1  0.834058  0.157393  0.398653  1
  Al  Al15  1  0.857346  0.591906  0.749327  1
  Al  Al16  1  0.142654  0.408094  0.250673  1
  Al  Al17  1  0.412119  0.140034  0.745296  1
  Al  Al18  1  0.587881  0.859966  0.254704  1
  Al  Al19  1  0.225683  0.482241  0.749810  1
  Al  Al20  1  0.774317  0.517759  0.250190  1
  Al  Al21  1  0.516726  0.778251  0.743885  1
  Al  Al22  1  0.483274  0.221749  0.256115  1
  Ir  Ir23  1  0.000000  0.500000  0.500000  1
  Ir  Ir24  1  0.000000  0.500000  0.000000  1
  Ir  Ir25  1  0.500000  0.000000  0.000000  1
