# generated using pymatgen
data_Y5Lu5Si5Sb
_symmetry_space_group_name_H-M   'P 1'
_cell_length_a   8.35421600
_cell_length_b   8.37621105
_cell_length_c   6.18741800
_cell_angle_alpha   90.00000000
_cell_angle_beta   90.00000000
_cell_angle_gamma   119.86621431
_symmetry_Int_Tables_number   1
_chemical_formula_structural   Y5Lu5Si5Sb
_chemical_formula_sum   'Y5 Lu5 Si5 Sb1'
_cell_volume   375.47177892
_cell_formula_units_Z   1
loop_
 _symmetry_equiv_pos_site_id
 _symmetry_equiv_pos_as_xyz
  1  'x, y, z'
loop_
 _atom_site_type_symbol
 _atom_site_label
 _atom_site_symmetry_multiplicity
 _atom_site_fract_x
 _atom_site_fract_y
 _atom_site_fract_z
 _atom_site_occupancy
  Y  Y0  1  0.764813  0.000140  0.750000  1
  Y  Y1  1  0.754182  0.755040  0.250000  1
  Y  Y2  1  0.999608  0.243993  0.250000  1
  Y  Y3  1  0.988281  0.747622  0.750000  1
  Y  Y4  1  0.241891  0.000482  0.250000  1
  Lu  Lu5  1  0.674581  0.343322  0.003244  1
  Lu  Lu6  1  0.331143  0.656231  0.497000  1
  Lu  Lu7  1  0.331143  0.656231  0.003000  1
  Lu  Lu8  1  0.674581  0.343322  0.496756  1
  Lu  Lu9  1  0.241162  0.253990  0.750000  1
  Si  Si10  1  0.395872  0.393233  0.250000  1
  Si  Si11  1  0.002733  0.607041  0.250000  1
  Si  Si12  1  0.000146  0.395477  0.750000  1
  Si  Si13  1  0.600412  0.601882  0.750000  1
  Si  Si14  1  0.605007  0.000209  0.250000  1
  Sb  Sb15  1  0.394448  0.001788  0.750000  1
