# generated using pymatgen
data_Sc12Mn3Bi2
_symmetry_space_group_name_H-M   'P 1'
_cell_length_a   7.90266606
_cell_length_b   7.90268113
_cell_length_c   7.90266584
_cell_angle_alpha   108.25484022
_cell_angle_beta   108.25113051
_cell_angle_gamma   111.93609777
_symmetry_Int_Tables_number   1
_chemical_formula_structural   Sc12Mn3Bi2
_chemical_formula_sum   'Sc12 Mn3 Bi2'
_cell_volume   379.39715992
_cell_formula_units_Z   1
loop_
 _symmetry_equiv_pos_site_id
 _symmetry_equiv_pos_as_xyz
  1  'x, y, z'
loop_
 _atom_site_type_symbol
 _atom_site_label
 _atom_site_symmetry_multiplicity
 _atom_site_fract_x
 _atom_site_fract_y
 _atom_site_fract_z
 _atom_site_occupancy
  Sc  Sc0  1  0.307762  0.307818  0.615586  1
  Sc  Sc1  1  0.692238  0.692182  0.384414  1
  Sc  Sc2  1  0.692232  0.307818  0.000056  1
  Sc  Sc3  1  0.307768  0.692182  0.999944  1
  Sc  Sc4  1  0.193455  0.422664  0.229209  1
  Sc  Sc5  1  0.806545  0.577336  0.770791  1
  Sc  Sc6  1  0.193455  0.964235  0.770781  1
  Sc  Sc7  1  0.964142  0.193438  0.770700  1
  Sc  Sc8  1  0.806545  0.035765  0.229219  1
  Sc  Sc9  1  0.035858  0.806562  0.229300  1
  Sc  Sc10  1  0.422738  0.193438  0.229295  1
  Sc  Sc11  1  0.577262  0.806562  0.770705  1
  Mn  Mn12  1  0.381506  0.381497  0.999991  1
  Mn  Mn13  1  0.618494  0.618503  0.000009  1
  Mn  Mn14  1  0.000000  0.000000  0.000000  1
  Bi  Bi15  1  0.000000  0.500000  0.500000  1
  Bi  Bi16  1  0.500000  0.000000  0.500000  1
