# generated using pymatgen
data_Sm3Fe(As3Rh4)2
_symmetry_space_group_name_H-M   'P 1'
_cell_length_a   4.02287000
_cell_length_b   11.58368000
_cell_length_c   13.17985800
_cell_angle_alpha   90.00000000
_cell_angle_beta   90.00000000
_cell_angle_gamma   90.00000000
_symmetry_Int_Tables_number   1
_chemical_formula_structural   Sm3Fe(As3Rh4)2
_chemical_formula_sum   'Sm6 Fe2 As12 Rh16'
_cell_volume   614.17662173
_cell_formula_units_Z   2
loop_
 _symmetry_equiv_pos_site_id
 _symmetry_equiv_pos_as_xyz
  1  'x, y, z'
loop_
 _atom_site_type_symbol
 _atom_site_label
 _atom_site_symmetry_multiplicity
 _atom_site_fract_x
 _atom_site_fract_y
 _atom_site_fract_z
 _atom_site_occupancy
  Sm  Sm0  1  0.000000  0.500000  0.520396  1
  Sm  Sm1  1  0.500000  0.000000  0.479604  1
  Sm  Sm2  1  0.500000  0.819322  0.201729  1
  Sm  Sm3  1  0.500000  0.180678  0.201729  1
  Sm  Sm4  1  0.000000  0.680678  0.798271  1
  Sm  Sm5  1  0.000000  0.319322  0.798271  1
  Fe  Fe6  1  0.000000  0.500000  0.988940  1
  Fe  Fe7  1  0.500000  0.000000  0.011060  1
  As  As8  1  0.500000  0.500000  0.886311  1
  As  As9  1  0.000000  0.000000  0.113689  1
  As  As10  1  0.500000  0.500000  0.347817  1
  As  As11  1  0.000000  0.000000  0.652183  1
  As  As12  1  0.500000  0.314323  0.619584  1
  As  As13  1  0.500000  0.685677  0.619584  1
  As  As14  1  0.000000  0.185677  0.380416  1
  As  As15  1  0.000000  0.814323  0.380416  1
  As  As16  1  0.500000  0.850989  0.893716  1
  As  As17  1  0.500000  0.149011  0.893716  1
  As  As18  1  0.000000  0.649011  0.106284  1
  As  As19  1  0.000000  0.350989  0.106284  1
  Rh  Rh20  1  0.500000  0.500000  0.158822  1
  Rh  Rh21  1  0.000000  0.000000  0.841178  1
  Rh  Rh22  1  0.500000  0.500000  0.703673  1
  Rh  Rh23  1  0.000000  0.000000  0.296327  1
  Rh  Rh24  1  0.500000  0.333713  0.995268  1
  Rh  Rh25  1  0.500000  0.666287  0.995268  1
  Rh  Rh26  1  0.000000  0.166287  0.004732  1
  Rh  Rh27  1  0.000000  0.833713  0.004732  1
  Rh  Rh28  1  0.500000  0.295279  0.430771  1
  Rh  Rh29  1  0.500000  0.704721  0.430771  1
  Rh  Rh30  1  0.000000  0.204721  0.569229  1
  Rh  Rh31  1  0.000000  0.795279  0.569229  1
  Rh  Rh32  1  0.500000  0.875071  0.709503  1
  Rh  Rh33  1  0.500000  0.124929  0.709503  1
  Rh  Rh34  1  0.000000  0.624929  0.290497  1
  Rh  Rh35  1  0.000000  0.375071  0.290497  1
