# generated using pymatgen
data_YbErB8
_symmetry_space_group_name_H-M   'P 1'
_cell_length_a   7.09178700
_cell_length_b   7.09917900
_cell_length_c   4.02003200
_cell_angle_alpha   90.00000000
_cell_angle_beta   90.00000000
_cell_angle_gamma   90.00000000
_symmetry_Int_Tables_number   1
_chemical_formula_structural   YbErB8
_chemical_formula_sum   'Yb2 Er2 B16'
_cell_volume   202.39198975
_cell_formula_units_Z   2
loop_
 _symmetry_equiv_pos_site_id
 _symmetry_equiv_pos_as_xyz
  1  'x, y, z'
loop_
 _atom_site_type_symbol
 _atom_site_label
 _atom_site_symmetry_multiplicity
 _atom_site_fract_x
 _atom_site_fract_y
 _atom_site_fract_z
 _atom_site_occupancy
  Yb  Yb0  1  0.182927  0.682885  0.000000  1
  Yb  Yb1  1  0.682927  0.817115  0.000000  1
  Er  Er2  1  0.317685  0.182482  0.000000  1
  Er  Er3  1  0.817685  0.317518  0.000000  1
  B  B4  1  0.324378  0.461249  0.500000  1
  B  B5  1  0.676373  0.536950  0.500000  1
  B  B6  1  0.537798  0.323556  0.500000  1
  B  B7  1  0.461913  0.675192  0.500000  1
  B  B8  1  0.999652  0.999137  0.203045  1
  B  B9  1  0.499652  0.500863  0.796955  1
  B  B10  1  0.999652  0.999137  0.796955  1
  B  B11  1  0.499652  0.500863  0.203045  1
  B  B12  1  0.586304  0.086837  0.500000  1
  B  B13  1  0.086304  0.413163  0.500000  1
  B  B14  1  0.913318  0.586201  0.500000  1
  B  B15  1  0.413318  0.913799  0.500000  1
  B  B16  1  0.037798  0.176444  0.500000  1
  B  B17  1  0.176373  0.963050  0.500000  1
  B  B18  1  0.824378  0.038751  0.500000  1
  B  B19  1  0.961913  0.824808  0.500000  1
