# generated using pymatgen
data_La8Zn8Ir7Pd
_symmetry_space_group_name_H-M   'P 1'
_cell_length_a   4.08434400
_cell_length_b   7.48689973
_cell_length_c   16.70413354
_cell_angle_alpha   90.12973201
_cell_angle_beta   90.00000000
_cell_angle_gamma   90.00000000
_symmetry_Int_Tables_number   1
_chemical_formula_structural   La8Zn8Ir7Pd
_chemical_formula_sum   'La8 Zn8 Ir7 Pd1'
_cell_volume   510.79562602
_cell_formula_units_Z   1
loop_
 _symmetry_equiv_pos_site_id
 _symmetry_equiv_pos_as_xyz
  1  'x, y, z'
loop_
 _atom_site_type_symbol
 _atom_site_label
 _atom_site_symmetry_multiplicity
 _atom_site_fract_x
 _atom_site_fract_y
 _atom_site_fract_z
 _atom_site_occupancy
  La  La0  1  0.750000  0.327675  0.439324  1
  La  La1  1  0.250000  0.045117  0.714002  1
  La  La2  1  0.250000  0.560956  0.780907  1
  La  La3  1  0.250000  0.669519  0.557693  1
  La  La4  1  0.750000  0.827015  0.061110  1
  La  La5  1  0.250000  0.167380  0.946283  1
  La  La6  1  0.750000  0.452289  0.218285  1
  La  La7  1  0.750000  0.951585  0.282802  1
  Zn  Zn8  1  0.250000  0.125844  0.150104  1
  Zn  Zn9  1  0.250000  0.997818  0.439981  1
  Zn  Zn10  1  0.750000  0.872038  0.851401  1
  Zn  Zn11  1  0.750000  0.000679  0.558139  1
  Zn  Zn12  1  0.250000  0.499070  0.060589  1
  Zn  Zn13  1  0.750000  0.376721  0.646881  1
  Zn  Zn14  1  0.750000  0.503256  0.941367  1
  Zn  Zn15  1  0.250000  0.626817  0.350888  1
  Ir  Ir16  1  0.250000  0.243001  0.313544  1
  Ir  Ir17  1  0.250000  0.740278  0.934652  1
  Ir  Ir18  1  0.250000  0.238442  0.565917  1
  Ir  Ir19  1  0.250000  0.742012  0.186785  1
  Ir  Ir20  1  0.750000  0.759322  0.433993  1
  Ir  Ir21  1  0.750000  0.257867  0.065080  1
  Ir  Ir22  1  0.750000  0.756902  0.686139  1
  Pd  Pd23  1  0.750000  0.258400  0.814130  1
