# generated using pymatgen
data_KLiTb(P3Pd10)2
_symmetry_space_group_name_H-M   'P 1'
_cell_length_a   8.67823391
_cell_length_b   8.67823386
_cell_length_c   8.67823300
_cell_angle_alpha   59.99999948
_cell_angle_beta   59.99999966
_cell_angle_gamma   59.99999520
_symmetry_Int_Tables_number   1
_chemical_formula_structural   KLiTb(P3Pd10)2
_chemical_formula_sum   'K1 Li1 Tb1 P6 Pd20'
_cell_volume   462.14577931
_cell_formula_units_Z   1
loop_
 _symmetry_equiv_pos_site_id
 _symmetry_equiv_pos_as_xyz
  1  'x, y, z'
loop_
 _atom_site_type_symbol
 _atom_site_label
 _atom_site_symmetry_multiplicity
 _atom_site_fract_x
 _atom_site_fract_y
 _atom_site_fract_z
 _atom_site_occupancy
  K  K0  1  0.250000  0.250000  0.250000  1
  Li  Li1  1  0.000000  0.000000  0.000000  1
  Tb  Tb2  1  0.750000  0.750000  0.750000  1
  P  P3  1  0.738704  0.261296  0.261296  1
  P  P4  1  0.261296  0.738704  0.738704  1
  P  P5  1  0.261296  0.738704  0.261296  1
  P  P6  1  0.738704  0.261296  0.738704  1
  P  P7  1  0.261296  0.261296  0.738704  1
  P  P8  1  0.738704  0.738704  0.261296  1
  Pd  Pd9  1  0.389190  0.389190  0.389190  1
  Pd  Pd10  1  0.615721  0.615721  0.615721  1
  Pd  Pd11  1  0.389190  0.389190  0.832432  1
  Pd  Pd12  1  0.389190  0.832432  0.389190  1
  Pd  Pd13  1  0.615721  0.615721  0.152837  1
  Pd  Pd14  1  0.615721  0.152837  0.615721  1
  Pd  Pd15  1  0.832432  0.389190  0.389190  1
  Pd  Pd16  1  0.152837  0.615721  0.615721  1
  Pd  Pd17  1  0.348195  0.995488  0.995488  1
  Pd  Pd18  1  0.660829  0.995488  0.995488  1
  Pd  Pd19  1  0.995488  0.348195  0.660829  1
  Pd  Pd20  1  0.995488  0.660829  0.348195  1
  Pd  Pd21  1  0.995488  0.348195  0.995488  1
  Pd  Pd22  1  0.660829  0.995488  0.348195  1
  Pd  Pd23  1  0.995488  0.660829  0.995488  1
  Pd  Pd24  1  0.348195  0.995488  0.660829  1
  Pd  Pd25  1  0.995488  0.995488  0.348195  1
  Pd  Pd26  1  0.995488  0.995488  0.660829  1
  Pd  Pd27  1  0.660829  0.348195  0.995488  1
  Pd  Pd28  1  0.348195  0.660829  0.995488  1
