# generated using pymatgen
data_HfZr3Fe4Si3P
_symmetry_space_group_name_H-M   'P 1'
_cell_length_a   3.91314300
_cell_length_b   6.38333033
_cell_length_c   7.03400068
_cell_angle_alpha   90.14252208
_cell_angle_beta   90.00000000
_cell_angle_gamma   90.00000000
_symmetry_Int_Tables_number   1
_chemical_formula_structural   HfZr3Fe4Si3P
_chemical_formula_sum   'Hf1 Zr3 Fe4 Si3 P1'
_cell_volume   175.70094606
_cell_formula_units_Z   1
loop_
 _symmetry_equiv_pos_site_id
 _symmetry_equiv_pos_as_xyz
  1  'x, y, z'
loop_
 _atom_site_type_symbol
 _atom_site_label
 _atom_site_symmetry_multiplicity
 _atom_site_fract_x
 _atom_site_fract_y
 _atom_site_fract_z
 _atom_site_occupancy
  Hf  Hf0  1  0.250000  0.502075  0.195343  1
  Zr  Zr1  1  0.250000  0.003093  0.305383  1
  Zr  Zr2  1  0.750000  0.002300  0.696237  1
  Zr  Zr3  1  0.750000  0.498971  0.803100  1
  Fe  Fe4  1  0.250000  0.156699  0.929895  1
  Fe  Fe5  1  0.250000  0.644674  0.564891  1
  Fe  Fe6  1  0.750000  0.846557  0.067661  1
  Fe  Fe7  1  0.750000  0.344920  0.435464  1
  Si  Si8  1  0.250000  0.789121  0.895354  1
  Si  Si9  1  0.750000  0.709936  0.393515  1
  Si  Si10  1  0.750000  0.213308  0.106796  1
  P  P11  1  0.250000  0.288346  0.606360  1
