# generated using pymatgen
data_Sc6Al24FeRu3Pt4
_symmetry_space_group_name_H-M   'P 1'
_cell_length_a   8.69930919
_cell_length_b   8.69930884
_cell_length_c   9.35664733
_cell_angle_alpha   90.20273839
_cell_angle_beta   89.79726586
_cell_angle_gamma   119.85077353
_symmetry_Int_Tables_number   1
_chemical_formula_structural   Sc6Al24FeRu3Pt4
_chemical_formula_sum   'Sc6 Al24 Fe1 Ru3 Pt4'
_cell_volume   614.14068124
_cell_formula_units_Z   1
loop_
 _symmetry_equiv_pos_site_id
 _symmetry_equiv_pos_as_xyz
  1  'x, y, z'
loop_
 _atom_site_type_symbol
 _atom_site_label
 _atom_site_symmetry_multiplicity
 _atom_site_fract_x
 _atom_site_fract_y
 _atom_site_fract_z
 _atom_site_occupancy
  Sc  Sc0  1  0.189943  0.383761  0.251956  1
  Sc  Sc1  1  0.810057  0.616239  0.748044  1
  Sc  Sc2  1  0.616239  0.810057  0.251956  1
  Sc  Sc3  1  0.383761  0.189943  0.748044  1
  Sc  Sc4  1  0.192430  0.807570  0.251137  1
  Sc  Sc5  1  0.807570  0.192430  0.748863  1
  Al  Al6  1  0.333370  0.666630  0.044518  1
  Al  Al7  1  0.666630  0.333370  0.955482  1
  Al  Al8  1  0.669582  0.330418  0.539615  1
  Al  Al9  1  0.330418  0.669582  0.460385  1
  Al  Al10  1  0.154946  0.319485  0.575494  1
  Al  Al11  1  0.845054  0.680515  0.424506  1
  Al  Al12  1  0.680515  0.845054  0.575494  1
  Al  Al13  1  0.838436  0.677723  0.082166  1
  Al  Al14  1  0.319485  0.154946  0.424506  1
  Al  Al15  1  0.161564  0.322277  0.917834  1
  Al  Al16  1  0.161066  0.838934  0.575934  1
  Al  Al17  1  0.322277  0.161564  0.082166  1
  Al  Al18  1  0.838934  0.161066  0.424066  1
  Al  Al19  1  0.677723  0.838436  0.917834  1
  Al  Al20  1  0.838229  0.161771  0.082321  1
  Al  Al21  1  0.161771  0.838229  0.917679  1
  Al  Al22  1  0.560747  0.121768  0.254161  1
  Al  Al23  1  0.439253  0.878232  0.745839  1
  Al  Al24  1  0.878232  0.439253  0.254161  1
  Al  Al25  1  0.121768  0.560747  0.745839  1
  Al  Al26  1  0.562497  0.437503  0.250635  1
  Al  Al27  1  0.437503  0.562497  0.749365  1
  Al  Al28  1  0.999393  0.000607  0.256615  1
  Al  Al29  1  0.000607  0.999393  0.743385  1
  Fe  Fe30  1  0.000000  0.000000  0.500000  1
  Ru  Ru31  1  0.500000  0.000000  0.500000  1
  Ru  Ru32  1  0.000000  0.500000  0.500000  1
  Ru  Ru33  1  0.000000  0.000000  0.000000  1
  Pt  Pt34  1  0.500000  0.000000  0.000000  1
  Pt  Pt35  1  0.000000  0.500000  0.000000  1
  Pt  Pt36  1  0.500000  0.500000  0.000000  1
  Pt  Pt37  1  0.500000  0.500000  0.500000  1
