# generated using pymatgen
data_Hf3FeCo3Si4Mo
_symmetry_space_group_name_H-M   'P 1'
_cell_length_a   3.78240600
_cell_length_b   6.27606760
_cell_length_c   7.07829971
_cell_angle_alpha   89.73823698
_cell_angle_beta   90.00000000
_cell_angle_gamma   90.00000000
_symmetry_Int_Tables_number   1
_chemical_formula_structural   Hf3FeCo3Si4Mo
_chemical_formula_sum   'Hf3 Fe1 Co3 Si4 Mo1'
_cell_volume   168.02742489
_cell_formula_units_Z   1
loop_
 _symmetry_equiv_pos_site_id
 _symmetry_equiv_pos_as_xyz
  1  'x, y, z'
loop_
 _atom_site_type_symbol
 _atom_site_label
 _atom_site_symmetry_multiplicity
 _atom_site_fract_x
 _atom_site_fract_y
 _atom_site_fract_z
 _atom_site_occupancy
  Hf  Hf0  1  0.250000  0.510900  0.195133  1
  Hf  Hf1  1  0.750000  0.989019  0.684840  1
  Hf  Hf2  1  0.750000  0.478868  0.809914  1
  Fe  Fe3  1  0.250000  0.151427  0.939917  1
  Co  Co4  1  0.250000  0.648809  0.565521  1
  Co  Co5  1  0.750000  0.844792  0.061016  1
  Co  Co6  1  0.750000  0.361487  0.430016  1
  Si  Si7  1  0.250000  0.277447  0.599595  1
  Si  Si8  1  0.250000  0.781232  0.889325  1
  Si  Si9  1  0.750000  0.736121  0.382682  1
  Si  Si10  1  0.750000  0.202506  0.123630  1
  Mo  Mo11  1  0.250000  0.017391  0.318408  1
