# generated using pymatgen
data_KHgAsO4
_symmetry_space_group_name_H-M   'P 1'
_cell_length_a   10.41691600
_cell_length_b   5.48025518
_cell_length_c   9.02424416
_cell_angle_alpha   91.38419980
_cell_angle_beta   90.00000000
_cell_angle_gamma   90.00000000
_symmetry_Int_Tables_number   1
_chemical_formula_structural   KHgAsO4
_chemical_formula_sum   'K4 Hg4 As4 O16'
_cell_volume   515.01992369
_cell_formula_units_Z   4
loop_
 _symmetry_equiv_pos_site_id
 _symmetry_equiv_pos_as_xyz
  1  'x, y, z'
loop_
 _atom_site_type_symbol
 _atom_site_label
 _atom_site_symmetry_multiplicity
 _atom_site_fract_x
 _atom_site_fract_y
 _atom_site_fract_z
 _atom_site_occupancy
  K  K0  1  0.247854  0.269815  0.750094  1
  K  K1  1  0.747854  0.730185  0.249906  1
  K  K2  1  0.356767  0.259245  0.238478  1
  K  K3  1  0.856767  0.740755  0.761522  1
  Hg  Hg4  1  0.114835  0.728090  0.434733  1
  Hg  Hg5  1  0.614835  0.271910  0.565267  1
  Hg  Hg6  1  0.989885  0.243117  0.073495  1
  Hg  Hg7  1  0.489885  0.756883  0.926505  1
  As  As8  1  0.427784  0.745964  0.526848  1
  As  As9  1  0.927784  0.254036  0.473152  1
  As  As10  1  0.163100  0.742513  0.017464  1
  As  As11  1  0.663100  0.257487  0.982536  1
  O  O12  1  0.430605  0.423547  0.520166  1
  O  O13  1  0.930605  0.576453  0.479834  1
  O  O14  1  0.382908  0.849847  0.699103  1
  O  O15  1  0.882908  0.150153  0.300897  1
  O  O16  1  0.309551  0.821402  0.397331  1
  O  O17  1  0.809551  0.178598  0.602669  1
  O  O18  1  0.070657  0.143695  0.534394  1
  O  O19  1  0.570657  0.856305  0.465606  1
  O  O20  1  0.318366  0.627525  0.035801  1
  O  O21  1  0.818366  0.372475  0.964199  1
  O  O22  1  0.174814  0.062095  0.039609  1
  O  O23  1  0.674814  0.937905  0.960391  1
  O  O24  1  0.076073  0.629912  0.164970  1
  O  O25  1  0.576073  0.370088  0.835030  1
  O  O26  1  0.095261  0.653632  0.854815  1
  O  O27  1  0.595261  0.346368  0.145185  1
