# generated using pymatgen
data_Dy3Sc7In8Pt3Rh
_symmetry_space_group_name_H-M   'P 1'
_cell_length_a   3.52896800
_cell_length_b   7.83505473
_cell_length_c   17.68250433
_cell_angle_alpha   90.09031165
_cell_angle_beta   90.00000000
_cell_angle_gamma   90.00000000
_symmetry_Int_Tables_number   1
_chemical_formula_structural   Dy3Sc7In8Pt3Rh
_chemical_formula_sum   'Dy3 Sc7 In8 Pt3 Rh1'
_cell_volume   488.91457961
_cell_formula_units_Z   1
loop_
 _symmetry_equiv_pos_site_id
 _symmetry_equiv_pos_as_xyz
  1  'x, y, z'
loop_
 _atom_site_type_symbol
 _atom_site_label
 _atom_site_symmetry_multiplicity
 _atom_site_fract_x
 _atom_site_fract_y
 _atom_site_fract_z
 _atom_site_occupancy
  Dy  Dy0  1  0.000000  0.750735  0.781617  1
  Dy  Dy1  1  0.000000  0.255065  0.219587  1
  Dy  Dy2  1  0.000000  0.250210  0.717649  1
  Sc  Sc3  1  0.000000  0.001997  0.002288  1
  Sc  Sc4  1  0.000000  0.498154  0.498892  1
  Sc  Sc5  1  0.000000  0.748812  0.279052  1
  Sc  Sc6  1  0.000000  0.878076  0.582143  1
  Sc  Sc7  1  0.000000  0.118367  0.412233  1
  Sc  Sc8  1  0.000000  0.379098  0.916731  1
  Sc  Sc9  1  0.000000  0.621876  0.089283  1
  In  In10  1  0.500000  0.794333  0.435923  1
  In  In11  1  0.500000  0.199900  0.557435  1
  In  In12  1  0.500000  0.303325  0.063198  1
  In  In13  1  0.500000  0.701199  0.942577  1
  In  In14  1  0.500000  0.919389  0.147850  1
  In  In15  1  0.500000  0.075621  0.856274  1
  In  In16  1  0.500000  0.433899  0.353582  1
  In  In17  1  0.500000  0.575854  0.643210  1
  Pt  Pt18  1  0.500000  0.961774  0.690256  1
  Pt  Pt19  1  0.500000  0.024470  0.306258  1
  Pt  Pt20  1  0.500000  0.462581  0.808790  1
  Rh  Rh21  1  0.500000  0.545266  0.195170  1
