# generated using pymatgen
data_CeGd3(AuCl6)4
_symmetry_space_group_name_H-M   'P 1'
_cell_length_a   8.02640117
_cell_length_b   9.99594225
_cell_length_c   14.18022900
_cell_angle_alpha   104.32050965
_cell_angle_beta   94.50631431
_cell_angle_gamma   112.85242702
_symmetry_Int_Tables_number   1
_chemical_formula_structural   CeGd3(AuCl6)4
_chemical_formula_sum   'Ce1 Gd3 Au4 Cl24'
_cell_volume   996.20565939
_cell_formula_units_Z   1
loop_
 _symmetry_equiv_pos_site_id
 _symmetry_equiv_pos_as_xyz
  1  'x, y, z'
loop_
 _atom_site_type_symbol
 _atom_site_label
 _atom_site_symmetry_multiplicity
 _atom_site_fract_x
 _atom_site_fract_y
 _atom_site_fract_z
 _atom_site_occupancy
  Ce  Ce0  1  0.971447  0.311473  0.870046  1
  Gd  Gd1  1  0.578876  0.925704  0.619492  1
  Gd  Gd2  1  0.030240  0.690372  0.132673  1
  Gd  Gd3  1  0.419628  0.072189  0.378039  1
  Au  Au4  1  0.294261  0.634976  0.761587  1
  Au  Au5  1  0.499103  0.499707  0.499919  1
  Au  Au6  1  0.707591  0.367118  0.238023  1
  Au  Au7  1  0.999096  0.998051  0.000912  1
  Cl  Cl8  1  0.785143  0.096577  0.975552  1
  Cl  Cl9  1  0.715238  0.148463  0.262582  1
  Cl  Cl10  1  0.285146  0.852913  0.736650  1
  Cl  Cl11  1  0.781570  0.795193  0.039461  1
  Cl  Cl12  1  0.627052  0.194790  0.747704  1
  Cl  Cl13  1  0.302759  0.413032  0.782058  1
  Cl  Cl14  1  0.701182  0.589295  0.217475  1
  Cl  Cl15  1  0.314324  0.629966  0.497384  1
  Cl  Cl16  1  0.217753  0.201086  0.962232  1
  Cl  Cl17  1  0.751191  0.729463  0.521572  1
  Cl  Cl18  1  0.211391  0.898753  0.026304  1
  Cl  Cl19  1  0.712419  0.044306  0.477107  1
  Cl  Cl20  1  0.601267  0.734725  0.746233  1
  Cl  Cl21  1  0.936526  0.056177  0.721796  1
  Cl  Cl22  1  0.247138  0.270332  0.478116  1
  Cl  Cl23  1  0.372038  0.803953  0.251079  1
  Cl  Cl24  1  0.984071  0.536724  0.772137  1
  Cl  Cl25  1  0.775156  0.438535  0.982887  1
  Cl  Cl26  1  0.225488  0.562676  0.018345  1
  Cl  Cl27  1  0.016448  0.465476  0.225673  1
  Cl  Cl28  1  0.400895  0.267481  0.254007  1
  Cl  Cl29  1  0.288702  0.956936  0.522935  1
  Cl  Cl30  1  0.683142  0.369068  0.502542  1
  Cl  Cl31  1  0.063719  0.944491  0.277477  1
