# generated using pymatgen
data_Pr2Sn5Rh3
_symmetry_space_group_name_H-M   'P 1'
_cell_length_a   13.65531020
_cell_length_b   13.65531034
_cell_length_c   7.29779100
_cell_angle_alpha   90.00000000
_cell_angle_beta   90.00000000
_cell_angle_gamma   160.84186257
_symmetry_Int_Tables_number   1
_chemical_formula_structural   Pr2Sn5Rh3
_chemical_formula_sum   'Pr4 Sn10 Rh6'
_cell_volume   446.58293623
_cell_formula_units_Z   2
loop_
 _symmetry_equiv_pos_site_id
 _symmetry_equiv_pos_as_xyz
  1  'x, y, z'
loop_
 _atom_site_type_symbol
 _atom_site_label
 _atom_site_symmetry_multiplicity
 _atom_site_fract_x
 _atom_site_fract_y
 _atom_site_fract_z
 _atom_site_occupancy
  Pr  Pr0  1  0.476002  0.523998  0.237992  1
  Pr  Pr1  1  0.172471  0.827529  0.255192  1
  Pr  Pr2  1  0.523998  0.476002  0.737992  1
  Pr  Pr3  1  0.827529  0.172471  0.755192  1
  Sn  Sn4  1  0.704692  0.295308  0.550233  1
  Sn  Sn5  1  0.596492  0.403508  0.110888  1
  Sn  Sn6  1  0.048637  0.951363  0.401101  1
  Sn  Sn7  1  0.951363  0.048637  0.901101  1
  Sn  Sn8  1  0.709985  0.290015  0.975427  1
  Sn  Sn9  1  0.290015  0.709985  0.475427  1
  Sn  Sn10  1  0.295308  0.704692  0.050233  1
  Sn  Sn11  1  0.878588  0.121412  0.233326  1
  Sn  Sn12  1  0.121412  0.878588  0.733326  1
  Sn  Sn13  1  0.403508  0.596492  0.610888  1
  Rh  Rh14  1  0.394287  0.605713  0.982821  1
  Rh  Rh15  1  0.777188  0.222812  0.264826  1
  Rh  Rh16  1  0.222812  0.777188  0.764826  1
  Rh  Rh17  1  0.051530  0.948470  0.020094  1
  Rh  Rh18  1  0.605713  0.394287  0.482821  1
  Rh  Rh19  1  0.948470  0.051530  0.520094  1
