# generated using pymatgen
data_Zr4Nb3(MoN4)3
_symmetry_space_group_name_H-M   'P 1'
_cell_length_a   5.26625300
_cell_length_b   5.26293386
_cell_length_c   10.73593200
_cell_angle_alpha   90.00000000
_cell_angle_beta   90.00000000
_cell_angle_gamma   120.02088322
_symmetry_Int_Tables_number   1
_chemical_formula_structural   Zr4Nb3(MoN4)3
_chemical_formula_sum   'Zr4 Nb3 Mo3 N12'
_cell_volume   257.63720984
_cell_formula_units_Z   1
loop_
 _symmetry_equiv_pos_site_id
 _symmetry_equiv_pos_as_xyz
  1  'x, y, z'
loop_
 _atom_site_type_symbol
 _atom_site_label
 _atom_site_symmetry_multiplicity
 _atom_site_fract_x
 _atom_site_fract_y
 _atom_site_fract_z
 _atom_site_occupancy
  Zr  Zr0  1  0.332825  0.666441  0.501282  1
  Zr  Zr1  1  0.666384  0.333559  0.998718  1
  Zr  Zr2  1  0.666384  0.333559  0.501282  1
  Zr  Zr3  1  0.332825  0.666441  0.998718  1
  Nb  Nb4  1  0.999751  0.673966  0.750000  1
  Nb  Nb5  1  0.325785  0.326034  0.750000  1
  Nb  Nb6  1  0.325645  0.000000  0.250000  1
  Mo  Mo7  1  0.673272  0.000000  0.750000  1
  Mo  Mo8  1  0.674031  0.674065  0.250000  1
  Mo  Mo9  1  0.999966  0.325935  0.250000  1
  N  N10  1  0.341144  0.343624  0.369817  1
  N  N11  1  0.662333  0.000000  0.370412  1
  N  N12  1  0.997521  0.656376  0.369817  1
  N  N13  1  0.998241  0.337630  0.872539  1
  N  N14  1  0.662333  0.000000  0.129588  1
  N  N15  1  0.660610  0.662370  0.872539  1
  N  N16  1  0.341718  0.000000  0.871983  1
  N  N17  1  0.660610  0.662370  0.627461  1
  N  N18  1  0.998241  0.337630  0.627461  1
  N  N19  1  0.997521  0.656376  0.130183  1
  N  N20  1  0.341718  0.000000  0.628017  1
  N  N21  1  0.341144  0.343624  0.130183  1
