# generated using pymatgen
data_Ba3V2Ni3S8
_symmetry_space_group_name_H-M   'P 1'
_cell_length_a   11.65677478
_cell_length_b   11.65694956
_cell_length_c   13.73291319
_cell_angle_alpha   61.40989823
_cell_angle_beta   61.40404856
_cell_angle_gamma   26.25556929
_symmetry_Int_Tables_number   1
_chemical_formula_structural   Ba3V2Ni3S8
_chemical_formula_sum   'Ba6 V4 Ni6 S16'
_cell_volume   718.94353163
_cell_formula_units_Z   2
loop_
 _symmetry_equiv_pos_site_id
 _symmetry_equiv_pos_as_xyz
  1  'x, y, z'
loop_
 _atom_site_type_symbol
 _atom_site_label
 _atom_site_symmetry_multiplicity
 _atom_site_fract_x
 _atom_site_fract_y
 _atom_site_fract_z
 _atom_site_occupancy
  Ba  Ba0  1  0.648046  0.739754  0.406180  1
  Ba  Ba1  1  0.351954  0.260246  0.593820  1
  Ba  Ba2  1  0.739625  0.648150  0.906164  1
  Ba  Ba3  1  0.000000  0.000000  0.500000  1
  Ba  Ba4  1  0.260375  0.351850  0.093836  1
  Ba  Ba5  1  0.000000  0.000000  0.000000  1
  V  V6  1  0.165487  0.586452  0.779510  1
  V  V7  1  0.834513  0.413548  0.220490  1
  V  V8  1  0.586415  0.165521  0.279498  1
  V  V9  1  0.413585  0.834479  0.720502  1
  Ni  Ni10  1  0.280110  0.719916  0.749999  1
  Ni  Ni11  1  0.719890  0.280084  0.250001  1
  Ni  Ni12  1  0.666676  0.085375  0.779138  1
  Ni  Ni13  1  0.914679  0.333293  0.720851  1
  Ni  Ni14  1  0.333324  0.914625  0.220862  1
  Ni  Ni15  1  0.085321  0.666707  0.279149  1
  S  S16  1  0.512413  0.566992  0.338089  1
  S  S17  1  0.116026  0.199005  0.316033  1
  S  S18  1  0.254930  0.324242  0.387513  1
  S  S19  1  0.960706  0.859271  0.873591  1
  S  S20  1  0.039294  0.140729  0.126409  1
  S  S21  1  0.433001  0.487518  0.161955  1
  S  S22  1  0.859150  0.960800  0.373540  1
  S  S23  1  0.487587  0.433008  0.661911  1
  S  S24  1  0.140850  0.039200  0.626460  1
  S  S25  1  0.324166  0.254929  0.887545  1
  S  S26  1  0.675834  0.745071  0.112455  1
  S  S27  1  0.745070  0.675758  0.612487  1
  S  S28  1  0.800976  0.884015  0.183994  1
  S  S29  1  0.883974  0.800995  0.683967  1
  S  S30  1  0.566999  0.512482  0.838045  1
  S  S31  1  0.199024  0.115985  0.816006  1
