# generated using pymatgen
data_Sm3BCl3
_symmetry_space_group_name_H-M   'P 1'
_cell_length_a   9.68452303
_cell_length_b   9.68452299
_cell_length_c   9.68452300
_cell_angle_alpha   109.47121856
_cell_angle_beta   109.47121848
_cell_angle_gamma   109.47122288
_symmetry_Int_Tables_number   1
_chemical_formula_structural   Sm3BCl3
_chemical_formula_sum   'Sm12 B4 Cl12'
_cell_volume   699.21836373
_cell_formula_units_Z   4
loop_
 _symmetry_equiv_pos_site_id
 _symmetry_equiv_pos_as_xyz
  1  'x, y, z'
loop_
 _atom_site_type_symbol
 _atom_site_label
 _atom_site_symmetry_multiplicity
 _atom_site_fract_x
 _atom_site_fract_y
 _atom_site_fract_z
 _atom_site_occupancy
  Sm  Sm0  1  0.472915  0.486457  0.236457  1
  Sm  Sm1  1  0.750000  0.236457  0.263543  1
  Sm  Sm2  1  0.750000  0.013543  0.486457  1
  Sm  Sm3  1  0.236457  0.472915  0.486457  1
  Sm  Sm4  1  0.263543  0.750000  0.236457  1
  Sm  Sm5  1  0.027085  0.263543  0.013543  1
  Sm  Sm6  1  0.013543  0.027085  0.263543  1
  Sm  Sm7  1  0.486457  0.750000  0.013543  1
  Sm  Sm8  1  0.486457  0.236457  0.472915  1
  Sm  Sm9  1  0.013543  0.486457  0.750000  1
  Sm  Sm10  1  0.263543  0.013543  0.027085  1
  Sm  Sm11  1  0.236457  0.263543  0.750000  1
  B  B12  1  0.250000  0.250000  0.250000  1
  B  B13  1  0.500000  0.000000  0.250000  1
  B  B14  1  0.000000  0.250000  0.500000  1
  B  B15  1  0.250000  0.500000  0.000000  1
  Cl  Cl16  1  0.250000  0.755057  0.744943  1
  Cl  Cl17  1  0.510114  0.505057  0.755057  1
  Cl  Cl18  1  0.989886  0.744943  0.994943  1
  Cl  Cl19  1  0.744943  0.250000  0.755057  1
  Cl  Cl20  1  0.994943  0.989886  0.744943  1
  Cl  Cl21  1  0.250000  0.994943  0.505057  1
  Cl  Cl22  1  0.755057  0.510114  0.505057  1
  Cl  Cl23  1  0.505057  0.250000  0.994943  1
  Cl  Cl24  1  0.755057  0.744943  0.250000  1
  Cl  Cl25  1  0.744943  0.994943  0.989886  1
  Cl  Cl26  1  0.994943  0.505057  0.250000  1
  Cl  Cl27  1  0.505057  0.755057  0.510114  1
