# generated using pymatgen
data_NaNdHo(P3Pd10)2
_symmetry_space_group_name_H-M   'P 1'
_cell_length_a   8.67907707
_cell_length_b   8.67908218
_cell_length_c   8.67907300
_cell_angle_alpha   60.00000070
_cell_angle_beta   60.00004983
_cell_angle_gamma   59.99999859
_symmetry_Int_Tables_number   1
_chemical_formula_structural   NaNdHo(P3Pd10)2
_chemical_formula_sum   'Na1 Nd1 Ho1 P6 Pd20'
_cell_volume   462.28079384
_cell_formula_units_Z   1
loop_
 _symmetry_equiv_pos_site_id
 _symmetry_equiv_pos_as_xyz
  1  'x, y, z'
loop_
 _atom_site_type_symbol
 _atom_site_label
 _atom_site_symmetry_multiplicity
 _atom_site_fract_x
 _atom_site_fract_y
 _atom_site_fract_z
 _atom_site_occupancy
  Na  Na0  1  0.000000  0.000000  0.000000  1
  Nd  Nd1  1  0.750000  0.750000  0.750000  1
  Ho  Ho2  1  0.250000  0.250000  0.250000  1
  P  P3  1  0.739715  0.260285  0.260285  1
  P  P4  1  0.260285  0.739715  0.739715  1
  P  P5  1  0.260285  0.739715  0.260286  1
  P  P6  1  0.739715  0.260285  0.739715  1
  P  P7  1  0.260285  0.260285  0.739715  1
  P  P8  1  0.739715  0.739715  0.260285  1
  Pd  Pd9  1  0.383258  0.383257  0.383258  1
  Pd  Pd10  1  0.611905  0.611904  0.611904  1
  Pd  Pd11  1  0.383258  0.383259  0.850228  1
  Pd  Pd12  1  0.383258  0.850228  0.383258  1
  Pd  Pd13  1  0.611905  0.611904  0.164286  1
  Pd  Pd14  1  0.611905  0.164286  0.611904  1
  Pd  Pd15  1  0.850228  0.383258  0.383258  1
  Pd  Pd16  1  0.164285  0.611905  0.611905  1
  Pd  Pd17  1  0.346131  0.000795  0.000795  1
  Pd  Pd18  1  0.652277  0.000795  0.000795  1
  Pd  Pd19  1  0.000795  0.346131  0.652276  1
  Pd  Pd20  1  0.000795  0.652276  0.346131  1
  Pd  Pd21  1  0.000795  0.346131  0.000795  1
  Pd  Pd22  1  0.652276  0.000795  0.346132  1
  Pd  Pd23  1  0.000795  0.652276  0.000795  1
  Pd  Pd24  1  0.346131  0.000795  0.652276  1
  Pd  Pd25  1  0.000795  0.000795  0.346132  1
  Pd  Pd26  1  0.000796  0.000795  0.652276  1
  Pd  Pd27  1  0.652277  0.346131  0.000795  1
  Pd  Pd28  1  0.346131  0.652276  0.000795  1
