# generated using pymatgen
data_TbTm3Ir4F28
_symmetry_space_group_name_H-M   'P 1'
_cell_length_a   5.52356889
_cell_length_b   8.85529107
_cell_length_c   11.89913208
_cell_angle_alpha   62.63106213
_cell_angle_beta   90.06396676
_cell_angle_gamma   90.01616355
_symmetry_Int_Tables_number   1
_chemical_formula_structural   TbTm3Ir4F28
_chemical_formula_sum   'Tb1 Tm3 Ir4 F28'
_cell_volume   516.87109420
_cell_formula_units_Z   1
loop_
 _symmetry_equiv_pos_site_id
 _symmetry_equiv_pos_as_xyz
  1  'x, y, z'
loop_
 _atom_site_type_symbol
 _atom_site_label
 _atom_site_symmetry_multiplicity
 _atom_site_fract_x
 _atom_site_fract_y
 _atom_site_fract_z
 _atom_site_occupancy
  Tb  Tb0  1  0.240193  0.815182  0.765437  1
  Tm  Tm1  1  0.259388  0.815164  0.265535  1
  Tm  Tm2  1  0.739193  0.188287  0.733963  1
  Tm  Tm3  1  0.759798  0.184743  0.234837  1
  Ir  Ir4  1  0.757343  0.726380  0.046107  1
  Ir  Ir5  1  0.242103  0.271160  0.957248  1
  Ir  Ir6  1  0.258471  0.274699  0.454920  1
  Ir  Ir7  1  0.743402  0.726371  0.541675  1
  F  F8  1  0.943924  0.704869  0.413493  1
  F  F9  1  0.054730  0.295195  0.582912  1
  F  F10  1  0.445470  0.293570  0.084290  1
  F  F11  1  0.557684  0.704970  0.917180  1
  F  F12  1  0.466587  0.730113  0.140734  1
  F  F13  1  0.532087  0.269863  0.860815  1
  F  F14  1  0.969675  0.270551  0.358707  1
  F  F15  1  0.035379  0.728348  0.636245  1
  F  F16  1  0.955511  0.746723  0.176475  1
  F  F17  1  0.042834  0.251251  0.827072  1
  F  F18  1  0.458797  0.253872  0.325325  1
  F  F19  1  0.549649  0.745462  0.673258  1
  F  F20  1  0.767556  0.479149  0.142807  1
  F  F21  1  0.229492  0.517270  0.859697  1
  F  F22  1  0.269476  0.521581  0.357800  1
  F  F23  1  0.731745  0.479056  0.640165  1
  F  F24  1  0.944135  0.278122  0.047736  1
  F  F25  1  0.055388  0.719010  0.957258  1
  F  F26  1  0.441952  0.720842  0.452554  1
  F  F27  1  0.556210  0.280514  0.546013  1
  F  F28  1  0.743480  0.973769  0.447435  1
  F  F29  1  0.258166  0.027841  0.549584  1
  F  F30  1  0.242629  0.024546  0.052079  1
  F  F31  1  0.757898  0.973027  0.950382  1
  F  F32  1  0.578000  0.973111  0.232494  1
  F  F33  1  0.420261  0.033376  0.768427  1
  F  F34  1  0.078286  0.027014  0.267690  1
  F  F35  1  0.913110  0.975001  0.731652  1
