# generated using pymatgen
data_Ba6Nb2FeO12
_symmetry_space_group_name_H-M   'P 1'
_cell_length_a   9.35826407
_cell_length_b   9.35826467
_cell_length_c   7.34440044
_cell_angle_alpha   67.58181065
_cell_angle_beta   67.58180803
_cell_angle_gamma   36.91328069
_symmetry_Int_Tables_number   1
_chemical_formula_structural   Ba6Nb2FeO12
_chemical_formula_sum   'Ba6 Nb2 Fe1 O12'
_cell_volume   353.71366830
_cell_formula_units_Z   1
loop_
 _symmetry_equiv_pos_site_id
 _symmetry_equiv_pos_as_xyz
  1  'x, y, z'
loop_
 _atom_site_type_symbol
 _atom_site_label
 _atom_site_symmetry_multiplicity
 _atom_site_fract_x
 _atom_site_fract_y
 _atom_site_fract_z
 _atom_site_occupancy
  Ba  Ba0  1  0.887015  0.887015  0.707209  1
  Ba  Ba1  1  0.208593  0.208593  0.711158  1
  Ba  Ba2  1  0.548283  0.548283  0.713948  1
  Ba  Ba3  1  0.451717  0.451717  0.286052  1
  Ba  Ba4  1  0.791407  0.791407  0.288842  1
  Ba  Ba5  1  0.112985  0.112985  0.292791  1
  Nb  Nb6  1  0.665304  0.665304  0.001025  1
  Nb  Nb7  1  0.334696  0.334696  0.998975  1
  Fe  Fe8  1  0.000000  0.000000  0.000000  1
  O  O9  1  0.946810  0.946810  0.316531  1
  O  O10  1  0.280071  0.280071  0.303583  1
  O  O11  1  0.618897  0.618897  0.304476  1
  O  O12  1  0.381103  0.381103  0.695524  1
  O  O13  1  0.719929  0.719929  0.696417  1
  O  O14  1  0.053190  0.053190  0.683469  1
  O  O15  1  0.500000  0.000000  0.000000  1
  O  O16  1  0.825401  0.352069  0.999609  1
  O  O17  1  0.174599  0.647931  0.000391  1
  O  O18  1  0.000000  0.500000  0.000000  1
  O  O19  1  0.352069  0.825401  0.999609  1
  O  O20  1  0.647931  0.174599  0.000391  1
