# generated using pymatgen
data_Rb4Ta3(NbBr6)3
_symmetry_space_group_name_H-M   'P 1'
_cell_length_a   10.59530387
_cell_length_b   10.59597368
_cell_length_c   10.50134769
_cell_angle_alpha   76.64886144
_cell_angle_beta   76.63684689
_cell_angle_gamma   116.30429149
_symmetry_Int_Tables_number   1
_chemical_formula_structural   Rb4Ta3(NbBr6)3
_chemical_formula_sum   'Rb4 Ta3 Nb3 Br18'
_cell_volume   950.20632283
_cell_formula_units_Z   1
loop_
 _symmetry_equiv_pos_site_id
 _symmetry_equiv_pos_as_xyz
  1  'x, y, z'
loop_
 _atom_site_type_symbol
 _atom_site_label
 _atom_site_symmetry_multiplicity
 _atom_site_fract_x
 _atom_site_fract_y
 _atom_site_fract_z
 _atom_site_occupancy
  Rb  Rb0  1  0.732759  0.052079  0.326356  1
  Rb  Rb1  1  0.267225  0.947553  0.674069  1
  Rb  Rb2  1  0.947853  0.267463  0.673683  1
  Rb  Rb3  1  0.051907  0.732154  0.326410  1
  Ta  Ta4  1  0.608266  0.608323  0.120408  1
  Ta  Ta5  1  0.391775  0.391795  0.879513  1
  Ta  Ta6  1  0.456971  0.293769  0.131231  1
  Nb  Nb7  1  0.543466  0.708333  0.867502  1
  Nb  Nb8  1  0.708042  0.543435  0.867684  1
  Nb  Nb9  1  0.292002  0.456618  0.132280  1
  Br  Br10  1  0.701887  0.295507  0.001396  1
  Br  Br11  1  0.296309  0.703576  0.000051  1
  Br  Br12  1  0.394866  0.006486  0.314422  1
  Br  Br13  1  0.605545  0.995558  0.684182  1
  Br  Br14  1  0.995443  0.605367  0.684332  1
  Br  Br15  1  0.004444  0.394152  0.315918  1
  Br  Br16  1  0.315047  0.111881  0.014336  1
  Br  Br17  1  0.685676  0.888246  0.986991  1
  Br  Br18  1  0.888650  0.685912  0.986937  1
  Br  Br19  1  0.111357  0.314139  0.013001  1
  Br  Br20  1  0.754817  0.754596  0.281732  1
  Br  Br21  1  0.245127  0.244832  0.718580  1
  Br  Br22  1  0.811147  0.811100  0.673629  1
  Br  Br23  1  0.190416  0.188671  0.325690  1
  Br  Br24  1  0.579248  0.377380  0.308889  1
  Br  Br25  1  0.419754  0.621001  0.690786  1
  Br  Br26  1  0.621205  0.419740  0.690433  1
  Br  Br27  1  0.378795  0.580335  0.309558  1
