# generated using pymatgen
data_Ho3Er5Re3B24Ru
_symmetry_space_group_name_H-M   'P 1'
_cell_length_a   3.65696200
_cell_length_b   9.12836386
_cell_length_c   11.50818201
_cell_angle_alpha   90.10435575
_cell_angle_beta   90.00000000
_cell_angle_gamma   90.00000000
_symmetry_Int_Tables_number   1
_chemical_formula_structural   Ho3Er5Re3B24Ru
_chemical_formula_sum   'Ho3 Er5 Re3 B24 Ru1'
_cell_volume   384.16641261
_cell_formula_units_Z   1
loop_
 _symmetry_equiv_pos_site_id
 _symmetry_equiv_pos_as_xyz
  1  'x, y, z'
loop_
 _atom_site_type_symbol
 _atom_site_label
 _atom_site_symmetry_multiplicity
 _atom_site_fract_x
 _atom_site_fract_y
 _atom_site_fract_z
 _atom_site_occupancy
  Ho  Ho0  1  0.000000  0.321561  0.414232  1
  Ho  Ho1  1  0.000000  0.677586  0.587637  1
  Ho  Ho2  1  0.000000  0.824650  0.084057  1
  Er  Er3  1  0.000000  0.176830  0.913684  1
  Er  Er4  1  0.000000  0.941704  0.369834  1
  Er  Er5  1  0.000000  0.056440  0.629154  1
  Er  Er6  1  0.000000  0.443079  0.130311  1
  Er  Er7  1  0.000000  0.556961  0.871163  1
  Re  Re8  1  0.000000  0.362025  0.678452  1
  Re  Re9  1  0.000000  0.138299  0.179596  1
  Re  Re10  1  0.000000  0.861965  0.820755  1
  B  B11  1  0.500000  0.553904  0.432790  1
  B  B12  1  0.500000  0.447125  0.566609  1
  B  B13  1  0.500000  0.053236  0.066571  1
  B  B14  1  0.500000  0.947292  0.933011  1
  B  B15  1  0.500000  0.748648  0.418606  1
  B  B16  1  0.500000  0.250287  0.580976  1
  B  B17  1  0.500000  0.249701  0.081108  1
  B  B18  1  0.500000  0.751033  0.918931  1
  B  B19  1  0.500000  0.790980  0.265307  1
  B  B20  1  0.500000  0.207774  0.734461  1
  B  B21  1  0.500000  0.292010  0.235208  1
  B  B22  1  0.500000  0.707781  0.765692  1
  B  B23  1  0.500000  0.631239  0.185545  1
  B  B24  1  0.500000  0.369568  0.814475  1
  B  B25  1  0.500000  0.130613  0.315188  1
  B  B26  1  0.500000  0.869044  0.685280  1
  B  B27  1  0.500000  0.981868  0.211929  1
  B  B28  1  0.500000  0.018343  0.787611  1
  B  B29  1  0.500000  0.483131  0.288194  1
  B  B30  1  0.500000  0.518615  0.712147  1
  B  B31  1  0.500000  0.601589  0.028788  1
  B  B32  1  0.500000  0.398896  0.972307  1
  B  B33  1  0.500000  0.100074  0.471568  1
  B  B34  1  0.500000  0.897781  0.527983  1
  Ru  Ru35  1  0.000000  0.638371  0.320840  1
