# generated using pymatgen
data_NdErFe3Tc14C3
_symmetry_space_group_name_H-M   'P 1'
_cell_length_a   6.90262338
_cell_length_b   6.90262327
_cell_length_c   6.90262169
_cell_angle_alpha   82.57517097
_cell_angle_beta   82.57516673
_cell_angle_gamma   82.57516594
_symmetry_Int_Tables_number   1
_chemical_formula_structural   NdErFe3Tc14C3
_chemical_formula_sum   'Nd1 Er1 Fe3 Tc14 C3'
_cell_volume   321.26713282
_cell_formula_units_Z   1
loop_
 _symmetry_equiv_pos_site_id
 _symmetry_equiv_pos_as_xyz
  1  'x, y, z'
loop_
 _atom_site_type_symbol
 _atom_site_label
 _atom_site_symmetry_multiplicity
 _atom_site_fract_x
 _atom_site_fract_y
 _atom_site_fract_z
 _atom_site_occupancy
  Nd  Nd0  1  0.649597  0.649597  0.649597  1
  Er  Er1  1  0.347948  0.347948  0.347948  1
  Fe  Fe2  1  0.998461  0.998461  0.501091  1
  Fe  Fe3  1  0.501091  0.998461  0.998461  1
  Fe  Fe4  1  0.998461  0.501091  0.998461  1
  Tc  Tc5  1  0.724109  0.275115  0.000771  1
  Tc  Tc6  1  0.000771  0.724109  0.275115  1
  Tc  Tc7  1  0.275115  0.000771  0.724109  1
  Tc  Tc8  1  0.000771  0.275115  0.724109  1
  Tc  Tc9  1  0.724109  0.000771  0.275115  1
  Tc  Tc10  1  0.275115  0.724109  0.000771  1
  Tc  Tc11  1  0.346851  0.865021  0.346851  1
  Tc  Tc12  1  0.346851  0.346851  0.865021  1
  Tc  Tc13  1  0.865021  0.346851  0.346851  1
  Tc  Tc14  1  0.651314  0.140948  0.651314  1
  Tc  Tc15  1  0.651314  0.651314  0.140948  1
  Tc  Tc16  1  0.140948  0.651314  0.651314  1
  Tc  Tc17  1  0.899801  0.899801  0.899801  1
  Tc  Tc18  1  0.100755  0.100755  0.100755  1
  C  C19  1  0.496130  0.496130  0.009339  1
  C  C20  1  0.009339  0.496130  0.496130  1
  C  C21  1  0.496130  0.009339  0.496130  1
