# generated using pymatgen
data_Ce2Si4W3
_symmetry_space_group_name_H-M   'P 1'
_cell_length_a   6.91757747
_cell_length_b   6.96363500
_cell_length_c   6.89459224
_cell_angle_alpha   90.00081646
_cell_angle_beta   109.67355316
_cell_angle_gamma   89.99871437
_symmetry_Int_Tables_number   1
_chemical_formula_structural   Ce2Si4W3
_chemical_formula_sum   'Ce4 Si8 W6'
_cell_volume   312.73542487
_cell_formula_units_Z   2
loop_
 _symmetry_equiv_pos_site_id
 _symmetry_equiv_pos_as_xyz
  1  'x, y, z'
loop_
 _atom_site_type_symbol
 _atom_site_label
 _atom_site_symmetry_multiplicity
 _atom_site_fract_x
 _atom_site_fract_y
 _atom_site_fract_z
 _atom_site_occupancy
  Ce  Ce0  1  0.186973  0.164201  0.059583  1
  Ce  Ce1  1  0.813080  0.664159  0.440450  1
  Ce  Ce2  1  0.186977  0.335800  0.559595  1
  Ce  Ce3  1  0.813109  0.835843  0.940463  1
  Si  Si4  1  0.907629  0.452760  0.127299  1
  Si  Si5  1  0.495423  0.866724  0.130583  1
  Si  Si6  1  0.504425  0.366604  0.369348  1
  Si  Si7  1  0.092475  0.952877  0.372755  1
  Si  Si8  1  0.907623  0.047240  0.627233  1
  Si  Si9  1  0.495403  0.633279  0.630487  1
  Si  Si10  1  0.504411  0.133397  0.869427  1
  Si  Si11  1  0.092482  0.547108  0.872737  1
  W  W12  1  0.499932  0.499957  0.999956  1
  W  W13  1  0.748486  0.160875  0.247034  1
  W  W14  1  0.251602  0.660818  0.253055  1
  W  W15  1  0.499933  0.000023  0.499935  1
  W  W16  1  0.748496  0.339149  0.747021  1
  W  W17  1  0.251539  0.839189  0.753035  1
