# generated using pymatgen
data_Tb2Y3Ir2Ru
_symmetry_space_group_name_H-M   'P 1'
_cell_length_a   10.86678300
_cell_length_b   10.87482900
_cell_length_c   6.47305200
_cell_angle_alpha   90.00000000
_cell_angle_beta   90.00000000
_cell_angle_gamma   90.00095925
_symmetry_Int_Tables_number   1
_chemical_formula_structural   Tb2Y3Ir2Ru
_chemical_formula_sum   'Tb8 Y12 Ir8 Ru4'
_cell_volume   764.94908091
_cell_formula_units_Z   4
loop_
 _symmetry_equiv_pos_site_id
 _symmetry_equiv_pos_as_xyz
  1  'x, y, z'
loop_
 _atom_site_type_symbol
 _atom_site_label
 _atom_site_symmetry_multiplicity
 _atom_site_fract_x
 _atom_site_fract_y
 _atom_site_fract_z
 _atom_site_occupancy
  Tb  Tb0  1  0.293734  0.087029  0.378820  1
  Tb  Tb1  1  0.293744  0.912966  0.878776  1
  Tb  Tb2  1  0.706256  0.087034  0.878776  1
  Tb  Tb3  1  0.706266  0.912971  0.378820  1
  Tb  Tb4  1  0.000000  0.000000  0.499687  1
  Tb  Tb5  1  0.000000  0.000000  0.999682  1
  Tb  Tb6  1  0.500000  0.500000  0.000042  1
  Tb  Tb7  1  0.500000  0.500000  0.500022  1
  Y  Y8  1  0.586978  0.792868  0.878599  1
  Y  Y9  1  0.586972  0.207148  0.378624  1
  Y  Y10  1  0.413028  0.792852  0.378624  1
  Y  Y11  1  0.413022  0.207132  0.878599  1
  Y  Y12  1  0.206691  0.413099  0.621963  1
  Y  Y13  1  0.206705  0.586894  0.121933  1
  Y  Y14  1  0.793295  0.413106  0.121933  1
  Y  Y15  1  0.793309  0.586901  0.621963  1
  Y  Y16  1  0.912761  0.706635  0.121408  1
  Y  Y17  1  0.912754  0.293378  0.621436  1
  Y  Y18  1  0.087246  0.706622  0.621436  1
  Y  Y19  1  0.087239  0.293365  0.121408  1
  Ir  Ir20  1  0.848216  0.151591  0.249565  1
  Ir  Ir21  1  0.848215  0.848406  0.749561  1
  Ir  Ir22  1  0.151785  0.151594  0.749561  1
  Ir  Ir23  1  0.151784  0.848409  0.249565  1
  Ir  Ir24  1  0.651777  0.347974  0.750281  1
  Ir  Ir25  1  0.651774  0.652024  0.250282  1
  Ir  Ir26  1  0.348226  0.347976  0.250282  1
  Ir  Ir27  1  0.348223  0.652026  0.750281  1
  Ru  Ru28  1  0.500000  0.000000  0.123393  1
  Ru  Ru29  1  0.500000  0.000000  0.623451  1
  Ru  Ru30  1  0.000000  0.500000  0.875582  1
  Ru  Ru31  1  0.000000  0.500000  0.375648  1
