# generated using pymatgen
data_Rb2Ni(SeO3)2
_symmetry_space_group_name_H-M   'P 1'
_cell_length_a   5.60743895
_cell_length_b   7.33337705
_cell_length_c   9.22015198
_cell_angle_alpha   70.78460868
_cell_angle_beta   90.13197875
_cell_angle_gamma   90.18420103
_symmetry_Int_Tables_number   1
_chemical_formula_structural   Rb2Ni(SeO3)2
_chemical_formula_sum   'Rb4 Ni2 Se4 O12'
_cell_volume   358.02099408
_cell_formula_units_Z   2
loop_
 _symmetry_equiv_pos_site_id
 _symmetry_equiv_pos_as_xyz
  1  'x, y, z'
loop_
 _atom_site_type_symbol
 _atom_site_label
 _atom_site_symmetry_multiplicity
 _atom_site_fract_x
 _atom_site_fract_y
 _atom_site_fract_z
 _atom_site_occupancy
  Rb  Rb0  1  0.000625  0.607439  0.803823  1
  Rb  Rb1  1  0.500627  0.107438  0.303823  1
  Rb  Rb2  1  0.999375  0.392562  0.196177  1
  Rb  Rb3  1  0.499373  0.892563  0.696177  1
  Ni  Ni4  1  0.500000  0.500000  0.500000  1
  Ni  Ni5  1  0.000000  0.000000  0.000000  1
  Se  Se6  1  0.999965  0.268246  0.634250  1
  Se  Se7  1  0.499958  0.768249  0.134252  1
  Se  Se8  1  0.000035  0.731754  0.365750  1
  Se  Se9  1  0.500042  0.231751  0.865748  1
  O  O10  1  0.243051  0.725147  0.483867  1
  O  O11  1  0.743045  0.225148  0.983869  1
  O  O12  1  0.756950  0.274854  0.516133  1
  O  O13  1  0.256955  0.774853  0.016131  1
  O  O14  1  0.242001  0.274869  0.516067  1
  O  O15  1  0.742015  0.774864  0.016056  1
  O  O16  1  0.757999  0.725131  0.483933  1
  O  O17  1  0.257985  0.225136  0.983943  1
  O  O18  1  0.000511  0.967788  0.241474  1
  O  O19  1  0.500511  0.467793  0.741473  1
  O  O20  1  0.999489  0.032213  0.758527  1
  O  O21  1  0.499489  0.532207  0.258528  1
