# generated using pymatgen
data_Yb3Fe3N5
_symmetry_space_group_name_H-M   'P 1'
_cell_length_a   5.42430873
_cell_length_b   6.67938741
_cell_length_c   8.20913303
_cell_angle_alpha   108.83291398
_cell_angle_beta   104.56310876
_cell_angle_gamma   94.94777746
_symmetry_Int_Tables_number   1
_chemical_formula_structural   Yb3Fe3N5
_chemical_formula_sum   'Yb6 Fe6 N10'
_cell_volume   267.86949305
_cell_formula_units_Z   2
loop_
 _symmetry_equiv_pos_site_id
 _symmetry_equiv_pos_as_xyz
  1  'x, y, z'
loop_
 _atom_site_type_symbol
 _atom_site_label
 _atom_site_symmetry_multiplicity
 _atom_site_fract_x
 _atom_site_fract_y
 _atom_site_fract_z
 _atom_site_occupancy
  Yb  Yb0  1  0.823598  0.415879  0.617516  1
  Yb  Yb1  1  0.176402  0.584121  0.382484  1
  Yb  Yb2  1  0.666005  0.870533  0.877757  1
  Yb  Yb3  1  0.333995  0.129467  0.122243  1
  Yb  Yb4  1  0.661333  0.671854  0.201707  1
  Yb  Yb5  1  0.338667  0.328146  0.798293  1
  Fe  Fe6  1  0.905491  0.323363  0.974453  1
  Fe  Fe7  1  0.094509  0.676637  0.025547  1
  Fe  Fe8  1  0.682492  0.946034  0.566296  1
  Fe  Fe9  1  0.317508  0.053966  0.433704  1
  Fe  Fe10  1  0.105718  0.882224  0.704947  1
  Fe  Fe11  1  0.894282  0.117776  0.295053  1
  N  N12  1  0.933471  0.113275  0.780218  1
  N  N13  1  0.066529  0.886725  0.219782  1
  N  N14  1  0.822546  0.697714  0.507472  1
  N  N15  1  0.177454  0.302286  0.492528  1
  N  N16  1  0.745538  0.537535  0.907534  1
  N  N17  1  0.254462  0.462465  0.092466  1
  N  N18  1  0.369401  0.938458  0.617869  1
  N  N19  1  0.630599  0.061542  0.382131  1
  N  N20  1  0.207206  0.767197  0.874707  1
  N  N21  1  0.792794  0.232803  0.125293  1
