# generated using pymatgen
data_Co2SiMo3N
_symmetry_space_group_name_H-M   'P 1'
_cell_length_a   7.81239565
_cell_length_b   7.81239536
_cell_length_c   7.81239500
_cell_angle_alpha   59.99999728
_cell_angle_beta   59.99999853
_cell_angle_gamma   60.00000021
_symmetry_Int_Tables_number   1
_chemical_formula_structural   Co2SiMo3N
_chemical_formula_sum   'Co8 Si4 Mo12 N4'
_cell_volume   337.16122682
_cell_formula_units_Z   4
loop_
 _symmetry_equiv_pos_site_id
 _symmetry_equiv_pos_as_xyz
  1  'x, y, z'
loop_
 _atom_site_type_symbol
 _atom_site_label
 _atom_site_symmetry_multiplicity
 _atom_site_fract_x
 _atom_site_fract_y
 _atom_site_fract_z
 _atom_site_occupancy
  Co  Co0  1  0.246325  0.917892  0.917892  1
  Co  Co1  1  0.917892  0.246325  0.917892  1
  Co  Co2  1  0.917892  0.917892  0.917892  1
  Co  Co3  1  0.917892  0.917892  0.246325  1
  Co  Co4  1  0.003675  0.332108  0.332108  1
  Co  Co5  1  0.332108  0.332108  0.003675  1
  Co  Co6  1  0.332108  0.003675  0.332108  1
  Co  Co7  1  0.332108  0.332108  0.332108  1
  Si  Si8  1  0.625000  0.125000  0.125000  1
  Si  Si9  1  0.125000  0.125000  0.625000  1
  Si  Si10  1  0.125000  0.625000  0.125000  1
  Si  Si11  1  0.125000  0.125000  0.125000  1
  Mo  Mo12  1  0.696214  0.303786  0.696214  1
  Mo  Mo13  1  0.553786  0.553786  0.946214  1
  Mo  Mo14  1  0.553786  0.946214  0.553786  1
  Mo  Mo15  1  0.946214  0.946214  0.553786  1
  Mo  Mo16  1  0.946214  0.553786  0.553786  1
  Mo  Mo17  1  0.946214  0.553786  0.946214  1
  Mo  Mo18  1  0.696214  0.303786  0.303786  1
  Mo  Mo19  1  0.303786  0.696214  0.303786  1
  Mo  Mo20  1  0.303786  0.303786  0.696214  1
  Mo  Mo21  1  0.303786  0.696214  0.696214  1
  Mo  Mo22  1  0.696214  0.696214  0.303786  1
  Mo  Mo23  1  0.553786  0.946214  0.946214  1
  N  N24  1  0.625000  0.625000  0.625000  1
  N  N25  1  0.125000  0.625000  0.625000  1
  N  N26  1  0.625000  0.125000  0.625000  1
  N  N27  1  0.625000  0.625000  0.125000  1
