# generated using pymatgen
data_Hf8Ti9Nb3Ge16
_symmetry_space_group_name_H-M   'P 1'
_cell_length_a   6.79170490
_cell_length_b   6.92514312
_cell_length_c   13.11759000
_cell_angle_alpha   90.00000000
_cell_angle_beta   90.00000000
_cell_angle_gamma   90.20531802
_symmetry_Int_Tables_number   1
_chemical_formula_structural   Hf8Ti9Nb3Ge16
_chemical_formula_sum   'Hf8 Ti9 Nb3 Ge16'
_cell_volume   616.96258109
_cell_formula_units_Z   1
loop_
 _symmetry_equiv_pos_site_id
 _symmetry_equiv_pos_as_xyz
  1  'x, y, z'
loop_
 _atom_site_type_symbol
 _atom_site_label
 _atom_site_symmetry_multiplicity
 _atom_site_fract_x
 _atom_site_fract_y
 _atom_site_fract_z
 _atom_site_occupancy
  Hf  Hf0  1  0.489769  0.676508  0.593206  1
  Hf  Hf1  1  0.991510  0.825749  0.906421  1
  Hf  Hf2  1  0.509250  0.324688  0.093673  1
  Hf  Hf3  1  0.009851  0.175279  0.406170  1
  Hf  Hf4  1  0.509250  0.324688  0.406327  1
  Hf  Hf5  1  0.009851  0.175279  0.093830  1
  Hf  Hf6  1  0.489769  0.676508  0.906794  1
  Hf  Hf7  1  0.991510  0.825749  0.593579  1
  Ti  Ti8  1  0.656894  0.166627  0.625522  1
  Ti  Ti9  1  0.159283  0.332057  0.874679  1
  Ti  Ti10  1  0.341406  0.832316  0.124707  1
  Ti  Ti11  1  0.842447  0.667514  0.375828  1
  Ti  Ti12  1  0.341406  0.832316  0.375293  1
  Ti  Ti13  1  0.842447  0.667514  0.124172  1
  Ti  Ti14  1  0.656894  0.166627  0.874478  1
  Ti  Ti15  1  0.159283  0.332057  0.625321  1
  Ti  Ti16  1  0.829760  0.493643  0.750000  1
  Nb  Nb17  1  0.329832  0.004663  0.750000  1
  Nb  Nb18  1  0.170674  0.505823  0.250000  1
  Nb  Nb19  1  0.670377  0.994567  0.250000  1
  Ge  Ge20  1  0.683677  0.959569  0.461409  1
  Ge  Ge21  1  0.184350  0.540819  0.038431  1
  Ge  Ge22  1  0.315973  0.041586  0.961328  1
  Ge  Ge23  1  0.815794  0.459249  0.540801  1
  Ge  Ge24  1  0.315973  0.041586  0.538672  1
  Ge  Ge25  1  0.815794  0.459249  0.959199  1
  Ge  Ge26  1  0.683677  0.959569  0.038591  1
  Ge  Ge27  1  0.184350  0.540819  0.461569  1
  Ge  Ge28  1  0.461178  0.382675  0.750000  1
  Ge  Ge29  1  0.955979  0.122352  0.750000  1
  Ge  Ge30  1  0.542408  0.619989  0.250000  1
  Ge  Ge31  1  0.042403  0.880226  0.250000  1
  Ge  Ge32  1  0.694487  0.851875  0.750000  1
  Ge  Ge33  1  0.187240  0.640273  0.750000  1
  Ge  Ge34  1  0.307632  0.142443  0.250000  1
  Ge  Ge35  1  0.807623  0.357546  0.250000  1
