# generated using pymatgen
data_Ce2Pu(Si4Ni)2
_symmetry_space_group_name_H-M   'P 1'
_cell_length_a   12.82570996
_cell_length_b   12.82571134
_cell_length_c   4.17238700
_cell_angle_alpha   90.00000000
_cell_angle_beta   90.00000000
_cell_angle_gamma   161.25876955
_symmetry_Int_Tables_number   1
_chemical_formula_structural   Ce2Pu(Si4Ni)2
_chemical_formula_sum   'Ce2 Pu1 Si8 Ni2'
_cell_volume   220.52142333
_cell_formula_units_Z   1
loop_
 _symmetry_equiv_pos_site_id
 _symmetry_equiv_pos_as_xyz
  1  'x, y, z'
loop_
 _atom_site_type_symbol
 _atom_site_label
 _atom_site_symmetry_multiplicity
 _atom_site_fract_x
 _atom_site_fract_y
 _atom_site_fract_z
 _atom_site_occupancy
  Ce  Ce0  1  0.000727  0.999273  0.000000  1
  Ce  Ce1  1  0.311245  0.688755  0.500000  1
  Pu  Pu2  1  0.686453  0.313547  0.500000  1
  Si  Si3  1  0.596236  0.403764  0.000000  1
  Si  Si4  1  0.405452  0.594548  0.000000  1
  Si  Si5  1  0.772508  0.227492  0.000000  1
  Si  Si6  1  0.225171  0.774829  0.000000  1
  Si  Si7  1  0.904590  0.095410  0.500000  1
  Si  Si8  1  0.096712  0.903288  0.500000  1
  Si  Si9  1  0.547405  0.452595  0.500000  1
  Si  Si10  1  0.453881  0.546119  0.500000  1
  Ni  Ni11  1  0.865846  0.134154  0.000000  1
  Ni  Ni12  1  0.133776  0.866224  0.000000  1
