# generated using pymatgen
data_AcSmSe3
_symmetry_space_group_name_H-M   'P 1'
_cell_length_a   4.36085800
_cell_length_b   11.22434600
_cell_length_c   11.70181500
_cell_angle_alpha   90.00000000
_cell_angle_beta   90.00000000
_cell_angle_gamma   90.00000000
_symmetry_Int_Tables_number   1
_chemical_formula_structural   AcSmSe3
_chemical_formula_sum   'Ac4 Sm4 Se12'
_cell_volume   572.77785509
_cell_formula_units_Z   4
loop_
 _symmetry_equiv_pos_site_id
 _symmetry_equiv_pos_as_xyz
  1  'x, y, z'
loop_
 _atom_site_type_symbol
 _atom_site_label
 _atom_site_symmetry_multiplicity
 _atom_site_fract_x
 _atom_site_fract_y
 _atom_site_fract_z
 _atom_site_occupancy
  Ac  Ac0  1  0.250000  0.998905  0.695276  1
  Ac  Ac1  1  0.750000  0.001095  0.304724  1
  Ac  Ac2  1  0.750000  0.498905  0.804724  1
  Ac  Ac3  1  0.250000  0.501095  0.195276  1
  Sm  Sm4  1  0.250000  0.314465  0.509795  1
  Sm  Sm5  1  0.750000  0.685535  0.490205  1
  Sm  Sm6  1  0.750000  0.814465  0.990205  1
  Sm  Sm7  1  0.250000  0.185535  0.009795  1
  Se  Se8  1  0.750000  0.056892  0.889338  1
  Se  Se9  1  0.250000  0.943108  0.110662  1
  Se  Se10  1  0.250000  0.556892  0.610662  1
  Se  Se11  1  0.750000  0.443108  0.389338  1
  Se  Se12  1  0.250000  0.864616  0.456150  1
  Se  Se13  1  0.750000  0.135384  0.543850  1
  Se  Se14  1  0.750000  0.364616  0.043850  1
  Se  Se15  1  0.250000  0.635384  0.956150  1
  Se  Se16  1  0.250000  0.294884  0.768701  1
  Se  Se17  1  0.750000  0.705116  0.231299  1
  Se  Se18  1  0.750000  0.794884  0.731299  1
  Se  Se19  1  0.250000  0.205116  0.268701  1
