# generated using pymatgen
data_Li8La8TlSb7
_symmetry_space_group_name_H-M   'P 1'
_cell_length_a   9.57121900
_cell_length_b   9.57121979
_cell_length_c   7.73479900
_cell_angle_alpha   90.00000000
_cell_angle_beta   90.00000000
_cell_angle_gamma   119.99999381
_symmetry_Int_Tables_number   1
_chemical_formula_structural   Li8La8TlSb7
_chemical_formula_sum   'Li8 La8 Tl1 Sb7'
_cell_volume   613.64080922
_cell_formula_units_Z   1
loop_
 _symmetry_equiv_pos_site_id
 _symmetry_equiv_pos_as_xyz
  1  'x, y, z'
loop_
 _atom_site_type_symbol
 _atom_site_label
 _atom_site_symmetry_multiplicity
 _atom_site_fract_x
 _atom_site_fract_y
 _atom_site_fract_z
 _atom_site_occupancy
  Li  Li0  1  0.167551  0.335102  0.267562  1
  Li  Li1  1  0.167551  0.832449  0.267562  1
  Li  Li2  1  0.664898  0.832449  0.267562  1
  Li  Li3  1  0.833294  0.666588  0.768222  1
  Li  Li4  1  0.833294  0.166706  0.768222  1
  Li  Li5  1  0.333412  0.166706  0.768222  1
  Li  Li6  1  0.333333  0.666667  0.693063  1
  Li  Li7  1  0.666667  0.333333  0.195846  1
  La  La8  1  0.508570  0.017141  0.497526  1
  La  La9  1  0.508570  0.491430  0.497526  1
  La  La10  1  0.982859  0.491430  0.497526  1
  La  La11  1  0.493701  0.987400  0.994136  1
  La  La12  1  0.493701  0.506299  0.994136  1
  La  La13  1  0.012600  0.506299  0.994136  1
  La  La14  1  0.000000  0.000000  0.501004  1
  La  La15  1  0.000000  0.000000  0.999592  1
  Tl  Tl16  1  0.666667  0.333333  0.763258  1
  Sb  Sb17  1  0.166340  0.332680  0.741429  1
  Sb  Sb18  1  0.166340  0.833660  0.741429  1
  Sb  Sb19  1  0.667320  0.833660  0.741429  1
  Sb  Sb20  1  0.834192  0.668385  0.240746  1
  Sb  Sb21  1  0.834192  0.165808  0.240746  1
  Sb  Sb22  1  0.331615  0.165808  0.240746  1
  Sb  Sb23  1  0.333333  0.666667  0.260350  1
