# generated using pymatgen
data_Cs9Eu(VSe4)4
_symmetry_space_group_name_H-M   'P 1'
_cell_length_a   12.28024875
_cell_length_b   12.28136212
_cell_length_c   12.28025800
_cell_angle_alpha   132.39049398
_cell_angle_beta   126.60408699
_cell_angle_gamma   74.30636992
_symmetry_Int_Tables_number   1
_chemical_formula_structural   Cs9Eu(VSe4)4
_chemical_formula_sum   'Cs9 Eu1 V4 Se16'
_cell_volume   1070.75557246
_cell_formula_units_Z   1
loop_
 _symmetry_equiv_pos_site_id
 _symmetry_equiv_pos_as_xyz
  1  'x, y, z'
loop_
 _atom_site_type_symbol
 _atom_site_label
 _atom_site_symmetry_multiplicity
 _atom_site_fract_x
 _atom_site_fract_y
 _atom_site_fract_z
 _atom_site_occupancy
  Cs  Cs0  1  0.491635  0.241632  0.250058  1
  Cs  Cs1  1  0.008361  0.758451  0.250050  1
  Cs  Cs2  1  0.568126  0.709163  0.122055  1
  Cs  Cs3  1  0.413402  0.290833  0.859362  1
  Cs  Cs4  1  0.498149  0.748253  0.749878  1
  Cs  Cs5  1  0.086637  0.445927  0.377405  1
  Cs  Cs6  1  0.931803  0.554113  0.641178  1
  Cs  Cs7  1  0.001824  0.251925  0.750253  1
  Cs  Cs8  1  0.249960  0.999919  0.249846  1
  Eu  Eu9  1  0.750244  0.997000  0.746920  1
  V  V10  1  0.110266  0.919174  0.772739  1
  V  V11  1  0.853625  0.081018  0.191310  1
  V  V12  1  0.389678  0.662527  0.308958  1
  V  V13  1  0.646366  0.337550  0.727206  1
  Se  Se14  1  0.604557  0.613114  0.379246  1
  Se  Se15  1  0.743024  0.996204  0.226633  1
  Se  Se16  1  0.864416  0.881678  0.948423  1
  Se  Se17  1  0.766046  0.388051  0.991967  1
  Se  Se18  1  0.733888  0.226374  0.122526  1
  Se  Se19  1  0.757072  0.483648  0.753297  1
  Se  Se20  1  0.230382  0.004148  0.747008  1
  Se  Se21  1  0.255947  0.613295  0.042910  1
  Se  Se22  1  0.269795  0.516765  0.273987  1
  Se  Se23  1  0.244002  0.786830  0.857283  1
  Se  Se24  1  0.066634  0.118066  0.982573  1
  Se  Se25  1  0.895247  0.774606  0.508342  1
  Se  Se26  1  0.070504  0.213190  0.457518  1
  Se  Se27  1  0.635740  0.084002  0.517183  1
  Se  Se28  1  0.429431  0.386806  0.642568  1
  Se  Se29  1  0.433232  0.915737  0.551319  1
