# generated using pymatgen
data_Cs4Tb9Bi3S20
_symmetry_space_group_name_H-M   'P 1'
_cell_length_a   4.04596700
_cell_length_b   12.22967502
_cell_length_c   21.58782551
_cell_angle_alpha   90.13202804
_cell_angle_beta   90.00000000
_cell_angle_gamma   90.00000000
_symmetry_Int_Tables_number   1
_chemical_formula_structural   Cs4Tb9Bi3S20
_chemical_formula_sum   'Cs4 Tb9 Bi3 S20'
_cell_volume   1068.18136886
_cell_formula_units_Z   1
loop_
 _symmetry_equiv_pos_site_id
 _symmetry_equiv_pos_as_xyz
  1  'x, y, z'
loop_
 _atom_site_type_symbol
 _atom_site_label
 _atom_site_symmetry_multiplicity
 _atom_site_fract_x
 _atom_site_fract_y
 _atom_site_fract_z
 _atom_site_occupancy
  Cs  Cs0  1  0.250000  0.849912  0.093774  1
  Cs  Cs1  1  0.750000  0.148848  0.907158  1
  Cs  Cs2  1  0.750000  0.353754  0.405220  1
  Cs  Cs3  1  0.250000  0.648844  0.593003  1
  Tb  Tb4  1  0.750000  0.702498  0.325424  1
  Tb  Tb5  1  0.250000  0.958376  0.695078  1
  Tb  Tb6  1  0.750000  0.038976  0.304545  1
  Tb  Tb7  1  0.750000  0.458697  0.805202  1
  Tb  Tb8  1  0.250000  0.543193  0.196686  1
  Tb  Tb9  1  0.750000  0.391342  0.053250  1
  Tb  Tb10  1  0.250000  0.608940  0.947495  1
  Tb  Tb11  1  0.250000  0.890401  0.447381  1
  Tb  Tb12  1  0.750000  0.109376  0.552722  1
  Bi  Bi13  1  0.750000  0.799637  0.825217  1
  Bi  Bi14  1  0.250000  0.200544  0.174975  1
  Bi  Bi15  1  0.250000  0.299942  0.675134  1
  S  S16  1  0.250000  0.952126  0.567717  1
  S  S17  1  0.750000  0.045920  0.431560  1
  S  S18  1  0.750000  0.452604  0.932094  1
  S  S19  1  0.250000  0.547797  0.068359  1
  S  S20  1  0.750000  0.760409  0.955088  1
  S  S21  1  0.250000  0.239701  0.044702  1
  S  S22  1  0.250000  0.259849  0.544541  1
  S  S23  1  0.750000  0.739802  0.451435  1
  S  S24  1  0.250000  0.951664  0.823978  1
  S  S25  1  0.750000  0.048099  0.176105  1
  S  S26  1  0.750000  0.451797  0.676039  1
  S  S27  1  0.250000  0.555986  0.324088  1
  S  S28  1  0.750000  0.119057  0.681427  1
  S  S29  1  0.250000  0.873406  0.317760  1
  S  S30  1  0.250000  0.619118  0.818376  1
  S  S31  1  0.750000  0.380949  0.181770  1
  S  S32  1  0.750000  0.690012  0.198951  1
  S  S33  1  0.250000  0.311988  0.803782  1
  S  S34  1  0.250000  0.184518  0.304074  1
  S  S35  1  0.750000  0.811919  0.695889  1
