# generated using pymatgen
data_Pr6Ho10Cd4Ir3Pd
_symmetry_space_group_name_H-M   'P 1'
_cell_length_a   9.76619782
_cell_length_b   9.76619643
_cell_length_c   9.76619746
_cell_angle_alpha   60.12056316
_cell_angle_beta   60.12056609
_cell_angle_gamma   60.12056249
_symmetry_Int_Tables_number   1
_chemical_formula_structural   Pr6Ho10Cd4Ir3Pd
_chemical_formula_sum   'Pr6 Ho10 Cd4 Ir3 Pd1'
_cell_volume   660.45934552
_cell_formula_units_Z   1
loop_
 _symmetry_equiv_pos_site_id
 _symmetry_equiv_pos_as_xyz
  1  'x, y, z'
loop_
 _atom_site_type_symbol
 _atom_site_label
 _atom_site_symmetry_multiplicity
 _atom_site_fract_x
 _atom_site_fract_y
 _atom_site_fract_z
 _atom_site_occupancy
  Pr  Pr0  1  0.941054  0.560050  0.560050  1
  Pr  Pr1  1  0.561282  0.940411  0.940411  1
  Pr  Pr2  1  0.560050  0.941054  0.560050  1
  Pr  Pr3  1  0.940411  0.561282  0.940411  1
  Pr  Pr4  1  0.560050  0.560050  0.941054  1
  Pr  Pr5  1  0.940411  0.940411  0.561282  1
  Ho  Ho6  1  0.346077  0.346077  0.346077  1
  Ho  Ho7  1  0.351643  0.351643  0.953505  1
  Ho  Ho8  1  0.351643  0.953505  0.351643  1
  Ho  Ho9  1  0.953505  0.351643  0.351643  1
  Ho  Ho10  1  0.806421  0.187956  0.187956  1
  Ho  Ho11  1  0.185702  0.812831  0.812831  1
  Ho  Ho12  1  0.187956  0.806421  0.187956  1
  Ho  Ho13  1  0.812831  0.185702  0.812831  1
  Ho  Ho14  1  0.187956  0.187956  0.806421  1
  Ho  Ho15  1  0.812831  0.812831  0.185702  1
  Cd  Cd16  1  0.579481  0.579481  0.579481  1
  Cd  Cd17  1  0.579051  0.579051  0.262546  1
  Cd  Cd18  1  0.579051  0.262546  0.579051  1
  Cd  Cd19  1  0.262546  0.579051  0.579051  1
  Ir  Ir20  1  0.141238  0.141238  0.575117  1
  Ir  Ir21  1  0.141238  0.575117  0.141238  1
  Ir  Ir22  1  0.575117  0.141238  0.141238  1
  Pd  Pd23  1  0.142447  0.142447  0.142447  1
