# generated using pymatgen
data_Ho6P13Rh20
_symmetry_space_group_name_H-M   'P 1'
_cell_length_a   13.32953900
_cell_length_b   13.32953791
_cell_length_c   3.91639000
_cell_angle_alpha   90.00000000
_cell_angle_beta   90.00000000
_cell_angle_gamma   119.99999526
_symmetry_Int_Tables_number   1
_chemical_formula_structural   Ho6P13Rh20
_chemical_formula_sum   'Ho6 P13 Rh20'
_cell_volume   602.62453470
_cell_formula_units_Z   1
loop_
 _symmetry_equiv_pos_site_id
 _symmetry_equiv_pos_as_xyz
  1  'x, y, z'
loop_
 _atom_site_type_symbol
 _atom_site_label
 _atom_site_symmetry_multiplicity
 _atom_site_fract_x
 _atom_site_fract_y
 _atom_site_fract_z
 _atom_site_occupancy
  Ho  Ho0  1  0.529144  0.717686  0.248753  1
  Ho  Ho1  1  0.282314  0.811458  0.248753  1
  Ho  Ho2  1  0.188542  0.470856  0.248753  1
  Ho  Ho3  1  0.470856  0.282314  0.751247  1
  Ho  Ho4  1  0.717686  0.188542  0.751247  1
  Ho  Ho5  1  0.811458  0.529144  0.751247  1
  P  P6  1  0.526376  0.139408  0.250197  1
  P  P7  1  0.860592  0.386970  0.250197  1
  P  P8  1  0.613030  0.473624  0.250197  1
  P  P9  1  0.944384  0.714354  0.254224  1
  P  P10  1  0.285646  0.230030  0.254224  1
  P  P11  1  0.769970  0.055616  0.254224  1
  P  P12  1  0.386970  0.526376  0.749803  1
  P  P13  1  0.473624  0.860592  0.749803  1
  P  P14  1  0.139408  0.613030  0.749803  1
  P  P15  1  0.714354  0.769970  0.745776  1
  P  P16  1  0.230030  0.944384  0.745776  1
  P  P17  1  0.055616  0.285646  0.745776  1
  P  P18  1  0.000000  0.000000  0.000000  1
  Rh  Rh19  1  0.333333  0.666667  0.751641  1
  Rh  Rh20  1  0.921447  0.250668  0.253179  1
  Rh  Rh21  1  0.749332  0.670779  0.253179  1
  Rh  Rh22  1  0.329221  0.078553  0.253179  1
  Rh  Rh23  1  0.438298  0.022133  0.751203  1
  Rh  Rh24  1  0.977867  0.416166  0.751203  1
  Rh  Rh25  1  0.583834  0.561702  0.751203  1
  Rh  Rh26  1  0.666667  0.333333  0.248359  1
  Rh  Rh27  1  0.094468  0.187060  0.248026  1
  Rh  Rh28  1  0.812940  0.907408  0.248026  1
  Rh  Rh29  1  0.092592  0.905532  0.248026  1
  Rh  Rh30  1  0.022133  0.583834  0.248797  1
  Rh  Rh31  1  0.416166  0.438298  0.248797  1
  Rh  Rh32  1  0.561702  0.977867  0.248797  1
  Rh  Rh33  1  0.670779  0.921447  0.746821  1
  Rh  Rh34  1  0.078553  0.749332  0.746821  1
  Rh  Rh35  1  0.250668  0.329221  0.746821  1
  Rh  Rh36  1  0.905532  0.812940  0.751974  1
  Rh  Rh37  1  0.187060  0.092592  0.751974  1
  Rh  Rh38  1  0.907408  0.094468  0.751974  1
