# generated using pymatgen
data_Pr2B8Ru7
_symmetry_space_group_name_H-M   'P 1'
_cell_length_a   6.47784300
_cell_length_b   6.47784300
_cell_length_c   10.11936400
_cell_angle_alpha   90.00000000
_cell_angle_beta   90.00000000
_cell_angle_gamma   90.00000000
_symmetry_Int_Tables_number   1
_chemical_formula_structural   Pr2B8Ru7
_chemical_formula_sum   'Pr4 B16 Ru14'
_cell_volume   424.63330520
_cell_formula_units_Z   2
loop_
 _symmetry_equiv_pos_site_id
 _symmetry_equiv_pos_as_xyz
  1  'x, y, z'
loop_
 _atom_site_type_symbol
 _atom_site_label
 _atom_site_symmetry_multiplicity
 _atom_site_fract_x
 _atom_site_fract_y
 _atom_site_fract_z
 _atom_site_occupancy
  Pr  Pr0  1  0.735993  0.878374  0.000000  1
  Pr  Pr1  1  0.121626  0.735993  0.500000  1
  Pr  Pr2  1  0.878374  0.264007  0.500000  1
  Pr  Pr3  1  0.264007  0.121626  0.000000  1
  B  B4  1  0.500000  0.000000  0.588924  1
  B  B5  1  0.500000  0.000000  0.411076  1
  B  B6  1  0.897284  0.275536  0.169640  1
  B  B7  1  0.102716  0.724464  0.830360  1
  B  B8  1  0.500000  0.500000  0.341106  1
  B  B9  1  0.500000  0.500000  0.841106  1
  B  B10  1  0.275536  0.102716  0.669640  1
  B  B11  1  0.102716  0.724464  0.169640  1
  B  B12  1  0.275536  0.102716  0.330360  1
  B  B13  1  0.897284  0.275536  0.830360  1
  B  B14  1  0.500000  0.500000  0.658894  1
  B  B15  1  0.500000  0.500000  0.158894  1
  B  B16  1  0.000000  0.500000  0.911076  1
  B  B17  1  0.724464  0.897284  0.669640  1
  B  B18  1  0.724464  0.897284  0.330360  1
  B  B19  1  0.000000  0.500000  0.088924  1
  Ru  Ru20  1  0.204357  0.399848  0.751762  1
  Ru  Ru21  1  0.398810  0.286475  0.500000  1
  Ru  Ru22  1  0.399848  0.795643  0.251762  1
  Ru  Ru23  1  0.204357  0.399848  0.248238  1
  Ru  Ru24  1  0.601190  0.713525  0.500000  1
  Ru  Ru25  1  0.600152  0.204357  0.748238  1
  Ru  Ru26  1  0.286475  0.601190  0.000000  1
  Ru  Ru27  1  0.713525  0.398810  0.000000  1
  Ru  Ru28  1  0.795643  0.600152  0.248238  1
  Ru  Ru29  1  0.795643  0.600152  0.751762  1
  Ru  Ru30  1  0.399848  0.795643  0.748238  1
  Ru  Ru31  1  0.000000  0.000000  0.250000  1
  Ru  Ru32  1  0.600152  0.204357  0.251762  1
  Ru  Ru33  1  0.000000  0.000000  0.750000  1
