# generated using pymatgen
data_Zr8Ta12Si15Ag
_symmetry_space_group_name_H-M   'P 1'
_cell_length_a   6.92683518
_cell_length_b   6.89476942
_cell_length_c   12.77552899
_cell_angle_alpha   90.13354781
_cell_angle_beta   89.80059149
_cell_angle_gamma   90.05200929
_symmetry_Int_Tables_number   1
_chemical_formula_structural   Zr8Ta12Si15Ag
_chemical_formula_sum   'Zr8 Ta12 Si15 Ag1'
_cell_volume   610.14001193
_cell_formula_units_Z   1
loop_
 _symmetry_equiv_pos_site_id
 _symmetry_equiv_pos_as_xyz
  1  'x, y, z'
loop_
 _atom_site_type_symbol
 _atom_site_label
 _atom_site_symmetry_multiplicity
 _atom_site_fract_x
 _atom_site_fract_y
 _atom_site_fract_z
 _atom_site_occupancy
  Zr  Zr0  1  0.999126  0.660735  0.029958  1
  Zr  Zr1  1  0.995850  0.330602  0.532304  1
  Zr  Zr2  1  0.660510  0.000910  0.970272  1
  Zr  Zr3  1  0.159651  0.498364  0.782134  1
  Zr  Zr4  1  0.833413  0.497212  0.276390  1
  Zr  Zr5  1  0.499360  0.158873  0.217748  1
  Zr  Zr6  1  0.500288  0.840668  0.720114  1
  Zr  Zr7  1  0.349304  0.003265  0.470116  1
  Ta  Ta8  1  0.358315  0.500701  0.373377  1
  Ta  Ta9  1  0.839694  0.004797  0.368410  1
  Ta  Ta10  1  0.004228  0.153606  0.125945  1
  Ta  Ta11  1  0.993365  0.847399  0.633703  1
  Ta  Ta12  1  0.653250  0.494685  0.877412  1
  Ta  Ta13  1  0.503878  0.348022  0.624344  1
  Ta  Ta14  1  0.494860  0.653271  0.123068  1
  Ta  Ta15  1  0.153515  0.003951  0.873218  1
  Ta  Ta16  1  0.660857  0.670001  0.502721  1
  Ta  Ta17  1  0.830474  0.169359  0.750297  1
  Ta  Ta18  1  0.173151  0.834320  0.245887  1
  Ta  Ta19  1  0.330523  0.330554  0.000205  1
  Si  Si20  1  0.956533  0.297727  0.936438  1
  Si  Si21  1  0.705929  0.042546  0.562855  1
  Si  Si22  1  0.199366  0.457532  0.187274  1
  Si  Si23  1  0.798776  0.543422  0.686221  1
  Si  Si24  1  0.456514  0.201341  0.813746  1
  Si  Si25  1  0.543874  0.798924  0.313913  1
  Si  Si26  1  0.299065  0.957429  0.062378  1
  Si  Si27  1  0.863924  0.791569  0.824140  1
  Si  Si28  1  0.136363  0.207522  0.324622  1
  Si  Si29  1  0.792814  0.863513  0.176889  1
  Si  Si30  1  0.291594  0.636248  0.572989  1
  Si  Si31  1  0.707330  0.364931  0.071850  1
  Si  Si32  1  0.638706  0.295050  0.428701  1
  Si  Si33  1  0.364802  0.707510  0.926718  1
  Si  Si34  1  0.208754  0.135028  0.677375  1
  Ag  Ag35  1  0.042045  0.698411  0.436271  1
