# generated using pymatgen
data_Hf18CoRe8P
_symmetry_space_group_name_H-M   'P 1'
_cell_length_a   8.54010500
_cell_length_b   8.54010485
_cell_length_c   8.57127500
_cell_angle_alpha   90.00000000
_cell_angle_beta   90.00000000
_cell_angle_gamma   119.99999670
_symmetry_Int_Tables_number   1
_chemical_formula_structural   Hf18CoRe8P
_chemical_formula_sum   'Hf18 Co1 Re8 P1'
_cell_volume   541.38035005
_cell_formula_units_Z   1
loop_
 _symmetry_equiv_pos_site_id
 _symmetry_equiv_pos_as_xyz
  1  'x, y, z'
loop_
 _atom_site_type_symbol
 _atom_site_label
 _atom_site_symmetry_multiplicity
 _atom_site_fract_x
 _atom_site_fract_y
 _atom_site_fract_z
 _atom_site_occupancy
  Hf  Hf0  1  0.194877  0.805123  0.450117  1
  Hf  Hf1  1  0.194877  0.389755  0.450117  1
  Hf  Hf2  1  0.610245  0.805123  0.450117  1
  Hf  Hf3  1  0.800399  0.199601  0.557385  1
  Hf  Hf4  1  0.800399  0.600797  0.557385  1
  Hf  Hf5  1  0.399203  0.199601  0.557385  1
  Hf  Hf6  1  0.800399  0.199601  0.942615  1
  Hf  Hf7  1  0.800399  0.600797  0.942615  1
  Hf  Hf8  1  0.399203  0.199601  0.942615  1
  Hf  Hf9  1  0.194877  0.805123  0.049883  1
  Hf  Hf10  1  0.194877  0.389755  0.049883  1
  Hf  Hf11  1  0.610245  0.805123  0.049883  1
  Hf  Hf12  1  0.541013  0.458987  0.250000  1
  Hf  Hf13  1  0.541013  0.082026  0.250000  1
  Hf  Hf14  1  0.917974  0.458987  0.250000  1
  Hf  Hf15  1  0.458859  0.541141  0.750000  1
  Hf  Hf16  1  0.458859  0.917719  0.750000  1
  Hf  Hf17  1  0.082281  0.541141  0.750000  1
  Co  Co18  1  0.666667  0.333333  0.750000  1
  Re  Re19  1  0.889591  0.110409  0.250000  1
  Re  Re20  1  0.889591  0.779183  0.250000  1
  Re  Re21  1  0.220817  0.110409  0.250000  1
  Re  Re22  1  0.110750  0.889250  0.750000  1
  Re  Re23  1  0.110750  0.221499  0.750000  1
  Re  Re24  1  0.778501  0.889250  0.750000  1
  Re  Re25  1  0.000000  0.000000  0.500612  1
  Re  Re26  1  0.000000  0.000000  0.999388  1
  P  P27  1  0.333333  0.666667  0.250000  1
