# generated using pymatgen
data_Tb5Pr2Gd(WO6)4
_symmetry_space_group_name_H-M   'P 1'
_cell_length_a   5.48915800
_cell_length_b   7.82040243
_cell_length_c   11.60840519
_cell_angle_alpha   75.77098448
_cell_angle_beta   90.00000000
_cell_angle_gamma   90.00000000
_symmetry_Int_Tables_number   1
_chemical_formula_structural   Tb5Pr2Gd(WO6)4
_chemical_formula_sum   'Tb5 Pr2 Gd1 W4 O24'
_cell_volume   483.03101039
_cell_formula_units_Z   1
loop_
 _symmetry_equiv_pos_site_id
 _symmetry_equiv_pos_as_xyz
  1  'x, y, z'
loop_
 _atom_site_type_symbol
 _atom_site_label
 _atom_site_symmetry_multiplicity
 _atom_site_fract_x
 _atom_site_fract_y
 _atom_site_fract_z
 _atom_site_occupancy
  Tb  Tb0  1  0.259697  0.000000  0.250000  1
  Tb  Tb1  1  0.187104  0.796841  0.576112  1
  Tb  Tb2  1  0.813107  0.797067  0.076749  1
  Tb  Tb3  1  0.187104  0.203159  0.923888  1
  Tb  Tb4  1  0.813107  0.202933  0.423251  1
  Pr  Pr5  1  0.684285  0.500000  0.750000  1
  Pr  Pr6  1  0.315257  0.500000  0.250000  1
  Gd  Gd7  1  0.740606  0.000000  0.750000  1
  W  W8  1  0.252605  0.726938  0.884645  1
  W  W9  1  0.747264  0.727822  0.384209  1
  W  W10  1  0.252605  0.273062  0.615355  1
  W  W11  1  0.747264  0.272178  0.115791  1
  O  O12  1  0.044217  0.939772  0.896900  1
  O  O13  1  0.528705  0.845729  0.931316  1
  O  O14  1  0.957846  0.940286  0.395771  1
  O  O15  1  0.452735  0.791957  0.728482  1
  O  O16  1  0.470754  0.846883  0.430354  1
  O  O17  1  0.986808  0.717523  0.770745  1
  O  O18  1  0.545716  0.793509  0.228297  1
  O  O19  1  0.853115  0.642126  0.544653  1
  O  O20  1  0.348979  0.494050  0.887684  1
  O  O21  1  0.013465  0.718630  0.270482  1
  O  O22  1  0.348979  0.505950  0.612316  1
  O  O23  1  0.853115  0.357874  0.955347  1
  O  O24  1  0.146165  0.641172  0.045131  1
  O  O25  1  0.651491  0.494993  0.387198  1
  O  O26  1  0.986808  0.282477  0.729255  1
  O  O27  1  0.651491  0.505007  0.112802  1
  O  O28  1  0.146165  0.358828  0.454869  1
  O  O29  1  0.452735  0.208043  0.771518  1
  O  O30  1  0.013465  0.281370  0.229518  1
  O  O31  1  0.528705  0.154271  0.568684  1
  O  O32  1  0.545716  0.206491  0.271703  1
  O  O33  1  0.044217  0.060228  0.603100  1
  O  O34  1  0.470754  0.153117  0.069646  1
  O  O35  1  0.957846  0.059714  0.104229  1
