# generated using pymatgen
data_Pr3Ti(P3Pd4)2
_symmetry_space_group_name_H-M   'P 1'
_cell_length_a   4.07707000
_cell_length_b   11.46453300
_cell_length_c   13.31630400
_cell_angle_alpha   90.00000000
_cell_angle_beta   90.00000000
_cell_angle_gamma   90.00000000
_symmetry_Int_Tables_number   1
_chemical_formula_structural   Pr3Ti(P3Pd4)2
_chemical_formula_sum   'Pr6 Ti2 P12 Pd16'
_cell_volume   622.42673406
_cell_formula_units_Z   2
loop_
 _symmetry_equiv_pos_site_id
 _symmetry_equiv_pos_as_xyz
  1  'x, y, z'
loop_
 _atom_site_type_symbol
 _atom_site_label
 _atom_site_symmetry_multiplicity
 _atom_site_fract_x
 _atom_site_fract_y
 _atom_site_fract_z
 _atom_site_occupancy
  Pr  Pr0  1  0.000000  0.500000  0.516713  1
  Pr  Pr1  1  0.500000  0.000000  0.483287  1
  Pr  Pr2  1  0.500000  0.813381  0.203958  1
  Pr  Pr3  1  0.500000  0.186619  0.203958  1
  Pr  Pr4  1  0.000000  0.686619  0.796042  1
  Pr  Pr5  1  0.000000  0.313381  0.796042  1
  Ti  Ti6  1  0.500000  0.500000  0.150255  1
  Ti  Ti7  1  0.000000  0.000000  0.849745  1
  P  P8  1  0.500000  0.500000  0.873178  1
  P  P9  1  0.000000  0.000000  0.126822  1
  P  P10  1  0.500000  0.500000  0.341107  1
  P  P11  1  0.000000  0.000000  0.658893  1
  P  P12  1  0.500000  0.316228  0.613936  1
  P  P13  1  0.500000  0.683772  0.613936  1
  P  P14  1  0.000000  0.183772  0.386064  1
  P  P15  1  0.000000  0.816228  0.386064  1
  P  P16  1  0.500000  0.851010  0.889263  1
  P  P17  1  0.500000  0.148990  0.889263  1
  P  P18  1  0.000000  0.648990  0.110737  1
  P  P19  1  0.000000  0.351010  0.110737  1
  Pd  Pd20  1  0.500000  0.500000  0.697739  1
  Pd  Pd21  1  0.000000  0.000000  0.302261  1
  Pd  Pd22  1  0.000000  0.500000  0.983040  1
  Pd  Pd23  1  0.500000  0.000000  0.016960  1
  Pd  Pd24  1  0.500000  0.331705  0.979860  1
  Pd  Pd25  1  0.500000  0.668295  0.979860  1
  Pd  Pd26  1  0.000000  0.168295  0.020140  1
  Pd  Pd27  1  0.000000  0.831705  0.020140  1
  Pd  Pd28  1  0.500000  0.300545  0.428579  1
  Pd  Pd29  1  0.500000  0.699455  0.428579  1
  Pd  Pd30  1  0.000000  0.199455  0.571421  1
  Pd  Pd31  1  0.000000  0.800545  0.571421  1
  Pd  Pd32  1  0.500000  0.877612  0.710575  1
  Pd  Pd33  1  0.500000  0.122388  0.710575  1
  Pd  Pd34  1  0.000000  0.622388  0.289425  1
  Pd  Pd35  1  0.000000  0.377612  0.289425  1
