# generated using pymatgen
data_NdEr(Si7Rh3)2
_symmetry_space_group_name_H-M   'P 1'
_cell_length_a   8.02148560
_cell_length_b   8.02148594
_cell_length_c   8.02148608
_cell_angle_alpha   57.07924411
_cell_angle_beta   57.07924531
_cell_angle_gamma   57.07924122
_symmetry_Int_Tables_number   1
_chemical_formula_structural   NdEr(Si7Rh3)2
_chemical_formula_sum   'Nd1 Er1 Si14 Rh6'
_cell_volume   340.39438988
_cell_formula_units_Z   1
loop_
 _symmetry_equiv_pos_site_id
 _symmetry_equiv_pos_as_xyz
  1  'x, y, z'
loop_
 _atom_site_type_symbol
 _atom_site_label
 _atom_site_symmetry_multiplicity
 _atom_site_fract_x
 _atom_site_fract_y
 _atom_site_fract_z
 _atom_site_occupancy
  Nd  Nd0  1  0.000000  0.000000  0.000000  1
  Er  Er1  1  0.500000  0.500000  0.500000  1
  Si  Si2  1  0.749867  0.749867  0.749867  1
  Si  Si3  1  0.250133  0.250133  0.250133  1
  Si  Si4  1  0.850794  0.065235  0.671725  1
  Si  Si5  1  0.671725  0.850794  0.065235  1
  Si  Si6  1  0.065235  0.671725  0.850794  1
  Si  Si7  1  0.647394  0.826862  0.436099  1
  Si  Si8  1  0.436099  0.647394  0.826862  1
  Si  Si9  1  0.826862  0.436099  0.647394  1
  Si  Si10  1  0.173138  0.563901  0.352606  1
  Si  Si11  1  0.563901  0.352606  0.173138  1
  Si  Si12  1  0.352606  0.173138  0.563901  1
  Si  Si13  1  0.934765  0.328275  0.149206  1
  Si  Si14  1  0.328275  0.149206  0.934765  1
  Si  Si15  1  0.149206  0.934765  0.328275  1
  Rh  Rh16  1  0.070768  0.432552  0.748044  1
  Rh  Rh17  1  0.251956  0.929232  0.567448  1
  Rh  Rh18  1  0.567448  0.251956  0.929232  1
  Rh  Rh19  1  0.929232  0.567448  0.251956  1
  Rh  Rh20  1  0.432552  0.748044  0.070768  1
  Rh  Rh21  1  0.748044  0.070768  0.432552  1
