# generated using pymatgen
data_Ti4SiPRh10
_symmetry_space_group_name_H-M   'P 1'
_cell_length_a   3.94423200
_cell_length_b   5.42617905
_cell_length_c   10.50840410
_cell_angle_alpha   89.98454185
_cell_angle_beta   90.00000000
_cell_angle_gamma   90.00000000
_symmetry_Int_Tables_number   1
_chemical_formula_structural   Ti4SiPRh10
_chemical_formula_sum   'Ti4 Si1 P1 Rh10'
_cell_volume   224.90200215
_cell_formula_units_Z   1
loop_
 _symmetry_equiv_pos_site_id
 _symmetry_equiv_pos_as_xyz
  1  'x, y, z'
loop_
 _atom_site_type_symbol
 _atom_site_label
 _atom_site_symmetry_multiplicity
 _atom_site_fract_x
 _atom_site_fract_y
 _atom_site_fract_z
 _atom_site_occupancy
  Ti  Ti0  1  0.500000  0.329350  0.140265  1
  Ti  Ti1  1  0.500000  0.670650  0.859735  1
  Ti  Ti2  1  0.500000  0.835655  0.356138  1
  Ti  Ti3  1  0.500000  0.164345  0.643862  1
  Si  Si4  1  0.000000  0.000000  0.000000  1
  P  P5  1  0.000000  0.500000  0.500000  1
  Rh  Rh6  1  0.000000  0.000000  0.500000  1
  Rh  Rh7  1  0.000000  0.500000  0.000000  1
  Rh  Rh8  1  0.000000  0.083273  0.239325  1
  Rh  Rh9  1  0.000000  0.916727  0.760675  1
  Rh  Rh10  1  0.000000  0.581892  0.264238  1
  Rh  Rh11  1  0.000000  0.418108  0.735762  1
  Rh  Rh12  1  0.500000  0.320038  0.398990  1
  Rh  Rh13  1  0.500000  0.679962  0.601010  1
  Rh  Rh14  1  0.500000  0.816238  0.105100  1
  Rh  Rh15  1  0.500000  0.183762  0.894900  1
