# generated using pymatgen
data_Ho4Er8Tc3Pt
_symmetry_space_group_name_H-M   'P 1'
_cell_length_a   6.24789454
_cell_length_b   7.36276417
_cell_length_c   9.11536000
_cell_angle_alpha   90.00000000
_cell_angle_beta   90.00000000
_cell_angle_gamma   90.00384484
_symmetry_Int_Tables_number   1
_chemical_formula_structural   Ho4Er8Tc3Pt
_chemical_formula_sum   'Ho4 Er8 Tc3 Pt1'
_cell_volume   419.32273023
_cell_formula_units_Z   1
loop_
 _symmetry_equiv_pos_site_id
 _symmetry_equiv_pos_as_xyz
  1  'x, y, z'
loop_
 _atom_site_type_symbol
 _atom_site_label
 _atom_site_symmetry_multiplicity
 _atom_site_fract_x
 _atom_site_fract_y
 _atom_site_fract_z
 _atom_site_occupancy
  Ho  Ho0  1  0.873713  0.542001  0.250000  1
  Ho  Ho1  1  0.622372  0.038526  0.250000  1
  Ho  Ho2  1  0.127999  0.456548  0.750000  1
  Ho  Ho3  1  0.371462  0.965281  0.750000  1
  Er  Er4  1  0.328691  0.676345  0.066971  1
  Er  Er5  1  0.165021  0.177430  0.436472  1
  Er  Er6  1  0.667817  0.318667  0.558762  1
  Er  Er7  1  0.837256  0.827170  0.939757  1
  Er  Er8  1  0.667817  0.318667  0.941238  1
  Er  Er9  1  0.837256  0.827170  0.560243  1
  Er  Er10  1  0.328691  0.676345  0.433029  1
  Er  Er11  1  0.165021  0.177430  0.063528  1
  Tc  Tc12  1  0.038619  0.885759  0.250000  1
  Tc  Tc13  1  0.463680  0.386593  0.250000  1
  Tc  Tc14  1  0.958371  0.113156  0.750000  1
  Pt  Pt15  1  0.546215  0.612913  0.750000  1
