# generated using pymatgen
data_Si3Ag3(SnAs3)2
_symmetry_space_group_name_H-M   'P 1'
_cell_length_a   9.39126015
_cell_length_b   9.39126053
_cell_length_c   9.39126000
_cell_angle_alpha   109.47121948
_cell_angle_beta   109.47122031
_cell_angle_gamma   109.47122318
_symmetry_Int_Tables_number   1
_chemical_formula_structural   Si3Ag3(SnAs3)2
_chemical_formula_sum   'Si6 Ag6 Sn4 As12'
_cell_volume   637.60208428
_cell_formula_units_Z   2
loop_
 _symmetry_equiv_pos_site_id
 _symmetry_equiv_pos_as_xyz
  1  'x, y, z'
loop_
 _atom_site_type_symbol
 _atom_site_label
 _atom_site_symmetry_multiplicity
 _atom_site_fract_x
 _atom_site_fract_y
 _atom_site_fract_z
 _atom_site_occupancy
  Si  Si0  1  0.250000  0.750000  0.500000  1
  Si  Si1  1  0.750000  0.500000  0.250000  1
  Si  Si2  1  0.750000  0.250000  0.500000  1
  Si  Si3  1  0.500000  0.250000  0.750000  1
  Si  Si4  1  0.500000  0.750000  0.250000  1
  Si  Si5  1  0.250000  0.500000  0.750000  1
  Ag  Ag6  1  0.190883  0.000000  0.190883  1
  Ag  Ag7  1  0.000000  0.809117  0.809117  1
  Ag  Ag8  1  0.000000  0.190883  0.190883  1
  Ag  Ag9  1  0.809117  0.809117  0.000000  1
  Ag  Ag10  1  0.809117  0.000000  0.809117  1
  Ag  Ag11  1  0.190883  0.190883  0.000000  1
  Sn  Sn12  1  0.000000  0.000000  0.598347  1
  Sn  Sn13  1  0.598347  0.000000  0.000000  1
  Sn  Sn14  1  0.000000  0.598347  0.000000  1
  Sn  Sn15  1  0.401653  0.401653  0.401653  1
  As  As16  1  0.000000  0.493181  0.240751  1
  As  As17  1  0.493181  0.000000  0.240751  1
  As  As18  1  0.506819  0.747570  0.506819  1
  As  As19  1  0.240751  0.493181  0.000000  1
  As  As20  1  0.747570  0.506819  0.506819  1
  As  As21  1  0.252430  0.759249  0.759249  1
  As  As22  1  0.759249  0.252430  0.759249  1
  As  As23  1  0.240751  0.000000  0.493181  1
  As  As24  1  0.506819  0.506819  0.747570  1
  As  As25  1  0.000000  0.240751  0.493181  1
  As  As26  1  0.759249  0.759249  0.252430  1
  As  As27  1  0.493181  0.240751  0.000000  1
