# generated using pymatgen
data_Ho16Tm4(Bi3Sb)3
_symmetry_space_group_name_H-M   'P 1'
_cell_length_a   8.16287410
_cell_length_b   9.41480300
_cell_length_c   11.95331715
_cell_angle_alpha   90.00057978
_cell_angle_beta   90.01798297
_cell_angle_gamma   89.99907418
_symmetry_Int_Tables_number   1
_chemical_formula_structural   Ho16Tm4(Bi3Sb)3
_chemical_formula_sum   'Ho16 Tm4 Bi9 Sb3'
_cell_volume   918.63450984
_cell_formula_units_Z   1
loop_
 _symmetry_equiv_pos_site_id
 _symmetry_equiv_pos_as_xyz
  1  'x, y, z'
loop_
 _atom_site_type_symbol
 _atom_site_label
 _atom_site_symmetry_multiplicity
 _atom_site_fract_x
 _atom_site_fract_y
 _atom_site_fract_z
 _atom_site_occupancy
  Ho  Ho0  1  0.353865  0.749858  0.213470  1
  Ho  Ho1  1  0.853700  0.750143  0.286343  1
  Ho  Ho2  1  0.646385  0.249801  0.786637  1
  Ho  Ho3  1  0.147220  0.250163  0.716903  1
  Ho  Ho4  1  0.311735  0.437039  0.942294  1
  Ho  Ho5  1  0.808948  0.060725  0.559191  1
  Ho  Ho6  1  0.688352  0.936842  0.057821  1
  Ho  Ho7  1  0.189586  0.566938  0.441972  1
  Ho  Ho8  1  0.476437  0.250052  0.488313  1
  Ho  Ho9  1  0.972664  0.249921  0.011756  1
  Ho  Ho10  1  0.528091  0.749973  0.512071  1
  Ho  Ho11  1  0.027385  0.749993  0.988141  1
  Ho  Ho12  1  0.318343  0.249853  0.215399  1
  Ho  Ho13  1  0.812316  0.250154  0.280095  1
  Ho  Ho14  1  0.683157  0.749828  0.783050  1
  Ho  Ho15  1  0.183242  0.750159  0.716988  1
  Tm  Tm16  1  0.687614  0.564670  0.057813  1
  Tm  Tm17  1  0.188780  0.931385  0.441980  1
  Tm  Tm18  1  0.312503  0.064462  0.942292  1
  Tm  Tm19  1  0.809483  0.437917  0.559268  1
  Bi  Bi20  1  0.094053  0.248897  0.456818  1
  Bi  Bi21  1  0.565721  0.995707  0.325325  1
  Bi  Bi22  1  0.065954  0.503823  0.174670  1
  Bi  Bi23  1  0.433830  0.495878  0.674700  1
  Bi  Bi24  1  0.933942  0.003806  0.825479  1
  Bi  Bi25  1  0.433569  0.004285  0.674670  1
  Bi  Bi26  1  0.933688  0.496057  0.825500  1
  Bi  Bi27  1  0.566009  0.504518  0.325452  1
  Bi  Bi28  1  0.066199  0.996002  0.174547  1
  Sb  Sb29  1  0.406413  0.751062  0.958278  1
  Sb  Sb30  1  0.906803  0.748954  0.541534  1
  Sb  Sb31  1  0.594013  0.251135  0.041230  1
