# generated using pymatgen
data_Y2Tl5InBr12
_symmetry_space_group_name_H-M   'P 1'
_cell_length_a   8.55886322
_cell_length_b   8.03847443
_cell_length_c   14.01993700
_cell_angle_alpha   55.58624483
_cell_angle_beta   89.92559929
_cell_angle_gamma   90.17710661
_symmetry_Int_Tables_number   1
_chemical_formula_structural   Y2Tl5InBr12
_chemical_formula_sum   'Y2 Tl5 In1 Br12'
_cell_volume   795.74337525
_cell_formula_units_Z   1
loop_
 _symmetry_equiv_pos_site_id
 _symmetry_equiv_pos_as_xyz
  1  'x, y, z'
loop_
 _atom_site_type_symbol
 _atom_site_label
 _atom_site_symmetry_multiplicity
 _atom_site_fract_x
 _atom_site_fract_y
 _atom_site_fract_z
 _atom_site_occupancy
  Y  Y0  1  0.500000  0.000000  0.500000  1
  Y  Y1  1  0.000000  0.000000  0.000000  1
  Tl  Tl2  1  0.500000  0.500000  0.000000  1
  Tl  Tl3  1  0.069206  0.723231  0.754062  1
  Tl  Tl4  1  0.930794  0.276769  0.245938  1
  Tl  Tl5  1  0.570208  0.278217  0.744124  1
  Tl  Tl6  1  0.429792  0.721783  0.255876  1
  In  In7  1  0.000000  0.500000  0.500000  1
  Br  Br8  1  0.776637  0.765762  0.569347  1
  Br  Br9  1  0.223363  0.234238  0.430653  1
  Br  Br10  1  0.278147  0.232909  0.929466  1
  Br  Br11  1  0.721853  0.767091  0.070534  1
  Br  Br12  1  0.447620  0.891559  0.727560  1
  Br  Br13  1  0.552380  0.108441  0.272440  1
  Br  Br14  1  0.948788  0.111360  0.771256  1
  Br  Br15  1  0.051212  0.888640  0.228744  1
  Br  Br16  1  0.324081  0.660620  0.550880  1
  Br  Br17  1  0.675919  0.339380  0.449120  1
  Br  Br18  1  0.827627  0.339765  0.948673  1
  Br  Br19  1  0.172373  0.660235  0.051327  1
