# generated using pymatgen
data_Dy8Y12Si15Hg
_symmetry_space_group_name_H-M   'P 1'
_cell_length_a   7.46575771
_cell_length_b   7.72221969
_cell_length_c   14.69702240
_cell_angle_alpha   89.97394895
_cell_angle_beta   89.39662857
_cell_angle_gamma   90.12066447
_symmetry_Int_Tables_number   1
_chemical_formula_structural   Dy8Y12Si15Hg
_chemical_formula_sum   'Dy8 Y12 Si15 Hg1'
_cell_volume   847.26702794
_cell_formula_units_Z   1
loop_
 _symmetry_equiv_pos_site_id
 _symmetry_equiv_pos_as_xyz
  1  'x, y, z'
loop_
 _atom_site_type_symbol
 _atom_site_label
 _atom_site_symmetry_multiplicity
 _atom_site_fract_x
 _atom_site_fract_y
 _atom_site_fract_z
 _atom_site_occupancy
  Dy  Dy0  1  0.674123  0.829651  0.873916  1
  Dy  Dy1  1  0.182443  0.679950  0.621635  1
  Dy  Dy2  1  0.821648  0.319793  0.126057  1
  Dy  Dy3  1  0.318092  0.178871  0.377761  1
  Dy  Dy4  1  0.322345  0.177158  0.124241  1
  Dy  Dy5  1  0.818489  0.320667  0.377525  1
  Dy  Dy6  1  0.183193  0.676536  0.877321  1
  Dy  Dy7  1  0.682169  0.821971  0.621779  1
  Y  Y8  1  0.648586  0.989553  0.250655  1
  Y  Y9  1  0.150541  0.511341  0.249189  1
  Y  Y10  1  0.849538  0.489332  0.747591  1
  Y  Y11  1  0.349425  0.012148  0.749069  1
  Y  Y12  1  0.975714  0.822614  0.101638  1
  Y  Y13  1  0.471191  0.684208  0.401322  1
  Y  Y14  1  0.518918  0.312981  0.899349  1
  Y  Y15  1  0.030005  0.182481  0.597986  1
  Y  Y16  1  0.029740  0.176269  0.899927  1
  Y  Y17  1  0.529163  0.316018  0.598000  1
  Y  Y18  1  0.474586  0.682640  0.100905  1
  Y  Y19  1  0.970019  0.816564  0.400778  1
  Si  Si20  1  0.766788  0.627875  0.251872  1
  Si  Si21  1  0.266714  0.873278  0.251664  1
  Si  Si22  1  0.734817  0.126702  0.748254  1
  Si  Si23  1  0.231349  0.373673  0.747798  1
  Si  Si24  1  0.022717  0.103719  0.251516  1
  Si  Si25  1  0.523240  0.395669  0.252038  1
  Si  Si26  1  0.476910  0.603824  0.747731  1
  Si  Si27  1  0.977520  0.892824  0.748165  1
  Si  Si28  1  0.354506  0.971416  0.540006  1
  Si  Si29  1  0.649692  0.028919  0.041402  1
  Si  Si30  1  0.145890  0.470544  0.460275  1
  Si  Si31  1  0.161203  0.470077  0.042807  1
  Si  Si32  1  0.645207  0.028741  0.459300  1
  Si  Si33  1  0.351122  0.969187  0.961226  1
  Si  Si34  1  0.855497  0.529841  0.539066  1
  Hg  Hg35  1  0.836901  0.532960  0.960232  1
