# generated using pymatgen
data_La8PrNdRu4
_symmetry_space_group_name_H-M   'P 1'
_cell_length_a   9.11986676
_cell_length_b   9.11986853
_cell_length_c   7.33909260
_cell_angle_alpha   85.90373728
_cell_angle_beta   85.90373548
_cell_angle_gamma   43.15533133
_symmetry_Int_Tables_number   1
_chemical_formula_structural   La8PrNdRu4
_chemical_formula_sum   'La8 Pr1 Nd1 Ru4'
_cell_volume   416.27165334
_cell_formula_units_Z   1
loop_
 _symmetry_equiv_pos_site_id
 _symmetry_equiv_pos_as_xyz
  1  'x, y, z'
loop_
 _atom_site_type_symbol
 _atom_site_label
 _atom_site_symmetry_multiplicity
 _atom_site_fract_x
 _atom_site_fract_y
 _atom_site_fract_z
 _atom_site_occupancy
  La  La0  1  0.016878  0.799476  0.906842  1
  La  La1  1  0.200524  0.983122  0.593158  1
  La  La2  1  0.983256  0.200344  0.093456  1
  La  La3  1  0.799656  0.016744  0.406544  1
  La  La4  1  0.363310  0.209854  0.817949  1
  La  La5  1  0.790146  0.636690  0.682051  1
  La  La6  1  0.636523  0.790080  0.182143  1
  La  La7  1  0.209920  0.363477  0.317857  1
  Pr  Pr8  1  0.574297  0.425703  0.750000  1
  Nd  Nd9  1  0.426002  0.573998  0.250000  1
  Ru  Ru10  1  0.169254  0.604410  0.582213  1
  Ru  Ru11  1  0.395590  0.830746  0.917787  1
  Ru  Ru12  1  0.830493  0.395849  0.417251  1
  Ru  Ru13  1  0.604151  0.169507  0.082749  1
