# generated using pymatgen
data_YHo9(In2Au)4
_symmetry_space_group_name_H-M   'P 1'
_cell_length_a   3.64574000
_cell_length_b   8.21407807
_cell_length_c   18.41917715
_cell_angle_alpha   89.98516641
_cell_angle_beta   90.00000000
_cell_angle_gamma   90.00000000
_symmetry_Int_Tables_number   1
_chemical_formula_structural   YHo9(In2Au)4
_chemical_formula_sum   'Y1 Ho9 In8 Au4'
_cell_volume   551.58789892
_cell_formula_units_Z   1
loop_
 _symmetry_equiv_pos_site_id
 _symmetry_equiv_pos_as_xyz
  1  'x, y, z'
loop_
 _atom_site_type_symbol
 _atom_site_label
 _atom_site_symmetry_multiplicity
 _atom_site_fract_x
 _atom_site_fract_y
 _atom_site_fract_z
 _atom_site_occupancy
  Y  Y0  1  0.000000  0.500000  0.500000  1
  Ho  Ho1  1  0.000000  0.000000  0.000000  1
  Ho  Ho2  1  0.000000  0.736264  0.281929  1
  Ho  Ho3  1  0.000000  0.263736  0.718071  1
  Ho  Ho4  1  0.000000  0.763804  0.782153  1
  Ho  Ho5  1  0.000000  0.236196  0.217847  1
  Ho  Ho6  1  0.000000  0.619410  0.079467  1
  Ho  Ho7  1  0.000000  0.380590  0.920533  1
  Ho  Ho8  1  0.000000  0.880803  0.579682  1
  Ho  Ho9  1  0.000000  0.119197  0.420318  1
  In  In10  1  0.500000  0.712396  0.932800  1
  In  In11  1  0.500000  0.287604  0.067200  1
  In  In12  1  0.500000  0.788570  0.432669  1
  In  In13  1  0.500000  0.211430  0.567331  1
  In  In14  1  0.500000  0.580728  0.647232  1
  In  In15  1  0.500000  0.419272  0.352768  1
  In  In16  1  0.500000  0.919591  0.146914  1
  In  In17  1  0.500000  0.080409  0.853086  1
  Au  Au18  1  0.500000  0.526731  0.196217  1
  Au  Au19  1  0.500000  0.473269  0.803783  1
  Au  Au20  1  0.500000  0.973329  0.696376  1
  Au  Au21  1  0.500000  0.026671  0.303624  1
