# generated using pymatgen
data_TaMnRuF12
_symmetry_space_group_name_H-M   'P 1'
_cell_length_a   5.34969706
_cell_length_b   5.65122485
_cell_length_c   9.33017680
_cell_angle_alpha   73.87228474
_cell_angle_beta   88.64910606
_cell_angle_gamma   62.35440421
_symmetry_Int_Tables_number   1
_chemical_formula_structural   TaMnRuF12
_chemical_formula_sum   'Ta1 Mn1 Ru1 F12'
_cell_volume   238.19114482
_cell_formula_units_Z   1
loop_
 _symmetry_equiv_pos_site_id
 _symmetry_equiv_pos_as_xyz
  1  'x, y, z'
loop_
 _atom_site_type_symbol
 _atom_site_label
 _atom_site_symmetry_multiplicity
 _atom_site_fract_x
 _atom_site_fract_y
 _atom_site_fract_z
 _atom_site_occupancy
  Ta  Ta0  1  0.229493  0.994348  0.761882  1
  Mn  Mn1  1  0.503693  0.502041  0.497084  1
  Ru  Ru2  1  0.772740  0.000545  0.246056  1
  F  F3  1  0.944069  0.227809  0.200451  1
  F  F4  1  0.055300  0.765911  0.795271  1
  F  F5  1  0.009314  0.768096  0.139304  1
  F  F6  1  0.460956  0.773853  0.628051  1
  F  F7  1  0.534726  0.228804  0.369398  1
  F  F8  1  0.944287  0.241406  0.576814  1
  F  F9  1  0.056480  0.761651  0.424466  1
  F  F10  1  0.405172  0.238885  0.679916  1
  F  F11  1  0.595091  0.760613  0.312337  1
  F  F12  1  0.512727  0.777830  0.925559  1
  F  F13  1  0.495665  0.219293  0.081814  1
  F  F14  1  0.980287  0.238914  0.861595  1
