# generated using pymatgen
data_Rb4SnBi2Pb
_symmetry_space_group_name_H-M   'P 1'
_cell_length_a   7.19447400
_cell_length_b   14.29350961
_cell_length_c   6.79918096
_cell_angle_alpha   88.94472750
_cell_angle_beta   90.00000000
_cell_angle_gamma   90.00000000
_symmetry_Int_Tables_number   1
_chemical_formula_structural   Rb4SnBi2Pb
_chemical_formula_sum   'Rb8 Sn2 Bi4 Pb2'
_cell_volume   699.07031370
_cell_formula_units_Z   2
loop_
 _symmetry_equiv_pos_site_id
 _symmetry_equiv_pos_as_xyz
  1  'x, y, z'
loop_
 _atom_site_type_symbol
 _atom_site_label
 _atom_site_symmetry_multiplicity
 _atom_site_fract_x
 _atom_site_fract_y
 _atom_site_fract_z
 _atom_site_occupancy
  Rb  Rb0  1  0.112018  0.164387  0.252376  1
  Rb  Rb1  1  0.335816  0.490317  0.251996  1
  Rb  Rb2  1  0.887982  0.664387  0.252376  1
  Rb  Rb3  1  0.664183  0.990317  0.251996  1
  Rb  Rb4  1  0.335816  0.009683  0.748004  1
  Rb  Rb5  1  0.112018  0.335613  0.747624  1
  Rb  Rb6  1  0.664183  0.509683  0.748004  1
  Rb  Rb7  1  0.887982  0.835613  0.747624  1
  Sn  Sn8  1  0.603503  0.250000  0.499999  1
  Sn  Sn9  1  0.396497  0.750000  0.499999  1
  Bi  Bi10  1  0.834876  0.389875  0.255263  1
  Bi  Bi11  1  0.165124  0.889875  0.255263  1
  Bi  Bi12  1  0.834876  0.110125  0.744737  1
  Bi  Bi13  1  0.165124  0.610125  0.744737  1
  Pb  Pb14  1  0.601515  0.250000  0.000000  1
  Pb  Pb15  1  0.398485  0.750000  0.000000  1
