# generated using pymatgen
data_La5CeZn4IrPd12
_symmetry_space_group_name_H-M   'P 1'
_cell_length_a   8.43570102
_cell_length_b   8.43570115
_cell_length_c   8.43570138
_cell_angle_alpha   109.37315919
_cell_angle_beta   109.37315480
_cell_angle_gamma   109.66752959
_symmetry_Int_Tables_number   1
_chemical_formula_structural   La5CeZn4IrPd12
_chemical_formula_sum   'La5 Ce1 Zn4 Ir1 Pd12'
_cell_volume   462.10197961
_cell_formula_units_Z   1
loop_
 _symmetry_equiv_pos_site_id
 _symmetry_equiv_pos_as_xyz
  1  'x, y, z'
loop_
 _atom_site_type_symbol
 _atom_site_label
 _atom_site_symmetry_multiplicity
 _atom_site_fract_x
 _atom_site_fract_y
 _atom_site_fract_z
 _atom_site_occupancy
  La  La0  1  0.297530  0.999647  0.297883  1
  La  La1  1  0.999647  0.297530  0.297883  1
  La  La2  1  0.296812  0.296812  0.000000  1
  La  La3  1  0.701764  0.999647  0.702117  1
  La  La4  1  0.999647  0.701764  0.702117  1
  Ce  Ce5  1  0.701867  0.701867  0.000000  1
  Zn  Zn6  1  0.000056  0.000056  0.498726  1
  Zn  Zn7  1  0.000056  0.501329  0.000000  1
  Zn  Zn8  1  0.501329  0.000056  0.000000  1
  Zn  Zn9  1  0.501329  0.501329  0.501274  1
  Ir  Ir10  1  0.992020  0.992020  0.000000  1
  Pd  Pd11  1  0.335605  0.335605  0.668536  1
  Pd  Pd12  1  0.669466  0.998805  0.329339  1
  Pd  Pd13  1  0.998805  0.669466  0.329339  1
  Pd  Pd14  1  0.667070  0.335605  0.000000  1
  Pd  Pd15  1  0.331183  0.662605  0.331421  1
  Pd  Pd16  1  0.999761  0.331183  0.668579  1
  Pd  Pd17  1  0.335605  0.667070  0.000000  1
  Pd  Pd18  1  0.331183  0.999761  0.668579  1
  Pd  Pd19  1  0.662605  0.331183  0.331421  1
  Pd  Pd20  1  0.667070  0.667070  0.331464  1
  Pd  Pd21  1  0.669466  0.340126  0.670661  1
  Pd  Pd22  1  0.340126  0.669466  0.670661  1
