# generated using pymatgen
data_Rb3MnRhBr9
_symmetry_space_group_name_H-M   'P 1'
_cell_length_a   7.48794100
_cell_length_b   7.48810087
_cell_length_c   19.30051100
_cell_angle_alpha   90.00000000
_cell_angle_beta   90.00000000
_cell_angle_gamma   120.00211305
_symmetry_Int_Tables_number   1
_chemical_formula_structural   Rb3MnRhBr9
_chemical_formula_sum   'Rb6 Mn2 Rh2 Br18'
_cell_volume   937.18276127
_cell_formula_units_Z   2
loop_
 _symmetry_equiv_pos_site_id
 _symmetry_equiv_pos_as_xyz
  1  'x, y, z'
loop_
 _atom_site_type_symbol
 _atom_site_label
 _atom_site_symmetry_multiplicity
 _atom_site_fract_x
 _atom_site_fract_y
 _atom_site_fract_z
 _atom_site_occupancy
  Rb  Rb0  1  0.666669  0.333336  0.937303  1
  Rb  Rb1  1  0.333331  0.666664  0.437303  1
  Rb  Rb2  1  0.666662  0.333328  0.568596  1
  Rb  Rb3  1  0.333338  0.666672  0.068596  1
  Rb  Rb4  1  0.000001  0.000001  0.747008  1
  Rb  Rb5  1  0.999999  0.999999  0.247008  1
  Mn  Mn6  1  0.666659  0.333332  0.339857  1
  Mn  Mn7  1  0.333341  0.666668  0.839857  1
  Rh  Rh8  1  0.333393  0.666685  0.666557  1
  Rh  Rh9  1  0.666607  0.333315  0.166557  1
  Br  Br10  1  0.829614  0.659228  0.407035  1
  Br  Br11  1  0.170386  0.340772  0.907035  1
  Br  Br12  1  0.170384  0.829616  0.907036  1
  Br  Br13  1  0.176170  0.352327  0.592341  1
  Br  Br14  1  0.659241  0.829621  0.907038  1
  Br  Br15  1  0.340759  0.170379  0.407038  1
  Br  Br16  1  0.023105  0.511545  0.747513  1
  Br  Br17  1  0.829616  0.170384  0.407036  1
  Br  Br18  1  0.511546  0.023110  0.247519  1
  Br  Br19  1  0.488450  0.511562  0.747516  1
  Br  Br20  1  0.511550  0.488438  0.247516  1
  Br  Br21  1  0.976895  0.488455  0.247513  1
  Br  Br22  1  0.352276  0.176133  0.092339  1
  Br  Br23  1  0.488454  0.976890  0.747519  1
  Br  Br24  1  0.823830  0.647673  0.092341  1
  Br  Br25  1  0.176168  0.823858  0.592341  1
  Br  Br26  1  0.647724  0.823867  0.592339  1
  Br  Br27  1  0.823832  0.176142  0.092341  1
