# generated using pymatgen
data_Ta6Ga4TcNiC2
_symmetry_space_group_name_H-M   'P 1'
_cell_length_a   8.23866772
_cell_length_b   8.26931052
_cell_length_c   8.26931062
_cell_angle_alpha   60.25507589
_cell_angle_beta   60.12250408
_cell_angle_gamma   60.12250579
_symmetry_Int_Tables_number   1
_chemical_formula_structural   Ta6Ga4TcNiC2
_chemical_formula_sum   'Ta12 Ga8 Tc2 Ni2 C4'
_cell_volume   399.86703558
_cell_formula_units_Z   2
loop_
 _symmetry_equiv_pos_site_id
 _symmetry_equiv_pos_as_xyz
  1  'x, y, z'
loop_
 _atom_site_type_symbol
 _atom_site_label
 _atom_site_symmetry_multiplicity
 _atom_site_fract_x
 _atom_site_fract_y
 _atom_site_fract_z
 _atom_site_occupancy
  Ta  Ta0  1  0.553596  0.939446  0.566363  1
  Ta  Ta1  1  0.305752  0.694248  0.694248  1
  Ta  Ta2  1  0.686585  0.313415  0.313415  1
  Ta  Ta3  1  0.309405  0.683637  0.310554  1
  Ta  Ta4  1  0.696404  0.683637  0.310554  1
  Ta  Ta5  1  0.309405  0.310554  0.683637  1
  Ta  Ta6  1  0.553596  0.566363  0.939446  1
  Ta  Ta7  1  0.944248  0.555752  0.555752  1
  Ta  Ta8  1  0.563415  0.936585  0.936585  1
  Ta  Ta9  1  0.940595  0.939446  0.566363  1
  Ta  Ta10  1  0.696404  0.310554  0.683637  1
  Ta  Ta11  1  0.940595  0.566363  0.939446  1
  Ga  Ga12  1  0.905010  0.921380  0.921380  1
  Ga  Ga13  1  0.997769  0.328620  0.328620  1
  Ga  Ga14  1  0.340118  0.992363  0.327398  1
  Ga  Ga15  1  0.340118  0.327398  0.992363  1
  Ga  Ga16  1  0.909882  0.257637  0.922602  1
  Ga  Ga17  1  0.909882  0.922602  0.257637  1
  Ga  Ga18  1  0.252231  0.921380  0.921380  1
  Ga  Ga19  1  0.344990  0.328620  0.328620  1
  Tc  Tc20  1  0.125000  0.625000  0.125000  1
  Tc  Tc21  1  0.125000  0.125000  0.625000  1
  Ni  Ni22  1  0.125000  0.125000  0.125000  1
  Ni  Ni23  1  0.625000  0.125000  0.125000  1
  C  C24  1  0.625000  0.625000  0.625000  1
  C  C25  1  0.125000  0.625000  0.625000  1
  C  C26  1  0.625000  0.125000  0.625000  1
  C  C27  1  0.625000  0.625000  0.125000  1
