# generated using pymatgen
data_Nd2Co5Mo2(P2Rh)3
_symmetry_space_group_name_H-M   'P 1'
_cell_length_a   3.82030900
_cell_length_b   10.67460800
_cell_length_c   12.25085500
_cell_angle_alpha   90.00000000
_cell_angle_beta   90.00000000
_cell_angle_gamma   90.00000000
_symmetry_Int_Tables_number   1
_chemical_formula_structural   Nd2Co5Mo2(P2Rh)3
_chemical_formula_sum   'Nd4 Co10 Mo4 P12 Rh6'
_cell_volume   499.59355458
_cell_formula_units_Z   2
loop_
 _symmetry_equiv_pos_site_id
 _symmetry_equiv_pos_as_xyz
  1  'x, y, z'
loop_
 _atom_site_type_symbol
 _atom_site_label
 _atom_site_symmetry_multiplicity
 _atom_site_fract_x
 _atom_site_fract_y
 _atom_site_fract_z
 _atom_site_occupancy
  Nd  Nd0  1  0.250000  0.585012  0.708474  1
  Nd  Nd1  1  0.250000  0.914988  0.208474  1
  Nd  Nd2  1  0.750000  0.420821  0.292570  1
  Nd  Nd3  1  0.750000  0.079179  0.792570  1
  Co  Co4  1  0.750000  0.775390  0.821265  1
  Co  Co5  1  0.750000  0.724610  0.321265  1
  Co  Co6  1  0.250000  0.881696  0.695928  1
  Co  Co7  1  0.250000  0.618304  0.195928  1
  Co  Co8  1  0.750000  0.111332  0.305695  1
  Co  Co9  1  0.750000  0.388668  0.805695  1
  Co  Co10  1  0.250000  0.465209  0.934828  1
  Co  Co11  1  0.250000  0.034791  0.434828  1
  Co  Co12  1  0.750000  0.534647  0.064085  1
  Co  Co13  1  0.750000  0.965353  0.564085  1
  Mo  Mo14  1  0.250000  0.702795  0.984767  1
  Mo  Mo15  1  0.250000  0.797205  0.484767  1
  Mo  Mo16  1  0.750000  0.294830  0.012722  1
  Mo  Mo17  1  0.750000  0.205170  0.512722  1
  P  P18  1  0.250000  0.428713  0.110253  1
  P  P19  1  0.250000  0.071287  0.610253  1
  P  P20  1  0.750000  0.579411  0.888273  1
  P  P21  1  0.750000  0.920589  0.388273  1
  P  P22  1  0.250000  0.275087  0.870488  1
  P  P23  1  0.250000  0.224913  0.370488  1
  P  P24  1  0.750000  0.722217  0.137058  1
  P  P25  1  0.750000  0.777783  0.637058  1
  P  P26  1  0.250000  0.609799  0.382815  1
  P  P27  1  0.250000  0.890201  0.882815  1
  P  P28  1  0.750000  0.399433  0.612027  1
  P  P29  1  0.750000  0.100567  0.112027  1
  Rh  Rh30  1  0.250000  0.407322  0.485299  1
  Rh  Rh31  1  0.250000  0.092678  0.985299  1
  Rh  Rh32  1  0.750000  0.600851  0.512753  1
  Rh  Rh33  1  0.750000  0.899149  0.012753  1
  Rh  Rh34  1  0.250000  0.224522  0.180699  1
  Rh  Rh35  1  0.250000  0.275478  0.680699  1
