# generated using pymatgen
data_Li2YbDySi4
_symmetry_space_group_name_H-M   'P 1'
_cell_length_a   3.78159400
_cell_length_b   7.74363494
_cell_length_c   10.37044128
_cell_angle_alpha   90.54310006
_cell_angle_beta   90.00000000
_cell_angle_gamma   90.00000000
_symmetry_Int_Tables_number   1
_chemical_formula_structural   Li2YbDySi4
_chemical_formula_sum   'Li4 Yb2 Dy2 Si8'
_cell_volume   303.66692872
_cell_formula_units_Z   2
loop_
 _symmetry_equiv_pos_site_id
 _symmetry_equiv_pos_as_xyz
  1  'x, y, z'
loop_
 _atom_site_type_symbol
 _atom_site_label
 _atom_site_symmetry_multiplicity
 _atom_site_fract_x
 _atom_site_fract_y
 _atom_site_fract_z
 _atom_site_occupancy
  Li  Li0  1  0.250000  0.992566  0.389401  1
  Li  Li1  1  0.750000  0.007434  0.610599  1
  Li  Li2  1  0.250000  0.498059  0.109836  1
  Li  Li3  1  0.750000  0.501941  0.890164  1
  Yb  Yb4  1  0.250000  0.136503  0.865418  1
  Yb  Yb5  1  0.750000  0.863497  0.134582  1
  Dy  Dy6  1  0.250000  0.630629  0.635300  1
  Dy  Dy7  1  0.750000  0.369371  0.364700  1
  Si  Si8  1  0.750000  0.271252  0.071182  1
  Si  Si9  1  0.250000  0.728748  0.928818  1
  Si  Si10  1  0.750000  0.763192  0.437115  1
  Si  Si11  1  0.250000  0.236808  0.562885  1
  Si  Si12  1  0.750000  0.834328  0.818252  1
  Si  Si13  1  0.250000  0.165672  0.181748  1
  Si  Si14  1  0.750000  0.342103  0.675090  1
  Si  Si15  1  0.250000  0.657897  0.324910  1
