# generated using pymatgen
data_LaTh7(GePd)8
_symmetry_space_group_name_H-M   'P 1'
_cell_length_a   4.52957600
_cell_length_b   7.80907600
_cell_length_c   14.63098300
_cell_angle_alpha   90.00000000
_cell_angle_beta   90.00000000
_cell_angle_gamma   90.00000000
_symmetry_Int_Tables_number   1
_chemical_formula_structural   LaTh7(GePd)8
_chemical_formula_sum   'La1 Th7 Ge8 Pd8'
_cell_volume   517.52425176
_cell_formula_units_Z   1
loop_
 _symmetry_equiv_pos_site_id
 _symmetry_equiv_pos_as_xyz
  1  'x, y, z'
loop_
 _atom_site_type_symbol
 _atom_site_label
 _atom_site_symmetry_multiplicity
 _atom_site_fract_x
 _atom_site_fract_y
 _atom_site_fract_z
 _atom_site_occupancy
  La  La0  1  0.000000  0.291591  0.000000  1
  Th  Th1  1  0.500000  0.770570  0.747597  1
  Th  Th2  1  0.000000  0.231436  0.753899  1
  Th  Th3  1  0.500000  0.770570  0.252403  1
  Th  Th4  1  0.000000  0.231436  0.246101  1
  Th  Th5  1  0.500000  0.715981  0.000000  1
  Th  Th6  1  0.000000  0.283094  0.500000  1
  Th  Th7  1  0.500000  0.708530  0.500000  1
  Ge  Ge8  1  0.500000  0.406125  0.640153  1
  Ge  Ge9  1  0.000000  0.594684  0.858898  1
  Ge  Ge10  1  0.500000  0.406125  0.359847  1
  Ge  Ge11  1  0.000000  0.594684  0.141102  1
  Ge  Ge12  1  0.500000  0.085596  0.099014  1
  Ge  Ge13  1  0.000000  0.912725  0.398890  1
  Ge  Ge14  1  0.500000  0.085596  0.900986  1
  Ge  Ge15  1  0.000000  0.912725  0.601110  1
  Pd  Pd16  1  0.500000  0.072986  0.615510  1
  Pd  Pd17  1  0.000000  0.925077  0.884538  1
  Pd  Pd18  1  0.500000  0.072986  0.384490  1
  Pd  Pd19  1  0.000000  0.925077  0.115462  1
  Pd  Pd20  1  0.500000  0.418299  0.146338  1
  Pd  Pd21  1  0.000000  0.582904  0.354762  1
  Pd  Pd22  1  0.500000  0.418299  0.853662  1
  Pd  Pd23  1  0.000000  0.582904  0.645238  1
