# generated using pymatgen
data_YPa5(NO5)2
_symmetry_space_group_name_H-M   'P 1'
_cell_length_a   6.65509691
_cell_length_b   6.65529412
_cell_length_c   7.69097116
_cell_angle_alpha   73.20465040
_cell_angle_beta   73.20073662
_cell_angle_gamma   48.16063592
_symmetry_Int_Tables_number   1
_chemical_formula_structural   YPa5(NO5)2
_chemical_formula_sum   'Y1 Pa5 N2 O10'
_cell_volume   240.73771131
_cell_formula_units_Z   1
loop_
 _symmetry_equiv_pos_site_id
 _symmetry_equiv_pos_as_xyz
  1  'x, y, z'
loop_
 _atom_site_type_symbol
 _atom_site_label
 _atom_site_symmetry_multiplicity
 _atom_site_fract_x
 _atom_site_fract_y
 _atom_site_fract_z
 _atom_site_occupancy
  Y  Y0  1  0.000914  0.000896  0.500201  1
  Pa  Pa1  1  0.006318  0.006333  0.995966  1
  Pa  Pa2  1  0.666104  0.666095  0.673311  1
  Pa  Pa3  1  0.329101  0.329111  0.833946  1
  Pa  Pa4  1  0.331959  0.331944  0.335548  1
  Pa  Pa5  1  0.665375  0.665422  0.160928  1
  N  N6  1  0.417281  0.917379  0.916907  1
  N  N7  1  0.917209  0.417110  0.916702  1
  O  O8  1  0.085989  0.577954  0.582418  1
  O  O9  1  0.252514  0.745949  0.753116  1
  O  O10  1  0.577764  0.085638  0.582239  1
  O  O11  1  0.745649  0.252408  0.752866  1
  O  O12  1  0.744469  0.252396  0.248579  1
  O  O13  1  0.916524  0.422801  0.414788  1
  O  O14  1  0.422637  0.916151  0.414589  1
  O  O15  1  0.252115  0.744337  0.248311  1
  O  O16  1  0.584044  0.084213  0.084896  1
  O  O17  1  0.084038  0.583859  0.084690  1
