# generated using pymatgen
data_Cs2VMoN4
_symmetry_space_group_name_H-M   'P 1'
_cell_length_a   6.07441104
_cell_length_b   6.07441128
_cell_length_c   6.07441100
_cell_angle_alpha   59.99999610
_cell_angle_beta   59.99999479
_cell_angle_gamma   60.00000098
_symmetry_Int_Tables_number   1
_chemical_formula_structural   Cs2VMoN4
_chemical_formula_sum   'Cs2 V1 Mo1 N4'
_cell_volume   158.48841378
_cell_formula_units_Z   1
loop_
 _symmetry_equiv_pos_site_id
 _symmetry_equiv_pos_as_xyz
  1  'x, y, z'
loop_
 _atom_site_type_symbol
 _atom_site_label
 _atom_site_symmetry_multiplicity
 _atom_site_fract_x
 _atom_site_fract_y
 _atom_site_fract_z
 _atom_site_occupancy
  Cs  Cs0  1  0.250000  0.250000  0.250000  1
  Cs  Cs1  1  0.000000  0.000000  0.000000  1
  V  V2  1  0.500000  0.500000  0.500000  1
  Mo  Mo3  1  0.750000  0.750000  0.750000  1
  N  N4  1  0.623239  0.623239  0.623239  1
  N  N5  1  0.130282  0.623239  0.623239  1
  N  N6  1  0.623239  0.130282  0.623239  1
  N  N7  1  0.623239  0.623239  0.130282  1
