# generated using pymatgen
data_PmZn3Ni2
_symmetry_space_group_name_H-M   'P 1'
_cell_length_a   5.22497600
_cell_length_b   5.22497675
_cell_length_c   4.06600100
_cell_angle_alpha   90.00000000
_cell_angle_beta   90.00000000
_cell_angle_gamma   60.00096282
_symmetry_Int_Tables_number   1
_chemical_formula_structural   PmZn3Ni2
_chemical_formula_sum   'Pm1 Zn3 Ni2'
_cell_volume   96.13266642
_cell_formula_units_Z   1
loop_
 _symmetry_equiv_pos_site_id
 _symmetry_equiv_pos_as_xyz
  1  'x, y, z'
loop_
 _atom_site_type_symbol
 _atom_site_label
 _atom_site_symmetry_multiplicity
 _atom_site_fract_x
 _atom_site_fract_y
 _atom_site_fract_z
 _atom_site_occupancy
  Pm  Pm0  1  0.000000  0.000000  0.000000  1
  Zn  Zn1  1  0.500257  0.000001  0.499999  1
  Zn  Zn2  1  0.999999  0.499742  0.499999  1
  Zn  Zn3  1  0.499741  0.500258  0.499999  1
  Ni  Ni4  1  0.333332  0.333333  0.000000  1
  Ni  Ni5  1  0.666667  0.666668  0.000000  1
