# generated using pymatgen
data_Er6Fe17NiP12
_symmetry_space_group_name_H-M   'P 1'
_cell_length_a   3.69255800
_cell_length_b   10.46711000
_cell_length_c   12.17582600
_cell_angle_alpha   90.00000000
_cell_angle_beta   90.00000000
_cell_angle_gamma   90.00000000
_symmetry_Int_Tables_number   1
_chemical_formula_structural   Er6Fe17NiP12
_chemical_formula_sum   'Er6 Fe17 Ni1 P12'
_cell_volume   470.60067633
_cell_formula_units_Z   1
loop_
 _symmetry_equiv_pos_site_id
 _symmetry_equiv_pos_as_xyz
  1  'x, y, z'
loop_
 _atom_site_type_symbol
 _atom_site_label
 _atom_site_symmetry_multiplicity
 _atom_site_fract_x
 _atom_site_fract_y
 _atom_site_fract_z
 _atom_site_occupancy
  Er  Er0  1  0.000000  0.500000  0.525288  1
  Er  Er1  1  0.500000  0.000000  0.476573  1
  Er  Er2  1  0.500000  0.817603  0.206204  1
  Er  Er3  1  0.500000  0.182397  0.206204  1
  Er  Er4  1  0.000000  0.679904  0.792869  1
  Er  Er5  1  0.000000  0.320096  0.792869  1
  Fe  Fe6  1  0.500000  0.500000  0.153568  1
  Fe  Fe7  1  0.000000  0.000000  0.847365  1
  Fe  Fe8  1  0.500000  0.500000  0.698990  1
  Fe  Fe9  1  0.000000  0.500000  0.989493  1
  Fe  Fe10  1  0.500000  0.000000  0.011189  1
  Fe  Fe11  1  0.500000  0.327970  0.996806  1
  Fe  Fe12  1  0.500000  0.672030  0.996806  1
  Fe  Fe13  1  0.000000  0.172858  0.004196  1
  Fe  Fe14  1  0.000000  0.827142  0.004196  1
  Fe  Fe15  1  0.500000  0.298312  0.429673  1
  Fe  Fe16  1  0.500000  0.701688  0.429673  1
  Fe  Fe17  1  0.000000  0.198911  0.569622  1
  Fe  Fe18  1  0.000000  0.801089  0.569622  1
  Fe  Fe19  1  0.500000  0.882386  0.709011  1
  Fe  Fe20  1  0.500000  0.117614  0.709011  1
  Fe  Fe21  1  0.000000  0.618096  0.291317  1
  Fe  Fe22  1  0.000000  0.381904  0.291317  1
  Ni  Ni23  1  0.000000  0.000000  0.299341  1
  P  P24  1  0.500000  0.500000  0.882988  1
  P  P25  1  0.000000  0.000000  0.114507  1
  P  P26  1  0.500000  0.500000  0.341814  1
  P  P27  1  0.000000  0.000000  0.659199  1
  P  P28  1  0.500000  0.305938  0.613839  1
  P  P29  1  0.500000  0.694062  0.613839  1
  P  P30  1  0.000000  0.194269  0.385788  1
  P  P31  1  0.000000  0.805731  0.385788  1
  P  P32  1  0.500000  0.850597  0.888271  1
  P  P33  1  0.500000  0.149403  0.888271  1
  P  P34  1  0.000000  0.648505  0.112247  1
  P  P35  1  0.000000  0.351495  0.112247  1
