# generated using pymatgen
data_PrYHo2(MoN3)4
_symmetry_space_group_name_H-M   'P 1'
_cell_length_a   7.23831488
_cell_length_b   7.23831364
_cell_length_c   6.19521624
_cell_angle_alpha   75.52475584
_cell_angle_beta   75.52474325
_cell_angle_gamma   82.46684851
_symmetry_Int_Tables_number   1
_chemical_formula_structural   PrYHo2(MoN3)4
_chemical_formula_sum   'Pr1 Y1 Ho2 Mo4 N12'
_cell_volume   303.49047560
_cell_formula_units_Z   1
loop_
 _symmetry_equiv_pos_site_id
 _symmetry_equiv_pos_as_xyz
  1  'x, y, z'
loop_
 _atom_site_type_symbol
 _atom_site_label
 _atom_site_symmetry_multiplicity
 _atom_site_fract_x
 _atom_site_fract_y
 _atom_site_fract_z
 _atom_site_occupancy
  Pr  Pr0  1  0.689399  0.310601  0.250000  1
  Y  Y1  1  0.306273  0.693727  0.750000  1
  Ho  Ho2  1  0.918575  0.081425  0.750000  1
  Ho  Ho3  1  0.089469  0.910531  0.250000  1
  Mo  Mo4  1  0.801905  0.618899  0.748378  1
  Mo  Mo5  1  0.196004  0.382895  0.247548  1
  Mo  Mo6  1  0.617105  0.803996  0.252452  1
  Mo  Mo7  1  0.381101  0.198095  0.751622  1
  N  N8  1  0.222934  0.995150  0.853613  1
  N  N9  1  0.340639  0.371535  0.477631  1
  N  N10  1  0.648330  0.627983  0.528148  1
  N  N11  1  0.622002  0.108803  0.663435  1
  N  N12  1  0.004850  0.777066  0.646387  1
  N  N13  1  0.786466  0.995561  0.146498  1
  N  N14  1  0.100238  0.621408  0.153541  1
  N  N15  1  0.891197  0.377998  0.836565  1
  N  N16  1  0.004439  0.213534  0.353502  1
  N  N17  1  0.372017  0.351670  0.971852  1
  N  N18  1  0.628465  0.659361  0.022369  1
  N  N19  1  0.378592  0.899762  0.346459  1
