# generated using pymatgen
data_Dy4Er4B24IrRu3
_symmetry_space_group_name_H-M   'P 1'
_cell_length_a   3.64851200
_cell_length_b   9.13706370
_cell_length_c   11.48833889
_cell_angle_alpha   90.04504414
_cell_angle_beta   90.00000000
_cell_angle_gamma   90.00000000
_symmetry_Int_Tables_number   1
_chemical_formula_structural   Dy4Er4B24IrRu3
_chemical_formula_sum   'Dy4 Er4 B24 Ir1 Ru3'
_cell_volume   382.98303442
_cell_formula_units_Z   1
loop_
 _symmetry_equiv_pos_site_id
 _symmetry_equiv_pos_as_xyz
  1  'x, y, z'
loop_
 _atom_site_type_symbol
 _atom_site_label
 _atom_site_symmetry_multiplicity
 _atom_site_fract_x
 _atom_site_fract_y
 _atom_site_fract_z
 _atom_site_occupancy
  Dy  Dy0  1  0.000000  0.319589  0.414526  1
  Dy  Dy1  1  0.000000  0.678634  0.588675  1
  Dy  Dy2  1  0.000000  0.823429  0.084239  1
  Dy  Dy3  1  0.000000  0.178171  0.913347  1
  Er  Er4  1  0.000000  0.945997  0.373010  1
  Er  Er5  1  0.000000  0.055721  0.627134  1
  Er  Er6  1  0.000000  0.442222  0.125862  1
  Er  Er7  1  0.000000  0.555649  0.873101  1
  B  B8  1  0.500000  0.553983  0.433413  1
  B  B9  1  0.500000  0.445615  0.567119  1
  B  B10  1  0.500000  0.054557  0.067176  1
  B  B11  1  0.500000  0.945687  0.932689  1
  B  B12  1  0.500000  0.750177  0.420749  1
  B  B13  1  0.500000  0.250810  0.580300  1
  B  B14  1  0.500000  0.248620  0.080150  1
  B  B15  1  0.500000  0.751242  0.919769  1
  B  B16  1  0.500000  0.792551  0.265527  1
  B  B17  1  0.500000  0.208406  0.733890  1
  B  B18  1  0.500000  0.291824  0.234183  1
  B  B19  1  0.500000  0.708193  0.766177  1
  B  B20  1  0.500000  0.631867  0.183473  1
  B  B21  1  0.500000  0.368501  0.815043  1
  B  B22  1  0.500000  0.131845  0.315252  1
  B  B23  1  0.500000  0.868168  0.685040  1
  B  B24  1  0.500000  0.983638  0.213182  1
  B  B25  1  0.500000  0.016323  0.786728  1
  B  B26  1  0.500000  0.482444  0.286590  1
  B  B27  1  0.500000  0.516500  0.713360  1
  B  B28  1  0.500000  0.607885  0.029874  1
  B  B29  1  0.500000  0.392176  0.970396  1
  B  B30  1  0.500000  0.107741  0.470515  1
  B  B31  1  0.500000  0.891868  0.529289  1
  Ir  Ir32  1  0.000000  0.638026  0.321197  1
  Ru  Ru33  1  0.000000  0.361895  0.678831  1
  Ru  Ru34  1  0.000000  0.138516  0.179530  1
  Ru  Ru35  1  0.000000  0.861533  0.820663  1
