# generated using pymatgen
data_Rb8Ti6BeCl20
_symmetry_space_group_name_H-M   'P 1'
_cell_length_a   11.38966095
_cell_length_b   11.38966003
_cell_length_c   11.38965900
_cell_angle_alpha   60.00000008
_cell_angle_beta   60.00000277
_cell_angle_gamma   59.99999413
_symmetry_Int_Tables_number   1
_chemical_formula_structural   Rb8Ti6BeCl20
_chemical_formula_sum   'Rb8 Ti6 Be1 Cl20'
_cell_volume   1044.76176677
_cell_formula_units_Z   1
loop_
 _symmetry_equiv_pos_site_id
 _symmetry_equiv_pos_as_xyz
  1  'x, y, z'
loop_
 _atom_site_type_symbol
 _atom_site_label
 _atom_site_symmetry_multiplicity
 _atom_site_fract_x
 _atom_site_fract_y
 _atom_site_fract_z
 _atom_site_occupancy
  Rb  Rb0  1  0.361285  0.361285  0.361285  1
  Rb  Rb1  1  0.638715  0.638715  0.638715  1
  Rb  Rb2  1  0.361285  0.361285  0.916144  1
  Rb  Rb3  1  0.361285  0.916144  0.361285  1
  Rb  Rb4  1  0.638715  0.638715  0.083856  1
  Rb  Rb5  1  0.638715  0.083856  0.638715  1
  Rb  Rb6  1  0.916144  0.361285  0.361285  1
  Rb  Rb7  1  0.083856  0.638715  0.638715  1
  Ti  Ti8  1  0.862103  0.137897  0.137897  1
  Ti  Ti9  1  0.137897  0.862103  0.862103  1
  Ti  Ti10  1  0.137897  0.862103  0.137897  1
  Ti  Ti11  1  0.862103  0.137897  0.862103  1
  Ti  Ti12  1  0.137897  0.137897  0.862103  1
  Ti  Ti13  1  0.862103  0.862103  0.137897  1
  Be  Be14  1  0.000000  0.000000  0.000000  1
  Cl  Cl15  1  0.303574  0.000000  0.000000  1
  Cl  Cl16  1  0.696426  0.000000  0.000000  1
  Cl  Cl17  1  0.000000  0.303574  0.696426  1
  Cl  Cl18  1  0.000000  0.696426  0.303574  1
  Cl  Cl19  1  0.000000  0.303574  0.000000  1
  Cl  Cl20  1  0.696426  0.000000  0.303574  1
  Cl  Cl21  1  0.000000  0.696426  0.000000  1
  Cl  Cl22  1  0.303574  0.000000  0.696426  1
  Cl  Cl23  1  0.000000  0.000000  0.303574  1
  Cl  Cl24  1  0.000000  0.000000  0.696426  1
  Cl  Cl25  1  0.696426  0.303574  0.000000  1
  Cl  Cl26  1  0.303574  0.696426  0.000000  1
  Cl  Cl27  1  0.698089  0.301911  0.301911  1
  Cl  Cl28  1  0.301911  0.698089  0.698089  1
  Cl  Cl29  1  0.301911  0.698089  0.301911  1
  Cl  Cl30  1  0.698089  0.301911  0.698089  1
  Cl  Cl31  1  0.301911  0.301911  0.698089  1
  Cl  Cl32  1  0.698089  0.698089  0.301911  1
  Cl  Cl33  1  0.250000  0.250000  0.250000  1
  Cl  Cl34  1  0.750000  0.750000  0.750000  1
