# generated using pymatgen
data_LuS23
_symmetry_space_group_name_H-M   'P 1'
_cell_length_a   5.45556065
_cell_length_b   9.35382023
_cell_length_c   15.89152000
_cell_angle_alpha   82.42591985
_cell_angle_beta   85.98404661
_cell_angle_gamma   91.36398717
_symmetry_Int_Tables_number   1
_chemical_formula_structural   LuS23
_chemical_formula_sum   'Lu1 S23'
_cell_volume   801.45279356
_cell_formula_units_Z   1
loop_
 _symmetry_equiv_pos_site_id
 _symmetry_equiv_pos_as_xyz
  1  'x, y, z'
loop_
 _atom_site_type_symbol
 _atom_site_label
 _atom_site_symmetry_multiplicity
 _atom_site_fract_x
 _atom_site_fract_y
 _atom_site_fract_z
 _atom_site_occupancy
  Lu  Lu0  1  0.621223  0.171591  0.430075  1
  S  S1  1  0.738495  0.920199  0.394261  1
  S  S2  1  0.018373  0.307471  0.101353  1
  S  S3  1  0.787428  0.223390  0.569751  1
  S  S4  1  0.461869  0.889980  0.490092  1
  S  S5  1  0.179063  0.282541  0.983019  1
  S  S6  1  0.809208  0.739737  0.026774  1
  S  S7  1  0.135699  0.196346  0.381671  1
  S  S8  1  0.608097  0.409127  0.311390  1
  S  S9  1  0.847629  0.113149  0.153488  1
  S  S10  1  0.274868  0.874373  0.119185  1
  S  S11  1  0.707706  0.647177  0.631336  1
  S  S12  1  0.298612  0.438695  0.563370  1
  S  S13  1  0.156272  0.900977  0.858943  1
  S  S14  1  0.726293  0.140427  0.886345  1
  S  S15  1  0.063483  0.689551  0.115365  1
  S  S16  1  0.613747  0.857791  0.609383  1
  S  S17  1  0.412074  0.224228  0.587929  1
  S  S18  1  0.967603  0.711176  0.908642  1
  S  S19  1  0.923351  0.328802  0.894445  1
  S  S20  1  0.243550  0.384732  0.307843  1
  S  S21  1  0.110765  0.986044  0.210335  1
  S  S22  1  0.383100  0.528293  0.668457  1
  S  S23  1  0.911490  0.034202  0.796550  1
