# generated using pymatgen
data_Sn15Ir2OsO14
_symmetry_space_group_name_H-M   'P 1'
_cell_length_a   7.32936730
_cell_length_b   7.32935501
_cell_length_c   13.21038455
_cell_angle_alpha   73.57315790
_cell_angle_beta   73.57313719
_cell_angle_gamma   59.48020324
_symmetry_Int_Tables_number   1
_chemical_formula_structural   Sn15Ir2OsO14
_chemical_formula_sum   'Sn15 Ir2 Os1 O14'
_cell_volume   578.00362302
_cell_formula_units_Z   1
loop_
 _symmetry_equiv_pos_site_id
 _symmetry_equiv_pos_as_xyz
  1  'x, y, z'
loop_
 _atom_site_type_symbol
 _atom_site_label
 _atom_site_symmetry_multiplicity
 _atom_site_fract_x
 _atom_site_fract_y
 _atom_site_fract_z
 _atom_site_occupancy
  Sn  Sn0  1  0.324880  0.854602  0.086615  1
  Sn  Sn1  1  0.424977  0.902681  0.349543  1
  Sn  Sn2  1  0.902681  0.424976  0.349543  1
  Sn  Sn3  1  0.982927  0.982926  0.616606  1
  Sn  Sn4  1  0.091309  0.568004  0.840648  1
  Sn  Sn5  1  0.568004  0.091310  0.840644  1
  Sn  Sn6  1  0.846481  0.846481  0.083978  1
  Sn  Sn7  1  0.566997  0.566995  0.853191  1
  Sn  Sn8  1  0.902841  0.902841  0.342883  1
  Sn  Sn9  1  0.999322  0.508628  0.572792  1
  Sn  Sn10  1  0.508628  0.999322  0.572792  1
  Sn  Sn11  1  0.512810  0.512810  0.579960  1
  Sn  Sn12  1  0.098000  0.098003  0.822373  1
  Sn  Sn13  1  0.854602  0.324881  0.086615  1
  Sn  Sn14  1  0.324746  0.324745  0.109601  1
  Ir  Ir15  1  0.707581  0.707582  0.968664  1
  Ir  Ir16  1  0.116413  0.116412  0.231860  1
  Os  Os17  1  0.302393  0.302395  0.693837  1
  O  O18  1  0.769408  0.769407  0.259240  1
  O  O19  1  0.776284  0.225303  0.823096  1
  O  O20  1  0.225304  0.776286  0.823096  1
  O  O21  1  0.030500  0.571941  0.404632  1
  O  O22  1  0.571942  0.030500  0.404633  1
  O  O23  1  0.659636  0.659636  0.623000  1
  O  O24  1  0.572417  0.572415  0.411534  1
  O  O25  1  0.366410  0.366410  0.943097  1
  O  O26  1  0.879143  0.879143  0.519285  1
  O  O27  1  0.065089  0.065089  0.989634  1
  O  O28  1  0.305131  0.878824  0.531033  1
  O  O29  1  0.878824  0.305131  0.531033  1
  O  O30  1  0.190365  0.642664  0.120506  1
  O  O31  1  0.642665  0.190365  0.120506  1
