# generated using pymatgen
data_DyY7(B6Os)4
_symmetry_space_group_name_H-M   'P 1'
_cell_length_a   3.65789400
_cell_length_b   9.17148649
_cell_length_c   11.55319911
_cell_angle_alpha   90.01069770
_cell_angle_beta   90.00000000
_cell_angle_gamma   90.00000000
_symmetry_Int_Tables_number   1
_chemical_formula_structural   DyY7(B6Os)4
_chemical_formula_sum   'Dy1 Y7 B24 Os4'
_cell_volume   387.59047667
_cell_formula_units_Z   1
loop_
 _symmetry_equiv_pos_site_id
 _symmetry_equiv_pos_as_xyz
  1  'x, y, z'
loop_
 _atom_site_type_symbol
 _atom_site_label
 _atom_site_symmetry_multiplicity
 _atom_site_fract_x
 _atom_site_fract_y
 _atom_site_fract_z
 _atom_site_occupancy
  Dy  Dy0  1  0.000000  0.556226  0.872744  1
  Y  Y1  1  0.000000  0.322470  0.413872  1
  Y  Y2  1  0.000000  0.677544  0.586223  1
  Y  Y3  1  0.000000  0.822305  0.086065  1
  Y  Y4  1  0.000000  0.177827  0.913815  1
  Y  Y5  1  0.000000  0.944013  0.373132  1
  Y  Y6  1  0.000000  0.055966  0.626918  1
  Y  Y7  1  0.000000  0.443988  0.126883  1
  B  B8  1  0.500000  0.553772  0.432942  1
  B  B9  1  0.500000  0.446126  0.567236  1
  B  B10  1  0.500000  0.053989  0.066923  1
  B  B11  1  0.500000  0.945969  0.932923  1
  B  B12  1  0.500000  0.747280  0.419816  1
  B  B13  1  0.500000  0.252672  0.580369  1
  B  B14  1  0.500000  0.247587  0.080040  1
  B  B15  1  0.500000  0.752293  0.919717  1
  B  B16  1  0.500000  0.790683  0.266576  1
  B  B17  1  0.500000  0.209259  0.733516  1
  B  B18  1  0.500000  0.290777  0.233186  1
  B  B19  1  0.500000  0.709149  0.766829  1
  B  B20  1  0.500000  0.631947  0.185598  1
  B  B21  1  0.500000  0.368270  0.814338  1
  B  B22  1  0.500000  0.132121  0.314207  1
  B  B23  1  0.500000  0.867878  0.685852  1
  B  B24  1  0.500000  0.983595  0.212872  1
  B  B25  1  0.500000  0.016393  0.787132  1
  B  B26  1  0.500000  0.483527  0.287007  1
  B  B27  1  0.500000  0.516494  0.713131  1
  B  B28  1  0.500000  0.608528  0.030034  1
  B  B29  1  0.500000  0.391564  0.969824  1
  B  B30  1  0.500000  0.109583  0.469670  1
  B  B31  1  0.500000  0.890341  0.530423  1
  Os  Os32  1  0.000000  0.637313  0.321463  1
  Os  Os33  1  0.000000  0.362712  0.678772  1
  Os  Os34  1  0.000000  0.137414  0.178388  1
  Os  Os35  1  0.000000  0.862427  0.821564  1
