# generated using pymatgen
data_Dy16In3HgIr3Rh
_symmetry_space_group_name_H-M   'P 1'
_cell_length_a   9.62969289
_cell_length_b   9.61964236
_cell_length_c   9.63527320
_cell_angle_alpha   60.02064687
_cell_angle_beta   60.01914628
_cell_angle_gamma   59.96543135
_symmetry_Int_Tables_number   1
_chemical_formula_structural   Dy16In3HgIr3Rh
_chemical_formula_sum   'Dy16 In3 Hg1 Ir3 Rh1'
_cell_volume   631.15682700
_cell_formula_units_Z   1
loop_
 _symmetry_equiv_pos_site_id
 _symmetry_equiv_pos_as_xyz
  1  'x, y, z'
loop_
 _atom_site_type_symbol
 _atom_site_label
 _atom_site_symmetry_multiplicity
 _atom_site_fract_x
 _atom_site_fract_y
 _atom_site_fract_z
 _atom_site_occupancy
  Dy  Dy0  1  0.689371  0.311721  0.309537  1
  Dy  Dy1  1  0.689305  0.689314  0.311058  1
  Dy  Dy2  1  0.310322  0.689314  0.311058  1
  Dy  Dy3  1  0.937511  0.939035  0.558626  1
  Dy  Dy4  1  0.150431  0.149344  0.549795  1
  Dy  Dy5  1  0.564827  0.939035  0.558626  1
  Dy  Dy6  1  0.151721  0.150524  0.149593  1
  Dy  Dy7  1  0.308321  0.311078  0.690640  1
  Dy  Dy8  1  0.939833  0.562896  0.557439  1
  Dy  Dy9  1  0.561746  0.561581  0.937265  1
  Dy  Dy10  1  0.563134  0.939122  0.934611  1
  Dy  Dy11  1  0.939408  0.561581  0.937265  1
  Dy  Dy12  1  0.150632  0.549880  0.148854  1
  Dy  Dy13  1  0.309793  0.689840  0.690575  1
  Dy  Dy14  1  0.689962  0.311078  0.690640  1
  Dy  Dy15  1  0.548160  0.150524  0.149593  1
  In  In16  1  0.246888  0.917444  0.919080  1
  In  In17  1  0.917035  0.246320  0.919611  1
  In  In18  1  0.916588  0.917444  0.919080  1
  Hg  Hg19  1  0.913801  0.914485  0.257914  1
  Ir  Ir20  1  0.358122  0.357623  0.357797  1
  Ir  Ir21  1  0.926460  0.357623  0.357797  1
  Ir  Ir22  1  0.358484  0.357675  0.925359  1
  Rh  Rh23  1  0.358148  0.925522  0.358184  1
