# generated using pymatgen
data_Hf2MnSiAsPd
_symmetry_space_group_name_H-M   'P 1'
_cell_length_a   3.83299900
_cell_length_b   6.59409631
_cell_length_c   7.65837313
_cell_angle_alpha   91.29397050
_cell_angle_beta   90.00000000
_cell_angle_gamma   90.00000000
_symmetry_Int_Tables_number   1
_chemical_formula_structural   Hf2MnSiAsPd
_chemical_formula_sum   'Hf4 Mn2 Si2 As2 Pd2'
_cell_volume   193.51728002
_cell_formula_units_Z   2
loop_
 _symmetry_equiv_pos_site_id
 _symmetry_equiv_pos_as_xyz
  1  'x, y, z'
loop_
 _atom_site_type_symbol
 _atom_site_label
 _atom_site_symmetry_multiplicity
 _atom_site_fract_x
 _atom_site_fract_y
 _atom_site_fract_z
 _atom_site_occupancy
  Hf  Hf0  1  0.250000  0.526086  0.668608  1
  Hf  Hf1  1  0.750000  0.473914  0.331392  1
  Hf  Hf2  1  0.250000  0.033461  0.810715  1
  Hf  Hf3  1  0.750000  0.966539  0.189285  1
  Mn  Mn4  1  0.750000  0.865872  0.553691  1
  Mn  Mn5  1  0.250000  0.134128  0.446309  1
  Si  Si6  1  0.250000  0.770657  0.386793  1
  Si  Si7  1  0.750000  0.229343  0.613207  1
  As  As8  1  0.250000  0.249557  0.140567  1
  As  As9  1  0.750000  0.750443  0.859433  1
  Pd  Pd10  1  0.750000  0.350067  0.927086  1
  Pd  Pd11  1  0.250000  0.649933  0.072914  1
