# generated using pymatgen
data_Zr3Ga2PdN
_symmetry_space_group_name_H-M   'P 1'
_cell_length_a   8.63785537
_cell_length_b   8.63785549
_cell_length_c   8.63785500
_cell_angle_alpha   59.99999805
_cell_angle_beta   59.99999758
_cell_angle_gamma   59.99999223
_symmetry_Int_Tables_number   1
_chemical_formula_structural   Zr3Ga2PdN
_chemical_formula_sum   'Zr12 Ga8 Pd4 N4'
_cell_volume   455.72487434
_cell_formula_units_Z   4
loop_
 _symmetry_equiv_pos_site_id
 _symmetry_equiv_pos_as_xyz
  1  'x, y, z'
loop_
 _atom_site_type_symbol
 _atom_site_label
 _atom_site_symmetry_multiplicity
 _atom_site_fract_x
 _atom_site_fract_y
 _atom_site_fract_z
 _atom_site_occupancy
  Zr  Zr0  1  0.811407  0.188593  0.188593  1
  Zr  Zr1  1  0.188593  0.811407  0.188593  1
  Zr  Zr2  1  0.811407  0.811407  0.188593  1
  Zr  Zr3  1  0.188593  0.811407  0.811407  1
  Zr  Zr4  1  0.811407  0.188593  0.811407  1
  Zr  Zr5  1  0.188593  0.188593  0.811407  1
  Zr  Zr6  1  0.438593  0.061407  0.061407  1
  Zr  Zr7  1  0.061407  0.438593  0.061407  1
  Zr  Zr8  1  0.438593  0.438593  0.061407  1
  Zr  Zr9  1  0.061407  0.438593  0.438593  1
  Zr  Zr10  1  0.438593  0.061407  0.438593  1
  Zr  Zr11  1  0.061407  0.061407  0.438593  1
  Ga  Ga12  1  0.416773  0.416773  0.749681  1
  Ga  Ga13  1  0.416773  0.416773  0.416773  1
  Ga  Ga14  1  0.749681  0.416773  0.416773  1
  Ga  Ga15  1  0.416773  0.749681  0.416773  1
  Ga  Ga16  1  0.833227  0.833227  0.500319  1
  Ga  Ga17  1  0.833227  0.833227  0.833227  1
  Ga  Ga18  1  0.500319  0.833227  0.833227  1
  Ga  Ga19  1  0.833227  0.500319  0.833227  1
  Pd  Pd20  1  0.625000  0.625000  0.125000  1
  Pd  Pd21  1  0.625000  0.625000  0.625000  1
  Pd  Pd22  1  0.125000  0.625000  0.625000  1
  Pd  Pd23  1  0.625000  0.125000  0.625000  1
  N  N24  1  0.125000  0.125000  0.625000  1
  N  N25  1  0.125000  0.125000  0.125000  1
  N  N26  1  0.625000  0.125000  0.125000  1
  N  N27  1  0.125000  0.625000  0.125000  1
