# generated using pymatgen
data_CsMn4Tl7S4(O4F3)4
_symmetry_space_group_name_H-M   'P 1'
_cell_length_a   11.94097400
_cell_length_b   7.56489072
_cell_length_c   9.40642100
_cell_angle_alpha   87.44459521
_cell_angle_beta   90.00000000
_cell_angle_gamma   90.00000000
_symmetry_Int_Tables_number   1
_chemical_formula_structural   CsMn4Tl7S4(O4F3)4
_chemical_formula_sum   'Cs1 Mn4 Tl7 S4 O16 F12'
_cell_volume   848.85739312
_cell_formula_units_Z   1
loop_
 _symmetry_equiv_pos_site_id
 _symmetry_equiv_pos_as_xyz
  1  'x, y, z'
loop_
 _atom_site_type_symbol
 _atom_site_label
 _atom_site_symmetry_multiplicity
 _atom_site_fract_x
 _atom_site_fract_y
 _atom_site_fract_z
 _atom_site_occupancy
  Cs  Cs0  1  0.187799  0.293163  0.664391  1
  Mn  Mn1  1  0.999499  0.503950  0.000328  1
  Mn  Mn2  1  0.501751  0.498879  0.498675  1
  Mn  Mn3  1  0.998567  0.002438  0.999755  1
  Mn  Mn4  1  0.501354  0.997707  0.499343  1
  Tl  Tl5  1  0.211090  0.814128  0.367358  1
  Tl  Tl6  1  0.707618  0.181469  0.133298  1
  Tl  Tl7  1  0.788015  0.179621  0.635414  1
  Tl  Tl8  1  0.293760  0.812220  0.873384  1
  Tl  Tl9  1  0.299821  0.313106  0.149938  1
  Tl  Tl10  1  0.798779  0.685931  0.360413  1
  Tl  Tl11  1  0.702376  0.686559  0.858278  1
  S  S12  1  0.995404  0.257701  0.289713  1
  S  S13  1  0.498143  0.739584  0.205962  1
  S  S14  1  0.000933  0.748974  0.707028  1
  S  S15  1  0.505771  0.259270  0.792042  1
  O  O16  1  0.448995  0.882363  0.291935  1
  O  O17  1  0.942294  0.119945  0.201711  1
  O  O18  1  0.553603  0.115168  0.705703  1
  O  O19  1  0.050925  0.891322  0.793187  1
  O  O20  1  0.047901  0.400800  0.187443  1
  O  O21  1  0.550655  0.598135  0.308974  1
  O  O22  1  0.952578  0.603793  0.810644  1
  O  O23  1  0.454647  0.401639  0.689125  1
  O  O24  1  0.908884  0.339651  0.377685  1
  O  O25  1  0.408283  0.657536  0.122463  1
  O  O26  1  0.088831  0.671759  0.619060  1
  O  O27  1  0.596536  0.338471  0.875394  1
  O  O28  1  0.089757  0.184207  0.374046  1
  O  O29  1  0.591352  0.807055  0.115942  1
  O  O30  1  0.904082  0.815462  0.622745  1
  O  O31  1  0.411985  0.193442  0.882034  1
  F  F32  1  0.349411  0.525965  0.451672  1
  F  F33  1  0.845638  0.481135  0.045151  1
  F  F34  1  0.655920  0.474119  0.542577  1
  F  F35  1  0.154103  0.525037  0.954722  1
  F  F36  1  0.153678  0.019726  0.039485  1
  F  F37  1  0.656200  0.985770  0.456111  1
  F  F38  1  0.844044  0.984427  0.957445  1
  F  F39  1  0.346842  0.006856  0.541709  1
  F  F40  1  0.997344  0.768897  0.087091  1
  F  F41  1  0.495832  0.231333  0.412798  1
  F  F42  1  0.001249  0.236450  0.911658  1
  F  F43  1  0.507752  0.764835  0.586171  1
