# generated using pymatgen
data_AgHgSeCl
_symmetry_space_group_name_H-M   'P 1'
_cell_length_a   4.85020100
_cell_length_b   9.53541900
_cell_length_c   10.25757800
_cell_angle_alpha   90.00000000
_cell_angle_beta   90.00000000
_cell_angle_gamma   90.00000000
_symmetry_Int_Tables_number   1
_chemical_formula_structural   AgHgSeCl
_chemical_formula_sum   'Ag4 Hg4 Se4 Cl4'
_cell_volume   474.39963502
_cell_formula_units_Z   4
loop_
 _symmetry_equiv_pos_site_id
 _symmetry_equiv_pos_as_xyz
  1  'x, y, z'
loop_
 _atom_site_type_symbol
 _atom_site_label
 _atom_site_symmetry_multiplicity
 _atom_site_fract_x
 _atom_site_fract_y
 _atom_site_fract_z
 _atom_site_occupancy
  Ag  Ag0  1  0.000000  0.210200  0.400978  1
  Ag  Ag1  1  0.000000  0.789800  0.599022  1
  Ag  Ag2  1  0.000000  0.210200  0.099022  1
  Ag  Ag3  1  0.000000  0.789800  0.900978  1
  Hg  Hg4  1  0.500000  0.215678  0.750000  1
  Hg  Hg5  1  0.500000  0.784322  0.250000  1
  Hg  Hg6  1  0.500000  0.500000  0.000000  1
  Hg  Hg7  1  0.500000  0.500000  0.500000  1
  Se  Se8  1  0.500000  0.236470  0.996752  1
  Se  Se9  1  0.500000  0.763530  0.003248  1
  Se  Se10  1  0.500000  0.763530  0.496752  1
  Se  Se11  1  0.500000  0.236470  0.503248  1
  Cl  Cl12  1  0.000000  0.012886  0.750000  1
  Cl  Cl13  1  0.000000  0.551617  0.750000  1
  Cl  Cl14  1  0.000000  0.448383  0.250000  1
  Cl  Cl15  1  0.000000  0.987114  0.250000  1
