# generated using pymatgen
data_Ho3Er5Ti11Si16Pd
_symmetry_space_group_name_H-M   'P 1'
_cell_length_a   7.03699227
_cell_length_b   7.03715561
_cell_length_c   12.85603322
_cell_angle_alpha   90.10710878
_cell_angle_beta   89.89521423
_cell_angle_gamma   89.72868520
_symmetry_Int_Tables_number   1
_chemical_formula_structural   Ho3Er5Ti11Si16Pd
_chemical_formula_sum   'Ho3 Er5 Ti11 Si16 Pd1'
_cell_volume   636.62670646
_cell_formula_units_Z   1
loop_
 _symmetry_equiv_pos_site_id
 _symmetry_equiv_pos_as_xyz
  1  'x, y, z'
loop_
 _atom_site_type_symbol
 _atom_site_label
 _atom_site_symmetry_multiplicity
 _atom_site_fract_x
 _atom_site_fract_y
 _atom_site_fract_z
 _atom_site_occupancy
  Ho  Ho0  1  0.340494  0.003176  0.466822  1
  Ho  Ho1  1  0.497399  0.841021  0.717678  1
  Ho  Ho2  1  0.501052  0.158530  0.214692  1
  Er  Er3  1  0.841309  0.497579  0.282297  1
  Er  Er4  1  0.158267  0.500835  0.785282  1
  Er  Er5  1  0.656933  0.999347  0.968073  1
  Er  Er6  1  0.003002  0.340620  0.533246  1
  Er  Er7  1  0.999358  0.656872  0.031940  1
  Ti  Ti8  1  0.175018  0.826967  0.249024  1
  Ti  Ti9  1  0.827127  0.175185  0.750969  1
  Ti  Ti10  1  0.673111  0.672914  0.499962  1
  Ti  Ti11  1  0.148683  0.004961  0.876390  1
  Ti  Ti12  1  0.494390  0.653125  0.124122  1
  Ti  Ti13  1  0.507425  0.350229  0.626381  1
  Ti  Ti14  1  0.653125  0.494363  0.875898  1
  Ti  Ti15  1  0.350201  0.507394  0.373635  1
  Ti  Ti16  1  0.850109  0.993539  0.374661  1
  Ti  Ti17  1  0.004914  0.148765  0.123649  1
  Ti  Ti18  1  0.993501  0.850098  0.625355  1
  Si  Si19  1  0.202524  0.133254  0.684569  1
  Si  Si20  1  0.372262  0.710456  0.931944  1
  Si  Si21  1  0.631793  0.294653  0.432812  1
  Si  Si22  1  0.710668  0.372437  0.068073  1
  Si  Si23  1  0.294329  0.631344  0.567172  1
  Si  Si24  1  0.796653  0.867748  0.183040  1
  Si  Si25  1  0.132759  0.202882  0.315428  1
  Si  Si26  1  0.868085  0.796504  0.816999  1
  Si  Si27  1  0.286652  0.944928  0.064596  1
  Si  Si28  1  0.547001  0.791798  0.314875  1
  Si  Si29  1  0.451512  0.208915  0.813606  1
  Si  Si30  1  0.792239  0.546719  0.685091  1
  Si  Si31  1  0.208539  0.451663  0.186470  1
  Si  Si32  1  0.708380  0.047654  0.565153  1
  Si  Si33  1  0.945088  0.286779  0.935340  1
  Si  Si34  1  0.047353  0.707928  0.434820  1
  Pd  Pd35  1  0.328748  0.328822  0.999935  1
