# generated using pymatgen
data_TbDy7(MnS4)4
_symmetry_space_group_name_H-M   'P 1'
_cell_length_a   6.41763100
_cell_length_b   7.92768000
_cell_length_c   13.55180000
_cell_angle_alpha   90.00000000
_cell_angle_beta   89.99708613
_cell_angle_gamma   90.00000000
_symmetry_Int_Tables_number   1
_chemical_formula_structural   TbDy7(MnS4)4
_chemical_formula_sum   'Tb1 Dy7 Mn4 S16'
_cell_volume   689.47391077
_cell_formula_units_Z   1
loop_
 _symmetry_equiv_pos_site_id
 _symmetry_equiv_pos_as_xyz
  1  'x, y, z'
loop_
 _atom_site_type_symbol
 _atom_site_label
 _atom_site_symmetry_multiplicity
 _atom_site_fract_x
 _atom_site_fract_y
 _atom_site_fract_z
 _atom_site_occupancy
  Tb  Tb0  1  0.994613  0.750000  0.266181  1
  Dy  Dy1  1  0.000001  0.499987  0.999984  1
  Dy  Dy2  1  0.499993  0.999993  0.499999  1
  Dy  Dy3  1  0.000001  0.000013  0.999984  1
  Dy  Dy4  1  0.499993  0.500007  0.499999  1
  Dy  Dy5  1  0.505289  0.750000  0.765994  1
  Dy  Dy6  1  0.005282  0.250000  0.734006  1
  Dy  Dy7  1  0.494726  0.250000  0.234012  1
  Mn  Mn8  1  0.411245  0.750000  0.092336  1
  Mn  Mn9  1  0.088838  0.750000  0.592358  1
  Mn  Mn10  1  0.588779  0.250000  0.907644  1
  Mn  Mn11  1  0.911188  0.250000  0.407650  1
  S  S12  1  0.778487  0.750000  0.089845  1
  S  S13  1  0.721184  0.750000  0.590166  1
  S  S14  1  0.221148  0.250000  0.909833  1
  S  S15  1  0.278813  0.250000  0.409836  1
  S  S16  1  0.244646  0.750000  0.430463  1
  S  S17  1  0.255860  0.750000  0.930146  1
  S  S18  1  0.755866  0.250000  0.569866  1
  S  S19  1  0.744155  0.250000  0.069864  1
  S  S20  1  0.741993  0.486424  0.331274  1
  S  S21  1  0.757582  0.013125  0.831181  1
  S  S22  1  0.257575  0.986872  0.668814  1
  S  S23  1  0.242797  0.512778  0.168648  1
  S  S24  1  0.257575  0.513128  0.668814  1
  S  S25  1  0.242797  0.987222  0.168648  1
  S  S26  1  0.741993  0.013576  0.331274  1
  S  S27  1  0.757582  0.486875  0.831181  1
