# generated using pymatgen
data_LuZnCdCu3
_symmetry_space_group_name_H-M   'P 1'
_cell_length_a   5.12773271
_cell_length_b   5.08621774
_cell_length_c   5.12773300
_cell_angle_alpha   59.72963036
_cell_angle_beta   60.00000460
_cell_angle_gamma   59.72962880
_symmetry_Int_Tables_number   1
_chemical_formula_structural   LuZnCdCu3
_chemical_formula_sum   'Lu1 Zn1 Cd1 Cu3'
_cell_volume   94.17677160
_cell_formula_units_Z   1
loop_
 _symmetry_equiv_pos_site_id
 _symmetry_equiv_pos_as_xyz
  1  'x, y, z'
loop_
 _atom_site_type_symbol
 _atom_site_label
 _atom_site_symmetry_multiplicity
 _atom_site_fract_x
 _atom_site_fract_y
 _atom_site_fract_z
 _atom_site_occupancy
  Lu  Lu0  1  0.751793  0.744622  0.751793  1
  Zn  Zn1  1  0.373654  0.879038  0.373654  1
  Cd  Cd2  1  0.000384  0.998847  0.000384  1
  Cu  Cu3  1  0.374171  0.375831  0.374171  1
  Cu  Cu4  1  0.875828  0.375831  0.374171  1
  Cu  Cu5  1  0.374171  0.375831  0.875828  1
