# generated using pymatgen
data_Lu3Zn3Hg2Ir
_symmetry_space_group_name_H-M   'P 1'
_cell_length_a   7.61298100
_cell_length_b   7.61297993
_cell_length_c   3.71085200
_cell_angle_alpha   90.00000000
_cell_angle_beta   90.00000000
_cell_angle_gamma   119.99999277
_symmetry_Int_Tables_number   1
_chemical_formula_structural   Lu3Zn3Hg2Ir
_chemical_formula_sum   'Lu3 Zn3 Hg2 Ir1'
_cell_volume   186.25748221
_cell_formula_units_Z   1
loop_
 _symmetry_equiv_pos_site_id
 _symmetry_equiv_pos_as_xyz
  1  'x, y, z'
loop_
 _atom_site_type_symbol
 _atom_site_label
 _atom_site_symmetry_multiplicity
 _atom_site_fract_x
 _atom_site_fract_y
 _atom_site_fract_z
 _atom_site_occupancy
  Lu  Lu0  1  0.577807  0.608329  0.000000  1
  Lu  Lu1  1  0.391671  0.969477  0.000000  1
  Lu  Lu2  1  0.030523  0.422193  0.000000  1
  Zn  Zn3  1  0.269895  0.280059  0.500000  1
  Zn  Zn4  1  0.719941  0.989835  0.500000  1
  Zn  Zn5  1  0.010165  0.730105  0.500000  1
  Hg  Hg6  1  0.000000  0.000000  0.000000  1
  Hg  Hg7  1  0.666667  0.333333  0.500000  1
  Ir  Ir8  1  0.333333  0.666667  0.500000  1
