# generated using pymatgen
data_AcZr(SnIr)2
_symmetry_space_group_name_H-M   'P 1'
_cell_length_a   7.56969100
_cell_length_b   7.56938578
_cell_length_c   8.10846800
_cell_angle_alpha   90.00063866
_cell_angle_beta   89.99899067
_cell_angle_gamma   119.99874162
_symmetry_Int_Tables_number   1
_chemical_formula_structural   AcZr(SnIr)2
_chemical_formula_sum   'Ac3 Zr3 Sn6 Ir6'
_cell_volume   402.35901581
_cell_formula_units_Z   3
loop_
 _symmetry_equiv_pos_site_id
 _symmetry_equiv_pos_as_xyz
  1  'x, y, z'
loop_
 _atom_site_type_symbol
 _atom_site_label
 _atom_site_symmetry_multiplicity
 _atom_site_fract_x
 _atom_site_fract_y
 _atom_site_fract_z
 _atom_site_occupancy
  Ac  Ac0  1  0.589010  0.588895  0.749994  1
  Ac  Ac1  1  0.999910  0.411009  0.749964  1
  Ac  Ac2  1  0.411084  0.000094  0.750037  1
  Zr  Zr3  1  0.394693  0.999569  0.250006  1
  Zr  Zr4  1  0.604890  0.605318  0.250000  1
  Zr  Zr5  1  0.000422  0.395116  0.249995  1
  Sn  Sn6  1  0.260697  0.259758  0.479873  1
  Sn  Sn7  1  0.260724  0.259765  0.020130  1
  Sn  Sn8  1  0.740229  0.000910  0.020141  1
  Sn  Sn9  1  0.999079  0.739323  0.479879  1
  Sn  Sn10  1  0.740216  0.000926  0.479858  1
  Sn  Sn11  1  0.999099  0.739319  0.020113  1
  Ir  Ir12  1  0.666629  0.333325  0.448830  1
  Ir  Ir13  1  0.666682  0.333343  0.051193  1
  Ir  Ir14  1  0.333304  0.666649  0.049682  1
  Ir  Ir15  1  0.333336  0.666707  0.450304  1
  Ir  Ir16  1  0.999998  0.999979  0.750001  1
  Ir  Ir17  1  0.999998  0.999996  0.250001  1
