# generated using pymatgen
data_Ho10IrRuRh4
_symmetry_space_group_name_H-M   'P 1'
_cell_length_a   10.80563821
_cell_length_b   10.80738900
_cell_length_c   6.38149212
_cell_angle_alpha   90.00000000
_cell_angle_beta   90.02235927
_cell_angle_gamma   90.00000000
_symmetry_Int_Tables_number   1
_chemical_formula_structural   Ho10IrRuRh4
_chemical_formula_sum   'Ho20 Ir2 Ru2 Rh8'
_cell_volume   745.23528667
_cell_formula_units_Z   2
loop_
 _symmetry_equiv_pos_site_id
 _symmetry_equiv_pos_as_xyz
  1  'x, y, z'
loop_
 _atom_site_type_symbol
 _atom_site_label
 _atom_site_symmetry_multiplicity
 _atom_site_fract_x
 _atom_site_fract_y
 _atom_site_fract_z
 _atom_site_occupancy
  Ho  Ho0  1  0.294826  0.087539  0.377766  1
  Ho  Ho1  1  0.294826  0.912461  0.877766  1
  Ho  Ho2  1  0.705267  0.086231  0.877777  1
  Ho  Ho3  1  0.705267  0.913769  0.377777  1
  Ho  Ho4  1  0.585156  0.794129  0.877840  1
  Ho  Ho5  1  0.585156  0.205871  0.377840  1
  Ho  Ho6  1  0.413247  0.794087  0.378908  1
  Ho  Ho7  1  0.413247  0.205913  0.878908  1
  Ho  Ho8  1  0.210499  0.412459  0.621182  1
  Ho  Ho9  1  0.210499  0.587541  0.121182  1
  Ho  Ho10  1  0.790761  0.411389  0.121527  1
  Ho  Ho11  1  0.790761  0.588611  0.621527  1
  Ho  Ho12  1  0.911520  0.709419  0.121729  1
  Ho  Ho13  1  0.911520  0.290581  0.621729  1
  Ho  Ho14  1  0.089900  0.709182  0.622162  1
  Ho  Ho15  1  0.089900  0.290818  0.122162  1
  Ho  Ho16  1  0.999991  0.999878  0.498479  1
  Ho  Ho17  1  0.999991  0.000122  0.998479  1
  Ho  Ho18  1  0.499499  0.500054  0.998105  1
  Ho  Ho19  1  0.499499  0.499946  0.498105  1
  Ir  Ir20  1  0.345760  0.347491  0.249884  1
  Ir  Ir21  1  0.345760  0.652509  0.749884  1
  Ru  Ru22  1  0.500497  0.000007  0.124805  1
  Ru  Ru23  1  0.500497  0.999993  0.624805  1
  Rh  Rh24  1  0.848256  0.154202  0.250132  1
  Rh  Rh25  1  0.848256  0.845798  0.750132  1
  Rh  Rh26  1  0.151203  0.153703  0.750207  1
  Rh  Rh27  1  0.151203  0.846297  0.250207  1
  Rh  Rh28  1  0.654695  0.348208  0.750333  1
  Rh  Rh29  1  0.654695  0.651792  0.250333  1
  Rh  Rh30  1  0.998924  0.499914  0.879163  1
  Rh  Rh31  1  0.998924  0.500086  0.379163  1
