# generated using pymatgen
data_Pa3TaAg4F28
_symmetry_space_group_name_H-M   'P 1'
_cell_length_a   5.86131163
_cell_length_b   8.91644031
_cell_length_c   13.42835300
_cell_angle_alpha   68.59456184
_cell_angle_beta   89.97339177
_cell_angle_gamma   89.95539009
_symmetry_Int_Tables_number   1
_chemical_formula_structural   Pa3TaAg4F28
_chemical_formula_sum   'Pa3 Ta1 Ag4 F28'
_cell_volume   653.38399105
_cell_formula_units_Z   1
loop_
 _symmetry_equiv_pos_site_id
 _symmetry_equiv_pos_as_xyz
  1  'x, y, z'
loop_
 _atom_site_type_symbol
 _atom_site_label
 _atom_site_symmetry_multiplicity
 _atom_site_fract_x
 _atom_site_fract_y
 _atom_site_fract_z
 _atom_site_occupancy
  Pa  Pa0  1  0.713263  0.707631  0.063225  1
  Pa  Pa1  1  0.788264  0.709076  0.559087  1
  Pa  Pa2  1  0.287243  0.289800  0.940106  1
  Ta  Ta3  1  0.209674  0.287276  0.438122  1
  Ag  Ag4  1  0.283919  0.863710  0.719531  1
  Ag  Ag5  1  0.783801  0.139908  0.777598  1
  Ag  Ag6  1  0.715177  0.142945  0.284308  1
  Ag  Ag7  1  0.217019  0.864963  0.223623  1
  F  F8  1  0.575158  0.979276  0.739970  1
  F  F9  1  0.076060  0.022837  0.758935  1
  F  F10  1  0.432400  0.023950  0.257606  1
  F  F11  1  0.930176  0.983964  0.245055  1
  F  F12  1  0.386139  0.323064  0.544377  1
  F  F13  1  0.892901  0.672376  0.941193  1
  F  F14  1  0.605573  0.677558  0.437102  1
  F  F15  1  0.107386  0.324407  0.062255  1
  F  F16  1  0.480212  0.250474  0.811531  1
  F  F17  1  0.983713  0.750337  0.686027  1
  F  F18  1  0.514336  0.751181  0.188211  1
  F  F19  1  0.024133  0.248120  0.324952  1
  F  F20  1  0.985523  0.283603  0.845832  1
  F  F21  1  0.486408  0.718885  0.652877  1
  F  F22  1  0.011035  0.719824  0.158470  1
  F  F23  1  0.481345  0.277614  0.352076  1
  F  F24  1  0.250695  0.039092  0.019139  1
  F  F25  1  0.748433  0.959320  0.481964  1
  F  F26  1  0.749874  0.957531  0.982378  1
  F  F27  1  0.243877  0.057332  0.510052  1
  F  F28  1  0.318383  0.536001  0.855428  1
  F  F29  1  0.814346  0.461706  0.643119  1
  F  F30  1  0.683287  0.461007  0.149370  1
  F  F31  1  0.190873  0.511586  0.356154  1
  F  F32  1  0.594528  0.277580  0.018769  1
  F  F33  1  0.093305  0.722182  0.477860  1
  F  F34  1  0.408282  0.720478  0.982642  1
  F  F35  1  0.933265  0.283405  0.511057  1
