# generated using pymatgen
data_LaDy3(SiAu2)8
_symmetry_space_group_name_H-M   'P 1'
_cell_length_a   4.41982300
_cell_length_b   4.42140200
_cell_length_c   27.08835500
_cell_angle_alpha   90.00000000
_cell_angle_beta   90.00000000
_cell_angle_gamma   90.00000000
_symmetry_Int_Tables_number   1
_chemical_formula_structural   LaDy3(SiAu2)8
_chemical_formula_sum   'La1 Dy3 Si8 Au16'
_cell_volume   529.35560180
_cell_formula_units_Z   1
loop_
 _symmetry_equiv_pos_site_id
 _symmetry_equiv_pos_as_xyz
  1  'x, y, z'
loop_
 _atom_site_type_symbol
 _atom_site_label
 _atom_site_symmetry_multiplicity
 _atom_site_fract_x
 _atom_site_fract_y
 _atom_site_fract_z
 _atom_site_occupancy
  La  La0  1  0.000000  0.500000  0.749582  1
  Dy  Dy1  1  0.500000  0.000000  0.250436  1
  Dy  Dy2  1  0.500000  0.500000  0.000255  1
  Dy  Dy3  1  0.500000  0.500000  0.499745  1
  Si  Si4  1  0.000000  0.000000  0.957434  1
  Si  Si5  1  0.000000  0.000000  0.456606  1
  Si  Si6  1  0.500000  0.000000  0.793847  1
  Si  Si7  1  0.500000  0.000000  0.705297  1
  Si  Si8  1  0.000000  0.500000  0.207194  1
  Si  Si9  1  0.000000  0.500000  0.293646  1
  Si  Si10  1  0.000000  0.000000  0.043482  1
  Si  Si11  1  0.000000  0.000000  0.542460  1
  Au  Au12  1  0.500000  0.000000  0.085865  1
  Au  Au13  1  0.500000  0.500000  0.660694  1
  Au  Au14  1  0.500000  0.500000  0.838478  1
  Au  Au15  1  0.000000  0.500000  0.085293  1
  Au  Au16  1  0.500000  0.000000  0.915480  1
  Au  Au17  1  0.000000  0.000000  0.661274  1
  Au  Au18  1  0.000000  0.500000  0.415095  1
  Au  Au19  1  0.500000  0.500000  0.336431  1
  Au  Au20  1  0.500000  0.000000  0.414487  1
  Au  Au21  1  0.000000  0.000000  0.335396  1
  Au  Au22  1  0.000000  0.000000  0.165448  1
  Au  Au23  1  0.500000  0.000000  0.584128  1
  Au  Au24  1  0.000000  0.000000  0.837924  1
  Au  Au25  1  0.500000  0.500000  0.164416  1
  Au  Au26  1  0.000000  0.500000  0.584227  1
  Au  Au27  1  0.000000  0.500000  0.915381  1
