# generated using pymatgen
data_TbYb(B4Os)2
_symmetry_space_group_name_H-M   'P 1'
_cell_length_a   5.97134183
_cell_length_b   11.54108661
_cell_length_c   3.55726500
_cell_angle_alpha   90.00000000
_cell_angle_beta   90.00000000
_cell_angle_gamma   89.93944356
_symmetry_Int_Tables_number   1
_chemical_formula_structural   TbYb(B4Os)2
_chemical_formula_sum   'Tb2 Yb2 B16 Os4'
_cell_volume   245.15153135
_cell_formula_units_Z   2
loop_
 _symmetry_equiv_pos_site_id
 _symmetry_equiv_pos_as_xyz
  1  'x, y, z'
loop_
 _atom_site_type_symbol
 _atom_site_label
 _atom_site_symmetry_multiplicity
 _atom_site_fract_x
 _atom_site_fract_y
 _atom_site_fract_z
 _atom_site_occupancy
  Tb  Tb0  1  0.128426  0.150997  0.000000  1
  Tb  Tb1  1  0.871574  0.849003  0.000000  1
  Yb  Yb2  1  0.628569  0.351132  0.000000  1
  Yb  Yb3  1  0.371431  0.648868  0.000000  1
  B  B4  1  0.786761  0.186517  0.500000  1
  B  B5  1  0.213239  0.813483  0.500000  1
  B  B6  1  0.288716  0.316062  0.500000  1
  B  B7  1  0.711284  0.683938  0.500000  1
  B  B8  1  0.862924  0.030573  0.500000  1
  B  B9  1  0.137076  0.969427  0.500000  1
  B  B10  1  0.363745  0.469630  0.500000  1
  B  B11  1  0.636255  0.530370  0.500000  1
  B  B12  1  0.885712  0.453372  0.500000  1
  B  B13  1  0.114288  0.546628  0.500000  1
  B  B14  1  0.388519  0.047241  0.500000  1
  B  B15  1  0.611481  0.952759  0.500000  1
  B  B16  1  0.975117  0.309628  0.500000  1
  B  B17  1  0.024883  0.690372  0.500000  1
  B  B18  1  0.475093  0.192209  0.500000  1
  B  B19  1  0.524907  0.807791  0.500000  1
  Os  Os20  1  0.640372  0.091743  0.000000  1
  Os  Os21  1  0.359628  0.908257  0.000000  1
  Os  Os22  1  0.137170  0.409713  0.000000  1
  Os  Os23  1  0.862830  0.590287  0.000000  1
