# generated using pymatgen
data_YbPr3Al15(SiIr2)3
_symmetry_space_group_name_H-M   'P 1'
_cell_length_a   7.57977839
_cell_length_b   7.54557849
_cell_length_c   9.57729592
_cell_angle_alpha   89.94393321
_cell_angle_beta   89.98059878
_cell_angle_gamma   119.65560302
_symmetry_Int_Tables_number   1
_chemical_formula_structural   YbPr3Al15(SiIr2)3
_chemical_formula_sum   'Yb1 Pr3 Al15 Si3 Ir6'
_cell_volume   476.01310788
_cell_formula_units_Z   1
loop_
 _symmetry_equiv_pos_site_id
 _symmetry_equiv_pos_as_xyz
  1  'x, y, z'
loop_
 _atom_site_type_symbol
 _atom_site_label
 _atom_site_symmetry_multiplicity
 _atom_site_fract_x
 _atom_site_fract_y
 _atom_site_fract_z
 _atom_site_occupancy
  Yb  Yb0  1  0.317681  0.990165  0.749970  1
  Pr  Pr1  1  0.995323  0.665884  0.246807  1
  Pr  Pr2  1  0.006023  0.340924  0.754358  1
  Pr  Pr3  1  0.673183  0.000162  0.247297  1
  Al  Al4  1  0.132623  0.128957  0.249795  1
  Al  Al5  1  0.870725  0.869458  0.749755  1
  Al  Al6  1  0.338952  0.006286  0.429468  1
  Al  Al7  1  0.004111  0.330095  0.431586  1
  Al  Al8  1  0.663018  0.999303  0.575789  1
  Al  Al9  1  0.658863  0.995479  0.922053  1
  Al  Al10  1  0.338900  0.006084  0.070743  1
  Al  Al11  1  0.335018  0.330607  0.556301  1
  Al  Al12  1  0.661483  0.666089  0.448817  1
  Al  Al13  1  0.660681  0.665310  0.052343  1
  Al  Al14  1  0.338389  0.331588  0.944273  1
  Al  Al15  1  0.338421  0.546806  0.249959  1
  Al  Al16  1  0.658773  0.450897  0.750940  1
  Al  Al17  1  0.545304  0.342181  0.249747  1
  Al  Al18  1  0.457603  0.660017  0.750036  1
  Si  Si19  1  0.005736  0.328985  0.073697  1
  Si  Si20  1  0.997322  0.674236  0.930592  1
  Si  Si21  1  0.998616  0.667801  0.564771  1
  Ir  Ir22  1  0.688610  0.338787  0.000835  1
  Ir  Ir23  1  0.312946  0.662475  0.997288  1
  Ir  Ir24  1  0.320725  0.669603  0.502659  1
  Ir  Ir25  1  0.679908  0.338015  0.500598  1
  Ir  Ir26  1  0.000447  0.000636  0.998681  1
  Ir  Ir27  1  0.000617  0.993167  0.500841  1
