# generated using pymatgen
data_Tb6Ho7Th3TlCd3Ir4
_symmetry_space_group_name_H-M   'P 1'
_cell_length_a   9.71435780
_cell_length_b   9.71859383
_cell_length_c   9.71761900
_cell_angle_alpha   59.99677940
_cell_angle_beta   59.99032114
_cell_angle_gamma   59.98549698
_symmetry_Int_Tables_number   1
_chemical_formula_structural   Tb6Ho7Th3TlCd3Ir4
_chemical_formula_sum   'Tb6 Ho7 Th3 Tl1 Cd3 Ir4'
_cell_volume   648.59326404
_cell_formula_units_Z   1
loop_
 _symmetry_equiv_pos_site_id
 _symmetry_equiv_pos_as_xyz
  1  'x, y, z'
loop_
 _atom_site_type_symbol
 _atom_site_label
 _atom_site_symmetry_multiplicity
 _atom_site_fract_x
 _atom_site_fract_y
 _atom_site_fract_z
 _atom_site_occupancy
  Tb  Tb0  1  0.190942  0.813090  0.813398  1
  Tb  Tb1  1  0.812937  0.187436  0.187511  1
  Tb  Tb2  1  0.814494  0.189324  0.814743  1
  Tb  Tb3  1  0.189543  0.811660  0.188243  1
  Tb  Tb4  1  0.814373  0.814547  0.189514  1
  Tb  Tb5  1  0.189414  0.187827  0.812116  1
  Ho  Ho6  1  0.196512  0.601752  0.602019  1
  Ho  Ho7  1  0.062105  0.438922  0.439045  1
  Ho  Ho8  1  0.435553  0.064230  0.064325  1
  Ho  Ho9  1  0.436392  0.063335  0.436392  1
  Ho  Ho10  1  0.062598  0.436602  0.062073  1
  Ho  Ho11  1  0.436566  0.436263  0.063354  1
  Ho  Ho12  1  0.062544  0.061898  0.436787  1
  Th  Th13  1  0.596484  0.598958  0.599015  1
  Th  Th14  1  0.599032  0.601118  0.199786  1
  Th  Th15  1  0.598737  0.200345  0.600942  1
  Tl  Tl16  1  0.836182  0.831744  0.831340  1
  Cd  Cd17  1  0.832705  0.830316  0.501629  1
  Cd  Cd18  1  0.832953  0.501774  0.829878  1
  Cd  Cd19  1  0.501599  0.831342  0.830893  1
  Ir  Ir20  1  0.393353  0.392328  0.391924  1
  Ir  Ir21  1  0.392300  0.391486  0.821221  1
  Ir  Ir22  1  0.392276  0.821079  0.391401  1
  Ir  Ir23  1  0.820411  0.392630  0.392455  1
