# generated using pymatgen
data_Ta2NbCr3Ge2P
_symmetry_space_group_name_H-M   'P 1'
_cell_length_a   6.69776290
_cell_length_b   6.69776300
_cell_length_c   3.30122200
_cell_angle_alpha   90.00000000
_cell_angle_beta   90.00000000
_cell_angle_gamma   119.82398442
_symmetry_Int_Tables_number   1
_chemical_formula_structural   Ta2NbCr3Ge2P
_chemical_formula_sum   'Ta2 Nb1 Cr3 Ge2 P1'
_cell_volume   128.47909397
_cell_formula_units_Z   1
loop_
 _symmetry_equiv_pos_site_id
 _symmetry_equiv_pos_as_xyz
  1  'x, y, z'
loop_
 _atom_site_type_symbol
 _atom_site_label
 _atom_site_symmetry_multiplicity
 _atom_site_fract_x
 _atom_site_fract_y
 _atom_site_fract_z
 _atom_site_occupancy
  Ta  Ta0  1  0.999635  0.607067  0.500000  1
  Ta  Ta1  1  0.607067  0.999635  0.500000  1
  Nb  Nb2  1  0.393975  0.393975  0.500000  1
  Cr  Cr3  1  0.244949  0.998818  0.000000  1
  Cr  Cr4  1  0.755503  0.755503  0.000000  1
  Cr  Cr5  1  0.998818  0.244949  0.000000  1
  Ge  Ge6  1  0.666413  0.333332  0.000000  1
  Ge  Ge7  1  0.333332  0.666413  0.000000  1
  P  P8  1  0.000308  0.000308  0.500000  1
