# generated using pymatgen
data_Tb20Ir5RuPt6
_symmetry_space_group_name_H-M   'P 1'
_cell_length_a   11.05927671
_cell_length_b   11.05166422
_cell_length_c   6.37642350
_cell_angle_alpha   90.02169110
_cell_angle_beta   90.04018558
_cell_angle_gamma   90.00679054
_symmetry_Int_Tables_number   1
_chemical_formula_structural   Tb20Ir5RuPt6
_chemical_formula_sum   'Tb20 Ir5 Ru1 Pt6'
_cell_volume   779.34798791
_cell_formula_units_Z   1
loop_
 _symmetry_equiv_pos_site_id
 _symmetry_equiv_pos_as_xyz
  1  'x, y, z'
loop_
 _atom_site_type_symbol
 _atom_site_label
 _atom_site_symmetry_multiplicity
 _atom_site_fract_x
 _atom_site_fract_y
 _atom_site_fract_z
 _atom_site_occupancy
  Tb  Tb0  1  0.295985  0.090070  0.373245  1
  Tb  Tb1  1  0.296327  0.910020  0.875303  1
  Tb  Tb2  1  0.703389  0.086693  0.874848  1
  Tb  Tb3  1  0.703507  0.912979  0.372060  1
  Tb  Tb4  1  0.583877  0.793901  0.875261  1
  Tb  Tb5  1  0.584041  0.206236  0.372623  1
  Tb  Tb6  1  0.410959  0.794174  0.378398  1
  Tb  Tb7  1  0.411118  0.205639  0.880103  1
  Tb  Tb8  1  0.209706  0.412987  0.622445  1
  Tb  Tb9  1  0.209318  0.586977  0.122421  1
  Tb  Tb10  1  0.795302  0.411245  0.124585  1
  Tb  Tb11  1  0.794900  0.588749  0.624890  1
  Tb  Tb12  1  0.912605  0.704687  0.125806  1
  Tb  Tb13  1  0.912483  0.294975  0.626218  1
  Tb  Tb14  1  0.092744  0.704746  0.626856  1
  Tb  Tb15  1  0.092546  0.295501  0.126668  1
  Tb  Tb16  1  0.999833  0.999417  0.499044  1
  Tb  Tb17  1  0.999836  0.000512  0.999225  1
  Tb  Tb18  1  0.497399  0.499453  0.999351  1
  Tb  Tb19  1  0.497272  0.500744  0.499068  1
  Ir  Ir20  1  0.345996  0.345902  0.249005  1
  Ir  Ir21  1  0.346030  0.653951  0.749242  1
  Ir  Ir22  1  0.500267  0.000297  0.623288  1
  Ir  Ir23  1  0.999301  0.500092  0.878419  1
  Ir  Ir24  1  0.999325  0.499884  0.379268  1
  Ru  Ru25  1  0.500395  0.999841  0.125818  1
  Pt  Pt26  1  0.845427  0.153741  0.250050  1
  Pt  Pt27  1  0.845535  0.846471  0.750053  1
  Pt  Pt28  1  0.152746  0.154063  0.748642  1
  Pt  Pt29  1  0.153005  0.846020  0.248870  1
  Pt  Pt30  1  0.654250  0.346055  0.749417  1
  Pt  Pt31  1  0.654576  0.653981  0.249510  1
