# generated using pymatgen
data_Hf2Ti4BeBr12
_symmetry_space_group_name_H-M   'P 1'
_cell_length_a   8.51299099
_cell_length_b   8.47732691
_cell_length_c   8.71468300
_cell_angle_alpha   106.78556258
_cell_angle_beta   106.74881755
_cell_angle_gamma   106.45714430
_symmetry_Int_Tables_number   1
_chemical_formula_structural   Hf2Ti4BeBr12
_chemical_formula_sum   'Hf2 Ti4 Be1 Br12'
_cell_volume   528.49269175
_cell_formula_units_Z   1
loop_
 _symmetry_equiv_pos_site_id
 _symmetry_equiv_pos_as_xyz
  1  'x, y, z'
loop_
 _atom_site_type_symbol
 _atom_site_label
 _atom_site_symmetry_multiplicity
 _atom_site_fract_x
 _atom_site_fract_y
 _atom_site_fract_z
 _atom_site_occupancy
  Hf  Hf0  1  0.969420  0.701374  0.903814  1
  Hf  Hf1  1  0.297650  0.098269  0.030724  1
  Ti  Ti2  1  0.087529  0.026883  0.273046  1
  Ti  Ti3  1  0.909281  0.976108  0.727941  1
  Ti  Ti4  1  0.720606  0.909612  0.971644  1
  Ti  Ti5  1  0.025639  0.280572  0.092786  1
  Be  Be6  1  0.002864  0.998632  0.999461  1
  Br  Br7  1  0.924655  0.311231  0.793183  1
  Br  Br8  1  0.690944  0.216790  0.073422  1
  Br  Br9  1  0.429837  0.133285  0.358782  1
  Br  Br10  1  0.863680  0.645770  0.569619  1
  Br  Br11  1  0.215510  0.081194  0.700677  1
  Br  Br12  1  0.633921  0.566488  0.860924  1
  Br  Br13  1  0.356561  0.440150  0.141796  1
  Br  Br14  1  0.779961  0.922012  0.288287  1
  Br  Br15  1  0.129304  0.352284  0.418413  1
  Br  Br16  1  0.576432  0.871345  0.652692  1
  Br  Br17  1  0.309417  0.770816  0.920004  1
  Br  Br18  1  0.076788  0.697185  0.222786  1
