# generated using pymatgen
data_Dy18MgCdIr12
_symmetry_space_group_name_H-M   'P 1'
_cell_length_a   10.85323900
_cell_length_b   10.85323900
_cell_length_c   6.25112700
_cell_angle_alpha   90.00000000
_cell_angle_beta   90.00000000
_cell_angle_gamma   90.00000000
_symmetry_Int_Tables_number   1
_chemical_formula_structural   Dy18MgCdIr12
_chemical_formula_sum   'Dy18 Mg1 Cd1 Ir12'
_cell_volume   736.33773243
_cell_formula_units_Z   1
loop_
 _symmetry_equiv_pos_site_id
 _symmetry_equiv_pos_as_xyz
  1  'x, y, z'
loop_
 _atom_site_type_symbol
 _atom_site_label
 _atom_site_symmetry_multiplicity
 _atom_site_fract_x
 _atom_site_fract_y
 _atom_site_fract_z
 _atom_site_occupancy
  Dy  Dy0  1  0.284138  0.085356  0.379646  1
  Dy  Dy1  1  0.291454  0.912388  0.877742  1
  Dy  Dy2  1  0.708546  0.087612  0.877742  1
  Dy  Dy3  1  0.715862  0.914644  0.379646  1
  Dy  Dy4  1  0.585622  0.782968  0.878924  1
  Dy  Dy5  1  0.587609  0.207551  0.377550  1
  Dy  Dy6  1  0.412391  0.792449  0.377550  1
  Dy  Dy7  1  0.414378  0.217032  0.878924  1
  Dy  Dy8  1  0.207551  0.412391  0.622450  1
  Dy  Dy9  1  0.217032  0.585622  0.121076  1
  Dy  Dy10  1  0.782968  0.414378  0.121076  1
  Dy  Dy11  1  0.792449  0.587609  0.622450  1
  Dy  Dy12  1  0.912388  0.708546  0.122258  1
  Dy  Dy13  1  0.914644  0.284138  0.620354  1
  Dy  Dy14  1  0.085356  0.715862  0.620354  1
  Dy  Dy15  1  0.087612  0.291454  0.122258  1
  Dy  Dy16  1  0.000000  0.000000  0.000000  1
  Dy  Dy17  1  0.500000  0.500000  0.500000  1
  Mg  Mg18  1  0.000000  0.000000  0.500000  1
  Cd  Cd19  1  0.500000  0.500000  0.000000  1
  Ir  Ir20  1  0.846828  0.156349  0.244029  1
  Ir  Ir21  1  0.843651  0.846828  0.755971  1
  Ir  Ir22  1  0.156349  0.153172  0.755971  1
  Ir  Ir23  1  0.153172  0.843651  0.244029  1
  Ir  Ir24  1  0.659572  0.344001  0.739184  1
  Ir  Ir25  1  0.655999  0.659572  0.260816  1
  Ir  Ir26  1  0.344001  0.340428  0.260816  1
  Ir  Ir27  1  0.340428  0.655999  0.739184  1
  Ir  Ir28  1  0.500000  0.000000  0.119128  1
  Ir  Ir29  1  0.500000  0.000000  0.621350  1
  Ir  Ir30  1  0.000000  0.500000  0.880872  1
  Ir  Ir31  1  0.000000  0.500000  0.378650  1
