# generated using pymatgen
data_Y15ThCd4Pd3Pt
_symmetry_space_group_name_H-M   'P 1'
_cell_length_a   9.75432571
_cell_length_b   9.74543623
_cell_length_c   9.74543671
_cell_angle_alpha   60.06813226
_cell_angle_beta   60.11218100
_cell_angle_gamma   60.11218285
_symmetry_Int_Tables_number   1
_chemical_formula_structural   Y15ThCd4Pd3Pt
_chemical_formula_sum   'Y15 Th1 Cd4 Pd3 Pt1'
_cell_volume   656.51257480
_cell_formula_units_Z   1
loop_
 _symmetry_equiv_pos_site_id
 _symmetry_equiv_pos_as_xyz
  1  'x, y, z'
loop_
 _atom_site_type_symbol
 _atom_site_label
 _atom_site_symmetry_multiplicity
 _atom_site_fract_x
 _atom_site_fract_y
 _atom_site_fract_z
 _atom_site_occupancy
  Y  Y0  1  0.356655  0.355033  0.934820  1
  Y  Y1  1  0.356655  0.934820  0.355033  1
  Y  Y2  1  0.933290  0.356151  0.356151  1
  Y  Y3  1  0.811403  0.189219  0.189219  1
  Y  Y4  1  0.190675  0.810808  0.810808  1
  Y  Y5  1  0.189785  0.811914  0.189103  1
  Y  Y6  1  0.810012  0.190324  0.811963  1
  Y  Y7  1  0.189785  0.189103  0.811914  1
  Y  Y8  1  0.810012  0.811963  0.190324  1
  Y  Y9  1  0.936175  0.566193  0.566193  1
  Y  Y10  1  0.564819  0.936229  0.936229  1
  Y  Y11  1  0.566604  0.936068  0.565611  1
  Y  Y12  1  0.935596  0.564692  0.935411  1
  Y  Y13  1  0.566604  0.565611  0.936068  1
  Y  Y14  1  0.935596  0.935411  0.564692  1
  Th  Th15  1  0.349972  0.349362  0.349362  1
  Cd  Cd16  1  0.582247  0.582388  0.582388  1
  Cd  Cd17  1  0.582452  0.582556  0.252007  1
  Cd  Cd18  1  0.582452  0.252007  0.582556  1
  Cd  Cd19  1  0.252329  0.582461  0.582461  1
  Pd  Pd20  1  0.144757  0.145675  0.145675  1
  Pd  Pd21  1  0.142010  0.142830  0.567061  1
  Pd  Pd22  1  0.142010  0.567061  0.142830  1
  Pt  Pt23  1  0.568103  0.142119  0.142119  1
