# generated using pymatgen
data_Hf8Ta11TiSi16
_symmetry_space_group_name_H-M   'P 1'
_cell_length_a   6.84161105
_cell_length_b   6.83785614
_cell_length_c   12.66620950
_cell_angle_alpha   90.02197323
_cell_angle_beta   89.98089173
_cell_angle_gamma   89.99305475
_symmetry_Int_Tables_number   1
_chemical_formula_structural   Hf8Ta11TiSi16
_chemical_formula_sum   'Hf8 Ta11 Ti1 Si16'
_cell_volume   592.54992527
_cell_formula_units_Z   1
loop_
 _symmetry_equiv_pos_site_id
 _symmetry_equiv_pos_as_xyz
  1  'x, y, z'
loop_
 _atom_site_type_symbol
 _atom_site_label
 _atom_site_symmetry_multiplicity
 _atom_site_fract_x
 _atom_site_fract_y
 _atom_site_fract_z
 _atom_site_occupancy
  Hf  Hf0  1  0.342197  0.999428  0.469844  1
  Hf  Hf1  1  0.501346  0.841348  0.719652  1
  Hf  Hf2  1  0.500398  0.159884  0.219823  1
  Hf  Hf3  1  0.840681  0.500294  0.280508  1
  Hf  Hf4  1  0.159210  0.498580  0.779948  1
  Hf  Hf5  1  0.660224  0.999217  0.969727  1
  Hf  Hf6  1  0.999928  0.340591  0.530169  1
  Hf  Hf7  1  0.000142  0.660154  0.029962  1
  Ta  Ta8  1  0.329767  0.329987  0.999775  1
  Ta  Ta9  1  0.169576  0.829426  0.250493  1
  Ta  Ta10  1  0.829901  0.169855  0.749785  1
  Ta  Ta11  1  0.669496  0.670692  0.500237  1
  Ta  Ta12  1  0.151607  0.003824  0.873934  1
  Ta  Ta13  1  0.496336  0.651639  0.123866  1
  Ta  Ta14  1  0.502731  0.348149  0.623772  1
  Ta  Ta15  1  0.651444  0.496421  0.875951  1
  Ta  Ta16  1  0.347606  0.503427  0.376474  1
  Ta  Ta17  1  0.847730  0.996455  0.373454  1
  Ta  Ta18  1  0.003352  0.151772  0.125978  1
  Ti  Ti19  1  0.995548  0.847644  0.626418  1
  Si  Si20  1  0.205450  0.132288  0.675746  1
  Si  Si21  1  0.363029  0.707364  0.926509  1
  Si  Si22  1  0.637034  0.292805  0.427618  1
  Si  Si23  1  0.707238  0.363010  0.072916  1
  Si  Si24  1  0.290305  0.639363  0.574419  1
  Si  Si25  1  0.792640  0.863071  0.176903  1
  Si  Si26  1  0.136898  0.207297  0.323411  1
  Si  Si27  1  0.864051  0.793285  0.820852  1
  Si  Si28  1  0.299891  0.955635  0.063981  1
  Si  Si29  1  0.543912  0.799490  0.314040  1
  Si  Si30  1  0.455038  0.200174  0.813267  1
  Si  Si31  1  0.801202  0.546472  0.685232  1
  Si  Si32  1  0.200007  0.455434  0.186251  1
  Si  Si33  1  0.704437  0.043208  0.564677  1
  Si  Si34  1  0.955254  0.300060  0.935830  1
  Si  Si35  1  0.044394  0.702261  0.438576  1
