# generated using pymatgen
data_Lu4Al17GaIr6
_symmetry_space_group_name_H-M   'P 1'
_cell_length_a   7.52010619
_cell_length_b   7.52010700
_cell_length_c   9.43591300
_cell_angle_alpha   90.00000000
_cell_angle_beta   90.00000000
_cell_angle_gamma   119.58288980
_symmetry_Int_Tables_number   1
_chemical_formula_structural   Lu4Al17GaIr6
_chemical_formula_sum   'Lu4 Al17 Ga1 Ir6'
_cell_volume   464.05838633
_cell_formula_units_Z   1
loop_
 _symmetry_equiv_pos_site_id
 _symmetry_equiv_pos_as_xyz
  1  'x, y, z'
loop_
 _atom_site_type_symbol
 _atom_site_label
 _atom_site_symmetry_multiplicity
 _atom_site_fract_x
 _atom_site_fract_y
 _atom_site_fract_z
 _atom_site_occupancy
  Lu  Lu0  1  0.994996  0.671622  0.250000  1
  Lu  Lu1  1  0.004788  0.329828  0.750000  1
  Lu  Lu2  1  0.671622  0.994996  0.250000  1
  Lu  Lu3  1  0.329828  0.004788  0.750000  1
  Al  Al4  1  0.872333  0.872333  0.750000  1
  Al  Al5  1  0.000678  0.334809  0.073949  1
  Al  Al6  1  0.999303  0.665177  0.925539  1
  Al  Al7  1  0.999303  0.665177  0.574461  1
  Al  Al8  1  0.334809  0.000678  0.426051  1
  Al  Al9  1  0.000678  0.334809  0.426051  1
  Al  Al10  1  0.665177  0.999303  0.574461  1
  Al  Al11  1  0.665177  0.999303  0.925539  1
  Al  Al12  1  0.334809  0.000678  0.073949  1
  Al  Al13  1  0.333296  0.333296  0.556199  1
  Al  Al14  1  0.666571  0.666571  0.445023  1
  Al  Al15  1  0.666571  0.666571  0.054977  1
  Al  Al16  1  0.333296  0.333296  0.943801  1
  Al  Al17  1  0.337920  0.548662  0.250000  1
  Al  Al18  1  0.661757  0.452003  0.750000  1
  Al  Al19  1  0.548662  0.337920  0.250000  1
  Al  Al20  1  0.452003  0.661757  0.750000  1
  Ga  Ga21  1  0.129743  0.129743  0.250000  1
  Ir  Ir22  1  0.671913  0.327374  0.000254  1
  Ir  Ir23  1  0.327374  0.671913  0.000254  1
  Ir  Ir24  1  0.327374  0.671913  0.499746  1
  Ir  Ir25  1  0.671913  0.327374  0.499746  1
  Ir  Ir26  1  0.999052  0.999052  0.997810  1
  Ir  Ir27  1  0.999052  0.999052  0.502190  1
