# generated using pymatgen
data_Li2PrHo4P12Ru17
_symmetry_space_group_name_H-M   'P 1'
_cell_length_a   12.75443331
_cell_length_b   12.52830461
_cell_length_c   3.96532100
_cell_angle_alpha   90.00000000
_cell_angle_beta   90.00000000
_cell_angle_gamma   120.51416067
_symmetry_Int_Tables_number   1
_chemical_formula_structural   Li2PrHo4P12Ru17
_chemical_formula_sum   'Li2 Pr1 Ho4 P12 Ru17'
_cell_volume   545.86967259
_cell_formula_units_Z   1
loop_
 _symmetry_equiv_pos_site_id
 _symmetry_equiv_pos_as_xyz
  1  'x, y, z'
loop_
 _atom_site_type_symbol
 _atom_site_label
 _atom_site_symmetry_multiplicity
 _atom_site_fract_x
 _atom_site_fract_y
 _atom_site_fract_z
 _atom_site_occupancy
  Li  Li0  1  0.000497  0.563741  0.000000  1
  Li  Li1  1  0.439632  0.437461  0.000000  1
  Pr  Pr2  1  0.001474  0.182172  0.500000  1
  Ho  Ho3  1  0.818828  0.817953  0.500000  1
  Ho  Ho4  1  0.182361  0.999924  0.500000  1
  Ho  Ho5  1  0.663969  0.326170  0.000000  1
  Ho  Ho6  1  0.336859  0.674675  0.000000  1
  P  P7  1  0.998599  0.808963  0.000000  1
  P  P8  1  0.192560  0.190967  0.000000  1
  P  P9  1  0.814725  0.996263  0.000000  1
  P  P10  1  0.692541  0.170210  0.500000  1
  P  P11  1  0.816741  0.515888  0.500000  1
  P  P12  1  0.479127  0.301088  0.500000  1
  P  P13  1  0.175994  0.699566  0.500000  1
  P  P14  1  0.520198  0.829327  0.500000  1
  P  P15  1  0.301638  0.485189  0.500000  1
  P  P16  1  0.001932  0.373412  0.000000  1
  P  P17  1  0.632632  0.629725  0.000000  1
  P  P18  1  0.376321  0.999736  0.000000  1
  Ru  Ru19  1  0.555000  0.997743  0.000000  1
  Ru  Ru20  1  0.998147  0.712442  0.500000  1
  Ru  Ru21  1  0.289467  0.289246  0.500000  1
  Ru  Ru22  1  0.715050  0.997645  0.500000  1
  Ru  Ru23  1  0.805518  0.185016  0.000000  1
  Ru  Ru24  1  0.812389  0.615522  0.000000  1
  Ru  Ru25  1  0.378373  0.190916  0.000000  1
  Ru  Ru26  1  0.185741  0.809052  0.000000  1
  Ru  Ru27  1  0.621424  0.812194  0.000000  1
  Ru  Ru28  1  0.200054  0.387619  0.000000  1
  Ru  Ru29  1  0.874146  0.367757  0.500000  1
  Ru  Ru30  1  0.629306  0.510900  0.500000  1
  Ru  Ru31  1  0.493162  0.124192  0.500000  1
  Ru  Ru32  1  0.366505  0.875498  0.500000  1
  Ru  Ru33  1  0.506090  0.632974  0.500000  1
  Ru  Ru34  1  0.119923  0.491575  0.500000  1
  Ru  Ru35  1  0.003076  0.997278  0.000000  1
