# generated using pymatgen
data_HfSi3PbO9
_symmetry_space_group_name_H-M   'P 1'
_cell_length_a   6.69765600
_cell_length_b   6.69765666
_cell_length_c   10.11677400
_cell_angle_alpha   90.00000000
_cell_angle_beta   90.00000000
_cell_angle_gamma   119.99999676
_symmetry_Int_Tables_number   1
_chemical_formula_structural   HfSi3PbO9
_chemical_formula_sum   'Hf2 Si6 Pb2 O18'
_cell_volume   393.02340378
_cell_formula_units_Z   2
loop_
 _symmetry_equiv_pos_site_id
 _symmetry_equiv_pos_as_xyz
  1  'x, y, z'
loop_
 _atom_site_type_symbol
 _atom_site_label
 _atom_site_symmetry_multiplicity
 _atom_site_fract_x
 _atom_site_fract_y
 _atom_site_fract_z
 _atom_site_occupancy
  Hf  Hf0  1  0.333333  0.666667  0.000000  1
  Hf  Hf1  1  0.333333  0.666667  0.500000  1
  Si  Si2  1  0.946577  0.380634  0.750000  1
  Si  Si3  1  0.619366  0.565944  0.750000  1
  Si  Si4  1  0.434056  0.053423  0.750000  1
  Si  Si5  1  0.946577  0.565944  0.250000  1
  Si  Si6  1  0.619366  0.053423  0.250000  1
  Si  Si7  1  0.434056  0.380634  0.250000  1
  Pb  Pb8  1  0.000000  0.000000  0.000000  1
  Pb  Pb9  1  0.000000  0.000000  0.500000  1
  O  O10  1  0.872061  0.580853  0.750000  1
  O  O11  1  0.419147  0.291209  0.750000  1
  O  O12  1  0.708791  0.127939  0.750000  1
  O  O13  1  0.872061  0.291209  0.250000  1
  O  O14  1  0.419147  0.127939  0.250000  1
  O  O15  1  0.708791  0.580853  0.250000  1
  O  O16  1  0.087831  0.397296  0.884787  1
  O  O17  1  0.602704  0.690535  0.884787  1
  O  O18  1  0.309465  0.912169  0.884787  1
  O  O19  1  0.087831  0.397296  0.615213  1
  O  O20  1  0.602704  0.690535  0.615213  1
  O  O21  1  0.309465  0.912169  0.615213  1
  O  O22  1  0.087831  0.690535  0.384787  1
  O  O23  1  0.602704  0.912169  0.384787  1
  O  O24  1  0.309465  0.397296  0.384787  1
  O  O25  1  0.087831  0.690535  0.115213  1
  O  O26  1  0.602704  0.912169  0.115213  1
  O  O27  1  0.309465  0.397296  0.115213  1
