# generated using pymatgen
data_Nd2ThGa6(CuNi2)3
_symmetry_space_group_name_H-M   'P 1'
_cell_length_a   8.87741400
_cell_length_b   8.87741346
_cell_length_c   4.18961300
_cell_angle_alpha   90.00000000
_cell_angle_beta   90.00000000
_cell_angle_gamma   119.99999455
_symmetry_Int_Tables_number   1
_chemical_formula_structural   Nd2ThGa6(CuNi2)3
_chemical_formula_sum   'Nd2 Th1 Ga6 Cu3 Ni6'
_cell_volume   285.94169366
_cell_formula_units_Z   1
loop_
 _symmetry_equiv_pos_site_id
 _symmetry_equiv_pos_as_xyz
  1  'x, y, z'
loop_
 _atom_site_type_symbol
 _atom_site_label
 _atom_site_symmetry_multiplicity
 _atom_site_fract_x
 _atom_site_fract_y
 _atom_site_fract_z
 _atom_site_occupancy
  Nd  Nd0  1  0.333333  0.666667  0.500000  1
  Nd  Nd1  1  0.666667  0.333333  0.500000  1
  Th  Th2  1  0.000000  0.000000  0.000000  1
  Ga  Ga3  1  0.480438  0.000000  0.000000  1
  Ga  Ga4  1  0.000000  0.480438  0.000000  1
  Ga  Ga5  1  0.519562  0.519562  0.000000  1
  Ga  Ga6  1  0.716232  0.000000  0.500000  1
  Ga  Ga7  1  0.000000  0.716232  0.500000  1
  Ga  Ga8  1  0.283768  0.283768  0.500000  1
  Cu  Cu9  1  0.290262  0.000000  0.500000  1
  Cu  Cu10  1  0.000000  0.290262  0.500000  1
  Cu  Cu11  1  0.709738  0.709738  0.500000  1
  Ni  Ni12  1  0.197115  0.367374  0.000000  1
  Ni  Ni13  1  0.632626  0.829741  0.000000  1
  Ni  Ni14  1  0.170259  0.802885  0.000000  1
  Ni  Ni15  1  0.829741  0.632626  0.000000  1
  Ni  Ni16  1  0.802885  0.170259  0.000000  1
  Ni  Ni17  1  0.367374  0.197115  0.000000  1
