# generated using pymatgen
data_Cs2Si2Te5
_symmetry_space_group_name_H-M   'P 1'
_cell_length_a   12.75817793
_cell_length_b   12.75817843
_cell_length_c   10.56149565
_cell_angle_alpha   80.73592098
_cell_angle_beta   80.73592212
_cell_angle_gamma   90.08435355
_symmetry_Int_Tables_number   1
_chemical_formula_structural   Cs2Si2Te5
_chemical_formula_sum   'Cs8 Si8 Te20'
_cell_volume   1673.89161813
_cell_formula_units_Z   4
loop_
 _symmetry_equiv_pos_site_id
 _symmetry_equiv_pos_as_xyz
  1  'x, y, z'
loop_
 _atom_site_type_symbol
 _atom_site_label
 _atom_site_symmetry_multiplicity
 _atom_site_fract_x
 _atom_site_fract_y
 _atom_site_fract_z
 _atom_site_occupancy
  Cs  Cs0  1  0.290180  0.022447  0.615152  1
  Cs  Cs1  1  0.709820  0.977553  0.384848  1
  Cs  Cs2  1  0.977553  0.709820  0.884848  1
  Cs  Cs3  1  0.022447  0.290180  0.115152  1
  Cs  Cs4  1  0.544766  0.708883  0.885881  1
  Cs  Cs5  1  0.455234  0.291117  0.114119  1
  Cs  Cs6  1  0.291117  0.455234  0.614119  1
  Cs  Cs7  1  0.708883  0.544766  0.385881  1
  Si  Si8  1  0.641456  0.230476  0.615298  1
  Si  Si9  1  0.358544  0.769524  0.384702  1
  Si  Si10  1  0.769524  0.358544  0.884702  1
  Si  Si11  1  0.230476  0.641456  0.115298  1
  Si  Si12  1  0.768141  0.035225  0.890792  1
  Si  Si13  1  0.231859  0.964775  0.109208  1
  Si  Si14  1  0.964775  0.231859  0.609208  1
  Si  Si15  1  0.035225  0.768141  0.390792  1
  Te  Te16  1  0.747289  0.179638  0.036408  1
  Te  Te17  1  0.252711  0.820362  0.963592  1
  Te  Te18  1  0.820362  0.252711  0.463592  1
  Te  Te19  1  0.179638  0.747289  0.536408  1
  Te  Te20  1  0.615551  0.049197  0.758530  1
  Te  Te21  1  0.384449  0.950803  0.241470  1
  Te  Te22  1  0.950803  0.384449  0.741470  1
  Te  Te23  1  0.049197  0.615551  0.258530  1
  Te  Te24  1  0.618696  0.381304  0.750000  1
  Te  Te25  1  0.381304  0.618696  0.250000  1
  Te  Te26  1  0.495877  0.745711  0.524367  1
  Te  Te27  1  0.504123  0.254289  0.475633  1
  Te  Te28  1  0.254289  0.504123  0.975633  1
  Te  Te29  1  0.745711  0.495877  0.024367  1
  Te  Te30  1  0.743868  0.865605  0.037850  1
  Te  Te31  1  0.256132  0.134395  0.962150  1
  Te  Te32  1  0.134395  0.256132  0.462150  1
  Te  Te33  1  0.865605  0.743868  0.537850  1
  Te  Te34  1  0.950727  0.049273  0.750000  1
  Te  Te35  1  0.049273  0.950727  0.250000  1
