# generated using pymatgen
data_Tm3Tl2Cd3Ir
_symmetry_space_group_name_H-M   'P 1'
_cell_length_a   3.63469000
_cell_length_b   8.19243403
_cell_length_c   8.19243300
_cell_angle_alpha   119.99999987
_cell_angle_beta   90.00000000
_cell_angle_gamma   90.00000000
_symmetry_Int_Tables_number   1
_chemical_formula_structural   Tm3Tl2Cd3Ir
_chemical_formula_sum   'Tm3 Tl2 Cd3 Ir1'
_cell_volume   211.26320288
_cell_formula_units_Z   1
loop_
 _symmetry_equiv_pos_site_id
 _symmetry_equiv_pos_as_xyz
  1  'x, y, z'
loop_
 _atom_site_type_symbol
 _atom_site_label
 _atom_site_symmetry_multiplicity
 _atom_site_fract_x
 _atom_site_fract_y
 _atom_site_fract_z
 _atom_site_occupancy
  Tm  Tm0  1  0.000000  0.421593  0.375710  1
  Tm  Tm1  1  0.000000  0.954116  0.578407  1
  Tm  Tm2  1  0.000000  0.624290  0.045884  1
  Tl  Tl3  1  0.500000  0.333333  0.666667  1
  Tl  Tl4  1  0.000000  0.000000  0.000000  1
  Cd  Cd5  1  0.500000  0.711968  0.713999  1
  Cd  Cd6  1  0.500000  0.002031  0.288032  1
  Cd  Cd7  1  0.500000  0.286001  0.997969  1
  Ir  Ir8  1  0.500000  0.666667  0.333333  1
