# generated using pymatgen
data_TbDyFe3Ni7P6
_symmetry_space_group_name_H-M   'P 1'
_cell_length_a   3.70935900
_cell_length_b   10.32029800
_cell_length_c   11.91012100
_cell_angle_alpha   90.00000000
_cell_angle_beta   90.00000000
_cell_angle_gamma   90.00000000
_symmetry_Int_Tables_number   1
_chemical_formula_structural   TbDyFe3Ni7P6
_chemical_formula_sum   'Tb2 Dy2 Fe6 Ni14 P12'
_cell_volume   455.93956319
_cell_formula_units_Z   2
loop_
 _symmetry_equiv_pos_site_id
 _symmetry_equiv_pos_as_xyz
  1  'x, y, z'
loop_
 _atom_site_type_symbol
 _atom_site_label
 _atom_site_symmetry_multiplicity
 _atom_site_fract_x
 _atom_site_fract_y
 _atom_site_fract_z
 _atom_site_occupancy
  Tb  Tb0  1  0.750000  0.419215  0.295351  1
  Tb  Tb1  1  0.750000  0.080785  0.795351  1
  Dy  Dy2  1  0.250000  0.575826  0.704454  1
  Dy  Dy3  1  0.250000  0.924174  0.204454  1
  Fe  Fe4  1  0.750000  0.125241  0.298778  1
  Fe  Fe5  1  0.750000  0.374759  0.798778  1
  Fe  Fe6  1  0.250000  0.465448  0.932246  1
  Fe  Fe7  1  0.250000  0.034552  0.432246  1
  Fe  Fe8  1  0.750000  0.539534  0.068651  1
  Fe  Fe9  1  0.750000  0.960466  0.568651  1
  Ni  Ni10  1  0.250000  0.716917  0.998358  1
  Ni  Ni11  1  0.250000  0.783083  0.498358  1
  Ni  Ni12  1  0.750000  0.289039  0.008038  1
  Ni  Ni13  1  0.750000  0.210961  0.508038  1
  Ni  Ni14  1  0.250000  0.406383  0.485416  1
  Ni  Ni15  1  0.250000  0.093617  0.985416  1
  Ni  Ni16  1  0.750000  0.590056  0.511956  1
  Ni  Ni17  1  0.750000  0.909944  0.011956  1
  Ni  Ni18  1  0.250000  0.226499  0.171915  1
  Ni  Ni19  1  0.250000  0.273501  0.671915  1
  Ni  Ni20  1  0.750000  0.772864  0.824262  1
  Ni  Ni21  1  0.750000  0.727136  0.324262  1
  Ni  Ni22  1  0.250000  0.874551  0.703002  1
  Ni  Ni23  1  0.250000  0.625449  0.203002  1
  P  P24  1  0.250000  0.429701  0.111065  1
  P  P25  1  0.250000  0.070299  0.611065  1
  P  P26  1  0.750000  0.568898  0.886799  1
  P  P27  1  0.750000  0.931102  0.386799  1
  P  P28  1  0.250000  0.273171  0.864013  1
  P  P29  1  0.250000  0.226829  0.364013  1
  P  P30  1  0.750000  0.734042  0.131895  1
  P  P31  1  0.750000  0.765958  0.631895  1
  P  P32  1  0.250000  0.604415  0.393397  1
  P  P33  1  0.250000  0.895585  0.893397  1
  P  P34  1  0.750000  0.392907  0.610408  1
  P  P35  1  0.750000  0.107093  0.110408  1
