# generated using pymatgen
data_KRb2VO4
_symmetry_space_group_name_H-M   'P 1'
_cell_length_a   6.34682600
_cell_length_b   6.67007829
_cell_length_c   8.05088980
_cell_angle_alpha   88.33678368
_cell_angle_beta   90.00000000
_cell_angle_gamma   90.00000000
_symmetry_Int_Tables_number   1
_chemical_formula_structural   KRb2VO4
_chemical_formula_sum   'K2 Rb4 V2 O8'
_cell_volume   340.68138076
_cell_formula_units_Z   2
loop_
 _symmetry_equiv_pos_site_id
 _symmetry_equiv_pos_as_xyz
  1  'x, y, z'
loop_
 _atom_site_type_symbol
 _atom_site_label
 _atom_site_symmetry_multiplicity
 _atom_site_fract_x
 _atom_site_fract_y
 _atom_site_fract_z
 _atom_site_occupancy
  K  K0  1  0.250000  0.888130  0.960292  1
  K  K1  1  0.750000  0.111870  0.039708  1
  Rb  Rb2  1  0.750000  0.187325  0.510190  1
  Rb  Rb3  1  0.250000  0.812675  0.489810  1
  Rb  Rb4  1  0.250000  0.422165  0.175882  1
  Rb  Rb5  1  0.750000  0.577835  0.824118  1
  V  V6  1  0.750000  0.686794  0.276162  1
  V  V7  1  0.250000  0.313206  0.723838  1
  O  O8  1  0.973196  0.810895  0.196012  1
  O  O9  1  0.473196  0.189105  0.803988  1
  O  O10  1  0.026804  0.189105  0.803988  1
  O  O11  1  0.526804  0.810895  0.196012  1
  O  O12  1  0.250000  0.561833  0.790166  1
  O  O13  1  0.250000  0.300797  0.508306  1
  O  O14  1  0.750000  0.438167  0.209834  1
  O  O15  1  0.750000  0.699203  0.491694  1
