# generated using pymatgen
data_DyLuPa2(Al3Ir)6
_symmetry_space_group_name_H-M   'P 1'
_cell_length_a   7.58910412
_cell_length_b   7.59864068
_cell_length_c   9.35075600
_cell_angle_alpha   90.00000000
_cell_angle_beta   90.00000000
_cell_angle_gamma   119.70431121
_symmetry_Int_Tables_number   1
_chemical_formula_structural   DyLuPa2(Al3Ir)6
_chemical_formula_sum   'Dy1 Lu1 Pa2 Al18 Ir6'
_cell_volume   468.37109430
_cell_formula_units_Z   1
loop_
 _symmetry_equiv_pos_site_id
 _symmetry_equiv_pos_as_xyz
  1  'x, y, z'
loop_
 _atom_site_type_symbol
 _atom_site_label
 _atom_site_symmetry_multiplicity
 _atom_site_fract_x
 _atom_site_fract_y
 _atom_site_fract_z
 _atom_site_occupancy
  Dy  Dy0  1  0.669506  0.993239  0.250000  1
  Lu  Lu1  1  0.330038  0.006821  0.750000  1
  Pa  Pa2  1  0.998138  0.670992  0.250000  1
  Pa  Pa3  1  0.001847  0.328934  0.750000  1
  Al  Al4  1  0.131240  0.127114  0.250000  1
  Al  Al5  1  0.869596  0.873149  0.750000  1
  Al  Al6  1  0.000649  0.331458  0.077971  1
  Al  Al7  1  0.000306  0.669380  0.921189  1
  Al  Al8  1  0.000306  0.669380  0.578811  1
  Al  Al9  1  0.338108  0.003207  0.426372  1
  Al  Al10  1  0.000649  0.331458  0.422029  1
  Al  Al11  1  0.661007  0.996781  0.575234  1
  Al  Al12  1  0.661007  0.996781  0.924766  1
  Al  Al13  1  0.338108  0.003207  0.073628  1
  Al  Al14  1  0.335114  0.332801  0.554505  1
  Al  Al15  1  0.664876  0.666511  0.446466  1
  Al  Al16  1  0.664876  0.666511  0.053534  1
  Al  Al17  1  0.335114  0.332801  0.945495  1
  Al  Al18  1  0.341325  0.547649  0.250000  1
  Al  Al19  1  0.657985  0.451345  0.750000  1
  Al  Al20  1  0.548635  0.340412  0.250000  1
  Al  Al21  1  0.450978  0.659788  0.750000  1
  Ir  Ir22  1  0.676050  0.329707  0.999163  1
  Ir  Ir23  1  0.323643  0.670290  0.000146  1
  Ir  Ir24  1  0.323643  0.670290  0.499854  1
  Ir  Ir25  1  0.676050  0.329707  0.500837  1
  Ir  Ir26  1  0.000603  0.000142  0.999521  1
  Ir  Ir27  1  0.000603  0.000142  0.500479  1
