# generated using pymatgen
data_TbHo3Th4(ReC2)4
_symmetry_space_group_name_H-M   'P 1'
_cell_length_a   5.27641400
_cell_length_b   6.66080050
_cell_length_c   9.86853069
_cell_angle_alpha   90.09922682
_cell_angle_beta   90.00000000
_cell_angle_gamma   90.00000000
_symmetry_Int_Tables_number   1
_chemical_formula_structural   TbHo3Th4(ReC2)4
_chemical_formula_sum   'Tb1 Ho3 Th4 Re4 C8'
_cell_volume   346.83038274
_cell_formula_units_Z   1
loop_
 _symmetry_equiv_pos_site_id
 _symmetry_equiv_pos_as_xyz
  1  'x, y, z'
loop_
 _atom_site_type_symbol
 _atom_site_label
 _atom_site_symmetry_multiplicity
 _atom_site_fract_x
 _atom_site_fract_y
 _atom_site_fract_z
 _atom_site_occupancy
  Tb  Tb0  1  0.250000  0.822241  0.050533  1
  Ho  Ho1  1  0.750000  0.675400  0.551639  1
  Ho  Ho2  1  0.250000  0.324289  0.448454  1
  Ho  Ho3  1  0.750000  0.175952  0.948325  1
  Th  Th4  1  0.250000  0.471083  0.784762  1
  Th  Th5  1  0.750000  0.028920  0.285059  1
  Th  Th6  1  0.250000  0.971379  0.714255  1
  Th  Th7  1  0.750000  0.528997  0.215147  1
  Re  Re8  1  0.250000  0.271952  0.136729  1
  Re  Re9  1  0.750000  0.228099  0.636227  1
  Re  Re10  1  0.250000  0.771954  0.364243  1
  Re  Re11  1  0.750000  0.728265  0.863146  1
  C  C12  1  0.250000  0.171777  0.947696  1
  C  C13  1  0.750000  0.829933  0.051841  1
  C  C14  1  0.250000  0.669816  0.552360  1
  C  C15  1  0.750000  0.330148  0.447867  1
  C  C16  1  0.250000  0.040531  0.262185  1
  C  C17  1  0.750000  0.459825  0.761374  1
  C  C18  1  0.250000  0.539339  0.239670  1
  C  C19  1  0.750000  0.960101  0.738486  1
