# generated using pymatgen
data_Er6TaNb3Al12Os7
_symmetry_space_group_name_H-M   'P 1'
_cell_length_a   9.02199858
_cell_length_b   9.02199930
_cell_length_c   9.02200007
_cell_angle_alpha   60.01052899
_cell_angle_beta   60.01052403
_cell_angle_gamma   60.01052442
_symmetry_Int_Tables_number   1
_chemical_formula_structural   Er6TaNb3Al12Os7
_chemical_formula_sum   'Er6 Ta1 Nb3 Al12 Os7'
_cell_volume   519.39407947
_cell_formula_units_Z   1
loop_
 _symmetry_equiv_pos_site_id
 _symmetry_equiv_pos_as_xyz
  1  'x, y, z'
loop_
 _atom_site_type_symbol
 _atom_site_label
 _atom_site_symmetry_multiplicity
 _atom_site_fract_x
 _atom_site_fract_y
 _atom_site_fract_z
 _atom_site_occupancy
  Er  Er0  1  0.707040  0.707040  0.293325  1
  Er  Er1  1  0.292159  0.707454  0.292159  1
  Er  Er2  1  0.707454  0.292159  0.292159  1
  Er  Er3  1  0.292159  0.292159  0.707454  1
  Er  Er4  1  0.707040  0.293325  0.707040  1
  Er  Er5  1  0.293325  0.707040  0.707040  1
  Ta  Ta6  1  0.879477  0.879477  0.879477  1
  Nb  Nb7  1  0.879269  0.879269  0.361760  1
  Nb  Nb8  1  0.879269  0.361760  0.879269  1
  Nb  Nb9  1  0.361760  0.879269  0.879269  1
  Al  Al10  1  0.120498  0.120498  0.637565  1
  Al  Al11  1  0.120498  0.637565  0.120498  1
  Al  Al12  1  0.637565  0.120498  0.120498  1
  Al  Al13  1  0.121012  0.121012  0.121012  1
  Al  Al14  1  0.665882  0.665882  0.002790  1
  Al  Al15  1  0.665882  0.002790  0.665882  1
  Al  Al16  1  0.002790  0.665882  0.665882  1
  Al  Al17  1  0.666052  0.666052  0.666052  1
  Al  Al18  1  0.331578  0.331578  0.005286  1
  Al  Al19  1  0.331578  0.005286  0.331578  1
  Al  Al20  1  0.005286  0.331578  0.331578  1
  Al  Al21  1  0.331472  0.331472  0.331472  1
  Os  Os22  1  0.999742  0.999742  0.999742  1
  Os  Os23  1  0.996039  0.996039  0.505341  1
  Os  Os24  1  0.503773  0.996252  0.503773  1
  Os  Os25  1  0.996252  0.503773  0.503773  1
  Os  Os26  1  0.503773  0.503773  0.996252  1
  Os  Os27  1  0.996039  0.505341  0.996039  1
  Os  Os28  1  0.505341  0.996039  0.996039  1
