# generated using pymatgen
data_Dy10GaBi3Pt2
_symmetry_space_group_name_H-M   'P 1'
_cell_length_a   8.05204489
_cell_length_b   9.01668753
_cell_length_c   12.37665400
_cell_angle_alpha   90.22832111
_cell_angle_beta   89.96078548
_cell_angle_gamma   90.17490928
_symmetry_Int_Tables_number   1
_chemical_formula_structural   Dy10GaBi3Pt2
_chemical_formula_sum   'Dy20 Ga2 Bi6 Pt4'
_cell_volume   898.56787276
_cell_formula_units_Z   2
loop_
 _symmetry_equiv_pos_site_id
 _symmetry_equiv_pos_as_xyz
  1  'x, y, z'
loop_
 _atom_site_type_symbol
 _atom_site_label
 _atom_site_symmetry_multiplicity
 _atom_site_fract_x
 _atom_site_fract_y
 _atom_site_fract_z
 _atom_site_occupancy
  Dy  Dy0  1  0.827024  0.739796  0.792455  1
  Dy  Dy1  1  0.172976  0.260204  0.207545  1
  Dy  Dy2  1  0.344064  0.260699  0.716486  1
  Dy  Dy3  1  0.655936  0.739301  0.283514  1
  Dy  Dy4  1  0.382181  0.739170  0.704154  1
  Dy  Dy5  1  0.617819  0.260830  0.295846  1
  Dy  Dy6  1  0.857747  0.260748  0.802245  1
  Dy  Dy7  1  0.142253  0.739252  0.197755  1
  Dy  Dy8  1  0.951534  0.752311  0.498767  1
  Dy  Dy9  1  0.048466  0.247689  0.501233  1
  Dy  Dy10  1  0.460280  0.271710  0.000143  1
  Dy  Dy11  1  0.539720  0.728290  0.999857  1
  Dy  Dy12  1  0.679487  0.044083  0.566442  1
  Dy  Dy13  1  0.320513  0.955917  0.433558  1
  Dy  Dy14  1  0.181672  0.960653  0.934899  1
  Dy  Dy15  1  0.326716  0.541399  0.423903  1
  Dy  Dy16  1  0.818328  0.039347  0.065101  1
  Dy  Dy17  1  0.673284  0.458601  0.576097  1
  Dy  Dy18  1  0.814612  0.458904  0.064055  1
  Dy  Dy19  1  0.185388  0.541096  0.935945  1
  Ga  Ga20  1  0.566470  0.493815  0.827536  1
  Ga  Ga21  1  0.433530  0.506185  0.172464  1
  Bi  Bi22  1  0.069369  0.510814  0.671440  1
  Bi  Bi23  1  0.430682  0.991174  0.168542  1
  Bi  Bi24  1  0.930631  0.489186  0.328560  1
  Bi  Bi25  1  0.569318  0.008826  0.831458  1
  Bi  Bi26  1  0.928994  0.009382  0.323823  1
  Bi  Bi27  1  0.071006  0.990618  0.676177  1
  Pt  Pt28  1  0.572806  0.750106  0.510438  1
  Pt  Pt29  1  0.427194  0.249894  0.489562  1
  Pt  Pt30  1  0.066660  0.250437  0.988081  1
  Pt  Pt31  1  0.933340  0.749563  0.011919  1
