# generated using pymatgen
data_HfPd5Au2
_symmetry_space_group_name_H-M   'P 1'
_cell_length_a   8.43627941
_cell_length_b   8.43627914
_cell_length_c   8.43628100
_cell_angle_alpha   152.01411527
_cell_angle_beta   152.01411154
_cell_angle_gamma   39.99269115
_symmetry_Int_Tables_number   1
_chemical_formula_structural   HfPd5Au2
_chemical_formula_sum   'Hf1 Pd5 Au2'
_cell_volume   131.95626018
_cell_formula_units_Z   1
loop_
 _symmetry_equiv_pos_site_id
 _symmetry_equiv_pos_as_xyz
  1  'x, y, z'
loop_
 _atom_site_type_symbol
 _atom_site_label
 _atom_site_symmetry_multiplicity
 _atom_site_fract_x
 _atom_site_fract_y
 _atom_site_fract_z
 _atom_site_occupancy
  Hf  Hf0  1  0.000000  0.000000  0.000000  1
  Pd  Pd1  1  0.500000  0.500000  0.000000  1
  Pd  Pd2  1  0.879321  0.379321  0.500000  1
  Pd  Pd3  1  0.379321  0.879321  0.500000  1
  Pd  Pd4  1  0.120679  0.620679  0.500000  1
  Pd  Pd5  1  0.620679  0.120679  0.500000  1
  Au  Au6  1  0.748300  0.748300  0.000000  1
  Au  Au7  1  0.251700  0.251700  0.000000  1
