# generated using pymatgen
data_Ho6Tm4InSb5
_symmetry_space_group_name_H-M   'P 1'
_cell_length_a   8.88697600
_cell_length_b   8.89752543
_cell_length_c   6.33479400
_cell_angle_alpha   90.00000000
_cell_angle_beta   90.00000000
_cell_angle_gamma   119.96078648
_symmetry_Int_Tables_number   1
_chemical_formula_structural   Ho6Tm4InSb5
_chemical_formula_sum   'Ho6 Tm4 In1 Sb5'
_cell_volume   433.96813888
_cell_formula_units_Z   1
loop_
 _symmetry_equiv_pos_site_id
 _symmetry_equiv_pos_as_xyz
  1  'x, y, z'
loop_
 _atom_site_type_symbol
 _atom_site_label
 _atom_site_symmetry_multiplicity
 _atom_site_fract_x
 _atom_site_fract_y
 _atom_site_fract_z
 _atom_site_occupancy
  Ho  Ho0  1  0.757059  0.000000  0.750000  1
  Ho  Ho1  1  0.753755  0.755804  0.250000  1
  Ho  Ho2  1  0.997951  0.244196  0.250000  1
  Ho  Ho3  1  0.003986  0.758152  0.750000  1
  Ho  Ho4  1  0.245834  0.241848  0.750000  1
  Ho  Ho5  1  0.242106  0.000000  0.250000  1
  Tm  Tm6  1  0.333885  0.669132  0.000598  1
  Tm  Tm7  1  0.664754  0.330868  0.499402  1
  Tm  Tm8  1  0.664754  0.330868  0.000598  1
  Tm  Tm9  1  0.333885  0.669132  0.499402  1
  In  In10  1  0.395394  0.000000  0.750000  1
  Sb  Sb11  1  0.389160  0.390863  0.250000  1
  Sb  Sb12  1  0.998298  0.609137  0.250000  1
  Sb  Sb13  1  0.000944  0.390455  0.750000  1
  Sb  Sb14  1  0.610490  0.609545  0.750000  1
  Sb  Sb15  1  0.607745  0.000000  0.250000  1
