# generated using pymatgen
data_Cs3Rb2BaTaAs4
_symmetry_space_group_name_H-M   'P 1'
_cell_length_a   11.16336944
_cell_length_b   11.16336955
_cell_length_c   8.32097173
_cell_angle_alpha   88.39819817
_cell_angle_beta   88.39820444
_cell_angle_gamma   120.67388245
_symmetry_Int_Tables_number   1
_chemical_formula_structural   Cs3Rb2BaTaAs4
_chemical_formula_sum   'Cs6 Rb4 Ba2 Ta2 As8'
_cell_volume   890.45527266
_cell_formula_units_Z   2
loop_
 _symmetry_equiv_pos_site_id
 _symmetry_equiv_pos_as_xyz
  1  'x, y, z'
loop_
 _atom_site_type_symbol
 _atom_site_label
 _atom_site_symmetry_multiplicity
 _atom_site_fract_x
 _atom_site_fract_y
 _atom_site_fract_z
 _atom_site_occupancy
  Cs  Cs0  1  0.866890  0.139891  0.682081  1
  Cs  Cs1  1  0.291752  0.152199  0.723814  1
  Cs  Cs2  1  0.855990  0.717969  0.658416  1
  Cs  Cs3  1  0.139891  0.866890  0.182081  1
  Cs  Cs4  1  0.717969  0.855990  0.158416  1
  Cs  Cs5  1  0.152199  0.291752  0.223814  1
  Rb  Rb6  1  0.465541  0.526766  0.497719  1
  Rb  Rb7  1  0.060159  0.528399  0.500317  1
  Rb  Rb8  1  0.526766  0.465541  0.997719  1
  Rb  Rb9  1  0.528399  0.060159  0.000317  1
  Ba  Ba10  1  0.464217  0.935375  0.493021  1
  Ba  Ba11  1  0.935375  0.464217  0.993021  1
  Ta  Ta12  1  0.669262  0.329850  0.391092  1
  Ta  Ta13  1  0.329850  0.669262  0.891092  1
  As  As14  1  0.685838  0.336934  0.693331  1
  As  As15  1  0.336934  0.685838  0.193331  1
  As  As16  1  0.787413  0.204098  0.285347  1
  As  As17  1  0.417365  0.197519  0.321540  1
  As  As18  1  0.793145  0.573429  0.267611  1
  As  As19  1  0.204098  0.787413  0.785347  1
  As  As20  1  0.573429  0.793145  0.767611  1
  As  As21  1  0.197519  0.417365  0.821540  1
