# generated using pymatgen
data_Y20CoBi8Rh3
_symmetry_space_group_name_H-M   'P 1'
_cell_length_a   8.04875495
_cell_length_b   9.00861600
_cell_length_c   12.46584714
_cell_angle_alpha   90.00000000
_cell_angle_beta   89.83515509
_cell_angle_gamma   90.00000000
_symmetry_Int_Tables_number   1
_chemical_formula_structural   Y20CoBi8Rh3
_chemical_formula_sum   'Y20 Co1 Bi8 Rh3'
_cell_volume   903.87168091
_cell_formula_units_Z   1
loop_
 _symmetry_equiv_pos_site_id
 _symmetry_equiv_pos_as_xyz
  1  'x, y, z'
loop_
 _atom_site_type_symbol
 _atom_site_label
 _atom_site_symmetry_multiplicity
 _atom_site_fract_x
 _atom_site_fract_y
 _atom_site_fract_z
 _atom_site_occupancy
  Y  Y0  1  0.345428  0.750000  0.700192  1
  Y  Y1  1  0.657740  0.250000  0.293532  1
  Y  Y2  1  0.842410  0.250000  0.793428  1
  Y  Y3  1  0.157556  0.750000  0.206188  1
  Y  Y4  1  0.879140  0.750000  0.805556  1
  Y  Y5  1  0.121548  0.250000  0.194022  1
  Y  Y6  1  0.378543  0.250000  0.694038  1
  Y  Y7  1  0.615445  0.750000  0.311000  1
  Y  Y8  1  0.677330  0.545050  0.564518  1
  Y  Y9  1  0.323399  0.465399  0.436060  1
  Y  Y10  1  0.178508  0.457656  0.933842  1
  Y  Y11  1  0.323399  0.034601  0.436060  1
  Y  Y12  1  0.821023  0.541689  0.066041  1
  Y  Y13  1  0.677330  0.954950  0.564518  1
  Y  Y14  1  0.821023  0.958311  0.066041  1
  Y  Y15  1  0.178508  0.042344  0.933842  1
  Y  Y16  1  0.050854  0.750000  0.498888  1
  Y  Y17  1  0.950789  0.250000  0.501423  1
  Y  Y18  1  0.547001  0.250000  0.000796  1
  Y  Y19  1  0.451467  0.750000  0.998202  1
  Co  Co20  1  0.432296  0.750000  0.491691  1
  Bi  Bi21  1  0.570861  0.509667  0.826285  1
  Bi  Bi22  1  0.429170  0.491037  0.173654  1
  Bi  Bi23  1  0.071698  0.490624  0.672671  1
  Bi  Bi24  1  0.429170  0.008963  0.173654  1
  Bi  Bi25  1  0.928589  0.509929  0.327485  1
  Bi  Bi26  1  0.570861  0.990333  0.826285  1
  Bi  Bi27  1  0.928589  0.990071  0.327485  1
  Bi  Bi28  1  0.071698  0.009376  0.672671  1
  Rh  Rh29  1  0.070523  0.750000  0.990455  1
  Rh  Rh30  1  0.928057  0.250000  0.010198  1
  Rh  Rh31  1  0.570047  0.250000  0.509280  1
