# generated using pymatgen
data_ThSc5Co2
_symmetry_space_group_name_H-M   'P 1'
_cell_length_a   5.94395000
_cell_length_b   8.87280700
_cell_length_c   13.24478800
_cell_angle_alpha   90.00000000
_cell_angle_beta   90.00000000
_cell_angle_gamma   90.00000000
_symmetry_Int_Tables_number   1
_chemical_formula_structural   ThSc5Co2
_chemical_formula_sum   'Th4 Sc20 Co8'
_cell_volume   698.52377709
_cell_formula_units_Z   4
loop_
 _symmetry_equiv_pos_site_id
 _symmetry_equiv_pos_as_xyz
  1  'x, y, z'
loop_
 _atom_site_type_symbol
 _atom_site_label
 _atom_site_symmetry_multiplicity
 _atom_site_fract_x
 _atom_site_fract_y
 _atom_site_fract_z
 _atom_site_occupancy
  Th  Th0  1  0.573441  0.750000  0.350190  1
  Th  Th1  1  0.073441  0.250000  0.149810  1
  Th  Th2  1  0.426559  0.250000  0.649810  1
  Th  Th3  1  0.926559  0.750000  0.850190  1
  Sc  Sc4  1  0.782751  0.750000  0.104695  1
  Sc  Sc5  1  0.282751  0.250000  0.395305  1
  Sc  Sc6  1  0.217249  0.250000  0.895305  1
  Sc  Sc7  1  0.717249  0.750000  0.604695  1
  Sc  Sc8  1  0.410190  0.930913  0.790796  1
  Sc  Sc9  1  0.910190  0.069087  0.709204  1
  Sc  Sc10  1  0.589810  0.430913  0.209204  1
  Sc  Sc11  1  0.089810  0.569087  0.290796  1
  Sc  Sc12  1  0.589810  0.069087  0.209204  1
  Sc  Sc13  1  0.089810  0.930913  0.290796  1
  Sc  Sc14  1  0.410190  0.569087  0.790796  1
  Sc  Sc15  1  0.910190  0.430913  0.709204  1
  Sc  Sc16  1  0.238314  0.930367  0.536288  1
  Sc  Sc17  1  0.738314  0.069633  0.963712  1
  Sc  Sc18  1  0.761686  0.430367  0.463712  1
  Sc  Sc19  1  0.261686  0.569633  0.036288  1
  Sc  Sc20  1  0.761686  0.069633  0.463712  1
  Sc  Sc21  1  0.261686  0.930367  0.036288  1
  Sc  Sc22  1  0.238314  0.569633  0.536288  1
  Sc  Sc23  1  0.738314  0.430367  0.963712  1
  Co  Co24  1  0.953674  0.750000  0.443059  1
  Co  Co25  1  0.453674  0.250000  0.056941  1
  Co  Co26  1  0.046326  0.250000  0.556941  1
  Co  Co27  1  0.546326  0.750000  0.943059  1
  Co  Co28  1  0.376312  0.750000  0.185132  1
  Co  Co29  1  0.876312  0.250000  0.314868  1
  Co  Co30  1  0.623688  0.250000  0.814868  1
  Co  Co31  1  0.123688  0.750000  0.685132  1
