# generated using pymatgen
data_Tm5AlSb2
_symmetry_space_group_name_H-M   'P 1'
_cell_length_a   8.74366500
_cell_length_b   8.79047939
_cell_length_c   6.32834500
_cell_angle_alpha   90.00000000
_cell_angle_beta   90.00000000
_cell_angle_gamma   119.82398335
_symmetry_Int_Tables_number   1
_chemical_formula_structural   Tm5AlSb2
_chemical_formula_sum   'Tm10 Al2 Sb4'
_cell_volume   421.98247071
_cell_formula_units_Z   2
loop_
 _symmetry_equiv_pos_site_id
 _symmetry_equiv_pos_as_xyz
  1  'x, y, z'
loop_
 _atom_site_type_symbol
 _atom_site_label
 _atom_site_symmetry_multiplicity
 _atom_site_fract_x
 _atom_site_fract_y
 _atom_site_fract_z
 _atom_site_occupancy
  Tm  Tm0  1  0.340199  0.680399  0.000000  1
  Tm  Tm1  1  0.659801  0.319601  0.500000  1
  Tm  Tm2  1  0.659801  0.319601  0.000000  1
  Tm  Tm3  1  0.340199  0.680399  0.500000  1
  Tm  Tm4  1  0.243018  0.000000  0.250000  1
  Tm  Tm5  1  0.756982  0.000000  0.750000  1
  Tm  Tm6  1  0.988114  0.232266  0.250000  1
  Tm  Tm7  1  0.755849  0.767734  0.250000  1
  Tm  Tm8  1  0.244151  0.232266  0.750000  1
  Tm  Tm9  1  0.011886  0.767734  0.750000  1
  Al  Al10  1  0.599150  0.000000  0.250000  1
  Al  Al11  1  0.400850  0.000000  0.750000  1
  Sb  Sb12  1  0.994908  0.606029  0.250000  1
  Sb  Sb13  1  0.388879  0.393971  0.250000  1
  Sb  Sb14  1  0.611121  0.606029  0.750000  1
  Sb  Sb15  1  0.005092  0.393971  0.750000  1
