# generated using pymatgen
data_Ac2PtN2
_symmetry_space_group_name_H-M   'P 1'
_cell_length_a   3.90028465
_cell_length_b   3.90031127
_cell_length_c   7.07218083
_cell_angle_alpha   105.97677265
_cell_angle_beta   106.00664419
_cell_angle_gamma   89.99999515
_symmetry_Int_Tables_number   1
_chemical_formula_structural   Ac2PtN2
_chemical_formula_sum   'Ac2 Pt1 N2'
_cell_volume   99.08283035
_cell_formula_units_Z   1
loop_
 _symmetry_equiv_pos_site_id
 _symmetry_equiv_pos_as_xyz
  1  'x, y, z'
loop_
 _atom_site_type_symbol
 _atom_site_label
 _atom_site_symmetry_multiplicity
 _atom_site_fract_x
 _atom_site_fract_y
 _atom_site_fract_z
 _atom_site_occupancy
  Ac  Ac0  1  0.147131  0.147507  0.794263  1
  Ac  Ac1  1  0.852869  0.852493  0.205737  1
  Pt  Pt2  1  0.500000  0.500000  0.500000  1
  N  N3  1  0.662909  0.662220  0.825817  1
  N  N4  1  0.337091  0.337780  0.174183  1
