# generated using pymatgen
data_Tb16Cd4Ni2RuPt
_symmetry_space_group_name_H-M   'P 1'
_cell_length_a   9.62127658
_cell_length_b   9.62127601
_cell_length_c   9.68141303
_cell_angle_alpha   60.07609040
_cell_angle_beta   60.07609387
_cell_angle_gamma   59.66772349
_symmetry_Int_Tables_number   1
_chemical_formula_structural   Tb16Cd4Ni2RuPt
_chemical_formula_sum   'Tb16 Cd4 Ni2 Ru1 Pt1'
_cell_volume   632.82366029
_cell_formula_units_Z   1
loop_
 _symmetry_equiv_pos_site_id
 _symmetry_equiv_pos_as_xyz
  1  'x, y, z'
loop_
 _atom_site_type_symbol
 _atom_site_label
 _atom_site_symmetry_multiplicity
 _atom_site_fract_x
 _atom_site_fract_y
 _atom_site_fract_z
 _atom_site_occupancy
  Tb  Tb0  1  0.347665  0.347665  0.344279  1
  Tb  Tb1  1  0.355806  0.355806  0.947375  1
  Tb  Tb2  1  0.353975  0.950802  0.351807  1
  Tb  Tb3  1  0.950802  0.353975  0.351807  1
  Tb  Tb4  1  0.805063  0.188084  0.192174  1
  Tb  Tb5  1  0.186293  0.811501  0.811285  1
  Tb  Tb6  1  0.188084  0.805063  0.192174  1
  Tb  Tb7  1  0.811501  0.186293  0.811285  1
  Tb  Tb8  1  0.189636  0.189636  0.806721  1
  Tb  Tb9  1  0.810486  0.810486  0.188155  1
  Tb  Tb10  1  0.937201  0.560775  0.567153  1
  Tb  Tb11  1  0.560641  0.937814  0.936825  1
  Tb  Tb12  1  0.560775  0.937201  0.567153  1
  Tb  Tb13  1  0.937814  0.560641  0.936825  1
  Tb  Tb14  1  0.565797  0.565797  0.936610  1
  Tb  Tb15  1  0.938787  0.938787  0.563068  1
  Cd  Cd16  1  0.579966  0.579966  0.582400  1
  Cd  Cd17  1  0.579434  0.579434  0.257287  1
  Cd  Cd18  1  0.580104  0.255931  0.580993  1
  Cd  Cd19  1  0.255931  0.580104  0.580993  1
  Ni  Ni20  1  0.142563  0.574183  0.139547  1
  Ni  Ni21  1  0.574183  0.142563  0.139547  1
  Ru  Ru22  1  0.141699  0.141699  0.575237  1
  Pt  Pt23  1  0.145793  0.145793  0.139300  1
