# generated using pymatgen
data_NaTm3As6Ir7
_symmetry_space_group_name_H-M   'P 1'
_cell_length_a   7.23096245
_cell_length_b   7.24615433
_cell_length_c   7.23096192
_cell_angle_alpha   109.51378888
_cell_angle_beta   109.42862671
_cell_angle_gamma   109.51378771
_symmetry_Int_Tables_number   1
_chemical_formula_structural   NaTm3As6Ir7
_chemical_formula_sum   'Na1 Tm3 As6 Ir7'
_cell_volume   291.50728187
_cell_formula_units_Z   1
loop_
 _symmetry_equiv_pos_site_id
 _symmetry_equiv_pos_as_xyz
  1  'x, y, z'
loop_
 _atom_site_type_symbol
 _atom_site_label
 _atom_site_symmetry_multiplicity
 _atom_site_fract_x
 _atom_site_fract_y
 _atom_site_fract_z
 _atom_site_occupancy
  Na  Na0  1  0.000000  0.500000  0.000000  1
  Tm  Tm1  1  0.000000  0.000000  0.500000  1
  Tm  Tm2  1  0.500000  0.000000  0.000000  1
  Tm  Tm3  1  0.500000  0.500000  0.500000  1
  As  As4  1  0.313836  0.992168  0.313836  1
  As  As5  1  0.000000  0.321668  0.313836  1
  As  As6  1  0.000000  0.678332  0.686164  1
  As  As7  1  0.313836  0.321668  0.000000  1
  As  As8  1  0.686164  0.678332  0.000000  1
  As  As9  1  0.686164  0.007832  0.686164  1
  Ir  Ir10  1  0.746873  0.500000  0.253127  1
  Ir  Ir11  1  0.506254  0.753127  0.253127  1
  Ir  Ir12  1  0.493746  0.246873  0.746873  1
  Ir  Ir13  1  0.746873  0.246873  0.493746  1
  Ir  Ir14  1  0.253127  0.753127  0.506254  1
  Ir  Ir15  1  0.253127  0.500000  0.746873  1
  Ir  Ir16  1  0.000000  0.000000  0.000000  1
