# generated using pymatgen
data_Tm2Re2Si2B
_symmetry_space_group_name_H-M   'P 1'
_cell_length_a   5.73745504
_cell_length_b   5.73745433
_cell_length_c   6.82042890
_cell_angle_alpha   56.94030359
_cell_angle_beta   56.94032033
_cell_angle_gamma   41.10622215
_symmetry_Int_Tables_number   1
_chemical_formula_structural   Tm2Re2Si2B
_chemical_formula_sum   'Tm2 Re2 Si2 B1'
_cell_volume   119.97225800
_cell_formula_units_Z   1
loop_
 _symmetry_equiv_pos_site_id
 _symmetry_equiv_pos_as_xyz
  1  'x, y, z'
loop_
 _atom_site_type_symbol
 _atom_site_label
 _atom_site_symmetry_multiplicity
 _atom_site_fract_x
 _atom_site_fract_y
 _atom_site_fract_z
 _atom_site_occupancy
  Tm  Tm0  1  0.423599  0.423599  0.302718  1
  Tm  Tm1  1  0.576401  0.576401  0.697282  1
  Re  Re2  1  0.782578  0.782578  0.093938  1
  Re  Re3  1  0.217422  0.217422  0.906062  1
  Si  Si4  1  0.863652  0.863652  0.669177  1
  Si  Si5  1  0.136348  0.136348  0.330823  1
  B  B6  1  0.000000  0.000000  0.000000  1
