# generated using pymatgen
data_NaB13C2
_symmetry_space_group_name_H-M   'P 1'
_cell_length_a   5.67765125
_cell_length_b   7.37362040
_cell_length_c   7.37362141
_cell_angle_alpha   95.86474196
_cell_angle_beta   112.64357552
_cell_angle_gamma   112.64357776
_symmetry_Int_Tables_number   1
_chemical_formula_structural   NaB13C2
_chemical_formula_sum   'Na2 B26 C4'
_cell_volume   251.32105000
_cell_formula_units_Z   2
loop_
 _symmetry_equiv_pos_site_id
 _symmetry_equiv_pos_as_xyz
  1  'x, y, z'
loop_
 _atom_site_type_symbol
 _atom_site_label
 _atom_site_symmetry_multiplicity
 _atom_site_fract_x
 _atom_site_fract_y
 _atom_site_fract_z
 _atom_site_occupancy
  Na  Na0  1  0.337112  0.587112  0.087112  1
  Na  Na1  1  0.662888  0.412888  0.912888  1
  B  B2  1  0.319973  0.225079  0.093646  1
  B  B3  1  0.998750  0.225079  0.093646  1
  B  B4  1  0.304593  0.979547  0.122999  1
  B  B5  1  0.797954  0.979547  0.122999  1
  B  B6  1  0.985486  0.819576  0.151396  1
  B  B7  1  0.175975  0.101329  0.250620  1
  B  B8  1  0.001247  0.406353  0.274920  1
  B  B9  1  0.680026  0.406353  0.274920  1
  B  B10  1  0.985486  0.651396  0.319576  1
  B  B11  1  0.643539  0.893539  0.393539  1
  B  B12  1  0.824025  0.249379  0.398671  1
  B  B13  1  0.304593  0.622999  0.479547  1
  B  B14  1  0.797954  0.622999  0.479547  1
  B  B15  1  0.202046  0.377001  0.520453  1
  B  B16  1  0.695407  0.377001  0.520453  1
  B  B17  1  0.175975  0.750621  0.601329  1
  B  B18  1  0.356461  0.106461  0.606461  1
  B  B19  1  0.014514  0.348604  0.680424  1
  B  B20  1  0.319974  0.593647  0.725080  1
  B  B21  1  0.998752  0.593647  0.725080  1
  B  B22  1  0.824025  0.898671  0.749380  1
  B  B23  1  0.014514  0.180424  0.848604  1
  B  B24  1  0.202046  0.020453  0.877001  1
  B  B25  1  0.695407  0.020453  0.877001  1
  B  B26  1  0.001250  0.774921  0.906354  1
  B  B27  1  0.680026  0.774921  0.906354  1
  C  C28  1  0.630879  0.010665  0.251093  1
  C  C29  1  0.369121  0.248906  0.489334  1
  C  C30  1  0.630879  0.751094  0.510666  1
  C  C31  1  0.369121  0.989335  0.748907  1
