# generated using pymatgen
data_U3BiF15
_symmetry_space_group_name_H-M   'P 1'
_cell_length_a   8.72947285
_cell_length_b   8.72947277
_cell_length_c   8.75544611
_cell_angle_alpha   79.73651801
_cell_angle_beta   79.73651997
_cell_angle_gamma   100.16320548
_symmetry_Int_Tables_number   1
_chemical_formula_structural   U3BiF15
_chemical_formula_sum   'U6 Bi2 F30'
_cell_volume   630.90496112
_cell_formula_units_Z   2
loop_
 _symmetry_equiv_pos_site_id
 _symmetry_equiv_pos_as_xyz
  1  'x, y, z'
loop_
 _atom_site_type_symbol
 _atom_site_label
 _atom_site_symmetry_multiplicity
 _atom_site_fract_x
 _atom_site_fract_y
 _atom_site_fract_z
 _atom_site_occupancy
  U  U0  1  0.750291  0.249709  0.250000  1
  U  U1  1  0.249709  0.750291  0.750000  1
  U  U2  1  0.751485  0.677801  0.676900  1
  U  U3  1  0.322199  0.248515  0.823100  1
  U  U4  1  0.248515  0.322199  0.323100  1
  U  U5  1  0.677801  0.751485  0.176900  1
  Bi  Bi6  1  0.176670  0.823330  0.250000  1
  Bi  Bi7  1  0.823330  0.176670  0.750000  1
  F  F8  1  0.465478  0.534522  0.250000  1
  F  F9  1  0.748872  0.958518  0.966357  1
  F  F10  1  0.041482  0.251128  0.533643  1
  F  F11  1  0.251128  0.041482  0.033643  1
  F  F12  1  0.958518  0.748872  0.466357  1
  F  F13  1  0.534522  0.465478  0.750000  1
  F  F14  1  0.223873  0.492045  0.774906  1
  F  F15  1  0.227323  0.722248  0.002140  1
  F  F16  1  0.990341  0.724437  0.779081  1
  F  F17  1  0.724437  0.990341  0.279081  1
  F  F18  1  0.722248  0.227323  0.502140  1
  F  F19  1  0.492045  0.223873  0.274906  1
  F  F20  1  0.776128  0.507955  0.225094  1
  F  F21  1  0.772677  0.277752  0.997860  1
  F  F22  1  0.009659  0.275563  0.220919  1
  F  F23  1  0.275563  0.009659  0.720919  1
  F  F24  1  0.277752  0.772677  0.497860  1
  F  F25  1  0.507955  0.776127  0.725094  1
  F  F26  1  0.545570  0.155838  0.813708  1
  F  F27  1  0.189066  0.057858  0.349345  1
  F  F28  1  0.651175  0.684254  0.445529  1
  F  F29  1  0.684254  0.651175  0.945529  1
  F  F30  1  0.057858  0.189066  0.849345  1
  F  F31  1  0.155838  0.545570  0.313708  1
  F  F32  1  0.454430  0.844162  0.186292  1
  F  F33  1  0.810934  0.942142  0.650655  1
  F  F34  1  0.348825  0.315746  0.554471  1
  F  F35  1  0.315746  0.348825  0.054471  1
  F  F36  1  0.942142  0.810934  0.150655  1
  F  F37  1  0.844162  0.454430  0.686292  1
