# generated using pymatgen
data_Er12Ni4SnHg
_symmetry_space_group_name_H-M   'P 1'
_cell_length_a   8.32225901
_cell_length_b   8.32225916
_cell_length_c   8.32225965
_cell_angle_alpha   113.01687846
_cell_angle_beta   109.17722012
_cell_angle_gamma   106.29043921
_symmetry_Int_Tables_number   1
_chemical_formula_structural   Er12Ni4SnHg
_chemical_formula_sum   'Er12 Ni4 Sn1 Hg1'
_cell_volume   442.16651490
_cell_formula_units_Z   1
loop_
 _symmetry_equiv_pos_site_id
 _symmetry_equiv_pos_as_xyz
  1  'x, y, z'
loop_
 _atom_site_type_symbol
 _atom_site_label
 _atom_site_symmetry_multiplicity
 _atom_site_fract_x
 _atom_site_fract_y
 _atom_site_fract_z
 _atom_site_occupancy
  Er  Er0  1  0.324643  0.132580  0.807937  1
  Er  Er1  1  0.675357  0.483295  0.807937  1
  Er  Er2  1  0.430778  0.727844  0.702934  1
  Er  Er3  1  0.569222  0.272156  0.297066  1
  Er  Er4  1  0.975089  0.272156  0.702934  1
  Er  Er5  1  0.024911  0.727844  0.297066  1
  Er  Er6  1  0.324643  0.516705  0.192063  1
  Er  Er7  1  0.675357  0.867420  0.192063  1
  Er  Er8  1  0.181709  0.794520  0.976230  1
  Er  Er9  1  0.818291  0.794520  0.612812  1
  Er  Er10  1  0.181709  0.205480  0.387188  1
  Er  Er11  1  0.818291  0.205480  0.023770  1
  Ni  Ni12  1  0.874546  0.874546  0.000000  1
  Ni  Ni13  1  0.125454  0.125454  0.000000  1
  Ni  Ni14  1  0.644073  0.500000  0.144073  1
  Ni  Ni15  1  0.355927  0.500000  0.855927  1
  Sn  Sn16  1  0.500000  0.000000  0.500000  1
  Hg  Hg17  1  0.000000  0.500000  0.500000  1
