# generated using pymatgen
data_LiTb10Nd6Cd3Ir4
_symmetry_space_group_name_H-M   'P 1'
_cell_length_a   9.77956637
_cell_length_b   9.77956623
_cell_length_c   9.77956655
_cell_angle_alpha   60.11792830
_cell_angle_beta   60.11792033
_cell_angle_gamma   60.11793161
_symmetry_Int_Tables_number   1
_chemical_formula_structural   LiTb10Nd6Cd3Ir4
_chemical_formula_sum   'Li1 Tb10 Nd6 Cd3 Ir4'
_cell_volume   663.13592518
_cell_formula_units_Z   1
loop_
 _symmetry_equiv_pos_site_id
 _symmetry_equiv_pos_as_xyz
  1  'x, y, z'
loop_
 _atom_site_type_symbol
 _atom_site_label
 _atom_site_symmetry_multiplicity
 _atom_site_fract_x
 _atom_site_fract_y
 _atom_site_fract_z
 _atom_site_occupancy
  Li  Li0  1  0.570720  0.570720  0.570720  1
  Tb  Tb1  1  0.347881  0.347881  0.347881  1
  Tb  Tb2  1  0.347506  0.347506  0.959479  1
  Tb  Tb3  1  0.347506  0.959479  0.347506  1
  Tb  Tb4  1  0.959479  0.347506  0.347506  1
  Tb  Tb5  1  0.811612  0.188911  0.188911  1
  Tb  Tb6  1  0.185040  0.814061  0.814061  1
  Tb  Tb7  1  0.188911  0.811612  0.188911  1
  Tb  Tb8  1  0.814061  0.185040  0.814061  1
  Tb  Tb9  1  0.188911  0.188911  0.811612  1
  Tb  Tb10  1  0.814061  0.814061  0.185040  1
  Nd  Nd11  1  0.938367  0.560276  0.560276  1
  Nd  Nd12  1  0.559654  0.939788  0.939788  1
  Nd  Nd13  1  0.560276  0.938367  0.560276  1
  Nd  Nd14  1  0.939788  0.559654  0.939788  1
  Nd  Nd15  1  0.560276  0.560276  0.938367  1
  Nd  Nd16  1  0.939788  0.939788  0.559654  1
  Cd  Cd17  1  0.580844  0.580844  0.259994  1
  Cd  Cd18  1  0.580844  0.259994  0.580844  1
  Cd  Cd19  1  0.259994  0.580844  0.580844  1
  Ir  Ir20  1  0.141876  0.141876  0.141876  1
  Ir  Ir21  1  0.142774  0.142774  0.577054  1
  Ir  Ir22  1  0.142774  0.577054  0.142774  1
  Ir  Ir23  1  0.577054  0.142774  0.142774  1
