# generated using pymatgen
data_Li3Y2HoPt3
_symmetry_space_group_name_H-M   'P 1'
_cell_length_a   7.11500298
_cell_length_b   7.13536759
_cell_length_c   4.06950800
_cell_angle_alpha   90.00000000
_cell_angle_beta   90.00000000
_cell_angle_gamma   120.09473637
_symmetry_Int_Tables_number   1
_chemical_formula_structural   Li3Y2HoPt3
_chemical_formula_sum   'Li3 Y2 Ho1 Pt3'
_cell_volume   178.75104741
_cell_formula_units_Z   1
loop_
 _symmetry_equiv_pos_site_id
 _symmetry_equiv_pos_as_xyz
  1  'x, y, z'
loop_
 _atom_site_type_symbol
 _atom_site_label
 _atom_site_symmetry_multiplicity
 _atom_site_fract_x
 _atom_site_fract_y
 _atom_site_fract_z
 _atom_site_occupancy
  Li  Li0  1  0.000000  0.231176  0.000000  1
  Li  Li1  1  0.767318  0.767573  0.000000  1
  Li  Li2  1  0.232682  0.000256  0.000000  1
  Y  Y3  1  0.410918  0.410757  0.500000  1
  Y  Y4  1  0.589082  0.999839  0.500000  1
  Ho  Ho5  1  0.000000  0.592327  0.500000  1
  Pt  Pt6  1  0.671092  0.336183  0.000000  1
  Pt  Pt7  1  0.000000  0.996796  0.500000  1
  Pt  Pt8  1  0.328908  0.665092  0.000000  1
