# generated using pymatgen
data_Er4Ga18(IrPd)3
_symmetry_space_group_name_H-M   'P 1'
_cell_length_a   7.61530265
_cell_length_b   7.61530122
_cell_length_c   9.48165879
_cell_angle_alpha   89.96465565
_cell_angle_beta   89.96465741
_cell_angle_gamma   119.80950594
_symmetry_Int_Tables_number   1
_chemical_formula_structural   Er4Ga18(IrPd)3
_chemical_formula_sum   'Er4 Ga18 Ir3 Pd3'
_cell_volume   477.11089181
_cell_formula_units_Z   1
loop_
 _symmetry_equiv_pos_site_id
 _symmetry_equiv_pos_as_xyz
  1  'x, y, z'
loop_
 _atom_site_type_symbol
 _atom_site_label
 _atom_site_symmetry_multiplicity
 _atom_site_fract_x
 _atom_site_fract_y
 _atom_site_fract_z
 _atom_site_occupancy
  Er  Er0  1  0.996551  0.668787  0.749602  1
  Er  Er1  1  0.002568  0.330679  0.249701  1
  Er  Er2  1  0.669321  0.997432  0.750299  1
  Er  Er3  1  0.331213  0.003449  0.250398  1
  Ga  Ga4  1  0.129254  0.127630  0.750513  1
  Ga  Ga5  1  0.872370  0.870746  0.249487  1
  Ga  Ga6  1  0.000712  0.335976  0.581448  1
  Ga  Ga7  1  0.003405  0.665425  0.419192  1
  Ga  Ga8  1  0.001372  0.663354  0.079150  1
  Ga  Ga9  1  0.336646  0.998628  0.920850  1
  Ga  Ga10  1  0.998167  0.337376  0.919931  1
  Ga  Ga11  1  0.662624  0.001833  0.080069  1
  Ga  Ga12  1  0.664024  0.999288  0.418552  1
  Ga  Ga13  1  0.334575  0.996595  0.580808  1
  Ga  Ga14  1  0.333292  0.333591  0.068376  1
  Ga  Ga15  1  0.666409  0.666708  0.931624  1
  Ga  Ga16  1  0.665861  0.667763  0.571523  1
  Ga  Ga17  1  0.332237  0.334139  0.428477  1
  Ga  Ga18  1  0.337195  0.546072  0.750425  1
  Ga  Ga19  1  0.664228  0.455917  0.248412  1
  Ga  Ga20  1  0.544083  0.335772  0.751588  1
  Ga  Ga21  1  0.453928  0.662805  0.249575  1
  Ir  Ir22  1  0.329606  0.670394  0.500000  1
  Ir  Ir23  1  0.328442  0.671558  0.000000  1
  Ir  Ir24  1  0.671295  0.328705  0.000000  1
  Pd  Pd25  1  0.670623  0.329377  0.500000  1
  Pd  Pd26  1  0.000494  0.999506  0.500000  1
  Pd  Pd27  1  0.999505  0.000495  0.000000  1
