# generated using pymatgen
data_Hf18Zn2Re5Mo3
_symmetry_space_group_name_H-M   'P 1'
_cell_length_a   8.64652700
_cell_length_b   8.64652672
_cell_length_c   8.62508300
_cell_angle_alpha   90.00000000
_cell_angle_beta   90.00000000
_cell_angle_gamma   119.99999725
_symmetry_Int_Tables_number   1
_chemical_formula_structural   Hf18Zn2Re5Mo3
_chemical_formula_sum   'Hf18 Zn2 Re5 Mo3'
_cell_volume   558.44102624
_cell_formula_units_Z   1
loop_
 _symmetry_equiv_pos_site_id
 _symmetry_equiv_pos_as_xyz
  1  'x, y, z'
loop_
 _atom_site_type_symbol
 _atom_site_label
 _atom_site_symmetry_multiplicity
 _atom_site_fract_x
 _atom_site_fract_y
 _atom_site_fract_z
 _atom_site_occupancy
  Hf  Hf0  1  0.195746  0.804254  0.454636  1
  Hf  Hf1  1  0.195746  0.391490  0.454636  1
  Hf  Hf2  1  0.608510  0.804254  0.454636  1
  Hf  Hf3  1  0.805589  0.194411  0.549669  1
  Hf  Hf4  1  0.805589  0.611178  0.549669  1
  Hf  Hf5  1  0.388822  0.194411  0.549669  1
  Hf  Hf6  1  0.805589  0.194411  0.950331  1
  Hf  Hf7  1  0.805589  0.611178  0.950331  1
  Hf  Hf8  1  0.388822  0.194411  0.950331  1
  Hf  Hf9  1  0.195746  0.804254  0.045364  1
  Hf  Hf10  1  0.195746  0.391490  0.045364  1
  Hf  Hf11  1  0.608510  0.804254  0.045364  1
  Hf  Hf12  1  0.539446  0.460554  0.250000  1
  Hf  Hf13  1  0.539446  0.078893  0.250000  1
  Hf  Hf14  1  0.921107  0.460554  0.250000  1
  Hf  Hf15  1  0.460163  0.539837  0.750000  1
  Hf  Hf16  1  0.460163  0.920327  0.750000  1
  Hf  Hf17  1  0.079673  0.539837  0.750000  1
  Zn  Zn18  1  0.333333  0.666667  0.250000  1
  Zn  Zn19  1  0.666667  0.333333  0.750000  1
  Re  Re20  1  0.110231  0.889769  0.750000  1
  Re  Re21  1  0.110231  0.220464  0.750000  1
  Re  Re22  1  0.779536  0.889769  0.750000  1
  Re  Re23  1  0.000000  0.000000  0.499902  1
  Re  Re24  1  0.000000  0.000000  0.000098  1
  Mo  Mo25  1  0.889397  0.110603  0.250000  1
  Mo  Mo26  1  0.889397  0.778795  0.250000  1
  Mo  Mo27  1  0.221205  0.110603  0.250000  1
