# generated using pymatgen
data_Y2ErSn3Ir2Rh
_symmetry_space_group_name_H-M   'P 1'
_cell_length_a   7.69359800
_cell_length_b   7.67909710
_cell_length_c   3.73165600
_cell_angle_alpha   90.00000000
_cell_angle_beta   90.00000000
_cell_angle_gamma   120.06246890
_symmetry_Int_Tables_number   1
_chemical_formula_structural   Y2ErSn3Ir2Rh
_chemical_formula_sum   'Y2 Er1 Sn3 Ir2 Rh1'
_cell_volume   190.80869424
_cell_formula_units_Z   1
loop_
 _symmetry_equiv_pos_site_id
 _symmetry_equiv_pos_as_xyz
  1  'x, y, z'
loop_
 _atom_site_type_symbol
 _atom_site_label
 _atom_site_symmetry_multiplicity
 _atom_site_fract_x
 _atom_site_fract_y
 _atom_site_fract_z
 _atom_site_occupancy
  Y  Y0  1  0.403726  0.403621  0.000000  1
  Y  Y1  1  0.000105  0.596379  0.000000  1
  Er  Er2  1  0.596135  0.000000  0.000000  1
  Sn  Sn3  1  0.734328  0.735258  0.500000  1
  Sn  Sn4  1  0.999070  0.264742  0.500000  1
  Sn  Sn5  1  0.265805  0.000000  0.500000  1
  Ir  Ir6  1  0.666194  0.330525  0.500000  1
  Ir  Ir7  1  0.335667  0.669475  0.500000  1
  Rh  Rh8  1  0.998970  0.000000  0.000000  1
