# generated using pymatgen
data_K2MoClF5
_symmetry_space_group_name_H-M   'P 1'
_cell_length_a   11.43501100
_cell_length_b   5.31375580
_cell_length_c   14.10603822
_cell_angle_alpha   66.44801142
_cell_angle_beta   90.00000000
_cell_angle_gamma   90.00000000
_symmetry_Int_Tables_number   1
_chemical_formula_structural   K2MoClF5
_chemical_formula_sum   'K8 Mo4 Cl4 F20'
_cell_volume   785.72299478
_cell_formula_units_Z   4
loop_
 _symmetry_equiv_pos_site_id
 _symmetry_equiv_pos_as_xyz
  1  'x, y, z'
loop_
 _atom_site_type_symbol
 _atom_site_label
 _atom_site_symmetry_multiplicity
 _atom_site_fract_x
 _atom_site_fract_y
 _atom_site_fract_z
 _atom_site_occupancy
  K  K0  1  0.126040  0.639552  0.107162  1
  K  K1  1  0.378097  0.297589  0.925576  1
  K  K2  1  0.121903  0.297589  0.425576  1
  K  K3  1  0.626040  0.360448  0.392838  1
  K  K4  1  0.373960  0.639552  0.607162  1
  K  K5  1  0.621903  0.702411  0.074424  1
  K  K6  1  0.873960  0.360448  0.892838  1
  K  K7  1  0.878097  0.702411  0.574424  1
  Mo  Mo8  1  0.627996  0.830645  0.798249  1
  Mo  Mo9  1  0.872004  0.830645  0.298249  1
  Mo  Mo10  1  0.127996  0.169355  0.701751  1
  Mo  Mo11  1  0.372004  0.169355  0.201751  1
  Cl  Cl12  1  0.099310  0.766995  0.867299  1
  Cl  Cl13  1  0.400690  0.766995  0.367299  1
  Cl  Cl14  1  0.900690  0.233005  0.132701  1
  Cl  Cl15  1  0.599310  0.233005  0.632701  1
  F  F16  1  0.255161  0.313944  0.270833  1
  F  F17  1  0.742349  0.989399  0.349782  1
  F  F18  1  0.019625  0.037574  0.621742  1
  F  F19  1  0.257651  0.010601  0.650218  1
  F  F20  1  0.504618  0.352482  0.238029  1
  F  F21  1  0.650896  0.485995  0.931811  1
  F  F22  1  0.244839  0.313944  0.770833  1
  F  F23  1  0.519625  0.962426  0.878258  1
  F  F24  1  0.150896  0.514005  0.568189  1
  F  F25  1  0.757651  0.989399  0.849782  1
  F  F26  1  0.995382  0.352482  0.738029  1
  F  F27  1  0.744839  0.686056  0.729167  1
  F  F28  1  0.849104  0.485995  0.431811  1
  F  F29  1  0.349104  0.514005  0.068189  1
  F  F30  1  0.480375  0.037574  0.121742  1
  F  F31  1  0.242349  0.010601  0.150218  1
  F  F32  1  0.004618  0.647518  0.261971  1
  F  F33  1  0.495382  0.647518  0.761971  1
  F  F34  1  0.755161  0.686056  0.229167  1
  F  F35  1  0.980375  0.962426  0.378258  1
