# generated using pymatgen
data_Tb2Yb5Ho3Ru4
_symmetry_space_group_name_H-M   'P 1'
_cell_length_a   6.42186681
_cell_length_b   7.27853599
_cell_length_c   8.55023096
_cell_angle_alpha   96.89106688
_cell_angle_beta   112.81432422
_cell_angle_gamma   90.36246432
_symmetry_Int_Tables_number   1
_chemical_formula_structural   Tb2Yb5Ho3Ru4
_chemical_formula_sum   'Tb2 Yb5 Ho3 Ru4'
_cell_volume   365.11512567
_cell_formula_units_Z   1
loop_
 _symmetry_equiv_pos_site_id
 _symmetry_equiv_pos_as_xyz
  1  'x, y, z'
loop_
 _atom_site_type_symbol
 _atom_site_label
 _atom_site_symmetry_multiplicity
 _atom_site_fract_x
 _atom_site_fract_y
 _atom_site_fract_z
 _atom_site_occupancy
  Tb  Tb0  1  0.203034  0.681456  0.565328  1
  Tb  Tb1  1  0.366595  0.181832  0.565409  1
  Yb  Yb2  1  0.976688  0.919938  0.179751  1
  Yb  Yb3  1  0.795422  0.579797  0.819927  1
  Yb  Yb4  1  0.022756  0.080465  0.820772  1
  Yb  Yb5  1  0.205354  0.418889  0.182188  1
  Yb  Yb6  1  0.639831  0.816219  0.436274  1
  Ho  Ho7  1  0.797279  0.317383  0.431882  1
  Ho  Ho8  1  0.432733  0.751458  0.002707  1
  Ho  Ho9  1  0.566989  0.250812  0.001496  1
  Ru  Ru10  1  0.822429  0.569123  0.224299  1
  Ru  Ru11  1  0.583819  0.927132  0.780088  1
  Ru  Ru12  1  0.179131  0.425691  0.765406  1
  Ru  Ru13  1  0.407938  0.079807  0.224474  1
