# generated using pymatgen
data_Y8TiSi16W11
_symmetry_space_group_name_H-M   'P 1'
_cell_length_a   6.88595529
_cell_length_b   6.88595565
_cell_length_c   12.82192300
_cell_angle_alpha   89.95535663
_cell_angle_beta   90.04464415
_cell_angle_gamma   90.21062348
_symmetry_Int_Tables_number   1
_chemical_formula_structural   Y8TiSi16W11
_chemical_formula_sum   'Y8 Ti1 Si16 W11'
_cell_volume   607.96473293
_cell_formula_units_Z   1
loop_
 _symmetry_equiv_pos_site_id
 _symmetry_equiv_pos_as_xyz
  1  'x, y, z'
loop_
 _atom_site_type_symbol
 _atom_site_label
 _atom_site_symmetry_multiplicity
 _atom_site_fract_x
 _atom_site_fract_y
 _atom_site_fract_z
 _atom_site_occupancy
  Y  Y0  1  0.335941  0.000048  0.468705  1
  Y  Y1  1  0.499898  0.838079  0.719457  1
  Y  Y2  1  0.497142  0.162664  0.218650  1
  Y  Y3  1  0.838079  0.499898  0.280543  1
  Y  Y4  1  0.162664  0.497142  0.781350  1
  Y  Y5  1  0.663072  0.001786  0.968977  1
  Y  Y6  1  0.000048  0.335941  0.531295  1
  Y  Y7  1  0.001786  0.663072  0.031023  1
  Ti  Ti8  1  0.667946  0.667946  0.500000  1
  Si  Si9  1  0.199834  0.125252  0.683596  1
  Si  Si10  1  0.374699  0.700700  0.933727  1
  Si  Si11  1  0.628297  0.297004  0.434075  1
  Si  Si12  1  0.700700  0.374699  0.066273  1
  Si  Si13  1  0.297004  0.628297  0.565925  1
  Si  Si14  1  0.798188  0.874314  0.184440  1
  Si  Si15  1  0.125252  0.199834  0.316404  1
  Si  Si16  1  0.874314  0.798188  0.815560  1
  Si  Si17  1  0.287302  0.965435  0.062929  1
  Si  Si18  1  0.534497  0.789381  0.312558  1
  Si  Si19  1  0.464447  0.211662  0.812930  1
  Si  Si20  1  0.789381  0.534497  0.687442  1
  Si  Si21  1  0.211662  0.464447  0.187070  1
  Si  Si22  1  0.708753  0.039279  0.565616  1
  Si  Si23  1  0.965435  0.287302  0.937071  1
  Si  Si24  1  0.039279  0.708753  0.434384  1
  W  W25  1  0.332434  0.332434  0.000000  1
  W  W26  1  0.166598  0.834789  0.247822  1
  W  W27  1  0.834789  0.166598  0.752178  1
  W  W28  1  0.165807  0.998426  0.872657  1
  W  W29  1  0.498765  0.666273  0.123408  1
  W  W30  1  0.500439  0.340647  0.622922  1
  W  W31  1  0.666273  0.498765  0.876592  1
  W  W32  1  0.340647  0.500439  0.377078  1
  W  W33  1  0.833955  0.996246  0.375889  1
  W  W34  1  0.998426  0.165807  0.127343  1
  W  W35  1  0.996246  0.833955  0.624111  1
