# generated using pymatgen
data_DyEr3TcBr4
_symmetry_space_group_name_H-M   'P 1'
_cell_length_a   8.97083461
_cell_length_b   8.93250896
_cell_length_c   6.56315491
_cell_angle_alpha   89.57182167
_cell_angle_beta   89.29596358
_cell_angle_gamma   89.27813661
_symmetry_Int_Tables_number   1
_chemical_formula_structural   DyEr3TcBr4
_chemical_formula_sum   'Dy2 Er6 Tc2 Br8'
_cell_volume   525.82360138
_cell_formula_units_Z   2
loop_
 _symmetry_equiv_pos_site_id
 _symmetry_equiv_pos_as_xyz
  1  'x, y, z'
loop_
 _atom_site_type_symbol
 _atom_site_label
 _atom_site_symmetry_multiplicity
 _atom_site_fract_x
 _atom_site_fract_y
 _atom_site_fract_z
 _atom_site_occupancy
  Dy  Dy0  1  0.249358  0.900741  0.009188  1
  Dy  Dy1  1  0.750642  0.099259  0.990812  1
  Er  Er2  1  0.098058  0.752736  0.488885  1
  Er  Er3  1  0.901942  0.247264  0.511115  1
  Er  Er4  1  0.754170  0.903059  0.508458  1
  Er  Er5  1  0.245830  0.096941  0.491542  1
  Er  Er6  1  0.095906  0.246807  0.992002  1
  Er  Er7  1  0.904094  0.753193  0.007998  1
  Tc  Tc8  1  0.994669  0.005613  0.250335  1
  Tc  Tc9  1  0.005331  0.994387  0.749665  1
  Br  Br10  1  0.418711  0.817421  0.411758  1
  Br  Br11  1  0.581289  0.182579  0.588242  1
  Br  Br12  1  0.181861  0.579800  0.091720  1
  Br  Br13  1  0.818139  0.420200  0.908280  1
  Br  Br14  1  0.412026  0.192140  0.092373  1
  Br  Br15  1  0.587974  0.807860  0.907627  1
  Br  Br16  1  0.810981  0.585840  0.406760  1
  Br  Br17  1  0.189019  0.414160  0.593240  1
