# generated using pymatgen
data_TbGd6RhO12
_symmetry_space_group_name_H-M   'P 1'
_cell_length_a   6.73647793
_cell_length_b   6.73647743
_cell_length_c   6.73647720
_cell_angle_alpha   94.67726448
_cell_angle_beta   94.67727617
_cell_angle_gamma   94.67728915
_symmetry_Int_Tables_number   1
_chemical_formula_structural   TbGd6RhO12
_chemical_formula_sum   'Tb1 Gd6 Rh1 O12'
_cell_volume   302.47032577
_cell_formula_units_Z   1
loop_
 _symmetry_equiv_pos_site_id
 _symmetry_equiv_pos_as_xyz
  1  'x, y, z'
loop_
 _atom_site_type_symbol
 _atom_site_label
 _atom_site_symmetry_multiplicity
 _atom_site_fract_x
 _atom_site_fract_y
 _atom_site_fract_z
 _atom_site_occupancy
  Tb  Tb0  1  0.000000  0.000000  0.000000  1
  Gd  Gd1  1  0.569924  0.084715  0.264901  1
  Gd  Gd2  1  0.084715  0.264901  0.569924  1
  Gd  Gd3  1  0.735099  0.430076  0.915285  1
  Gd  Gd4  1  0.264901  0.569924  0.084715  1
  Gd  Gd5  1  0.915285  0.735099  0.430076  1
  Gd  Gd6  1  0.430076  0.915285  0.735099  1
  Rh  Rh7  1  0.500000  0.500000  0.500000  1
  O  O8  1  0.681670  0.088872  0.934164  1
  O  O9  1  0.911128  0.065836  0.318330  1
  O  O10  1  0.413644  0.199169  0.542409  1
  O  O11  1  0.065836  0.318330  0.911128  1
  O  O12  1  0.542409  0.413644  0.199169  1
  O  O13  1  0.800831  0.457591  0.586356  1
  O  O14  1  0.199169  0.542409  0.413644  1
  O  O15  1  0.457591  0.586356  0.800831  1
  O  O16  1  0.934164  0.681670  0.088872  1
  O  O17  1  0.586356  0.800831  0.457591  1
  O  O18  1  0.088872  0.934164  0.681670  1
  O  O19  1  0.318330  0.911128  0.065836  1
