# generated using pymatgen
data_TcCl7
_symmetry_space_group_name_H-M   'P 1'
_cell_length_a   6.56041722
_cell_length_b   7.29993599
_cell_length_c   7.32424349
_cell_angle_alpha   74.16915267
_cell_angle_beta   79.32701316
_cell_angle_gamma   92.50106132
_symmetry_Int_Tables_number   1
_chemical_formula_structural   TcCl7
_chemical_formula_sum   'Tc1 Cl7'
_cell_volume   329.97182269
_cell_formula_units_Z   1
loop_
 _symmetry_equiv_pos_site_id
 _symmetry_equiv_pos_as_xyz
  1  'x, y, z'
loop_
 _atom_site_type_symbol
 _atom_site_label
 _atom_site_symmetry_multiplicity
 _atom_site_fract_x
 _atom_site_fract_y
 _atom_site_fract_z
 _atom_site_occupancy
  Tc  Tc0  1  0.883185  0.229046  0.945617  1
  Cl  Cl1  1  0.085321  0.456685  0.991342  1
  Cl  Cl2  1  0.966402  0.012880  0.210473  1
  Cl  Cl3  1  0.240314  0.559672  0.422377  1
  Cl  Cl4  1  0.527422  0.639179  0.253083  1
  Cl  Cl5  1  0.998940  0.045874  0.759902  1
  Cl  Cl6  1  0.810639  0.450069  0.673124  1
  Cl  Cl7  1  0.549783  0.187207  0.083931  1
