# generated using pymatgen
data_Mg5P12Ir9Ru10
_symmetry_space_group_name_H-M   'P 1'
_cell_length_a   12.52842454
_cell_length_b   12.44735687
_cell_length_c   3.92403700
_cell_angle_alpha   90.00000000
_cell_angle_beta   90.00000000
_cell_angle_gamma   119.54707856
_symmetry_Int_Tables_number   1
_chemical_formula_structural   Mg5P12Ir9Ru10
_chemical_formula_sum   'Mg5 P12 Ir9 Ru10'
_cell_volume   532.35505602
_cell_formula_units_Z   1
loop_
 _symmetry_equiv_pos_site_id
 _symmetry_equiv_pos_as_xyz
  1  'x, y, z'
loop_
 _atom_site_type_symbol
 _atom_site_label
 _atom_site_symmetry_multiplicity
 _atom_site_fract_x
 _atom_site_fract_y
 _atom_site_fract_z
 _atom_site_occupancy
  Mg  Mg0  1  0.668884  0.332656  0.000000  1
  Mg  Mg1  1  0.333891  0.667616  0.000000  1
  Mg  Mg2  1  0.821284  0.000723  0.500000  1
  Mg  Mg3  1  0.175971  0.178599  0.500000  1
  Mg  Mg4  1  0.999837  0.823216  0.500000  1
  P  P5  1  0.630849  0.997550  0.000000  1
  P  P6  1  0.365406  0.372088  0.000000  1
  P  P7  1  0.006853  0.636301  0.000000  1
  P  P8  1  0.688538  0.521255  0.500000  1
  P  P9  1  0.833147  0.307066  0.500000  1
  P  P10  1  0.313114  0.833977  0.500000  1
  P  P11  1  0.520780  0.684532  0.500000  1
  P  P12  1  0.180019  0.003324  0.000000  1
  P  P13  1  0.819979  0.820790  0.000000  1
  P  P14  1  0.996872  0.180552  0.000000  1
  P  P15  1  0.477507  0.162927  0.500000  1
  P  P16  1  0.166209  0.480436  0.500000  1
  Ir  Ir17  1  0.625088  0.808217  0.000000  1
  Ir  Ir18  1  0.183403  0.377159  0.000000  1
  Ir  Ir19  1  0.370844  0.187767  0.000000  1
  Ir  Ir20  1  0.192144  0.819340  0.000000  1
  Ir  Ir21  1  0.817386  0.629591  0.000000  1
  Ir  Ir22  1  0.862519  0.501144  0.500000  1
  Ir  Ir23  1  0.497912  0.358507  0.500000  1
  Ir  Ir24  1  0.638975  0.131324  0.500000  1
  Ir  Ir25  1  0.999022  0.000208  0.000000  1
  Ru  Ru26  1  0.130811  0.641362  0.500000  1
  Ru  Ru27  1  0.360549  0.490339  0.500000  1
  Ru  Ru28  1  0.505564  0.864413  0.500000  1
  Ru  Ru29  1  0.720191  0.718347  0.500000  1
  Ru  Ru30  1  0.001651  0.280388  0.500000  1
  Ru  Ru31  1  0.451461  0.003933  0.000000  1
  Ru  Ru32  1  0.553573  0.545519  0.000000  1
  Ru  Ru33  1  0.994943  0.448457  0.000000  1
  Ru  Ru34  1  0.813956  0.187536  0.000000  1
  Ru  Ru35  1  0.280867  0.002844  0.500000  1
