# generated using pymatgen
data_NdEr4(In2Ir)2
_symmetry_space_group_name_H-M   'P 1'
_cell_length_a   3.66814400
_cell_length_b   7.99466400
_cell_length_c   18.37341600
_cell_angle_alpha   90.00000000
_cell_angle_beta   90.00000000
_cell_angle_gamma   90.00000000
_symmetry_Int_Tables_number   1
_chemical_formula_structural   NdEr4(In2Ir)2
_chemical_formula_sum   'Nd2 Er8 In8 Ir4'
_cell_volume   538.81105843
_cell_formula_units_Z   2
loop_
 _symmetry_equiv_pos_site_id
 _symmetry_equiv_pos_as_xyz
  1  'x, y, z'
loop_
 _atom_site_type_symbol
 _atom_site_label
 _atom_site_symmetry_multiplicity
 _atom_site_fract_x
 _atom_site_fract_y
 _atom_site_fract_z
 _atom_site_occupancy
  Nd  Nd0  1  0.000000  0.000000  0.000000  1
  Nd  Nd1  1  0.000000  0.500000  0.500000  1
  Er  Er2  1  0.000000  0.118723  0.409159  1
  Er  Er3  1  0.000000  0.881277  0.590841  1
  Er  Er4  1  0.000000  0.381277  0.909159  1
  Er  Er5  1  0.000000  0.618723  0.090841  1
  Er  Er6  1  0.000000  0.245246  0.221042  1
  Er  Er7  1  0.000000  0.754754  0.778958  1
  Er  Er8  1  0.000000  0.254754  0.721042  1
  Er  Er9  1  0.000000  0.745246  0.278958  1
  In  In10  1  0.500000  0.427266  0.347578  1
  In  In11  1  0.500000  0.572734  0.652422  1
  In  In12  1  0.500000  0.072734  0.847578  1
  In  In13  1  0.500000  0.927266  0.152422  1
  In  In14  1  0.500000  0.300310  0.068546  1
  In  In15  1  0.500000  0.699690  0.931454  1
  In  In16  1  0.500000  0.199690  0.568546  1
  In  In17  1  0.500000  0.800310  0.431454  1
  Ir  Ir18  1  0.500000  0.021668  0.304388  1
  Ir  Ir19  1  0.500000  0.978332  0.695612  1
  Ir  Ir20  1  0.500000  0.478332  0.804388  1
  Ir  Ir21  1  0.500000  0.521668  0.195612  1
