# generated using pymatgen
data_ThPa3(Ir2Pb)2
_symmetry_space_group_name_H-M   'P 1'
_cell_length_a   7.90754506
_cell_length_b   7.90754506
_cell_length_c   3.61102500
_cell_angle_alpha   90.00000000
_cell_angle_beta   90.00000000
_cell_angle_gamma   91.04062870
_symmetry_Int_Tables_number   1
_chemical_formula_structural   ThPa3(Ir2Pb)2
_chemical_formula_sum   'Th1 Pa3 Ir4 Pb2'
_cell_volume   225.75751230
_cell_formula_units_Z   1
loop_
 _symmetry_equiv_pos_site_id
 _symmetry_equiv_pos_as_xyz
  1  'x, y, z'
loop_
 _atom_site_type_symbol
 _atom_site_label
 _atom_site_symmetry_multiplicity
 _atom_site_fract_x
 _atom_site_fract_y
 _atom_site_fract_z
 _atom_site_occupancy
  Th  Th0  1  0.330504  0.169496  0.500001  1
  Pa  Pa1  1  0.832238  0.331381  0.500001  1
  Pa  Pa2  1  0.168619  0.667763  0.500001  1
  Pa  Pa3  1  0.667666  0.832335  0.500001  1
  Ir  Ir4  1  0.642712  0.126948  0.000000  1
  Ir  Ir5  1  0.118948  0.381051  0.000000  1
  Ir  Ir6  1  0.864212  0.635789  0.000000  1
  Ir  Ir7  1  0.373051  0.857289  0.000000  1
  Pb  Pb8  1  0.999978  0.997927  0.000000  1
  Pb  Pb9  1  0.502072  0.500021  0.000000  1
