# generated using pymatgen
data_La2Mn2(Re5C)3
_symmetry_space_group_name_H-M   'P 1'
_cell_length_a   7.02214539
_cell_length_b   7.02214747
_cell_length_c   7.01601703
_cell_angle_alpha   82.72983842
_cell_angle_beta   82.72983443
_cell_angle_gamma   83.06571205
_symmetry_Int_Tables_number   1
_chemical_formula_structural   La2Mn2(Re5C)3
_chemical_formula_sum   'La2 Mn2 Re15 C3'
_cell_volume   338.48998699
_cell_formula_units_Z   1
loop_
 _symmetry_equiv_pos_site_id
 _symmetry_equiv_pos_as_xyz
  1  'x, y, z'
loop_
 _atom_site_type_symbol
 _atom_site_label
 _atom_site_symmetry_multiplicity
 _atom_site_fract_x
 _atom_site_fract_y
 _atom_site_fract_z
 _atom_site_occupancy
  La  La0  1  0.647522  0.647522  0.647061  1
  La  La1  1  0.352478  0.352478  0.352939  1
  Mn  Mn2  1  0.500000  0.000000  0.000000  1
  Mn  Mn3  1  0.000000  0.500000  0.000000  1
  Re  Re4  1  0.000000  0.000000  0.500000  1
  Re  Re5  1  0.721105  0.278895  0.000000  1
  Re  Re6  1  0.000562  0.719708  0.275363  1
  Re  Re7  1  0.280292  0.999438  0.724637  1
  Re  Re8  1  0.999438  0.280292  0.724637  1
  Re  Re9  1  0.719708  0.000562  0.275363  1
  Re  Re10  1  0.278895  0.721105  0.000000  1
  Re  Re11  1  0.349520  0.864899  0.342951  1
  Re  Re12  1  0.343316  0.343316  0.868006  1
  Re  Re13  1  0.864899  0.349520  0.342951  1
  Re  Re14  1  0.650480  0.135101  0.657049  1
  Re  Re15  1  0.656684  0.656684  0.131994  1
  Re  Re16  1  0.135101  0.650480  0.657049  1
  Re  Re17  1  0.901219  0.901219  0.903404  1
  Re  Re18  1  0.098781  0.098781  0.096596  1
  C  C19  1  0.500000  0.500000  0.000000  1
  C  C20  1  0.000000  0.500000  0.500000  1
  C  C21  1  0.500000  0.000000  0.500000  1
