# generated using pymatgen
data_Fe3CoCl7O
_symmetry_space_group_name_H-M   'P 1'
_cell_length_a   7.09844508
_cell_length_b   7.24662101
_cell_length_c   7.25770800
_cell_angle_alpha   56.75690365
_cell_angle_beta   56.99448781
_cell_angle_gamma   57.14152194
_symmetry_Int_Tables_number   1
_chemical_formula_structural   Fe3CoCl7O
_chemical_formula_sum   'Fe3 Co1 Cl7 O1'
_cell_volume   245.49988648
_cell_formula_units_Z   1
loop_
 _symmetry_equiv_pos_site_id
 _symmetry_equiv_pos_as_xyz
  1  'x, y, z'
loop_
 _atom_site_type_symbol
 _atom_site_label
 _atom_site_symmetry_multiplicity
 _atom_site_fract_x
 _atom_site_fract_y
 _atom_site_fract_z
 _atom_site_occupancy
  Fe  Fe0  1  0.519845  0.983316  0.518022  1
  Fe  Fe1  1  0.520754  0.516366  0.983308  1
  Fe  Fe2  1  0.975961  0.519335  0.518839  1
  Co  Co3  1  0.496900  0.504929  0.504023  1
  Cl  Cl4  1  0.261077  0.267176  0.268099  1
  Cl  Cl5  1  0.746261  0.262587  0.262064  1
  Cl  Cl6  1  0.240248  0.260439  0.749299  1
  Cl  Cl7  1  0.242788  0.749173  0.259463  1
  Cl  Cl8  1  0.756209  0.248201  0.742144  1
  Cl  Cl9  1  0.757751  0.742996  0.248185  1
  Cl  Cl10  1  0.250867  0.742612  0.744001  1
  O  O11  1  0.731338  0.702872  0.702556  1
