# generated using pymatgen
data_SmHo2TaO7
_symmetry_space_group_name_H-M   'P 1'
_cell_length_a   6.46355379
_cell_length_b   6.46355305
_cell_length_c   7.57281200
_cell_angle_alpha   90.00000000
_cell_angle_beta   90.00000000
_cell_angle_gamma   109.44490531
_symmetry_Int_Tables_number   1
_chemical_formula_structural   SmHo2TaO7
_chemical_formula_sum   'Sm2 Ho4 Ta2 O14'
_cell_volume   298.32803619
_cell_formula_units_Z   2
loop_
 _symmetry_equiv_pos_site_id
 _symmetry_equiv_pos_as_xyz
  1  'x, y, z'
loop_
 _atom_site_type_symbol
 _atom_site_label
 _atom_site_symmetry_multiplicity
 _atom_site_fract_x
 _atom_site_fract_y
 _atom_site_fract_z
 _atom_site_occupancy
  Sm  Sm0  1  0.500000  0.500000  0.500000  1
  Sm  Sm1  1  0.500000  0.500000  0.000000  1
  Ho  Ho2  1  0.533604  0.000860  0.750000  1
  Ho  Ho3  1  0.000860  0.533604  0.250000  1
  Ho  Ho4  1  0.466396  0.999140  0.250000  1
  Ho  Ho5  1  0.999140  0.466396  0.750000  1
  Ta  Ta6  1  0.000000  0.000000  0.500000  1
  Ta  Ta7  1  0.000000  0.000000  0.000000  1
  O  O8  1  0.678002  0.929823  0.468115  1
  O  O9  1  0.929823  0.678002  0.531885  1
  O  O10  1  0.678002  0.929823  0.031885  1
  O  O11  1  0.929823  0.678002  0.968115  1
  O  O12  1  0.321998  0.070177  0.531885  1
  O  O13  1  0.070177  0.321998  0.468115  1
  O  O14  1  0.321998  0.070177  0.968115  1
  O  O15  1  0.070177  0.321998  0.031885  1
  O  O16  1  0.935296  0.064704  0.750000  1
  O  O17  1  0.064704  0.935296  0.250000  1
  O  O18  1  0.365694  0.634305  0.750000  1
  O  O19  1  0.634305  0.365694  0.250000  1
  O  O20  1  0.640784  0.359216  0.750000  1
  O  O21  1  0.359216  0.640784  0.250000  1
