# generated using pymatgen
data_SmBi5(TeO6)3
_symmetry_space_group_name_H-M   'P 1'
_cell_length_a   9.38672800
_cell_length_b   9.33651777
_cell_length_c   5.48140827
_cell_angle_alpha   90.66518838
_cell_angle_beta   90.00000000
_cell_angle_gamma   120.17807149
_symmetry_Int_Tables_number   1
_chemical_formula_structural   SmBi5(TeO6)3
_chemical_formula_sum   'Sm1 Bi5 Te3 O18'
_cell_volume   415.24144509
_cell_formula_units_Z   1
loop_
 _symmetry_equiv_pos_site_id
 _symmetry_equiv_pos_as_xyz
  1  'x, y, z'
loop_
 _atom_site_type_symbol
 _atom_site_label
 _atom_site_symmetry_multiplicity
 _atom_site_fract_x
 _atom_site_fract_y
 _atom_site_fract_z
 _atom_site_occupancy
  Sm  Sm0  1  0.618368  0.000000  0.500000  1
  Bi  Bi1  1  0.999263  0.625809  0.496427  1
  Bi  Bi2  1  0.998951  0.286895  0.000557  1
  Bi  Bi3  1  0.373454  0.374191  0.503573  1
  Bi  Bi4  1  0.284871  0.000000  0.000000  1
  Bi  Bi5  1  0.712055  0.713105  0.999443  1
  Te  Te6  1  0.335991  0.670180  0.986737  1
  Te  Te7  1  0.999252  0.000000  0.500000  1
  Te  Te8  1  0.665813  0.329820  0.013263  1
  O  O9  1  0.076523  0.875106  0.301491  1
  O  O10  1  0.235764  0.764771  0.774301  1
  O  O11  1  0.139598  0.552096  0.189315  1
  O  O12  1  0.412078  0.868238  0.197331  1
  O  O13  1  0.238290  0.468468  0.779122  1
  O  O14  1  0.123640  0.196840  0.298284  1
  O  O15  1  0.201417  0.124894  0.698509  1
  O  O16  1  0.531442  0.774021  0.778981  1
  O  O17  1  0.456759  0.597687  0.193428  1
  O  O18  1  0.801925  0.922827  0.300936  1
  O  O19  1  0.470993  0.235229  0.225699  1
  O  O20  1  0.587502  0.447904  0.810685  1
  O  O21  1  0.543841  0.131762  0.802669  1
  O  O22  1  0.769822  0.531532  0.220878  1
  O  O23  1  0.926800  0.803160  0.701716  1
  O  O24  1  0.757421  0.225979  0.221019  1
  O  O25  1  0.859071  0.402313  0.806572  1
  O  O26  1  0.879098  0.077173  0.699064  1
