# generated using pymatgen
data_Er6Co3Ni17As13
_symmetry_space_group_name_H-M   'P 1'
_cell_length_a   13.11317900
_cell_length_b   13.11317913
_cell_length_c   3.84208600
_cell_angle_alpha   90.00000000
_cell_angle_beta   90.00000000
_cell_angle_gamma   120.00000219
_symmetry_Int_Tables_number   1
_chemical_formula_structural   Er6Co3Ni17As13
_chemical_formula_sum   'Er6 Co3 Ni17 As13'
_cell_volume   572.15498640
_cell_formula_units_Z   1
loop_
 _symmetry_equiv_pos_site_id
 _symmetry_equiv_pos_as_xyz
  1  'x, y, z'
loop_
 _atom_site_type_symbol
 _atom_site_label
 _atom_site_symmetry_multiplicity
 _atom_site_fract_x
 _atom_site_fract_y
 _atom_site_fract_z
 _atom_site_occupancy
  Er  Er0  1  0.528379  0.810702  0.000000  1
  Er  Er1  1  0.282322  0.471621  0.000000  1
  Er  Er2  1  0.189298  0.717678  0.000000  1
  Er  Er3  1  0.809374  0.281096  0.500000  1
  Er  Er4  1  0.471722  0.190626  0.500000  1
  Er  Er5  1  0.718904  0.528278  0.500000  1
  Co  Co6  1  0.801661  0.908623  0.000000  1
  Co  Co7  1  0.106962  0.198339  0.000000  1
  Co  Co8  1  0.091377  0.893038  0.000000  1
  Ni  Ni9  1  0.333333  0.666667  0.500000  1
  Ni  Ni10  1  0.931090  0.081574  0.500000  1
  Ni  Ni11  1  0.150484  0.068910  0.500000  1
  Ni  Ni12  1  0.918426  0.849516  0.500000  1
  Ni  Ni13  1  0.666667  0.333333  0.000000  1
  Ni  Ni14  1  0.565033  0.584042  0.000000  1
  Ni  Ni15  1  0.019008  0.434967  0.000000  1
  Ni  Ni16  1  0.415958  0.980992  0.000000  1
  Ni  Ni17  1  0.682952  0.752299  0.500000  1
  Ni  Ni18  1  0.069348  0.317048  0.500000  1
  Ni  Ni19  1  0.247701  0.930652  0.500000  1
  Ni  Ni20  1  0.981929  0.567205  0.500000  1
  Ni  Ni21  1  0.585276  0.018071  0.500000  1
  Ni  Ni22  1  0.432795  0.414724  0.500000  1
  Ni  Ni23  1  0.753920  0.077449  0.000000  1
  Ni  Ni24  1  0.323529  0.246080  0.000000  1
  Ni  Ni25  1  0.922551  0.676471  0.000000  1
  As  As26  1  0.475471  0.614207  0.500000  1
  As  As27  1  0.138736  0.524529  0.500000  1
  As  As28  1  0.385793  0.861264  0.500000  1
  As  As29  1  0.721752  0.950791  0.500000  1
  As  As30  1  0.229040  0.278248  0.500000  1
  As  As31  1  0.049209  0.770960  0.500000  1
  As  As32  1  0.861257  0.474648  0.000000  1
  As  As33  1  0.613391  0.138743  0.000000  1
  As  As34  1  0.525352  0.386609  0.000000  1
  As  As35  1  0.948945  0.229904  0.000000  1
  As  As36  1  0.280959  0.051055  0.000000  1
  As  As37  1  0.770096  0.719041  0.000000  1
  As  As38  1  0.000000  0.000000  0.000000  1
