# generated using pymatgen
data_Ho2ErSc3CrBi2
_symmetry_space_group_name_H-M   'P 1'
_cell_length_a   7.94115700
_cell_length_b   7.93927954
_cell_length_c   4.26161900
_cell_angle_alpha   90.00000000
_cell_angle_beta   90.00000000
_cell_angle_gamma   120.00781874
_symmetry_Int_Tables_number   1
_chemical_formula_structural   Ho2ErSc3CrBi2
_chemical_formula_sum   'Ho2 Er1 Sc3 Cr1 Bi2'
_cell_volume   232.66759768
_cell_formula_units_Z   1
loop_
 _symmetry_equiv_pos_site_id
 _symmetry_equiv_pos_as_xyz
  1  'x, y, z'
loop_
 _atom_site_type_symbol
 _atom_site_label
 _atom_site_symmetry_multiplicity
 _atom_site_fract_x
 _atom_site_fract_y
 _atom_site_fract_z
 _atom_site_occupancy
  Ho  Ho0  1  0.999979  0.610802  0.500000  1
  Ho  Ho1  1  0.389176  0.389198  0.500000  1
  Er  Er2  1  0.611764  0.000000  0.500000  1
  Sc  Sc3  1  0.225898  0.000000  0.000000  1
  Sc  Sc4  1  0.773848  0.774204  0.000000  1
  Sc  Sc5  1  0.999644  0.225796  0.000000  1
  Cr  Cr6  1  0.999584  0.000000  0.500000  1
  Bi  Bi7  1  0.333642  0.667177  0.000000  1
  Bi  Bi8  1  0.666465  0.332823  0.000000  1
