# generated using pymatgen
data_K8RbY3Si12(O16F)2
_symmetry_space_group_name_H-M   'P 1'
_cell_length_a   6.93545453
_cell_length_b   11.52128611
_cell_length_c   11.53353900
_cell_angle_alpha   92.13656859
_cell_angle_beta   89.74344488
_cell_angle_gamma   99.55296966
_symmetry_Int_Tables_number   1
_chemical_formula_structural   K8RbY3Si12(O16F)2
_chemical_formula_sum   'K8 Rb1 Y3 Si12 O32 F2'
_cell_volume   908.17828496
_cell_formula_units_Z   1
loop_
 _symmetry_equiv_pos_site_id
 _symmetry_equiv_pos_as_xyz
  1  'x, y, z'
loop_
 _atom_site_type_symbol
 _atom_site_label
 _atom_site_symmetry_multiplicity
 _atom_site_fract_x
 _atom_site_fract_y
 _atom_site_fract_z
 _atom_site_occupancy
  K  K0  1  0.268520  0.386881  0.017046  1
  K  K1  1  0.731480  0.613119  0.982954  1
  K  K2  1  0.169756  0.193402  0.775893  1
  K  K3  1  0.830244  0.806598  0.224107  1
  K  K4  1  0.162538  0.154802  0.214351  1
  K  K5  1  0.837462  0.845198  0.785649  1
  K  K6  1  0.020183  0.669417  0.509692  1
  K  K7  1  0.979817  0.330583  0.490308  1
  Rb  Rb8  1  0.500000  0.000000  0.000000  1
  Y  Y9  1  0.000000  0.000000  0.500000  1
  Y  Y10  1  0.488233  0.510586  0.336874  1
  Y  Y11  1  0.511767  0.489414  0.663126  1
  Si  Si12  1  0.558291  0.767489  0.509884  1
  Si  Si13  1  0.441709  0.232511  0.490116  1
  Si  Si14  1  0.338092  0.865502  0.310721  1
  Si  Si15  1  0.661908  0.134498  0.689279  1
  Si  Si16  1  0.656377  0.091913  0.304473  1
  Si  Si17  1  0.343623  0.908087  0.695527  1
  Si  Si18  1  0.690826  0.305842  0.159542  1
  Si  Si19  1  0.309174  0.694158  0.840458  1
  Si  Si20  1  0.986118  0.512753  0.258136  1
  Si  Si21  1  0.013882  0.487247  0.741864  1
  Si  Si22  1  0.286815  0.667127  0.120944  1
  Si  Si23  1  0.713185  0.332873  0.879056  1
  O  O24  1  0.531603  0.624339  0.513903  1
  O  O25  1  0.468397  0.375661  0.486097  1
  O  O26  1  0.492593  0.793450  0.374297  1
  O  O27  1  0.507407  0.206550  0.625703  1
  O  O28  1  0.389422  0.813895  0.593631  1
  O  O29  1  0.610578  0.186105  0.406369  1
  O  O30  1  0.774504  0.836731  0.539617  1
  O  O31  1  0.225496  0.163269  0.460383  1
  O  O32  1  0.145612  0.876968  0.383346  1
  O  O33  1  0.854388  0.123032  0.616654  1
  O  O34  1  0.280606  0.798022  0.183066  1
  O  O35  1  0.719394  0.201978  0.816934  1
  O  O36  1  0.457609  0.995479  0.273512  1
  O  O37  1  0.542391  0.004521  0.726488  1
  O  O38  1  0.694023  0.165234  0.183032  1
  O  O39  1  0.305977  0.834766  0.816968  1
  O  O40  1  0.842709  0.033651  0.334531  1
  O  O41  1  0.157291  0.966349  0.665469  1
  O  O42  1  0.905091  0.374527  0.209420  1
  O  O43  1  0.094909  0.625473  0.790580  1
  O  O44  1  0.697091  0.314602  0.018522  1
  O  O45  1  0.302909  0.685398  0.981478  1
  O  O46  1  0.504547  0.353127  0.214763  1
  O  O47  1  0.495453  0.646873  0.785237  1
  O  O48  1  0.163810  0.507901  0.346753  1
  O  O49  1  0.836190  0.492099  0.653247  1
  O  O50  1  0.810862  0.571627  0.314545  1
  O  O51  1  0.189138  0.428373  0.685455  1
  O  O52  1  0.067487  0.585722  0.139098  1
  O  O53  1  0.932513  0.414278  0.860902  1
  O  O54  1  0.460292  0.604414  0.165718  1
  O  O55  1  0.539708  0.395586  0.834282  1
  F  F56  1  0.235235  0.163169  0.995228  1
  F  F57  1  0.764765  0.836831  0.004772  1
