# generated using pymatgen
data_Sc4Si4TcMo3
_symmetry_space_group_name_H-M   'P 1'
_cell_length_a   3.49689900
_cell_length_b   7.06504045
_cell_length_c   8.16886307
_cell_angle_alpha   89.58184891
_cell_angle_beta   90.00000000
_cell_angle_gamma   90.00000000
_symmetry_Int_Tables_number   1
_chemical_formula_structural   Sc4Si4TcMo3
_chemical_formula_sum   'Sc4 Si4 Tc1 Mo3'
_cell_volume   201.81237411
_cell_formula_units_Z   1
loop_
 _symmetry_equiv_pos_site_id
 _symmetry_equiv_pos_as_xyz
  1  'x, y, z'
loop_
 _atom_site_type_symbol
 _atom_site_label
 _atom_site_symmetry_multiplicity
 _atom_site_fract_x
 _atom_site_fract_y
 _atom_site_fract_z
 _atom_site_occupancy
  Sc  Sc0  1  0.250000  0.042398  0.334321  1
  Sc  Sc1  1  0.750000  0.957244  0.666388  1
  Sc  Sc2  1  0.250000  0.542403  0.167799  1
  Sc  Sc3  1  0.750000  0.458581  0.832220  1
  Si  Si4  1  0.250000  0.261292  0.632506  1
  Si  Si5  1  0.750000  0.737387  0.364784  1
  Si  Si6  1  0.250000  0.758169  0.863966  1
  Si  Si7  1  0.750000  0.242918  0.137578  1
  Tc  Tc8  1  0.750000  0.368278  0.437385  1
  Mo  Mo9  1  0.250000  0.628441  0.562421  1
  Mo  Mo10  1  0.750000  0.873681  0.061405  1
  Mo  Mo11  1  0.250000  0.129205  0.939226  1
