# generated using pymatgen
data_LaPr2GeI3
_symmetry_space_group_name_H-M   'P 1'
_cell_length_a   10.97430366
_cell_length_b   10.97430358
_cell_length_c   10.97430257
_cell_angle_alpha   109.37517767
_cell_angle_beta   109.37518045
_cell_angle_gamma   109.66346549
_symmetry_Int_Tables_number   1
_chemical_formula_structural   LaPr2GeI3
_chemical_formula_sum   'La4 Pr8 Ge4 I12'
_cell_volume   1017.43193319
_cell_formula_units_Z   4
loop_
 _symmetry_equiv_pos_site_id
 _symmetry_equiv_pos_as_xyz
  1  'x, y, z'
loop_
 _atom_site_type_symbol
 _atom_site_label
 _atom_site_symmetry_multiplicity
 _atom_site_fract_x
 _atom_site_fract_y
 _atom_site_fract_z
 _atom_site_occupancy
  La  La0  1  0.485300  0.235300  0.470599  1
  La  La1  1  0.014700  0.485300  0.750000  1
  La  La2  1  0.264700  0.014700  0.029401  1
  La  La3  1  0.235300  0.264700  0.750000  1
  Pr  Pr4  1  0.467156  0.485057  0.234783  1
  Pr  Pr5  1  0.750274  0.232374  0.265217  1
  Pr  Pr6  1  0.749726  0.014943  0.482100  1
  Pr  Pr7  1  0.232374  0.467156  0.482100  1
  Pr  Pr8  1  0.267626  0.749726  0.234783  1
  Pr  Pr9  1  0.032844  0.267626  0.017900  1
  Pr  Pr10  1  0.014943  0.032844  0.265217  1
  Pr  Pr11  1  0.485057  0.750274  0.017900  1
  Ge  Ge12  1  0.249829  0.250171  0.250000  1
  Ge  Ge13  1  0.500171  0.999829  0.250000  1
  Ge  Ge14  1  0.999829  0.249829  0.499659  1
  Ge  Ge15  1  0.250171  0.500171  0.000341  1
  I  I16  1  0.253914  0.757693  0.742993  1
  I  I17  1  0.514698  0.510921  0.757007  1
  I  I18  1  0.985302  0.742307  0.996221  1
  I  I19  1  0.742307  0.246086  0.757007  1
  I  I20  1  0.989079  0.985302  0.742993  1
  I  I21  1  0.246086  0.989079  0.503779  1
  I  I22  1  0.757693  0.514698  0.503779  1
  I  I23  1  0.510921  0.253914  0.996221  1
  I  I24  1  0.756576  0.743424  0.250000  1
  I  I25  1  0.743424  0.993424  0.986848  1
  I  I26  1  0.993424  0.506576  0.250000  1
  I  I27  1  0.506576  0.756576  0.513152  1
