# generated using pymatgen
data_YHo9Er6(In3Co)2
_symmetry_space_group_name_H-M   'P 1'
_cell_length_a   10.29060200
_cell_length_b   10.30180017
_cell_length_c   6.97683400
_cell_angle_alpha   90.01673444
_cell_angle_beta   90.00000000
_cell_angle_gamma   119.96404206
_symmetry_Int_Tables_number   1
_chemical_formula_structural   YHo9Er6(In3Co)2
_chemical_formula_sum   'Y1 Ho9 Er6 In6 Co2'
_cell_volume   640.76701369
_cell_formula_units_Z   1
loop_
 _symmetry_equiv_pos_site_id
 _symmetry_equiv_pos_as_xyz
  1  'x, y, z'
loop_
 _atom_site_type_symbol
 _atom_site_label
 _atom_site_symmetry_multiplicity
 _atom_site_fract_x
 _atom_site_fract_y
 _atom_site_fract_z
 _atom_site_occupancy
  Y  Y0  1  0.534273  0.068545  0.791189  1
  Ho  Ho1  1  0.929591  0.464688  0.791480  1
  Ho  Ho2  1  0.535096  0.464688  0.791480  1
  Ho  Ho3  1  0.464389  0.928778  0.291428  1
  Ho  Ho4  1  0.070466  0.535530  0.292066  1
  Ho  Ho5  1  0.465066  0.535530  0.292066  1
  Ho  Ho6  1  0.822029  0.644057  0.498298  1
  Ho  Ho7  1  0.356662  0.178910  0.497166  1
  Ho  Ho8  1  0.822249  0.178910  0.497166  1
  Ho  Ho9  1  0.178416  0.356831  0.999180  1
  Er  Er10  1  0.643512  0.820959  0.999168  1
  Er  Er11  1  0.177448  0.820959  0.999168  1
  Er  Er12  1  0.666866  0.333730  0.182108  1
  Er  Er13  1  0.333086  0.666174  0.682829  1
  Er  Er14  1  0.000110  0.000220  0.779689  1
  Er  Er15  1  0.999836  0.999671  0.279306  1
  In  In16  1  0.836804  0.673608  0.038952  1
  In  In17  1  0.325327  0.162200  0.039272  1
  In  In18  1  0.836873  0.162200  0.039272  1
  In  In19  1  0.163328  0.326656  0.540740  1
  In  In20  1  0.674321  0.837579  0.540774  1
  In  In21  1  0.163259  0.837579  0.540774  1
  Co  Co22  1  0.667529  0.335055  0.565203  1
  Co  Co23  1  0.333467  0.666936  0.067131  1
