# generated using pymatgen
data_K2Zr(Si2O5)3
_symmetry_space_group_name_H-M   'P 1'
_cell_length_a   7.04779498
_cell_length_b   7.46886777
_cell_length_c   7.82819618
_cell_angle_alpha   99.31067456
_cell_angle_beta   106.19624156
_cell_angle_gamma   112.11504860
_symmetry_Int_Tables_number   1
_chemical_formula_structural   K2Zr(Si2O5)3
_chemical_formula_sum   'K2 Zr1 Si6 O15'
_cell_volume   349.72922580
_cell_formula_units_Z   1
loop_
 _symmetry_equiv_pos_site_id
 _symmetry_equiv_pos_as_xyz
  1  'x, y, z'
loop_
 _atom_site_type_symbol
 _atom_site_label
 _atom_site_symmetry_multiplicity
 _atom_site_fract_x
 _atom_site_fract_y
 _atom_site_fract_z
 _atom_site_occupancy
  K  K0  1  0.287072  0.710891  0.818599  1
  K  K1  1  0.712928  0.289109  0.181401  1
  Zr  Zr2  1  0.000000  0.000000  0.000000  1
  Si  Si3  1  0.697597  0.815148  0.262196  1
  Si  Si4  1  0.302403  0.184852  0.737804  1
  Si  Si5  1  0.149682  0.833022  0.373864  1
  Si  Si6  1  0.850318  0.166978  0.626136  1
  Si  Si7  1  0.319890  0.505287  0.319507  1
  Si  Si8  1  0.680110  0.494713  0.680493  1
  O  O9  1  0.456279  0.617156  0.195281  1
  O  O10  1  0.543721  0.382844  0.804719  1
  O  O11  1  0.212478  0.645802  0.399716  1
  O  O12  1  0.787522  0.354198  0.600284  1
  O  O13  1  0.874425  0.713561  0.806977  1
  O  O14  1  0.125575  0.286439  0.193023  1
  O  O15  1  0.885779  0.739568  0.348760  1
  O  O16  1  0.114221  0.260432  0.651240  1
  O  O17  1  0.726326  0.898009  0.088350  1
  O  O18  1  0.500000  0.500000  0.500000  1
  O  O19  1  0.293270  0.008882  0.575967  1
  O  O20  1  0.706730  0.991118  0.424033  1
  O  O21  1  0.818107  0.090396  0.800307  1
  O  O22  1  0.181893  0.909604  0.199693  1
  O  O23  1  0.273674  0.101991  0.911650  1
