# generated using pymatgen
data_Sc2UTcH12Ir
_symmetry_space_group_name_H-M   'P 1'
_cell_length_a   4.67943800
_cell_length_b   4.67944144
_cell_length_c   7.80311200
_cell_angle_alpha   90.00000000
_cell_angle_beta   90.00000000
_cell_angle_gamma   120.00000396
_symmetry_Int_Tables_number   1
_chemical_formula_structural   Sc2UTcH12Ir
_chemical_formula_sum   'Sc2 U1 Tc1 H12 Ir1'
_cell_volume   147.97425734
_cell_formula_units_Z   1
loop_
 _symmetry_equiv_pos_site_id
 _symmetry_equiv_pos_as_xyz
  1  'x, y, z'
loop_
 _atom_site_type_symbol
 _atom_site_label
 _atom_site_symmetry_multiplicity
 _atom_site_fract_x
 _atom_site_fract_y
 _atom_site_fract_z
 _atom_site_occupancy
  Sc  Sc0  1  0.666667  0.333333  0.374901  1
  Sc  Sc1  1  0.333333  0.666667  0.645107  1
  U  U2  1  0.000000  0.000000  0.977900  1
  Tc  Tc3  1  0.666667  0.333333  0.738491  1
  H  H4  1  0.160317  0.839683  0.384015  1
  H  H5  1  0.679368  0.839683  0.384015  1
  H  H6  1  0.160317  0.320632  0.384015  1
  H  H7  1  0.840744  0.159256  0.606504  1
  H  H8  1  0.318513  0.159256  0.606504  1
  H  H9  1  0.840744  0.681487  0.606504  1
  H  H10  1  0.488986  0.977971  0.871945  1
  H  H11  1  0.488986  0.511014  0.871945  1
  H  H12  1  0.022029  0.511014  0.871945  1
  H  H13  1  0.505686  0.011374  0.136871  1
  H  H14  1  0.505686  0.494314  0.136871  1
  H  H15  1  0.988626  0.494314  0.136871  1
  Ir  Ir16  1  0.333333  0.666667  0.265597  1
