# generated using pymatgen
data_Ho3Ga3Ru2Au
_symmetry_space_group_name_H-M   'P 1'
_cell_length_a   7.26681700
_cell_length_b   7.26681714
_cell_length_c   3.89840700
_cell_angle_alpha   90.00000000
_cell_angle_beta   90.00000000
_cell_angle_gamma   119.99998814
_symmetry_Int_Tables_number   1
_chemical_formula_structural   Ho3Ga3Ru2Au
_chemical_formula_sum   'Ho3 Ga3 Ru2 Au1'
_cell_volume   178.28151549
_cell_formula_units_Z   1
loop_
 _symmetry_equiv_pos_site_id
 _symmetry_equiv_pos_as_xyz
  1  'x, y, z'
loop_
 _atom_site_type_symbol
 _atom_site_label
 _atom_site_symmetry_multiplicity
 _atom_site_fract_x
 _atom_site_fract_y
 _atom_site_fract_z
 _atom_site_occupancy
  Ho  Ho0  1  0.418010  0.399515  0.500000  1
  Ho  Ho1  1  0.600485  0.018496  0.500000  1
  Ho  Ho2  1  0.981504  0.581990  0.500000  1
  Ga  Ga3  1  0.766298  0.744551  0.000000  1
  Ga  Ga4  1  0.255449  0.021747  0.000000  1
  Ga  Ga5  1  0.978253  0.233702  0.000000  1
  Ru  Ru6  1  0.666667  0.333333  0.000000  1
  Ru  Ru7  1  0.000000  0.000000  0.500000  1
  Au  Au8  1  0.333333  0.666667  0.000000  1
