# generated using pymatgen
data_CdPdBr18
_symmetry_space_group_name_H-M   'P 1'
_cell_length_a   9.25432828
_cell_length_b   9.32256732
_cell_length_c   9.17597898
_cell_angle_alpha   86.61130200
_cell_angle_beta   86.59350040
_cell_angle_gamma   87.63412273
_symmetry_Int_Tables_number   1
_chemical_formula_structural   CdPdBr18
_chemical_formula_sum   'Cd1 Pd1 Br18'
_cell_volume   788.30197812
_cell_formula_units_Z   1
loop_
 _symmetry_equiv_pos_site_id
 _symmetry_equiv_pos_as_xyz
  1  'x, y, z'
loop_
 _atom_site_type_symbol
 _atom_site_label
 _atom_site_symmetry_multiplicity
 _atom_site_fract_x
 _atom_site_fract_y
 _atom_site_fract_z
 _atom_site_occupancy
  Cd  Cd0  1  0.000000  0.000000  0.000000  1
  Pd  Pd1  1  0.500000  0.500000  0.500000  1
  Br  Br2  1  0.773605  0.481538  0.501743  1
  Br  Br3  1  0.499274  0.771356  0.459755  1
  Br  Br4  1  0.476283  0.512456  0.775727  1
  Br  Br5  1  0.226395  0.518462  0.498257  1
  Br  Br6  1  0.500726  0.228644  0.540245  1
  Br  Br7  1  0.523717  0.487544  0.224273  1
  Br  Br8  1  0.887254  0.382501  0.744950  1
  Br  Br9  1  0.747870  0.887590  0.383807  1
  Br  Br10  1  0.383090  0.753705  0.884250  1
  Br  Br11  1  0.112746  0.617499  0.255050  1
  Br  Br12  1  0.252130  0.112410  0.616193  1
  Br  Br13  1  0.616910  0.246295  0.115750  1
  Br  Br14  1  0.035810  0.969017  0.694168  1
  Br  Br15  1  0.698133  0.033058  0.974065  1
  Br  Br16  1  0.969755  0.699920  0.041009  1
  Br  Br17  1  0.964190  0.030983  0.305832  1
  Br  Br18  1  0.301867  0.966942  0.025935  1
  Br  Br19  1  0.030245  0.300080  0.958991  1
