# generated using pymatgen
data_Nd12SiGe11Pd12
_symmetry_space_group_name_H-M   'P 1'
_cell_length_a   4.52015600
_cell_length_b   7.67335700
_cell_length_c   21.93945700
_cell_angle_alpha   89.99868521
_cell_angle_beta   90.00000000
_cell_angle_gamma   90.00000000
_symmetry_Int_Tables_number   1
_chemical_formula_structural   Nd12SiGe11Pd12
_chemical_formula_sum   'Nd12 Si1 Ge11 Pd12'
_cell_volume   760.96503487
_cell_formula_units_Z   1
loop_
 _symmetry_equiv_pos_site_id
 _symmetry_equiv_pos_as_xyz
  1  'x, y, z'
loop_
 _atom_site_type_symbol
 _atom_site_label
 _atom_site_symmetry_multiplicity
 _atom_site_fract_x
 _atom_site_fract_y
 _atom_site_fract_z
 _atom_site_occupancy
  Nd  Nd0  1  0.250000  0.707638  0.333160  1
  Nd  Nd1  1  0.750000  0.292209  0.667101  1
  Nd  Nd2  1  0.750000  0.207510  0.166772  1
  Nd  Nd3  1  0.250000  0.791754  0.833517  1
  Nd  Nd4  1  0.250000  0.792622  0.166243  1
  Nd  Nd5  1  0.750000  0.207819  0.834050  1
  Nd  Nd6  1  0.750000  0.292496  0.333676  1
  Nd  Nd7  1  0.250000  0.706933  0.666665  1
  Nd  Nd8  1  0.250000  0.712988  0.001261  1
  Nd  Nd9  1  0.750000  0.286605  0.997928  1
  Nd  Nd10  1  0.750000  0.213744  0.498379  1
  Nd  Nd11  1  0.250000  0.786324  0.501719  1
  Si  Si12  1  0.250000  0.415256  0.895973  1
  Ge  Ge13  1  0.250000  0.089003  0.070954  1
  Ge  Ge14  1  0.750000  0.909606  0.929164  1
  Ge  Ge15  1  0.750000  0.589425  0.429153  1
  Ge  Ge16  1  0.250000  0.410622  0.570917  1
  Ge  Ge17  1  0.250000  0.084532  0.269711  1
  Ge  Ge18  1  0.750000  0.915610  0.730464  1
  Ge  Ge19  1  0.750000  0.584505  0.230343  1
  Ge  Ge20  1  0.250000  0.415680  0.771776  1
  Ge  Ge21  1  0.250000  0.085845  0.396529  1
  Ge  Ge22  1  0.750000  0.914096  0.603569  1
  Ge  Ge23  1  0.750000  0.585843  0.103393  1
  Pd  Pd24  1  0.250000  0.417702  0.236835  1
  Pd  Pd25  1  0.750000  0.582421  0.763240  1
  Pd  Pd26  1  0.750000  0.917462  0.263132  1
  Pd  Pd27  1  0.250000  0.082687  0.737008  1
  Pd  Pd28  1  0.250000  0.416793  0.436043  1
  Pd  Pd29  1  0.750000  0.583183  0.563806  1
  Pd  Pd30  1  0.750000  0.916974  0.063246  1
  Pd  Pd31  1  0.250000  0.091276  0.934520  1
  Pd  Pd32  1  0.250000  0.420167  0.094522  1
  Pd  Pd33  1  0.750000  0.572457  0.905080  1
  Pd  Pd34  1  0.750000  0.921043  0.405442  1
  Pd  Pd35  1  0.250000  0.079171  0.594707  1
