# generated using pymatgen
data_SmHo5(CoSn6)2
_symmetry_space_group_name_H-M   'P 1'
_cell_length_a   8.48162755
_cell_length_b   8.48162787
_cell_length_c   13.15278149
_cell_angle_alpha   89.98193158
_cell_angle_beta   90.01806854
_cell_angle_gamma   148.82266268
_symmetry_Int_Tables_number   1
_chemical_formula_structural   SmHo5(CoSn6)2
_chemical_formula_sum   'Sm1 Ho5 Co2 Sn12'
_cell_volume   489.82915133
_cell_formula_units_Z   1
loop_
 _symmetry_equiv_pos_site_id
 _symmetry_equiv_pos_as_xyz
  1  'x, y, z'
loop_
 _atom_site_type_symbol
 _atom_site_label
 _atom_site_symmetry_multiplicity
 _atom_site_fract_x
 _atom_site_fract_y
 _atom_site_fract_z
 _atom_site_occupancy
  Sm  Sm0  1  0.900456  0.099544  0.406727  1
  Ho  Ho1  1  0.898932  0.101068  0.092824  1
  Ho  Ho2  1  0.101273  0.898727  0.594489  1
  Ho  Ho3  1  0.899998  0.100002  0.751213  1
  Ho  Ho4  1  0.100707  0.899293  0.906395  1
  Ho  Ho5  1  0.100100  0.899900  0.248802  1
  Co  Co6  1  0.299186  0.700814  0.249254  1
  Co  Co7  1  0.700113  0.299887  0.750483  1
  Sn  Sn8  1  0.754948  0.245052  0.572223  1
  Sn  Sn9  1  0.428605  0.571395  0.578612  1
  Sn  Sn10  1  0.572781  0.427219  0.423800  1
  Sn  Sn11  1  0.733580  0.266420  0.249439  1
  Sn  Sn12  1  0.266026  0.733974  0.750148  1
  Sn  Sn13  1  0.244412  0.755588  0.071065  1
  Sn  Sn14  1  0.243651  0.756349  0.428057  1
  Sn  Sn15  1  0.572627  0.427373  0.075030  1
  Sn  Sn16  1  0.453948  0.546052  0.247541  1
  Sn  Sn17  1  0.545860  0.454140  0.750931  1
  Sn  Sn18  1  0.755501  0.244499  0.928606  1
  Sn  Sn19  1  0.427298  0.572702  0.924360  1
