# generated using pymatgen
data_DyHo7(HgIr)2
_symmetry_space_group_name_H-M   'P 1'
_cell_length_a   9.57221628
_cell_length_b   9.57221685
_cell_length_c   9.57092000
_cell_angle_alpha   60.00447466
_cell_angle_beta   60.00447270
_cell_angle_gamma   59.99104093
_symmetry_Int_Tables_number   1
_chemical_formula_structural   DyHo7(HgIr)2
_chemical_formula_sum   'Dy2 Ho14 Hg4 Ir4'
_cell_volume   620.10276189
_cell_formula_units_Z   2
loop_
 _symmetry_equiv_pos_site_id
 _symmetry_equiv_pos_as_xyz
  1  'x, y, z'
loop_
 _atom_site_type_symbol
 _atom_site_label
 _atom_site_symmetry_multiplicity
 _atom_site_fract_x
 _atom_site_fract_y
 _atom_site_fract_z
 _atom_site_occupancy
  Dy  Dy0  1  0.812160  0.812160  0.187840  1
  Dy  Dy1  1  0.187840  0.187840  0.812160  1
  Ho  Ho2  1  0.600689  0.600689  0.600703  1
  Ho  Ho3  1  0.600689  0.600689  0.197918  1
  Ho  Ho4  1  0.600703  0.197918  0.600689  1
  Ho  Ho5  1  0.197918  0.600703  0.600689  1
  Ho  Ho6  1  0.060218  0.439782  0.439782  1
  Ho  Ho7  1  0.439782  0.060218  0.060218  1
  Ho  Ho8  1  0.439782  0.060218  0.439782  1
  Ho  Ho9  1  0.060218  0.439782  0.060218  1
  Ho  Ho10  1  0.439845  0.439845  0.060155  1
  Ho  Ho11  1  0.060155  0.060155  0.439845  1
  Ho  Ho12  1  0.188153  0.811847  0.811847  1
  Ho  Ho13  1  0.811847  0.188153  0.188153  1
  Ho  Ho14  1  0.811847  0.188153  0.811847  1
  Ho  Ho15  1  0.188153  0.811847  0.188153  1
  Hg  Hg16  1  0.834714  0.834714  0.834438  1
  Hg  Hg17  1  0.834714  0.834714  0.496135  1
  Hg  Hg18  1  0.834438  0.496135  0.834714  1
  Hg  Hg19  1  0.496135  0.834438  0.834714  1
  Ir  Ir20  1  0.392198  0.392198  0.391938  1
  Ir  Ir21  1  0.392198  0.392198  0.823668  1
  Ir  Ir22  1  0.391938  0.823668  0.392198  1
  Ir  Ir23  1  0.823668  0.391938  0.392198  1
