# generated using pymatgen
data_Pd3RhPb16
_symmetry_space_group_name_H-M   'P 1'
_cell_length_a   13.43037126
_cell_length_b   13.43037123
_cell_length_c   13.43218112
_cell_angle_alpha   151.16706519
_cell_angle_beta   151.16706345
_cell_angle_gamma   41.21040720
_symmetry_Int_Tables_number   1
_chemical_formula_structural   Pd3RhPb16
_chemical_formula_sum   'Pd3 Rh1 Pb16'
_cell_volume   562.28820271
_cell_formula_units_Z   1
loop_
 _symmetry_equiv_pos_site_id
 _symmetry_equiv_pos_as_xyz
  1  'x, y, z'
loop_
 _atom_site_type_symbol
 _atom_site_label
 _atom_site_symmetry_multiplicity
 _atom_site_fract_x
 _atom_site_fract_y
 _atom_site_fract_z
 _atom_site_occupancy
  Pd  Pd0  1  0.750000  0.750000  0.000000  1
  Pd  Pd1  1  0.250000  0.250000  0.000000  1
  Pd  Pd2  1  0.000000  0.500000  0.500000  1
  Rh  Rh3  1  0.500000  0.000000  0.500000  1
  Pb  Pb4  1  0.139184  0.636753  0.149688  1
  Pb  Pb5  1  0.639380  0.489805  0.502482  1
  Pb  Pb6  1  0.882002  0.891496  0.649590  1
  Pb  Pb7  1  0.388755  0.739264  0.004188  1
  Pb  Pb8  1  0.608504  0.617998  0.350410  1
  Pb  Pb9  1  0.115434  0.764924  0.004188  1
  Pb  Pb10  1  0.863247  0.360816  0.850312  1
  Pb  Pb11  1  0.363103  0.512678  0.502482  1
  Pb  Pb12  1  0.987322  0.136897  0.497518  1
  Pb  Pb13  1  0.487066  0.989497  0.850312  1
  Pb  Pb14  1  0.735076  0.384566  0.995812  1
  Pb  Pb15  1  0.241906  0.232412  0.350410  1
  Pb  Pb16  1  0.760736  0.111245  0.995812  1
  Pb  Pb17  1  0.267588  0.258094  0.649590  1
  Pb  Pb18  1  0.010195  0.860620  0.497518  1
  Pb  Pb19  1  0.510503  0.012934  0.149688  1
