# generated using pymatgen
data_Sc4TiRe24
_symmetry_space_group_name_H-M   'P 1'
_cell_length_a   8.44057688
_cell_length_b   8.44057602
_cell_length_c   8.44057606
_cell_angle_alpha   109.46458849
_cell_angle_beta   109.46459087
_cell_angle_gamma   109.46459256
_symmetry_Int_Tables_number   1
_chemical_formula_structural   Sc4TiRe24
_chemical_formula_sum   'Sc4 Ti1 Re24'
_cell_volume   463.02130291
_cell_formula_units_Z   1
loop_
 _symmetry_equiv_pos_site_id
 _symmetry_equiv_pos_as_xyz
  1  'x, y, z'
loop_
 _atom_site_type_symbol
 _atom_site_label
 _atom_site_symmetry_multiplicity
 _atom_site_fract_x
 _atom_site_fract_y
 _atom_site_fract_z
 _atom_site_occupancy
  Sc  Sc0  1  0.000451  0.000451  0.000451  1
  Sc  Sc1  1  0.633480  0.000152  0.000152  1
  Sc  Sc2  1  0.000152  0.633480  0.000152  1
  Sc  Sc3  1  0.000152  0.000152  0.633480  1
  Ti  Ti4  1  0.367611  0.367611  0.367611  1
  Re  Re5  1  0.396327  0.676561  0.998571  1
  Re  Re6  1  0.721708  0.323065  0.323065  1
  Re  Re7  1  0.396327  0.998571  0.676561  1
  Re  Re8  1  0.676561  0.396327  0.998571  1
  Re  Re9  1  0.998571  0.396327  0.676561  1
  Re  Re10  1  0.323065  0.721708  0.323065  1
  Re  Re11  1  0.323065  0.323065  0.721708  1
  Re  Re12  1  0.998571  0.676561  0.396327  1
  Re  Re13  1  0.676561  0.998571  0.396327  1
  Re  Re14  1  0.598442  0.598442  0.281471  1
  Re  Re15  1  0.281471  0.598442  0.598442  1
  Re  Re16  1  0.598442  0.281471  0.598442  1
  Re  Re17  1  0.377938  0.193664  0.001864  1
  Re  Re18  1  0.186891  0.808354  0.808354  1
  Re  Re19  1  0.377938  0.001864  0.193664  1
  Re  Re20  1  0.193664  0.377938  0.001864  1
  Re  Re21  1  0.001864  0.377938  0.193664  1
  Re  Re22  1  0.808354  0.186891  0.808354  1
  Re  Re23  1  0.808354  0.808354  0.186891  1
  Re  Re24  1  0.001864  0.193664  0.377938  1
  Re  Re25  1  0.193664  0.001864  0.377938  1
  Re  Re26  1  0.621992  0.621992  0.814528  1
  Re  Re27  1  0.814528  0.621992  0.621992  1
  Re  Re28  1  0.621992  0.814528  0.621992  1
