# generated using pymatgen
data_AcPr3(Mo2O7)2
_symmetry_space_group_name_H-M   'P 1'
_cell_length_a   7.56744879
_cell_length_b   7.55924351
_cell_length_c   7.57427000
_cell_angle_alpha   119.97757296
_cell_angle_beta   119.99333489
_cell_angle_gamma   90.03402903
_symmetry_Int_Tables_number   1
_chemical_formula_structural   AcPr3(Mo2O7)2
_chemical_formula_sum   'Ac1 Pr3 Mo4 O14'
_cell_volume   306.41888620
_cell_formula_units_Z   1
loop_
 _symmetry_equiv_pos_site_id
 _symmetry_equiv_pos_as_xyz
  1  'x, y, z'
loop_
 _atom_site_type_symbol
 _atom_site_label
 _atom_site_symmetry_multiplicity
 _atom_site_fract_x
 _atom_site_fract_y
 _atom_site_fract_z
 _atom_site_occupancy
  Ac  Ac0  1  0.375000  0.125000  0.750000  1
  Pr  Pr1  1  0.375000  0.625000  0.750000  1
  Pr  Pr2  1  0.375000  0.625000  0.250000  1
  Pr  Pr3  1  0.875000  0.625000  0.250000  1
  Mo  Mo4  1  0.875000  0.625000  0.750000  1
  Mo  Mo5  1  0.375000  0.125000  0.250000  1
  Mo  Mo6  1  0.875000  0.125000  0.250000  1
  Mo  Mo7  1  0.875000  0.125000  0.750000  1
  O  O8  1  0.791504  0.202283  0.002180  1
  O  O9  1  0.547649  0.463244  0.497420  1
  O  O10  1  0.205081  0.207780  0.003617  1
  O  O11  1  0.956550  0.457701  0.500789  1
  O  O12  1  0.800455  0.797843  0.585024  1
  O  O13  1  0.538915  0.032754  0.087528  1
  O  O14  1  0.246773  0.740046  0.493262  1
  O  O15  1  0.949545  0.452157  0.914976  1
  O  O16  1  0.958496  0.047717  0.497820  1
  O  O17  1  0.544919  0.042220  0.496383  1
  O  O18  1  0.211085  0.217246  0.412472  1
  O  O19  1  0.503227  0.509954  0.006738  1
  O  O20  1  0.793450  0.792299  0.999211  1
  O  O21  1  0.202351  0.786756  0.002580  1
