# generated using pymatgen
data_YbYHo2(SiPt2)4
_symmetry_space_group_name_H-M   'P 1'
_cell_length_a   5.52119002
_cell_length_b   6.96256700
_cell_length_c   7.32027016
_cell_angle_alpha   90.00000000
_cell_angle_beta   89.99289460
_cell_angle_gamma   90.00000000
_symmetry_Int_Tables_number   1
_chemical_formula_structural   YbYHo2(SiPt2)4
_chemical_formula_sum   'Yb1 Y1 Ho2 Si4 Pt8'
_cell_volume   281.40330092
_cell_formula_units_Z   1
loop_
 _symmetry_equiv_pos_site_id
 _symmetry_equiv_pos_as_xyz
  1  'x, y, z'
loop_
 _atom_site_type_symbol
 _atom_site_label
 _atom_site_symmetry_multiplicity
 _atom_site_fract_x
 _atom_site_fract_y
 _atom_site_fract_z
 _atom_site_occupancy
  Yb  Yb0  1  0.866105  0.250000  0.522910  1
  Y  Y1  1  0.133104  0.750000  0.475452  1
  Ho  Ho2  1  0.366031  0.750000  0.976104  1
  Ho  Ho3  1  0.634799  0.250000  0.024831  1
  Si  Si4  1  0.133099  0.250000  0.877077  1
  Si  Si5  1  0.367667  0.250000  0.380414  1
  Si  Si6  1  0.632229  0.750000  0.621408  1
  Si  Si7  1  0.867129  0.750000  0.121472  1
  Pt  Pt8  1  0.099060  0.051285  0.178722  1
  Pt  Pt9  1  0.099060  0.448715  0.178722  1
  Pt  Pt10  1  0.404429  0.050643  0.679495  1
  Pt  Pt11  1  0.404429  0.449357  0.679495  1
  Pt  Pt12  1  0.593633  0.550597  0.318597  1
  Pt  Pt13  1  0.593633  0.949403  0.318597  1
  Pt  Pt14  1  0.902796  0.551374  0.823350  1
  Pt  Pt15  1  0.902796  0.948626  0.823350  1
