# generated using pymatgen
data_SmHo4In4PtRh
_symmetry_space_group_name_H-M   'P 1'
_cell_length_a   3.62933700
_cell_length_b   8.12265949
_cell_length_c   18.31318321
_cell_angle_alpha   90.12317735
_cell_angle_beta   90.00000000
_cell_angle_gamma   90.00000000
_symmetry_Int_Tables_number   1
_chemical_formula_structural   SmHo4In4PtRh
_chemical_formula_sum   'Sm2 Ho8 In8 Pt2 Rh2'
_cell_volume   539.86898738
_cell_formula_units_Z   2
loop_
 _symmetry_equiv_pos_site_id
 _symmetry_equiv_pos_as_xyz
  1  'x, y, z'
loop_
 _atom_site_type_symbol
 _atom_site_label
 _atom_site_symmetry_multiplicity
 _atom_site_fract_x
 _atom_site_fract_y
 _atom_site_fract_z
 _atom_site_occupancy
  Sm  Sm0  1  0.000000  0.000000  0.000000  1
  Sm  Sm1  1  0.000000  0.500000  0.500000  1
  Ho  Ho2  1  0.000000  0.115876  0.411603  1
  Ho  Ho3  1  0.000000  0.884124  0.588397  1
  Ho  Ho4  1  0.000000  0.382708  0.913572  1
  Ho  Ho5  1  0.000000  0.617292  0.086428  1
  Ho  Ho6  1  0.000000  0.238961  0.221243  1
  Ho  Ho7  1  0.000000  0.761039  0.778757  1
  Ho  Ho8  1  0.000000  0.250612  0.720296  1
  Ho  Ho9  1  0.000000  0.749388  0.279704  1
  In  In10  1  0.500000  0.422953  0.349899  1
  In  In11  1  0.500000  0.577047  0.650101  1
  In  In12  1  0.500000  0.074127  0.848975  1
  In  In13  1  0.500000  0.925873  0.151025  1
  In  In14  1  0.500000  0.295352  0.067082  1
  In  In15  1  0.500000  0.704648  0.932918  1
  In  In16  1  0.500000  0.203567  0.568622  1
  In  In17  1  0.500000  0.796433  0.431378  1
  Pt  Pt18  1  0.500000  0.477385  0.803289  1
  Pt  Pt19  1  0.500000  0.522615  0.196711  1
  Rh  Rh20  1  0.500000  0.022129  0.304642  1
  Rh  Rh21  1  0.500000  0.977871  0.695358  1
