# generated using pymatgen
data_Zr6Ta4Al12Ru6W
_symmetry_space_group_name_H-M   'P 1'
_cell_length_a   8.87522148
_cell_length_b   8.89409488
_cell_length_c   8.89409346
_cell_angle_alpha   59.39848860
_cell_angle_beta   60.07016030
_cell_angle_gamma   60.07017012
_symmetry_Int_Tables_number   1
_chemical_formula_structural   Zr6Ta4Al12Ru6W
_chemical_formula_sum   'Zr6 Ta4 Al12 Ru6 W1'
_cell_volume   494.66372737
_cell_formula_units_Z   1
loop_
 _symmetry_equiv_pos_site_id
 _symmetry_equiv_pos_as_xyz
  1  'x, y, z'
loop_
 _atom_site_type_symbol
 _atom_site_label
 _atom_site_symmetry_multiplicity
 _atom_site_fract_x
 _atom_site_fract_y
 _atom_site_fract_z
 _atom_site_occupancy
  Zr  Zr0  1  0.695538  0.707855  0.291369  1
  Zr  Zr1  1  0.305237  0.707855  0.291369  1
  Zr  Zr2  1  0.705253  0.294747  0.294747  1
  Zr  Zr3  1  0.305237  0.291369  0.707855  1
  Zr  Zr4  1  0.695538  0.291369  0.707855  1
  Zr  Zr5  1  0.291648  0.708352  0.708352  1
  Ta  Ta6  1  0.880878  0.877331  0.360916  1
  Ta  Ta7  1  0.880878  0.360916  0.877331  1
  Ta  Ta8  1  0.362657  0.877641  0.877641  1
  Ta  Ta9  1  0.882063  0.877641  0.877641  1
  Al  Al10  1  0.119510  0.123648  0.637331  1
  Al  Al11  1  0.119510  0.637331  0.123648  1
  Al  Al12  1  0.639037  0.122042  0.122042  1
  Al  Al13  1  0.116877  0.122042  0.122042  1
  Al  Al14  1  0.666380  0.657446  0.009795  1
  Al  Al15  1  0.666380  0.009795  0.657446  1
  Al  Al16  1  0.019421  0.659554  0.659554  1
  Al  Al17  1  0.661471  0.659554  0.659554  1
  Al  Al18  1  0.328832  0.341512  0.000824  1
  Al  Al19  1  0.328832  0.000824  0.341512  1
  Al  Al20  1  0.991385  0.336907  0.336907  1
  Al  Al21  1  0.334802  0.336907  0.336907  1
  Ru  Ru22  1  0.001415  0.998585  0.998585  1
  Ru  Ru23  1  0.997205  0.997370  0.501198  1
  Ru  Ru24  1  0.504226  0.997370  0.501198  1
  Ru  Ru25  1  0.997218  0.502782  0.502782  1
  Ru  Ru26  1  0.504226  0.501198  0.997370  1
  Ru  Ru27  1  0.997205  0.501198  0.997370  1
  W  W28  1  0.501144  0.998856  0.998856  1
