# generated using pymatgen
data_Pr2Ga6NiPd
_symmetry_space_group_name_H-M   'P 1'
_cell_length_a   4.32535600
_cell_length_b   4.32535600
_cell_length_c   10.43603600
_cell_angle_alpha   90.00000000
_cell_angle_beta   90.00000000
_cell_angle_gamma   90.00000000
_symmetry_Int_Tables_number   1
_chemical_formula_structural   Pr2Ga6NiPd
_chemical_formula_sum   'Pr2 Ga6 Ni1 Pd1'
_cell_volume   195.24471395
_cell_formula_units_Z   1
loop_
 _symmetry_equiv_pos_site_id
 _symmetry_equiv_pos_as_xyz
  1  'x, y, z'
loop_
 _atom_site_type_symbol
 _atom_site_label
 _atom_site_symmetry_multiplicity
 _atom_site_fract_x
 _atom_site_fract_y
 _atom_site_fract_z
 _atom_site_occupancy
  Pr  Pr0  1  0.000000  0.000000  0.992187  1
  Pr  Pr1  1  0.500000  0.500000  0.479112  1
  Ga  Ga2  1  0.000000  0.500000  0.233155  1
  Ga  Ga3  1  0.500000  0.000000  0.750631  1
  Ga  Ga4  1  0.500000  0.000000  0.233155  1
  Ga  Ga5  1  0.000000  0.500000  0.750631  1
  Ga  Ga6  1  0.000000  0.000000  0.390673  1
  Ga  Ga7  1  0.500000  0.500000  0.909797  1
  Ni  Ni8  1  0.500000  0.500000  0.133504  1
  Pd  Pd9  1  0.000000  0.000000  0.627156  1
