# generated using pymatgen
data_Tb5Yb(Si3Pt2)4
_symmetry_space_group_name_H-M   'P 1'
_cell_length_a   4.26223900
_cell_length_b   8.59059275
_cell_length_c   12.92308400
_cell_angle_alpha   80.09984348
_cell_angle_beta   90.00000000
_cell_angle_gamma   90.00000000
_symmetry_Int_Tables_number   1
_chemical_formula_structural   Tb5Yb(Si3Pt2)4
_chemical_formula_sum   'Tb5 Yb1 Si12 Pt8'
_cell_volume   466.13457832
_cell_formula_units_Z   1
loop_
 _symmetry_equiv_pos_site_id
 _symmetry_equiv_pos_as_xyz
  1  'x, y, z'
loop_
 _atom_site_type_symbol
 _atom_site_label
 _atom_site_symmetry_multiplicity
 _atom_site_fract_x
 _atom_site_fract_y
 _atom_site_fract_z
 _atom_site_occupancy
  Tb  Tb0  1  0.250000  0.766991  0.439375  1
  Tb  Tb1  1  0.250000  0.588368  0.183333  1
  Tb  Tb2  1  0.750000  0.233718  0.561270  1
  Tb  Tb3  1  0.750000  0.417026  0.812140  1
  Tb  Tb4  1  0.750000  0.926631  0.815714  1
  Yb  Yb5  1  0.250000  0.070987  0.185956  1
  Si  Si6  1  0.750000  0.586084  0.571209  1
  Si  Si7  1  0.750000  0.129098  0.006325  1
  Si  Si8  1  0.750000  0.865571  0.582028  1
  Si  Si9  1  0.250000  0.697682  0.713082  1
  Si  Si10  1  0.750000  0.305608  0.287614  1
  Si  Si11  1  0.750000  0.805266  0.275590  1
  Si  Si12  1  0.250000  0.873162  0.992212  1
  Si  Si13  1  0.250000  0.193001  0.723417  1
  Si  Si14  1  0.250000  0.377330  0.002353  1
  Si  Si15  1  0.250000  0.124263  0.428158  1
  Si  Si16  1  0.750000  0.620986  0.997722  1
  Si  Si17  1  0.250000  0.411865  0.428819  1
  Pt  Pt18  1  0.750000  0.352682  0.100861  1
  Pt  Pt19  1  0.250000  0.972403  0.621569  1
  Pt  Pt20  1  0.750000  0.850777  0.086664  1
  Pt  Pt21  1  0.750000  0.031852  0.373190  1
  Pt  Pt22  1  0.250000  0.646523  0.900937  1
  Pt  Pt23  1  0.250000  0.151200  0.911352  1
  Pt  Pt24  1  0.750000  0.533250  0.375255  1
  Pt  Pt25  1  0.250000  0.467675  0.623851  1
