# generated using pymatgen
data_RbBa(AcB12)2
_symmetry_space_group_name_H-M   'P 1'
_cell_length_a   7.29298000
_cell_length_b   7.29297961
_cell_length_c   5.95960500
_cell_angle_alpha   90.00000000
_cell_angle_beta   90.00000000
_cell_angle_gamma   109.38276478
_symmetry_Int_Tables_number   1
_chemical_formula_structural   RbBa(AcB12)2
_chemical_formula_sum   'Rb1 Ba1 Ac2 B24'
_cell_volume   299.01137241
_cell_formula_units_Z   1
loop_
 _symmetry_equiv_pos_site_id
 _symmetry_equiv_pos_as_xyz
  1  'x, y, z'
loop_
 _atom_site_type_symbol
 _atom_site_label
 _atom_site_symmetry_multiplicity
 _atom_site_fract_x
 _atom_site_fract_y
 _atom_site_fract_z
 _atom_site_occupancy
  Rb  Rb0  1  0.751107  0.248893  0.500000  1
  Ba  Ba1  1  0.997341  0.002659  0.000000  1
  Ac  Ac2  1  0.502785  0.497215  0.000000  1
  Ac  Ac3  1  0.249145  0.750855  0.500000  1
  B  B4  1  0.177192  0.326219  0.647924  1
  B  B5  1  0.926529  0.574629  0.148967  1
  B  B6  1  0.673781  0.822808  0.647924  1
  B  B7  1  0.425371  0.073471  0.148967  1
  B  B8  1  0.177192  0.326219  0.352076  1
  B  B9  1  0.926529  0.574629  0.851033  1
  B  B10  1  0.673781  0.822808  0.352076  1
  B  B11  1  0.425371  0.073471  0.851033  1
  B  B12  1  0.400684  0.397581  0.500000  1
  B  B13  1  0.148495  0.650051  0.000000  1
  B  B14  1  0.896816  0.899153  0.500000  1
  B  B15  1  0.648069  0.147441  0.000000  1
  B  B16  1  0.324662  0.175712  0.648081  1
  B  B17  1  0.075766  0.427693  0.148775  1
  B  B18  1  0.824288  0.675338  0.648081  1
  B  B19  1  0.572307  0.924234  0.148775  1
  B  B20  1  0.100847  0.103184  0.500000  1
  B  B21  1  0.852559  0.351931  0.000000  1
  B  B22  1  0.602419  0.599316  0.500000  1
  B  B23  1  0.349949  0.851505  0.000000  1
  B  B24  1  0.324662  0.175712  0.351919  1
  B  B25  1  0.075766  0.427693  0.851225  1
  B  B26  1  0.824288  0.675338  0.351919  1
  B  B27  1  0.572307  0.924234  0.851225  1
