# generated using pymatgen
data_Tb4Er3Tm(B6Os)4
_symmetry_space_group_name_H-M   'P 1'
_cell_length_a   3.64689000
_cell_length_b   9.12505601
_cell_length_c   11.51180102
_cell_angle_alpha   90.00655754
_cell_angle_beta   90.00000000
_cell_angle_gamma   90.00000000
_symmetry_Int_Tables_number   1
_chemical_formula_structural   Tb4Er3Tm(B6Os)4
_chemical_formula_sum   'Tb4 Er3 Tm1 B24 Os4'
_cell_volume   383.09058129
_cell_formula_units_Z   1
loop_
 _symmetry_equiv_pos_site_id
 _symmetry_equiv_pos_as_xyz
  1  'x, y, z'
loop_
 _atom_site_type_symbol
 _atom_site_label
 _atom_site_symmetry_multiplicity
 _atom_site_fract_x
 _atom_site_fract_y
 _atom_site_fract_z
 _atom_site_occupancy
  Tb  Tb0  1  0.000000  0.321815  0.413883  1
  Tb  Tb1  1  0.000000  0.678170  0.586206  1
  Tb  Tb2  1  0.000000  0.821731  0.086065  1
  Tb  Tb3  1  0.000000  0.178288  0.913840  1
  Er  Er4  1  0.000000  0.944221  0.373017  1
  Er  Er5  1  0.000000  0.055809  0.627045  1
  Er  Er6  1  0.000000  0.444260  0.126772  1
  Tm  Tm7  1  0.000000  0.555823  0.873021  1
  B  B8  1  0.500000  0.554316  0.432602  1
  B  B9  1  0.500000  0.445697  0.567460  1
  B  B10  1  0.500000  0.054300  0.067390  1
  B  B11  1  0.500000  0.945607  0.932581  1
  B  B12  1  0.500000  0.748873  0.419497  1
  B  B13  1  0.500000  0.251155  0.580524  1
  B  B14  1  0.500000  0.248909  0.080486  1
  B  B15  1  0.500000  0.750813  0.919472  1
  B  B16  1  0.500000  0.791228  0.266673  1
  B  B17  1  0.500000  0.208866  0.733357  1
  B  B18  1  0.500000  0.291244  0.233314  1
  B  B19  1  0.500000  0.708480  0.766769  1
  B  B20  1  0.500000  0.631320  0.185080  1
  B  B21  1  0.500000  0.368915  0.815010  1
  B  B22  1  0.500000  0.131347  0.314889  1
  B  B23  1  0.500000  0.868594  0.685153  1
  B  B24  1  0.500000  0.983499  0.213439  1
  B  B25  1  0.500000  0.016455  0.786574  1
  B  B26  1  0.500000  0.483488  0.286548  1
  B  B27  1  0.500000  0.516658  0.713672  1
  B  B28  1  0.500000  0.606124  0.028991  1
  B  B29  1  0.500000  0.394114  0.970497  1
  B  B30  1  0.500000  0.106272  0.470688  1
  B  B31  1  0.500000  0.893716  0.529325  1
  Os  Os32  1  0.000000  0.638090  0.320736  1
  Os  Os33  1  0.000000  0.362141  0.679425  1
  Os  Os34  1  0.000000  0.138120  0.179193  1
  Os  Os35  1  0.000000  0.861541  0.820809  1
