# generated using pymatgen
data_SrGaSiRh2
_symmetry_space_group_name_H-M   'P 1'
_cell_length_a   8.40808598
_cell_length_b   7.27366270
_cell_length_c   5.96425315
_cell_angle_alpha   78.17323148
_cell_angle_beta   57.85618040
_cell_angle_gamma   43.97059026
_symmetry_Int_Tables_number   1
_chemical_formula_structural   SrGaSiRh2
_chemical_formula_sum   'Sr2 Ga2 Si2 Rh4'
_cell_volume   204.36816795
_cell_formula_units_Z   2
loop_
 _symmetry_equiv_pos_site_id
 _symmetry_equiv_pos_as_xyz
  1  'x, y, z'
loop_
 _atom_site_type_symbol
 _atom_site_label
 _atom_site_symmetry_multiplicity
 _atom_site_fract_x
 _atom_site_fract_y
 _atom_site_fract_z
 _atom_site_occupancy
  Sr  Sr0  1  0.500000  0.500000  0.500000  1
  Sr  Sr1  1  0.750000  0.750000  0.750000  1
  Ga  Ga2  1  0.430222  0.069778  0.430222  1
  Ga  Ga3  1  0.069778  0.430222  0.069778  1
  Si  Si4  1  0.822306  0.177694  0.822306  1
  Si  Si5  1  0.177694  0.822306  0.177694  1
  Rh  Rh6  1  0.111926  0.111926  0.888074  1
  Rh  Rh7  1  0.888074  0.888074  0.111926  1
  Rh  Rh8  1  0.121372  0.121372  0.378628  1
  Rh  Rh9  1  0.378628  0.378628  0.121372  1
