# generated using pymatgen
data_Ti3Mn2B4Mo
_symmetry_space_group_name_H-M   'P 1'
_cell_length_a   5.75555389
_cell_length_b   5.75555389
_cell_length_c   3.14480300
_cell_angle_alpha   90.00000000
_cell_angle_beta   90.00000000
_cell_angle_gamma   89.34894813
_symmetry_Int_Tables_number   1
_chemical_formula_structural   Ti3Mn2B4Mo
_chemical_formula_sum   'Ti3 Mn2 B4 Mo1'
_cell_volume   104.16927861
_cell_formula_units_Z   1
loop_
 _symmetry_equiv_pos_site_id
 _symmetry_equiv_pos_as_xyz
  1  'x, y, z'
loop_
 _atom_site_type_symbol
 _atom_site_label
 _atom_site_symmetry_multiplicity
 _atom_site_fract_x
 _atom_site_fract_y
 _atom_site_fract_z
 _atom_site_occupancy
  Ti  Ti0  1  0.680787  0.180572  0.500000  1
  Ti  Ti1  1  0.319428  0.819213  0.500000  1
  Ti  Ti2  1  0.181404  0.318596  0.500000  1
  Mn  Mn3  1  0.497985  0.498300  0.000000  1
  Mn  Mn4  1  0.001700  0.002015  0.000000  1
  B  B5  1  0.110584  0.613940  0.000000  1
  B  B6  1  0.886060  0.389416  0.000000  1
  B  B7  1  0.611635  0.888365  0.000000  1
  B  B8  1  0.388894  0.111106  0.000000  1
  Mo  Mo9  1  0.821521  0.678479  0.500000  1
