# generated using pymatgen
data_Sr3Pr5(Y3Sn4)4
_symmetry_space_group_name_H-M   'P 1'
_cell_length_a   8.13907567
_cell_length_b   8.40626266
_cell_length_c   15.85532825
_cell_angle_alpha   89.94503813
_cell_angle_beta   90.92089022
_cell_angle_gamma   90.38024520
_symmetry_Int_Tables_number   1
_chemical_formula_structural   Sr3Pr5(Y3Sn4)4
_chemical_formula_sum   'Sr3 Pr5 Y12 Sn16'
_cell_volume   1084.64460464
_cell_formula_units_Z   1
loop_
 _symmetry_equiv_pos_site_id
 _symmetry_equiv_pos_as_xyz
  1  'x, y, z'
loop_
 _atom_site_type_symbol
 _atom_site_label
 _atom_site_symmetry_multiplicity
 _atom_site_fract_x
 _atom_site_fract_y
 _atom_site_fract_z
 _atom_site_occupancy
  Sr  Sr0  1  0.503205  0.321774  0.908412  1
  Sr  Sr1  1  0.003150  0.173259  0.592524  1
  Sr  Sr2  1  0.498071  0.673751  0.405492  1
  Pr  Pr3  1  0.994654  0.823770  0.097191  1
  Pr  Pr4  1  0.499452  0.683002  0.095706  1
  Pr  Pr5  1  0.001593  0.820771  0.399927  1
  Pr  Pr6  1  0.497832  0.320343  0.598055  1
  Pr  Pr7  1  0.002811  0.177735  0.904156  1
  Y  Y8  1  0.342521  0.839018  0.877432  1
  Y  Y9  1  0.834205  0.665428  0.625610  1
  Y  Y10  1  0.666657  0.166838  0.374656  1
  Y  Y11  1  0.160911  0.333243  0.126390  1
  Y  Y12  1  0.661475  0.160620  0.122444  1
  Y  Y13  1  0.168790  0.335736  0.373165  1
  Y  Y14  1  0.329996  0.835845  0.625027  1
  Y  Y15  1  0.836519  0.662015  0.873572  1
  Y  Y16  1  0.171482  0.497970  0.751808  1
  Y  Y17  1  0.674038  0.002323  0.752150  1
  Y  Y18  1  0.827871  0.502142  0.249109  1
  Y  Y19  1  0.327017  0.999196  0.247237  1
  Sn  Sn20  1  0.311430  0.036513  0.044409  1
  Sn  Sn21  1  0.833953  0.463795  0.456822  1
  Sn  Sn22  1  0.664543  0.962760  0.542967  1
  Sn  Sn23  1  0.170014  0.544227  0.961931  1
  Sn  Sn24  1  0.690464  0.951438  0.959958  1
  Sn  Sn25  1  0.167895  0.541966  0.540848  1
  Sn  Sn26  1  0.331750  0.041599  0.456733  1
  Sn  Sn27  1  0.827788  0.462685  0.043142  1
  Sn  Sn28  1  0.531467  0.627599  0.749137  1
  Sn  Sn29  1  0.036260  0.874468  0.750737  1
  Sn  Sn30  1  0.468134  0.374343  0.246223  1
  Sn  Sn31  1  0.963847  0.123904  0.251942  1
  Sn  Sn32  1  0.307042  0.141767  0.750624  1
  Sn  Sn33  1  0.805494  0.356185  0.748575  1
  Sn  Sn34  1  0.694454  0.858313  0.248555  1
  Sn  Sn35  1  0.193216  0.643660  0.247335  1
