# generated using pymatgen
data_Er4Ga4IrRh3
_symmetry_space_group_name_H-M   'P 1'
_cell_length_a   4.25710200
_cell_length_b   6.81093850
_cell_length_c   7.81060245
_cell_angle_alpha   89.84171370
_cell_angle_beta   90.00000000
_cell_angle_gamma   90.00000000
_symmetry_Int_Tables_number   1
_chemical_formula_structural   Er4Ga4IrRh3
_chemical_formula_sum   'Er4 Ga4 Ir1 Rh3'
_cell_volume   226.46645961
_cell_formula_units_Z   1
loop_
 _symmetry_equiv_pos_site_id
 _symmetry_equiv_pos_as_xyz
  1  'x, y, z'
loop_
 _atom_site_type_symbol
 _atom_site_label
 _atom_site_symmetry_multiplicity
 _atom_site_fract_x
 _atom_site_fract_y
 _atom_site_fract_z
 _atom_site_occupancy
  Er  Er0  1  0.250000  0.974854  0.311599  1
  Er  Er1  1  0.250000  0.471475  0.189308  1
  Er  Er2  1  0.750000  0.028375  0.687675  1
  Er  Er3  1  0.750000  0.527481  0.811732  1
  Ga  Ga4  1  0.250000  0.347464  0.569567  1
  Ga  Ga5  1  0.250000  0.846697  0.932217  1
  Ga  Ga6  1  0.750000  0.654319  0.431795  1
  Ga  Ga7  1  0.750000  0.151962  0.067899  1
  Ir  Ir8  1  0.750000  0.265465  0.387185  1
  Rh  Rh9  1  0.250000  0.233912  0.888519  1
  Rh  Rh10  1  0.250000  0.734118  0.611888  1
  Rh  Rh11  1  0.750000  0.763878  0.110617  1
