# generated using pymatgen
data_Tm23ScTe12
_symmetry_space_group_name_H-M   'P 1'
_cell_length_a   4.05594300
_cell_length_b   11.37183805
_cell_length_c   21.53878808
_cell_angle_alpha   90.01026740
_cell_angle_beta   90.00000000
_cell_angle_gamma   90.00000000
_symmetry_Int_Tables_number   1
_chemical_formula_structural   Tm23ScTe12
_chemical_formula_sum   'Tm23 Sc1 Te12'
_cell_volume   993.44485615
_cell_formula_units_Z   1
loop_
 _symmetry_equiv_pos_site_id
 _symmetry_equiv_pos_as_xyz
  1  'x, y, z'
loop_
 _atom_site_type_symbol
 _atom_site_label
 _atom_site_symmetry_multiplicity
 _atom_site_fract_x
 _atom_site_fract_y
 _atom_site_fract_z
 _atom_site_occupancy
  Tm  Tm0  1  0.250000  0.889875  0.489524  1
  Tm  Tm1  1  0.750000  0.110048  0.511936  1
  Tm  Tm2  1  0.750000  0.389963  0.011219  1
  Tm  Tm3  1  0.250000  0.610126  0.987822  1
  Tm  Tm4  1  0.250000  0.072688  0.641700  1
  Tm  Tm5  1  0.750000  0.926827  0.359791  1
  Tm  Tm6  1  0.750000  0.573201  0.859096  1
  Tm  Tm7  1  0.250000  0.427048  0.140436  1
  Tm  Tm8  1  0.250000  0.380975  0.533386  1
  Tm  Tm9  1  0.750000  0.619113  0.466529  1
  Tm  Tm10  1  0.750000  0.879818  0.965096  1
  Tm  Tm11  1  0.250000  0.118964  0.033286  1
  Tm  Tm12  1  0.750000  0.660872  0.107859  1
  Tm  Tm13  1  0.250000  0.339917  0.891600  1
  Tm  Tm14  1  0.250000  0.160544  0.392027  1
  Tm  Tm15  1  0.750000  0.836320  0.610435  1
  Tm  Tm16  1  0.750000  0.964032  0.161793  1
  Tm  Tm17  1  0.250000  0.035071  0.837206  1
  Tm  Tm18  1  0.250000  0.463956  0.337492  1
  Tm  Tm19  1  0.750000  0.540344  0.663565  1
  Tm  Tm20  1  0.250000  0.746504  0.231143  1
  Tm  Tm21  1  0.750000  0.253306  0.768872  1
  Tm  Tm22  1  0.750000  0.246333  0.268689  1
  Sc  Sc23  1  0.250000  0.756811  0.732693  1
  Te  Te24  1  0.750000  0.963521  0.737705  1
  Te  Te25  1  0.250000  0.030656  0.262716  1
  Te  Te26  1  0.250000  0.471404  0.762801  1
  Te  Te27  1  0.750000  0.531050  0.237092  1
  Te  Te28  1  0.750000  0.282222  0.626953  1
  Te  Te29  1  0.250000  0.720144  0.373660  1
  Te  Te30  1  0.250000  0.778707  0.871360  1
  Te  Te31  1  0.750000  0.220140  0.126239  1
  Te  Te32  1  0.250000  0.641674  0.571098  1
  Te  Te33  1  0.750000  0.357688  0.428319  1
  Te  Te34  1  0.750000  0.142532  0.928190  1
  Te  Te35  1  0.250000  0.857608  0.070671  1
