# generated using pymatgen
data_Yb20Ir5Au7
_symmetry_space_group_name_H-M   'P 1'
_cell_length_a   6.38459814
_cell_length_b   11.25799030
_cell_length_c   11.25799030
_cell_angle_alpha   90.42976423
_cell_angle_beta   90.01705470
_cell_angle_gamma   90.01705470
_symmetry_Int_Tables_number   1
_chemical_formula_structural   Yb20Ir5Au7
_chemical_formula_sum   'Yb20 Ir5 Au7'
_cell_volume   809.17610851
_cell_formula_units_Z   1
loop_
 _symmetry_equiv_pos_site_id
 _symmetry_equiv_pos_as_xyz
  1  'x, y, z'
loop_
 _atom_site_type_symbol
 _atom_site_label
 _atom_site_symmetry_multiplicity
 _atom_site_fract_x
 _atom_site_fract_y
 _atom_site_fract_z
 _atom_site_occupancy
  Yb  Yb0  1  0.361668  0.830492  0.550822  1
  Yb  Yb1  1  0.861159  0.657262  0.551882  1
  Yb  Yb2  1  0.862056  0.830536  0.948849  1
  Yb  Yb3  1  0.361545  0.667630  0.948068  1
  Yb  Yb4  1  0.859972  0.545326  0.823385  1
  Yb  Yb5  1  0.363301  0.950663  0.831721  1
  Yb  Yb6  1  0.374040  0.545316  0.663990  1
  Yb  Yb7  1  0.863271  0.947896  0.667620  1
  Yb  Yb8  1  0.640028  0.176615  0.454675  1
  Yb  Yb9  1  0.125960  0.336010  0.454685  1
  Yb  Yb10  1  0.136699  0.168279  0.049337  1
  Yb  Yb11  1  0.636729  0.332380  0.052104  1
  Yb  Yb12  1  0.138332  0.449179  0.169508  1
  Yb  Yb13  1  0.637944  0.051151  0.169464  1
  Yb  Yb14  1  0.638841  0.448119  0.342738  1
  Yb  Yb15  1  0.138455  0.051932  0.332370  1
  Yb  Yb16  1  0.500443  0.749618  0.249415  1
  Yb  Yb17  1  0.999557  0.750585  0.250382  1
  Yb  Yb18  1  0.995845  0.255070  0.743361  1
  Yb  Yb19  1  0.504155  0.256639  0.744930  1
  Ir  Ir20  1  0.750000  0.401806  0.598194  1
  Ir  Ir21  1  0.114022  0.750091  0.750042  1
  Ir  Ir22  1  0.611301  0.750775  0.750226  1
  Ir  Ir23  1  0.888699  0.249774  0.249225  1
  Ir  Ir24  1  0.385978  0.249958  0.249909  1
  Au  Au25  1  0.250000  0.903738  0.096262  1
  Au  Au26  1  0.750489  0.595785  0.095201  1
  Au  Au27  1  0.749511  0.904799  0.404215  1
  Au  Au28  1  0.250000  0.597560  0.402440  1
  Au  Au29  1  0.750000  0.097061  0.902939  1
  Au  Au30  1  0.249749  0.404238  0.906285  1
  Au  Au31  1  0.250251  0.093715  0.595762  1
