# generated using pymatgen
data_La3PrB4Cl5
_symmetry_space_group_name_H-M   'P 1'
_cell_length_a   9.26519690
_cell_length_b   9.26519797
_cell_length_c   19.01310700
_cell_angle_alpha   75.38477457
_cell_angle_beta   75.38477283
_cell_angle_gamma   26.66406607
_symmetry_Int_Tables_number   1
_chemical_formula_structural   La3PrB4Cl5
_chemical_formula_sum   'La6 Pr2 B8 Cl10'
_cell_volume   707.39047975
_cell_formula_units_Z   2
loop_
 _symmetry_equiv_pos_site_id
 _symmetry_equiv_pos_as_xyz
  1  'x, y, z'
loop_
 _atom_site_type_symbol
 _atom_site_label
 _atom_site_symmetry_multiplicity
 _atom_site_fract_x
 _atom_site_fract_y
 _atom_site_fract_z
 _atom_site_occupancy
  La  La0  1  0.973744  0.973744  0.623583  1
  La  La1  1  0.026256  0.026256  0.376417  1
  La  La2  1  0.327710  0.327710  0.792929  1
  La  La3  1  0.672290  0.672290  0.207071  1
  La  La4  1  0.969558  0.969558  0.890229  1
  La  La5  1  0.030442  0.030442  0.109771  1
  Pr  Pr6  1  0.611485  0.611485  0.721024  1
  Pr  Pr7  1  0.388515  0.388515  0.278976  1
  B  B8  1  0.155795  0.785606  0.757168  1
  B  B9  1  0.214394  0.844205  0.242832  1
  B  B10  1  0.844205  0.214394  0.242832  1
  B  B11  1  0.785606  0.155795  0.757168  1
  B  B12  1  0.469921  0.469921  0.808337  1
  B  B13  1  0.530079  0.530079  0.191663  1
  B  B14  1  0.469397  0.469397  0.706457  1
  B  B15  1  0.530603  0.530603  0.293543  1
  Cl  Cl16  1  0.139405  0.139405  0.609738  1
  Cl  Cl17  1  0.860595  0.860595  0.390262  1
  Cl  Cl18  1  0.144305  0.144305  0.821281  1
  Cl  Cl19  1  0.855695  0.855695  0.178719  1
  Cl  Cl20  1  0.802106  0.802106  0.905475  1
  Cl  Cl21  1  0.197894  0.197894  0.094525  1
  Cl  Cl22  1  0.796213  0.796213  0.691000  1
  Cl  Cl23  1  0.203787  0.203787  0.309000  1
  Cl  Cl24  1  0.500000  0.500000  0.500000  1
  Cl  Cl25  1  0.500000  0.500000  0.000000  1
