# generated using pymatgen
data_Pr5HoAl23VOs8
_symmetry_space_group_name_H-M   'P 1'
_cell_length_a   8.90137200
_cell_length_b   8.93142531
_cell_length_c   9.67403052
_cell_angle_alpha   90.03240637
_cell_angle_beta   90.00000000
_cell_angle_gamma   119.88875246
_symmetry_Int_Tables_number   1
_chemical_formula_structural   Pr5HoAl23VOs8
_chemical_formula_sum   'Pr5 Ho1 Al23 V1 Os8'
_cell_volume   666.80902502
_cell_formula_units_Z   1
loop_
 _symmetry_equiv_pos_site_id
 _symmetry_equiv_pos_as_xyz
  1  'x, y, z'
loop_
 _atom_site_type_symbol
 _atom_site_label
 _atom_site_symmetry_multiplicity
 _atom_site_fract_x
 _atom_site_fract_y
 _atom_site_fract_z
 _atom_site_occupancy
  Pr  Pr0  1  0.808318  0.616635  0.751532  1
  Pr  Pr1  1  0.616561  0.808844  0.247561  1
  Pr  Pr2  1  0.382530  0.190334  0.751431  1
  Pr  Pr3  1  0.192282  0.808844  0.247561  1
  Pr  Pr4  1  0.807806  0.190334  0.751431  1
  Ho  Ho5  1  0.195384  0.390769  0.245654  1
  Al  Al6  1  0.666663  0.333324  0.985293  1
  Al  Al7  1  0.666212  0.332424  0.515895  1
  Al  Al8  1  0.332830  0.665661  0.484468  1
  Al  Al9  1  0.162735  0.325469  0.569818  1
  Al  Al10  1  0.836026  0.672053  0.424873  1
  Al  Al11  1  0.673484  0.836806  0.572681  1
  Al  Al12  1  0.835144  0.670289  0.078078  1
  Al  Al13  1  0.326087  0.164744  0.424815  1
  Al  Al14  1  0.160451  0.320899  0.930131  1
  Al  Al15  1  0.163323  0.836806  0.572681  1
  Al  Al16  1  0.327730  0.165297  0.077814  1
  Al  Al17  1  0.838656  0.164744  0.424815  1
  Al  Al18  1  0.677227  0.838812  0.927712  1
  Al  Al19  1  0.837565  0.165297  0.077814  1
  Al  Al20  1  0.161587  0.838812  0.927712  1
  Al  Al21  1  0.563488  0.126976  0.251752  1
  Al  Al22  1  0.439059  0.878117  0.749683  1
  Al  Al23  1  0.876778  0.436850  0.252514  1
  Al  Al24  1  0.120603  0.559301  0.750105  1
  Al  Al25  1  0.560073  0.436850  0.252514  1
  Al  Al26  1  0.438699  0.559301  0.750105  1
  Al  Al27  1  0.004314  0.008627  0.250787  1
  Al  Al28  1  0.999621  0.999242  0.750472  1
  V  V29  1  0.332530  0.665061  0.980333  1
  Os  Os30  1  0.493804  0.987609  0.005231  1
  Os  Os31  1  0.013786  0.504984  0.006721  1
  Os  Os32  1  0.498459  0.996917  0.500320  1
  Os  Os33  1  0.491198  0.504984  0.006721  1
  Os  Os34  1  0.002993  0.499863  0.500710  1
  Os  Os35  1  0.496871  0.499863  0.500710  1
  Os  Os36  1  0.999408  0.998816  0.002750  1
  Os  Os37  1  0.999719  0.999439  0.498800  1
