# generated using pymatgen
data_Tb3Ho9Tc4
_symmetry_space_group_name_H-M   'P 1'
_cell_length_a   6.26882664
_cell_length_b   7.42033104
_cell_length_c   9.14073800
_cell_angle_alpha   90.00000000
_cell_angle_beta   90.00000000
_cell_angle_gamma   90.01995886
_symmetry_Int_Tables_number   1
_chemical_formula_structural   Tb3Ho9Tc4
_chemical_formula_sum   'Tb3 Ho9 Tc4'
_cell_volume   425.19757163
_cell_formula_units_Z   1
loop_
 _symmetry_equiv_pos_site_id
 _symmetry_equiv_pos_as_xyz
  1  'x, y, z'
loop_
 _atom_site_type_symbol
 _atom_site_label
 _atom_site_symmetry_multiplicity
 _atom_site_fract_x
 _atom_site_fract_y
 _atom_site_fract_z
 _atom_site_occupancy
  Tb  Tb0  1  0.873666  0.540811  0.250000  1
  Tb  Tb1  1  0.627253  0.041751  0.250000  1
  Tb  Tb2  1  0.126884  0.458654  0.750000  1
  Ho  Ho3  1  0.338614  0.676448  0.062600  1
  Ho  Ho4  1  0.161756  0.175066  0.437444  1
  Ho  Ho5  1  0.661139  0.324236  0.563312  1
  Ho  Ho6  1  0.837729  0.824544  0.936540  1
  Ho  Ho7  1  0.661139  0.324236  0.936688  1
  Ho  Ho8  1  0.837729  0.824544  0.563460  1
  Ho  Ho9  1  0.338614  0.676448  0.437400  1
  Ho  Ho10  1  0.161756  0.175066  0.062556  1
  Ho  Ho11  1  0.373104  0.958684  0.750000  1
  Tc  Tc12  1  0.040443  0.885018  0.250000  1
  Tc  Tc13  1  0.458710  0.385464  0.250000  1
  Tc  Tc14  1  0.959825  0.114436  0.750000  1
  Tc  Tc15  1  0.541638  0.614596  0.750000  1
