# generated using pymatgen
data_Er11TmCo4SnRh
_symmetry_space_group_name_H-M   'P 1'
_cell_length_a   8.21310823
_cell_length_b   8.21298693
_cell_length_c   8.21311003
_cell_angle_alpha   110.93487785
_cell_angle_beta   110.66490205
_cell_angle_gamma   106.84605769
_symmetry_Int_Tables_number   1
_chemical_formula_structural   Er11TmCo4SnRh
_chemical_formula_sum   'Er11 Tm1 Co4 Sn1 Rh1'
_cell_volume   425.80258683
_cell_formula_units_Z   1
loop_
 _symmetry_equiv_pos_site_id
 _symmetry_equiv_pos_as_xyz
  1  'x, y, z'
loop_
 _atom_site_type_symbol
 _atom_site_label
 _atom_site_symmetry_multiplicity
 _atom_site_fract_x
 _atom_site_fract_y
 _atom_site_fract_z
 _atom_site_occupancy
  Er  Er0  1  0.686561  0.382367  0.695806  1
  Er  Er1  1  0.313324  0.008930  0.695606  1
  Er  Er2  1  0.686437  0.990664  0.304227  1
  Er  Er3  1  0.411966  0.214732  0.197516  1
  Er  Er4  1  0.587804  0.785282  0.802225  1
  Er  Er5  1  0.017216  0.214732  0.802766  1
  Er  Er6  1  0.983057  0.785282  0.197477  1
  Er  Er7  1  0.185132  0.288421  0.473226  1
  Er  Er8  1  0.814713  0.711688  0.526582  1
  Er  Er9  1  0.185106  0.711688  0.896975  1
  Er  Er10  1  0.815194  0.288421  0.103289  1
  Tm  Tm11  1  0.313642  0.618245  0.304602  1
  Co  Co12  1  0.112435  0.612314  0.499879  1
  Co  Co13  1  0.887856  0.387904  0.500048  1
  Co  Co14  1  0.378055  0.999695  0.378065  1
  Co  Co15  1  0.621630  0.999695  0.621639  1
  Sn  Sn16  1  0.499901  0.500032  0.000131  1
  Rh  Rh17  1  0.999970  0.999910  0.999940  1
