# generated using pymatgen
data_Lu4B16IrRh3
_symmetry_space_group_name_H-M   'P 1'
_cell_length_a   3.52973500
_cell_length_b   5.91827525
_cell_length_c   11.46857248
_cell_angle_alpha   89.96685416
_cell_angle_beta   90.00000000
_cell_angle_gamma   90.00000000
_symmetry_Int_Tables_number   1
_chemical_formula_structural   Lu4B16IrRh3
_chemical_formula_sum   'Lu4 B16 Ir1 Rh3'
_cell_volume   239.57778853
_cell_formula_units_Z   1
loop_
 _symmetry_equiv_pos_site_id
 _symmetry_equiv_pos_as_xyz
  1  'x, y, z'
loop_
 _atom_site_type_symbol
 _atom_site_label
 _atom_site_symmetry_multiplicity
 _atom_site_fract_x
 _atom_site_fract_y
 _atom_site_fract_z
 _atom_site_occupancy
  Lu  Lu0  1  0.500000  0.369114  0.147822  1
  Lu  Lu1  1  0.500000  0.630963  0.851670  1
  Lu  Lu2  1  0.500000  0.131402  0.649153  1
  Lu  Lu3  1  0.500000  0.868868  0.351194  1
  B  B4  1  0.000000  0.113517  0.047369  1
  B  B5  1  0.000000  0.886454  0.952599  1
  B  B6  1  0.000000  0.386603  0.547237  1
  B  B7  1  0.000000  0.613366  0.452260  1
  B  B8  1  0.000000  0.134842  0.470512  1
  B  B9  1  0.000000  0.864753  0.529539  1
  B  B10  1  0.000000  0.365070  0.970105  1
  B  B11  1  0.000000  0.634964  0.029640  1
  B  B12  1  0.000000  0.022501  0.193839  1
  B  B13  1  0.000000  0.976925  0.805988  1
  B  B14  1  0.000000  0.475813  0.693933  1
  B  B15  1  0.000000  0.523961  0.305963  1
  B  B16  1  0.000000  0.207969  0.311671  1
  B  B17  1  0.000000  0.791692  0.688376  1
  B  B18  1  0.000000  0.291219  0.812201  1
  B  B19  1  0.000000  0.708905  0.187839  1
  Ir  Ir20  1  0.500000  0.357362  0.404199  1
  Rh  Rh21  1  0.500000  0.644011  0.596272  1
  Rh  Rh22  1  0.500000  0.141624  0.904839  1
  Rh  Rh23  1  0.500000  0.858104  0.095781  1
