# generated using pymatgen
data_Li2Nd3Sm(AgAs4)2
_symmetry_space_group_name_H-M   'P 1'
_cell_length_a   4.00015500
_cell_length_b   4.01553714
_cell_length_c   21.37637175
_cell_angle_alpha   89.96958872
_cell_angle_beta   90.00000000
_cell_angle_gamma   90.00000000
_symmetry_Int_Tables_number   1
_chemical_formula_structural   Li2Nd3Sm(AgAs4)2
_chemical_formula_sum   'Li2 Nd3 Sm1 Ag2 As8'
_cell_volume   343.36371535
_cell_formula_units_Z   1
loop_
 _symmetry_equiv_pos_site_id
 _symmetry_equiv_pos_as_xyz
  1  'x, y, z'
loop_
 _atom_site_type_symbol
 _atom_site_label
 _atom_site_symmetry_multiplicity
 _atom_site_fract_x
 _atom_site_fract_y
 _atom_site_fract_z
 _atom_site_occupancy
  Li  Li0  1  0.250000  0.761989  0.750053  1
  Li  Li1  1  0.250000  0.738033  0.249778  1
  Nd  Nd2  1  0.250000  0.262149  0.614843  1
  Nd  Nd3  1  0.750000  0.738534  0.385192  1
  Nd  Nd4  1  0.750000  0.761296  0.885688  1
  Sm  Sm5  1  0.250000  0.238282  0.114486  1
  Ag  Ag6  1  0.750000  0.237511  0.249324  1
  Ag  Ag7  1  0.750000  0.262427  0.749863  1
  As  As8  1  0.250000  0.261618  0.834356  1
  As  As9  1  0.250000  0.238347  0.334259  1
  As  As10  1  0.750000  0.737982  0.164222  1
  As  As11  1  0.750000  0.762094  0.665818  1
  As  As12  1  0.250000  0.774499  0.500192  1
  As  As13  1  0.250000  0.726236  0.001285  1
  As  As14  1  0.750000  0.225512  0.499791  1
  As  As15  1  0.750000  0.273492  0.000849  1
