# generated using pymatgen
data_Nd2RuO6
_symmetry_space_group_name_H-M   'P 1'
_cell_length_a   10.17130580
_cell_length_b   10.17130501
_cell_length_c   5.60790172
_cell_angle_alpha   75.04097274
_cell_angle_beta   75.04097314
_cell_angle_gamma   69.35617804
_symmetry_Int_Tables_number   1
_chemical_formula_structural   Nd2RuO6
_chemical_formula_sum   'Nd8 Ru4 O24'
_cell_volume   515.47684801
_cell_formula_units_Z   4
loop_
 _symmetry_equiv_pos_site_id
 _symmetry_equiv_pos_as_xyz
  1  'x, y, z'
loop_
 _atom_site_type_symbol
 _atom_site_label
 _atom_site_symmetry_multiplicity
 _atom_site_fract_x
 _atom_site_fract_y
 _atom_site_fract_z
 _atom_site_occupancy
  Nd  Nd0  1  0.108675  0.891325  0.750000  1
  Nd  Nd1  1  0.891325  0.108675  0.250000  1
  Nd  Nd2  1  0.065959  0.287653  0.624445  1
  Nd  Nd3  1  0.712347  0.934041  0.875555  1
  Nd  Nd4  1  0.934041  0.712347  0.375555  1
  Nd  Nd5  1  0.287653  0.065959  0.124445  1
  Nd  Nd6  1  0.632186  0.367814  0.750000  1
  Nd  Nd7  1  0.367814  0.632186  0.250000  1
  Ru  Ru8  1  0.502227  0.798423  0.551035  1
  Ru  Ru9  1  0.201577  0.497773  0.948965  1
  Ru  Ru10  1  0.497773  0.201577  0.448965  1
  Ru  Ru11  1  0.798423  0.502227  0.051035  1
  O  O12  1  0.612586  0.172518  0.145271  1
  O  O13  1  0.827482  0.387414  0.354729  1
  O  O14  1  0.387414  0.827482  0.854729  1
  O  O15  1  0.172518  0.612586  0.645271  1
  O  O16  1  0.472911  0.069817  0.733908  1
  O  O17  1  0.930183  0.527089  0.766092  1
  O  O18  1  0.527089  0.930183  0.266092  1
  O  O19  1  0.069817  0.472911  0.233908  1
  O  O20  1  0.324368  0.215308  0.368771  1
  O  O21  1  0.784692  0.675632  0.131229  1
  O  O22  1  0.675632  0.784692  0.631229  1
  O  O23  1  0.215308  0.324368  0.868771  1
  O  O24  1  0.889160  0.923965  0.073586  1
  O  O25  1  0.076035  0.110840  0.426414  1
  O  O26  1  0.110840  0.076035  0.926414  1
  O  O27  1  0.923965  0.889160  0.573586  1
  O  O28  1  0.162828  0.688456  0.086834  1
  O  O29  1  0.311544  0.837172  0.413166  1
  O  O30  1  0.837172  0.311544  0.913166  1
  O  O31  1  0.688456  0.162828  0.586834  1
  O  O32  1  0.384544  0.457916  0.981919  1
  O  O33  1  0.542084  0.615456  0.518081  1
  O  O34  1  0.615456  0.542084  0.018081  1
  O  O35  1  0.457916  0.384544  0.481919  1
