# generated using pymatgen
data_Sm8ReOsBr8
_symmetry_space_group_name_H-M   'P 1'
_cell_length_a   9.26232915
_cell_length_b   9.26233078
_cell_length_c   6.65742251
_cell_angle_alpha   89.77043009
_cell_angle_beta   89.77042894
_cell_angle_gamma   89.47727708
_symmetry_Int_Tables_number   1
_chemical_formula_structural   Sm8ReOsBr8
_chemical_formula_sum   'Sm8 Re1 Os1 Br8'
_cell_volume   571.11245777
_cell_formula_units_Z   1
loop_
 _symmetry_equiv_pos_site_id
 _symmetry_equiv_pos_as_xyz
  1  'x, y, z'
loop_
 _atom_site_type_symbol
 _atom_site_label
 _atom_site_symmetry_multiplicity
 _atom_site_fract_x
 _atom_site_fract_y
 _atom_site_fract_z
 _atom_site_occupancy
  Sm  Sm0  1  0.247776  0.901138  0.011005  1
  Sm  Sm1  1  0.751511  0.099239  0.989847  1
  Sm  Sm2  1  0.098862  0.752224  0.488995  1
  Sm  Sm3  1  0.900761  0.248489  0.510153  1
  Sm  Sm4  1  0.752954  0.902479  0.503300  1
  Sm  Sm5  1  0.246982  0.097399  0.495907  1
  Sm  Sm6  1  0.097521  0.247046  0.996700  1
  Sm  Sm7  1  0.902601  0.753018  0.004093  1
  Re  Re8  1  0.996630  0.003370  0.250000  1
  Os  Os9  1  0.003348  0.996652  0.750000  1
  Br  Br10  1  0.413477  0.819826  0.421974  1
  Br  Br11  1  0.586764  0.179908  0.579067  1
  Br  Br12  1  0.180174  0.586523  0.078026  1
  Br  Br13  1  0.820092  0.413236  0.920933  1
  Br  Br14  1  0.409870  0.184189  0.082072  1
  Br  Br15  1  0.590683  0.815816  0.918287  1
  Br  Br16  1  0.815811  0.590130  0.417928  1
  Br  Br17  1  0.184184  0.409317  0.581713  1
