# generated using pymatgen
data_YEr3CdIr
_symmetry_space_group_name_H-M   'P 1'
_cell_length_a   9.58811238
_cell_length_b   9.58269961
_cell_length_c   9.58269953
_cell_angle_alpha   60.03737407
_cell_angle_beta   59.98131420
_cell_angle_gamma   59.98131074
_symmetry_Int_Tables_number   1
_chemical_formula_structural   YEr3CdIr
_chemical_formula_sum   'Y4 Er12 Cd4 Ir4'
_cell_volume   622.57773095
_cell_formula_units_Z   4
loop_
 _symmetry_equiv_pos_site_id
 _symmetry_equiv_pos_as_xyz
  1  'x, y, z'
loop_
 _atom_site_type_symbol
 _atom_site_label
 _atom_site_symmetry_multiplicity
 _atom_site_fract_x
 _atom_site_fract_y
 _atom_site_fract_z
 _atom_site_occupancy
  Y  Y0  1  0.562147  0.937853  0.562147  1
  Y  Y1  1  0.937853  0.562147  0.937853  1
  Y  Y2  1  0.562147  0.562147  0.937853  1
  Y  Y3  1  0.937853  0.937853  0.562147  1
  Er  Er4  1  0.348793  0.349014  0.349014  1
  Er  Er5  1  0.349014  0.348793  0.953179  1
  Er  Er6  1  0.349014  0.953179  0.348793  1
  Er  Er7  1  0.953179  0.349014  0.349014  1
  Er  Er8  1  0.810800  0.189200  0.189200  1
  Er  Er9  1  0.189200  0.810800  0.810800  1
  Er  Er10  1  0.189292  0.810708  0.189292  1
  Er  Er11  1  0.810708  0.189292  0.810708  1
  Er  Er12  1  0.189292  0.189292  0.810708  1
  Er  Er13  1  0.810708  0.810708  0.189292  1
  Er  Er14  1  0.939002  0.560998  0.560998  1
  Er  Er15  1  0.560998  0.939002  0.939002  1
  Cd  Cd16  1  0.580924  0.580520  0.580520  1
  Cd  Cd17  1  0.580520  0.580924  0.258037  1
  Cd  Cd18  1  0.580520  0.258037  0.580924  1
  Cd  Cd19  1  0.258037  0.580520  0.580520  1
  Ir  Ir20  1  0.141990  0.141593  0.141593  1
  Ir  Ir21  1  0.141593  0.141990  0.574823  1
  Ir  Ir22  1  0.141593  0.574823  0.141990  1
  Ir  Ir23  1  0.574823  0.141593  0.141593  1
