# generated using pymatgen
data_Dy4MgInPd4
_symmetry_space_group_name_H-M   'P 1'
_cell_length_a   3.73637000
_cell_length_b   7.75013400
_cell_length_c   7.75013400
_cell_angle_alpha   90.00000000
_cell_angle_beta   90.00000000
_cell_angle_gamma   90.00000000
_symmetry_Int_Tables_number   1
_chemical_formula_structural   Dy4MgInPd4
_chemical_formula_sum   'Dy4 Mg1 In1 Pd4'
_cell_volume   224.42348363
_cell_formula_units_Z   1
loop_
 _symmetry_equiv_pos_site_id
 _symmetry_equiv_pos_as_xyz
  1  'x, y, z'
loop_
 _atom_site_type_symbol
 _atom_site_label
 _atom_site_symmetry_multiplicity
 _atom_site_fract_x
 _atom_site_fract_y
 _atom_site_fract_z
 _atom_site_occupancy
  Dy  Dy0  1  0.500000  0.154184  0.679112  1
  Dy  Dy1  1  0.500000  0.845816  0.320888  1
  Dy  Dy2  1  0.500000  0.320888  0.154184  1
  Dy  Dy3  1  0.500000  0.679112  0.845816  1
  Mg  Mg4  1  0.000000  0.500000  0.500000  1
  In  In5  1  0.000000  0.000000  0.000000  1
  Pd  Pd6  1  0.000000  0.622925  0.142042  1
  Pd  Pd7  1  0.000000  0.377075  0.857958  1
  Pd  Pd8  1  0.000000  0.857958  0.622925  1
  Pd  Pd9  1  0.000000  0.142042  0.377075  1
