# generated using pymatgen
data_SrLa6Sm3Si8O3
_symmetry_space_group_name_H-M   'P 1'
_cell_length_a   10.85597278
_cell_length_b   10.85597302
_cell_length_c   4.64315200
_cell_angle_alpha   90.00000000
_cell_angle_beta   90.00000000
_cell_angle_gamma   120.11829062
_symmetry_Int_Tables_number   1
_chemical_formula_structural   SrLa6Sm3Si8O3
_chemical_formula_sum   'Sr1 La6 Sm3 Si8 O3'
_cell_volume   473.32792870
_cell_formula_units_Z   1
loop_
 _symmetry_equiv_pos_site_id
 _symmetry_equiv_pos_as_xyz
  1  'x, y, z'
loop_
 _atom_site_type_symbol
 _atom_site_label
 _atom_site_symmetry_multiplicity
 _atom_site_fract_x
 _atom_site_fract_y
 _atom_site_fract_z
 _atom_site_occupancy
  Sr  Sr0  1  0.210804  0.789196  0.000000  1
  La  La1  1  0.578550  0.788834  0.000000  1
  La  La2  1  0.788707  0.576073  0.000000  1
  La  La3  1  0.000107  0.999893  0.000000  1
  La  La4  1  0.211166  0.421450  0.000000  1
  La  La5  1  0.423927  0.211293  0.000000  1
  La  La6  1  0.787985  0.212015  0.000000  1
  Sm  Sm7  1  0.003015  0.502210  0.500000  1
  Sm  Sm8  1  0.500927  0.499073  0.500000  1
  Sm  Sm9  1  0.497790  0.996985  0.500000  1
  Si  Si10  1  0.996729  0.780887  0.500000  1
  Si  Si11  1  0.999822  0.221356  0.500000  1
  Si  Si12  1  0.220927  0.222723  0.500000  1
  Si  Si13  1  0.778644  0.000178  0.500000  1
  Si  Si14  1  0.336656  0.663344  0.500000  1
  Si  Si15  1  0.219113  0.003271  0.500000  1
  Si  Si16  1  0.667037  0.332963  0.500000  1
  Si  Si17  1  0.777277  0.779073  0.500000  1
  O  O18  1  0.987120  0.488367  0.000000  1
  O  O19  1  0.502064  0.497936  0.000000  1
  O  O20  1  0.511633  0.012880  0.000000  1
