# generated using pymatgen
data_Zr3Pa(CdNi2)2
_symmetry_space_group_name_H-M   'P 1'
_cell_length_a   7.25336622
_cell_length_b   7.25336643
_cell_length_c   3.34678900
_cell_angle_alpha   90.00000000
_cell_angle_beta   90.00000000
_cell_angle_gamma   91.80579612
_symmetry_Int_Tables_number   1
_chemical_formula_structural   Zr3Pa(CdNi2)2
_chemical_formula_sum   'Zr3 Pa1 Cd2 Ni4'
_cell_volume   175.99155229
_cell_formula_units_Z   1
loop_
 _symmetry_equiv_pos_site_id
 _symmetry_equiv_pos_as_xyz
  1  'x, y, z'
loop_
 _atom_site_type_symbol
 _atom_site_label
 _atom_site_symmetry_multiplicity
 _atom_site_fract_x
 _atom_site_fract_y
 _atom_site_fract_z
 _atom_site_occupancy
  Zr  Zr0  1  0.324203  0.824203  0.500000  1
  Zr  Zr1  1  0.171733  0.333260  0.500000  1
  Zr  Zr2  1  0.833260  0.671733  0.500000  1
  Pa  Pa3  1  0.668601  0.168601  0.500000  1
  Cd  Cd4  1  0.011208  0.995993  0.000000  1
  Cd  Cd5  1  0.495993  0.511208  0.000000  1
  Ni  Ni6  1  0.119069  0.619069  0.000000  1
  Ni  Ni7  1  0.867186  0.367186  0.000000  1
  Ni  Ni8  1  0.627632  0.881116  0.000000  1
  Ni  Ni9  1  0.381116  0.127632  0.000000  1
