# generated using pymatgen
data_TbThSc3Ga4
_symmetry_space_group_name_H-M   'P 1'
_cell_length_a   7.35766676
_cell_length_b   7.62775643
_cell_length_c   14.55177948
_cell_angle_alpha   89.97632194
_cell_angle_beta   90.16509834
_cell_angle_gamma   89.89392402
_symmetry_Int_Tables_number   1
_chemical_formula_structural   TbThSc3Ga4
_chemical_formula_sum   'Tb4 Th4 Sc12 Ga16'
_cell_volume   816.67723606
_cell_formula_units_Z   4
loop_
 _symmetry_equiv_pos_site_id
 _symmetry_equiv_pos_as_xyz
  1  'x, y, z'
loop_
 _atom_site_type_symbol
 _atom_site_label
 _atom_site_symmetry_multiplicity
 _atom_site_fract_x
 _atom_site_fract_y
 _atom_site_fract_z
 _atom_site_occupancy
  Tb  Tb0  1  0.510611  0.321994  0.096533  1
  Tb  Tb1  1  0.011353  0.178944  0.403817  1
  Tb  Tb2  1  0.510361  0.321762  0.404304  1
  Tb  Tb3  1  0.487492  0.676751  0.594924  1
  Th  Th4  1  0.010546  0.177400  0.096932  1
  Th  Th5  1  0.988553  0.823997  0.904960  1
  Th  Th6  1  0.488676  0.676726  0.904934  1
  Th  Th7  1  0.988219  0.824018  0.594778  1
  Sc  Sc8  1  0.164468  0.498878  0.748451  1
  Sc  Sc9  1  0.835925  0.497229  0.251095  1
  Sc  Sc10  1  0.337727  0.002668  0.251444  1
  Sc  Sc11  1  0.663579  0.001243  0.748936  1
  Sc  Sc12  1  0.330422  0.172685  0.623070  1
  Sc  Sc13  1  0.670855  0.827561  0.375882  1
  Sc  Sc14  1  0.170971  0.672790  0.375455  1
  Sc  Sc15  1  0.670623  0.826773  0.125345  1
  Sc  Sc16  1  0.828932  0.326709  0.622873  1
  Sc  Sc17  1  0.329772  0.172936  0.876006  1
  Sc  Sc18  1  0.830468  0.327145  0.875741  1
  Sc  Sc19  1  0.171201  0.672354  0.125638  1
  Ga  Ga20  1  0.032119  0.121294  0.750050  1
  Ga  Ga21  1  0.968422  0.881053  0.250595  1
  Ga  Ga22  1  0.468467  0.618651  0.249791  1
  Ga  Ga23  1  0.531228  0.379926  0.749523  1
  Ga  Ga24  1  0.287238  0.875183  0.749540  1
  Ga  Ga25  1  0.713653  0.125647  0.250270  1
  Ga  Ga26  1  0.216825  0.374425  0.250284  1
  Ga  Ga27  1  0.785207  0.624137  0.749351  1
  Ga  Ga28  1  0.161044  0.462907  0.539889  1
  Ga  Ga29  1  0.839144  0.533409  0.458460  1
  Ga  Ga30  1  0.340274  0.963931  0.459056  1
  Ga  Ga31  1  0.837788  0.536364  0.040857  1
  Ga  Ga32  1  0.657404  0.036150  0.539900  1
  Ga  Ga33  1  0.160221  0.462410  0.960068  1
  Ga  Ga34  1  0.658614  0.039494  0.960212  1
  Ga  Ga35  1  0.341596  0.964457  0.041034  1
