# generated using pymatgen
data_Y10Tl4In4PtAu3
_symmetry_space_group_name_H-M   'P 1'
_cell_length_a   3.69466200
_cell_length_b   8.26984685
_cell_length_c   18.47529400
_cell_angle_alpha   90.02594639
_cell_angle_beta   90.00000000
_cell_angle_gamma   90.00000000
_symmetry_Int_Tables_number   1
_chemical_formula_structural   Y10Tl4In4PtAu3
_chemical_formula_sum   'Y10 Tl4 In4 Pt1 Au3'
_cell_volume   564.49941241
_cell_formula_units_Z   1
loop_
 _symmetry_equiv_pos_site_id
 _symmetry_equiv_pos_as_xyz
  1  'x, y, z'
loop_
 _atom_site_type_symbol
 _atom_site_label
 _atom_site_symmetry_multiplicity
 _atom_site_fract_x
 _atom_site_fract_y
 _atom_site_fract_z
 _atom_site_occupancy
  Y  Y0  1  0.000000  0.501540  0.498940  1
  Y  Y1  1  0.000000  0.000350  0.000959  1
  Y  Y2  1  0.000000  0.749669  0.284450  1
  Y  Y3  1  0.000000  0.261702  0.714849  1
  Y  Y4  1  0.000000  0.761723  0.784245  1
  Y  Y5  1  0.000000  0.230134  0.218972  1
  Y  Y6  1  0.000000  0.620072  0.083249  1
  Y  Y7  1  0.000000  0.380010  0.918466  1
  Y  Y8  1  0.000000  0.879852  0.580974  1
  Y  Y9  1  0.000000  0.116014  0.413715  1
  Tl  Tl10  1  0.500000  0.710933  0.935306  1
  Tl  Tl11  1  0.500000  0.289442  0.066622  1
  Tl  Tl12  1  0.500000  0.790809  0.433780  1
  Tl  Tl13  1  0.500000  0.209824  0.563393  1
  In  In14  1  0.500000  0.583219  0.647279  1
  In  In15  1  0.500000  0.415618  0.351743  1
  In  In16  1  0.500000  0.918390  0.149267  1
  In  In17  1  0.500000  0.084260  0.852589  1
  Pt  Pt18  1  0.500000  0.028883  0.301673  1
  Au  Au19  1  0.500000  0.529616  0.200039  1
  Au  Au20  1  0.500000  0.468927  0.801099  1
  Au  Au21  1  0.500000  0.969009  0.698384  1
