# generated using pymatgen
data_Nd3Ho(Sn5Rh3)2
_symmetry_space_group_name_H-M   'P 1'
_cell_length_a   13.57934457
_cell_length_b   13.57934438
_cell_length_c   7.24440702
_cell_angle_alpha   90.14531611
_cell_angle_beta   89.85468315
_cell_angle_gamma   160.85223805
_symmetry_Int_Tables_number   1
_chemical_formula_structural   Nd3Ho(Sn5Rh3)2
_chemical_formula_sum   'Nd3 Ho1 Sn10 Rh6'
_cell_volume   438.16747824
_cell_formula_units_Z   1
loop_
 _symmetry_equiv_pos_site_id
 _symmetry_equiv_pos_as_xyz
  1  'x, y, z'
loop_
 _atom_site_type_symbol
 _atom_site_label
 _atom_site_symmetry_multiplicity
 _atom_site_fract_x
 _atom_site_fract_y
 _atom_site_fract_z
 _atom_site_occupancy
  Nd  Nd0  1  0.172114  0.827886  0.745510  1
  Nd  Nd1  1  0.827820  0.172180  0.245088  1
  Nd  Nd2  1  0.476428  0.523572  0.761833  1
  Ho  Ho3  1  0.524553  0.475447  0.262133  1
  Sn  Sn4  1  0.878851  0.121149  0.767765  1
  Sn  Sn5  1  0.120518  0.879482  0.267462  1
  Sn  Sn6  1  0.704099  0.295901  0.451198  1
  Sn  Sn7  1  0.295437  0.704563  0.951025  1
  Sn  Sn8  1  0.596135  0.403865  0.890239  1
  Sn  Sn9  1  0.404461  0.595539  0.388352  1
  Sn  Sn10  1  0.953093  0.046907  0.101623  1
  Sn  Sn11  1  0.047932  0.952068  0.598227  1
  Sn  Sn12  1  0.290326  0.709674  0.523256  1
  Sn  Sn13  1  0.709377  0.290623  0.023666  1
  Rh  Rh14  1  0.050904  0.949096  0.986669  1
  Rh  Rh15  1  0.949376  0.050624  0.480473  1
  Rh  Rh16  1  0.777094  0.222906  0.734912  1
  Rh  Rh17  1  0.222582  0.777418  0.235030  1
  Rh  Rh18  1  0.394811  0.605189  0.016401  1
  Rh  Rh19  1  0.604089  0.395911  0.513136  1
