# generated using pymatgen
data_Hf18Ta3FeRe5Ni
_symmetry_space_group_name_H-M   'P 1'
_cell_length_a   8.50279700
_cell_length_b   8.66289412
_cell_length_c   8.69068424
_cell_angle_alpha   119.86886567
_cell_angle_beta   90.00000000
_cell_angle_gamma   90.00000000
_symmetry_Int_Tables_number   1
_chemical_formula_structural   Hf18Ta3FeRe5Ni
_chemical_formula_sum   'Hf18 Ta3 Fe1 Re5 Ni1'
_cell_volume   555.11348786
_cell_formula_units_Z   1
loop_
 _symmetry_equiv_pos_site_id
 _symmetry_equiv_pos_as_xyz
  1  'x, y, z'
loop_
 _atom_site_type_symbol
 _atom_site_label
 _atom_site_symmetry_multiplicity
 _atom_site_fract_x
 _atom_site_fract_y
 _atom_site_fract_z
 _atom_site_occupancy
  Hf  Hf0  1  0.558671  0.800087  0.600222  1
  Hf  Hf1  1  0.556301  0.799258  0.200208  1
  Hf  Hf2  1  0.556093  0.400675  0.200034  1
  Hf  Hf3  1  0.437150  0.202525  0.405226  1
  Hf  Hf4  1  0.439385  0.202097  0.798014  1
  Hf  Hf5  1  0.439577  0.596325  0.798328  1
  Hf  Hf6  1  0.062850  0.202525  0.405226  1
  Hf  Hf7  1  0.060615  0.202097  0.798014  1
  Hf  Hf8  1  0.060423  0.596325  0.798328  1
  Hf  Hf9  1  0.941329  0.800087  0.600222  1
  Hf  Hf10  1  0.943699  0.799258  0.200208  1
  Hf  Hf11  1  0.943907  0.400675  0.200034  1
  Hf  Hf12  1  0.750000  0.458259  0.916572  1
  Hf  Hf13  1  0.750000  0.460414  0.544784  1
  Hf  Hf14  1  0.750000  0.084067  0.544685  1
  Hf  Hf15  1  0.250000  0.541323  0.082694  1
  Hf  Hf16  1  0.250000  0.542329  0.457915  1
  Hf  Hf17  1  0.250000  0.915146  0.457720  1
  Ta  Ta18  1  0.750000  0.114019  0.227949  1
  Ta  Ta19  1  0.496389  0.998445  0.996836  1
  Ta  Ta20  1  0.003611  0.998445  0.996836  1
  Fe  Fe21  1  0.250000  0.335645  0.670039  1
  Re  Re22  1  0.750000  0.113158  0.884739  1
  Re  Re23  1  0.750000  0.771772  0.884907  1
  Re  Re24  1  0.250000  0.885523  0.770650  1
  Re  Re25  1  0.250000  0.884476  0.113347  1
  Re  Re26  1  0.250000  0.228930  0.113158  1
  Ni  Ni27  1  0.750000  0.666117  0.333110  1
