# generated using pymatgen
data_LaAg5(MoO4)4
_symmetry_space_group_name_H-M   'P 1'
_cell_length_a   10.17572935
_cell_length_b   10.17573029
_cell_length_c   10.17573000
_cell_angle_alpha   109.34846039
_cell_angle_beta   109.71702123
_cell_angle_gamma   109.34845779
_symmetry_Int_Tables_number   1
_chemical_formula_structural   LaAg5(MoO4)4
_chemical_formula_sum   'La2 Ag10 Mo8 O32'
_cell_volume   811.08960291
_cell_formula_units_Z   2
loop_
 _symmetry_equiv_pos_site_id
 _symmetry_equiv_pos_as_xyz
  1  'x, y, z'
loop_
 _atom_site_type_symbol
 _atom_site_label
 _atom_site_symmetry_multiplicity
 _atom_site_fract_x
 _atom_site_fract_y
 _atom_site_fract_z
 _atom_site_occupancy
  La  La0  1  0.125000  0.250002  0.375002  1
  La  La1  1  0.875000  0.749998  0.624998  1
  Ag  Ag2  1  0.776543  0.668084  0.203754  1
  Ag  Ag3  1  0.108458  0.572790  0.276544  1
  Ag  Ag4  1  0.703756  0.927214  0.035666  1
  Ag  Ag5  1  0.535668  0.831911  0.608455  1
  Ag  Ag6  1  0.223457  0.331916  0.796246  1
  Ag  Ag7  1  0.891542  0.427209  0.723456  1
  Ag  Ag8  1  0.296244  0.072786  0.964334  1
  Ag  Ag9  1  0.464332  0.168089  0.391545  1
  Ag  Ag10  1  0.375002  0.750002  0.125002  1
  Ag  Ag11  1  0.624998  0.249998  0.874998  1
  Mo  Mo12  1  0.573146  0.525079  0.741647  1
  Mo  Mo13  1  0.048068  0.831503  0.073147  1
  Mo  Mo14  1  0.783433  0.025076  0.451933  1
  Mo  Mo15  1  0.758352  0.331502  0.283432  1
  Mo  Mo16  1  0.951932  0.168497  0.926853  1
  Mo  Mo17  1  0.426854  0.474921  0.258353  1
  Mo  Mo18  1  0.216567  0.974924  0.548067  1
  Mo  Mo19  1  0.241648  0.668498  0.716568  1
  O  O20  1  0.994448  0.146338  0.514810  1
  O  O21  1  0.848107  0.479631  0.494443  1
  O  O22  1  0.014814  0.020368  0.868475  1
  O  O23  1  0.368481  0.353664  0.348110  1
  O  O24  1  0.005552  0.853662  0.485190  1
  O  O25  1  0.151893  0.520369  0.505557  1
  O  O26  1  0.985186  0.979632  0.131525  1
  O  O27  1  0.631519  0.646336  0.651890  1
  O  O28  1  0.765847  0.925887  0.568988  1
  O  O29  1  0.839956  0.196854  0.265844  1
  O  O30  1  0.068990  0.303137  0.143107  1
  O  O31  1  0.643102  0.574111  0.339953  1
  O  O32  1  0.234153  0.074113  0.431012  1
  O  O33  1  0.160044  0.803146  0.734156  1
  O  O34  1  0.931010  0.696863  0.856893  1
  O  O35  1  0.356898  0.425889  0.660047  1
  O  O36  1  0.664204  0.868385  0.242755  1
  O  O37  1  0.795818  0.421450  0.164201  1
  O  O38  1  0.742756  0.078548  0.874365  1
  O  O39  1  0.374366  0.631611  0.295819  1
  O  O40  1  0.665127  0.647664  0.953832  1
  O  O41  1  0.017458  0.711292  0.165119  1
  O  O42  1  0.453827  0.788700  0.806162  1
  O  O43  1  0.306170  0.852343  0.517463  1
  O  O44  1  0.334873  0.352336  0.046168  1
  O  O45  1  0.982542  0.288708  0.834881  1
  O  O46  1  0.546173  0.211300  0.193838  1
  O  O47  1  0.693830  0.147657  0.482537  1
  O  O48  1  0.625634  0.368389  0.704181  1
  O  O49  1  0.257244  0.921452  0.125635  1
  O  O50  1  0.204182  0.578550  0.835799  1
  O  O51  1  0.335796  0.131615  0.757245  1
