# generated using pymatgen
data_Ac5LaCd23P
_symmetry_space_group_name_H-M   'P 1'
_cell_length_a   10.34473945
_cell_length_b   10.33783120
_cell_length_c   10.33783031
_cell_angle_alpha   60.04421433
_cell_angle_beta   59.97788923
_cell_angle_gamma   59.97789123
_symmetry_Int_Tables_number   1
_chemical_formula_structural   Ac5LaCd23P
_chemical_formula_sum   'Ac5 La1 Cd23 P1'
_cell_volume   781.74117898
_cell_formula_units_Z   1
loop_
 _symmetry_equiv_pos_site_id
 _symmetry_equiv_pos_as_xyz
  1  'x, y, z'
loop_
 _atom_site_type_symbol
 _atom_site_label
 _atom_site_symmetry_multiplicity
 _atom_site_fract_x
 _atom_site_fract_y
 _atom_site_fract_z
 _atom_site_occupancy
  Ac  Ac0  1  0.792514  0.791869  0.207486  1
  Ac  Ac1  1  0.208131  0.791869  0.207486  1
  Ac  Ac2  1  0.792872  0.207128  0.207128  1
  Ac  Ac3  1  0.208131  0.207486  0.791869  1
  Ac  Ac4  1  0.792514  0.207486  0.791869  1
  La  La5  1  0.206106  0.793894  0.793894  1
  Cd  Cd6  1  0.828954  0.828795  0.513299  1
  Cd  Cd7  1  0.828954  0.513299  0.828795  1
  Cd  Cd8  1  0.511608  0.828764  0.828764  1
  Cd  Cd9  1  0.830866  0.828764  0.828764  1
  Cd  Cd10  1  0.171236  0.169134  0.488392  1
  Cd  Cd11  1  0.171236  0.488392  0.169134  1
  Cd  Cd12  1  0.486701  0.171046  0.171046  1
  Cd  Cd13  1  0.171205  0.171046  0.171046  1
  Cd  Cd14  1  0.621442  0.621419  0.135697  1
  Cd  Cd15  1  0.621442  0.135697  0.621419  1
  Cd  Cd16  1  0.136352  0.622532  0.622532  1
  Cd  Cd17  1  0.618583  0.622532  0.622532  1
  Cd  Cd18  1  0.377468  0.381417  0.863648  1
  Cd  Cd19  1  0.377468  0.863648  0.381417  1
  Cd  Cd20  1  0.864303  0.378558  0.378558  1
  Cd  Cd21  1  0.378581  0.378558  0.378558  1
  Cd  Cd22  1  0.000840  0.999160  0.500967  1
  Cd  Cd23  1  0.499033  0.999160  0.500967  1
  Cd  Cd24  1  0.000221  0.499779  0.499779  1
  Cd  Cd25  1  0.499033  0.500967  0.999160  1
  Cd  Cd26  1  0.000840  0.500967  0.999160  1
  Cd  Cd27  1  0.500221  0.999779  0.999779  1
  Cd  Cd28  1  0.499941  0.500059  0.500059  1
  P  P29  1  0.003206  0.996794  0.996794  1
