# generated using pymatgen
data_Sr3MnCdO6
_symmetry_space_group_name_H-M   'P 1'
_cell_length_a   6.79285686
_cell_length_b   6.79285742
_cell_length_c   6.79285839
_cell_angle_alpha   91.08749906
_cell_angle_beta   91.08750092
_cell_angle_gamma   91.08749229
_symmetry_Int_Tables_number   1
_chemical_formula_structural   Sr3MnCdO6
_chemical_formula_sum   'Sr6 Mn2 Cd2 O12'
_cell_volume   313.27069194
_cell_formula_units_Z   2
loop_
 _symmetry_equiv_pos_site_id
 _symmetry_equiv_pos_as_xyz
  1  'x, y, z'
loop_
 _atom_site_type_symbol
 _atom_site_label
 _atom_site_symmetry_multiplicity
 _atom_site_fract_x
 _atom_site_fract_y
 _atom_site_fract_z
 _atom_site_occupancy
  Sr  Sr0  1  0.750000  0.387834  0.112166  1
  Sr  Sr1  1  0.112166  0.750000  0.387834  1
  Sr  Sr2  1  0.250000  0.612166  0.887834  1
  Sr  Sr3  1  0.387834  0.112166  0.750000  1
  Sr  Sr4  1  0.612166  0.887834  0.250000  1
  Sr  Sr5  1  0.887834  0.250000  0.612166  1
  Mn  Mn6  1  0.500000  0.500000  0.500000  1
  Mn  Mn7  1  0.000000  0.000000  0.000000  1
  Cd  Cd8  1  0.250000  0.250000  0.250000  1
  Cd  Cd9  1  0.750000  0.750000  0.750000  1
  O  O10  1  0.079425  0.274973  0.947124  1
  O  O11  1  0.947124  0.079425  0.274973  1
  O  O12  1  0.274973  0.947124  0.079425  1
  O  O13  1  0.420575  0.552876  0.225027  1
  O  O14  1  0.225027  0.420575  0.552876  1
  O  O15  1  0.552876  0.225027  0.420575  1
  O  O16  1  0.920575  0.725027  0.052876  1
  O  O17  1  0.052876  0.920575  0.725027  1
  O  O18  1  0.725027  0.052876  0.920575  1
  O  O19  1  0.579425  0.447124  0.774973  1
  O  O20  1  0.447124  0.774973  0.579425  1
  O  O21  1  0.774973  0.579425  0.447124  1
