# generated using pymatgen
data_Tb2Ho3ErTa2O14
_symmetry_space_group_name_H-M   'P 1'
_cell_length_a   6.36027455
_cell_length_b   6.48018518
_cell_length_c   7.57882017
_cell_angle_alpha   106.75168184
_cell_angle_beta   89.68637906
_cell_angle_gamma   97.54398261
_symmetry_Int_Tables_number   1
_chemical_formula_structural   Tb2Ho3ErTa2O14
_chemical_formula_sum   'Tb2 Ho3 Er1 Ta2 O14'
_cell_volume   296.34946623
_cell_formula_units_Z   1
loop_
 _symmetry_equiv_pos_site_id
 _symmetry_equiv_pos_as_xyz
  1  'x, y, z'
loop_
 _atom_site_type_symbol
 _atom_site_label
 _atom_site_symmetry_multiplicity
 _atom_site_fract_x
 _atom_site_fract_y
 _atom_site_fract_z
 _atom_site_occupancy
  Tb  Tb0  1  0.737283  0.462315  0.115094  1
  Tb  Tb1  1  0.734664  0.455837  0.608536  1
  Ho  Ho2  1  0.544614  0.992254  0.750700  1
  Ho  Ho3  1  0.454192  0.007535  0.249361  1
  Ho  Ho4  1  0.268049  0.547606  0.393427  1
  Er  Er5  1  0.263541  0.537981  0.885009  1
  Ta  Ta6  1  0.000987  0.000390  0.999770  1
  Ta  Ta7  1  0.000732  0.000838  0.500500  1
  O  O8  1  0.708143  0.067433  0.481480  1
  O  O9  1  0.924018  0.678374  0.951796  1
  O  O10  1  0.707603  0.071237  0.051490  1
  O  O11  1  0.929072  0.668857  0.391433  1
  O  O12  1  0.908578  0.950710  0.736934  1
  O  O13  1  0.553262  0.346585  0.834064  1
  O  O14  1  0.538015  0.361003  0.341510  1
  O  O15  1  0.456455  0.639432  0.659688  1
  O  O16  1  0.440094  0.652866  0.165242  1
  O  O17  1  0.090091  0.049583  0.262971  1
  O  O18  1  0.074837  0.330624  0.611005  1
  O  O19  1  0.293228  0.926923  0.949010  1
  O  O20  1  0.079816  0.320207  0.043333  1
  O  O21  1  0.292728  0.931408  0.517645  1
