# generated using pymatgen
data_Tb4Ho3Te8
_symmetry_space_group_name_H-M   'P 1'
_cell_length_a   8.58448700
_cell_length_b   8.58596974
_cell_length_c   8.58448700
_cell_angle_alpha   119.99429135
_cell_angle_beta   90.00000000
_cell_angle_gamma   119.99429135
_symmetry_Int_Tables_number   1
_chemical_formula_structural   Tb4Ho3Te8
_chemical_formula_sum   'Tb4 Ho3 Te8'
_cell_volume   447.48448323
_cell_formula_units_Z   1
loop_
 _symmetry_equiv_pos_site_id
 _symmetry_equiv_pos_as_xyz
  1  'x, y, z'
loop_
 _atom_site_type_symbol
 _atom_site_label
 _atom_site_symmetry_multiplicity
 _atom_site_fract_x
 _atom_site_fract_y
 _atom_site_fract_z
 _atom_site_occupancy
  Tb  Tb0  1  0.249980  0.999986  0.249989  1
  Tb  Tb1  1  0.749995  0.000000  0.249991  1
  Tb  Tb2  1  0.250010  0.000004  0.750008  1
  Tb  Tb3  1  0.750010  0.000006  0.750004  1
  Ho  Ho4  1  0.249981  0.499984  0.249970  1
  Ho  Ho5  1  0.250009  0.499979  0.750058  1
  Ho  Ho6  1  0.750026  0.500031  0.750015  1
  Te  Te7  1  0.999994  0.999881  0.999877  1
  Te  Te8  1  0.500001  0.000112  0.500117  1
  Te  Te9  1  0.993008  0.985836  0.492965  1
  Te  Te10  1  0.992863  0.500149  0.493084  1
  Te  Te11  1  0.507222  0.500004  0.492967  1
  Te  Te12  1  0.992780  0.500003  0.007028  1
  Te  Te13  1  0.507130  0.499855  0.006908  1
  Te  Te14  1  0.506993  0.014174  0.007029  1
