# generated using pymatgen
data_Y12Er4Cd4Ir3Ru
_symmetry_space_group_name_H-M   'P 1'
_cell_length_a   9.66598455
_cell_length_b   9.66598457
_cell_length_c   9.66598542
_cell_angle_alpha   59.70991676
_cell_angle_beta   59.70991764
_cell_angle_gamma   59.70992256
_symmetry_Int_Tables_number   1
_chemical_formula_structural   Y12Er4Cd4Ir3Ru
_chemical_formula_sum   'Y12 Er4 Cd4 Ir3 Ru1'
_cell_volume   634.38426580
_cell_formula_units_Z   1
loop_
 _symmetry_equiv_pos_site_id
 _symmetry_equiv_pos_as_xyz
  1  'x, y, z'
loop_
 _atom_site_type_symbol
 _atom_site_label
 _atom_site_symmetry_multiplicity
 _atom_site_fract_x
 _atom_site_fract_y
 _atom_site_fract_z
 _atom_site_occupancy
  Y  Y0  1  0.810879  0.189455  0.189455  1
  Y  Y1  1  0.189130  0.809476  0.809476  1
  Y  Y2  1  0.189455  0.810879  0.189455  1
  Y  Y3  1  0.809476  0.189130  0.809476  1
  Y  Y4  1  0.189455  0.189455  0.810879  1
  Y  Y5  1  0.809476  0.809476  0.189130  1
  Y  Y6  1  0.940072  0.560813  0.560813  1
  Y  Y7  1  0.559640  0.939029  0.939029  1
  Y  Y8  1  0.560813  0.940072  0.560813  1
  Y  Y9  1  0.939029  0.559640  0.939029  1
  Y  Y10  1  0.560813  0.560813  0.940072  1
  Y  Y11  1  0.939029  0.939029  0.559640  1
  Er  Er12  1  0.347703  0.347703  0.347703  1
  Er  Er13  1  0.348050  0.348050  0.957487  1
  Er  Er14  1  0.348050  0.957487  0.348050  1
  Er  Er15  1  0.957487  0.348050  0.348050  1
  Cd  Cd16  1  0.580262  0.580262  0.580262  1
  Cd  Cd17  1  0.580485  0.580485  0.257666  1
  Cd  Cd18  1  0.580485  0.257666  0.580485  1
  Cd  Cd19  1  0.257666  0.580485  0.580485  1
  Ir  Ir20  1  0.143612  0.143612  0.573230  1
  Ir  Ir21  1  0.143612  0.573230  0.143612  1
  Ir  Ir22  1  0.573230  0.143612  0.143612  1
  Ru  Ru23  1  0.142094  0.142094  0.142094  1
