# generated using pymatgen
data_Y2Pa(GaNi)3
_symmetry_space_group_name_H-M   'P 1'
_cell_length_a   7.08940300
_cell_length_b   7.01632362
_cell_length_c   3.75510800
_cell_angle_alpha   90.00000000
_cell_angle_beta   90.00000000
_cell_angle_gamma   120.34515307
_symmetry_Int_Tables_number   1
_chemical_formula_structural   Y2Pa(GaNi)3
_chemical_formula_sum   'Y2 Pa1 Ga3 Ni3'
_cell_volume   161.19491471
_cell_formula_units_Z   1
loop_
 _symmetry_equiv_pos_site_id
 _symmetry_equiv_pos_as_xyz
  1  'x, y, z'
loop_
 _atom_site_type_symbol
 _atom_site_label
 _atom_site_symmetry_multiplicity
 _atom_site_fract_x
 _atom_site_fract_y
 _atom_site_fract_z
 _atom_site_occupancy
  Y  Y0  1  0.413694  0.412954  0.499999  1
  Y  Y1  1  0.000739  0.587046  0.499999  1
  Pa  Pa2  1  0.580872  0.000000  0.499999  1
  Ga  Ga3  1  0.236463  0.000000  0.000000  1
  Ga  Ga4  1  0.004811  0.249538  0.000000  1
  Ga  Ga5  1  0.755275  0.750462  0.000000  1
  Ni  Ni6  1  0.664156  0.305909  0.000000  1
  Ni  Ni7  1  0.358248  0.694091  0.000000  1
  Ni  Ni8  1  0.985741  0.000000  0.499999  1
