# generated using pymatgen
data_Tb8Tm2Sn5Bi3
_symmetry_space_group_name_H-M   'P 1'
_cell_length_a   8.16763500
_cell_length_b   8.21942593
_cell_length_c   15.58568445
_cell_angle_alpha   90.21106432
_cell_angle_beta   90.00000000
_cell_angle_gamma   90.00000000
_symmetry_Int_Tables_number   1
_chemical_formula_structural   Tb8Tm2Sn5Bi3
_chemical_formula_sum   'Tb16 Tm4 Sn10 Bi6'
_cell_volume   1046.31087783
_cell_formula_units_Z   2
loop_
 _symmetry_equiv_pos_site_id
 _symmetry_equiv_pos_as_xyz
  1  'x, y, z'
loop_
 _atom_site_type_symbol
 _atom_site_label
 _atom_site_symmetry_multiplicity
 _atom_site_fract_x
 _atom_site_fract_y
 _atom_site_fract_z
 _atom_site_occupancy
  Tb  Tb0  1  0.377714  0.840375  0.875930  1
  Tb  Tb1  1  0.877714  0.659625  0.624070  1
  Tb  Tb2  1  0.618340  0.159793  0.376059  1
  Tb  Tb3  1  0.118340  0.340207  0.123941  1
  Tb  Tb4  1  0.623014  0.164279  0.123458  1
  Tb  Tb5  1  0.123014  0.335721  0.376542  1
  Tb  Tb6  1  0.374852  0.843484  0.623086  1
  Tb  Tb7  1  0.874852  0.656516  0.876914  1
  Tb  Tb8  1  0.549589  0.332068  0.893222  1
  Tb  Tb9  1  0.049589  0.167932  0.606778  1
  Tb  Tb10  1  0.454480  0.679208  0.392503  1
  Tb  Tb11  1  0.954480  0.820792  0.107497  1
  Tb  Tb12  1  0.463620  0.668020  0.106613  1
  Tb  Tb13  1  0.963620  0.831980  0.393387  1
  Tb  Tb14  1  0.539773  0.322906  0.606059  1
  Tb  Tb15  1  0.039773  0.177094  0.893941  1
  Tm  Tm16  1  0.209348  0.499884  0.749985  1
  Tm  Tm17  1  0.709348  0.000116  0.750015  1
  Tm  Tm18  1  0.790653  0.499951  0.246676  1
  Tm  Tm19  1  0.290653  0.000049  0.253324  1
  Sn  Sn20  1  0.280202  0.028652  0.455703  1
  Sn  Sn21  1  0.780202  0.471348  0.044297  1
  Sn  Sn22  1  0.571558  0.625728  0.748402  1
  Sn  Sn23  1  0.071558  0.874272  0.751598  1
  Sn  Sn24  1  0.425702  0.375695  0.250310  1
  Sn  Sn25  1  0.925702  0.124305  0.249690  1
  Sn  Sn26  1  0.348223  0.148280  0.751616  1
  Sn  Sn27  1  0.848223  0.351720  0.748384  1
  Sn  Sn28  1  0.653586  0.854307  0.249638  1
  Sn  Sn29  1  0.153586  0.645693  0.250362  1
  Bi  Bi30  1  0.275395  0.023119  0.045678  1
  Bi  Bi31  1  0.775395  0.476881  0.454322  1
  Bi  Bi32  1  0.722081  0.973672  0.544219  1
  Bi  Bi33  1  0.222081  0.526328  0.955781  1
  Bi  Bi34  1  0.721870  0.973895  0.955262  1
  Bi  Bi35  1  0.221870  0.526105  0.544738  1
