# generated using pymatgen
data_CaTh7(AlRu)8
_symmetry_space_group_name_H-M   'P 1'
_cell_length_a   4.07773600
_cell_length_b   7.34332142
_cell_length_c   16.28285395
_cell_angle_alpha   89.29838981
_cell_angle_beta   90.00000000
_cell_angle_gamma   90.00000000
_symmetry_Int_Tables_number   1
_chemical_formula_structural   CaTh7(AlRu)8
_chemical_formula_sum   'Ca1 Th7 Al8 Ru8'
_cell_volume   487.53927638
_cell_formula_units_Z   1
loop_
 _symmetry_equiv_pos_site_id
 _symmetry_equiv_pos_as_xyz
  1  'x, y, z'
loop_
 _atom_site_type_symbol
 _atom_site_label
 _atom_site_symmetry_multiplicity
 _atom_site_fract_x
 _atom_site_fract_y
 _atom_site_fract_z
 _atom_site_occupancy
  Ca  Ca0  1  0.250000  0.539461  0.717885  1
  Th  Th1  1  0.750000  0.958837  0.218275  1
  Th  Th2  1  0.250000  0.168798  0.562805  1
  Th  Th3  1  0.750000  0.830868  0.439208  1
  Th  Th4  1  0.750000  0.458443  0.281964  1
  Th  Th5  1  0.750000  0.332400  0.060707  1
  Th  Th6  1  0.250000  0.670564  0.936284  1
  Th  Th7  1  0.250000  0.039466  0.780688  1
  Al  Al8  1  0.750000  0.503194  0.567148  1
  Al  Al9  1  0.750000  0.371630  0.845201  1
  Al  Al10  1  0.750000  0.007648  0.937686  1
  Al  Al11  1  0.750000  0.858736  0.650286  1
  Al  Al12  1  0.250000  0.497239  0.438453  1
  Al  Al13  1  0.250000  0.996102  0.061531  1
  Al  Al14  1  0.250000  0.634314  0.149352  1
  Al  Al15  1  0.250000  0.135852  0.351354  1
  Ru  Ru16  1  0.750000  0.757363  0.823641  1
  Ru  Ru17  1  0.250000  0.241219  0.935356  1
  Ru  Ru18  1  0.750000  0.263621  0.436504  1
  Ru  Ru19  1  0.250000  0.757061  0.314518  1
  Ru  Ru20  1  0.750000  0.762774  0.065049  1
  Ru  Ru21  1  0.750000  0.220886  0.682828  1
  Ru  Ru22  1  0.250000  0.251530  0.182726  1
  Ru  Ru23  1  0.250000  0.741996  0.560552  1
