# generated using pymatgen
data_Pr2HoGa4Co9B2
_symmetry_space_group_name_H-M   'P 1'
_cell_length_a   5.26183700
_cell_length_b   5.26183667
_cell_length_c   10.42482100
_cell_angle_alpha   90.00000000
_cell_angle_beta   90.00000000
_cell_angle_gamma   119.99998320
_symmetry_Int_Tables_number   1
_chemical_formula_structural   Pr2HoGa4Co9B2
_chemical_formula_sum   'Pr2 Ho1 Ga4 Co9 B2'
_cell_volume   249.96204308
_cell_formula_units_Z   1
loop_
 _symmetry_equiv_pos_site_id
 _symmetry_equiv_pos_as_xyz
  1  'x, y, z'
loop_
 _atom_site_type_symbol
 _atom_site_label
 _atom_site_symmetry_multiplicity
 _atom_site_fract_x
 _atom_site_fract_y
 _atom_site_fract_z
 _atom_site_occupancy
  Pr  Pr0  1  0.000000  0.000000  0.671755  1
  Pr  Pr1  1  0.000000  0.000000  0.328245  1
  Ho  Ho2  1  0.000000  0.000000  0.000000  1
  Ga  Ga3  1  0.666667  0.333333  0.686265  1
  Ga  Ga4  1  0.333333  0.666667  0.313735  1
  Ga  Ga5  1  0.333333  0.666667  0.686265  1
  Ga  Ga6  1  0.666667  0.333333  0.313735  1
  Co  Co7  1  0.500000  0.500000  0.500000  1
  Co  Co8  1  0.000000  0.500000  0.500000  1
  Co  Co9  1  0.500000  0.000000  0.500000  1
  Co  Co10  1  0.500000  0.500000  0.872424  1
  Co  Co11  1  0.500000  0.500000  0.127576  1
  Co  Co12  1  0.000000  0.500000  0.872424  1
  Co  Co13  1  0.000000  0.500000  0.127576  1
  Co  Co14  1  0.500000  0.000000  0.872424  1
  Co  Co15  1  0.500000  0.000000  0.127576  1
  B  B16  1  0.666667  0.333333  0.000000  1
  B  B17  1  0.333333  0.666667  0.000000  1
