# generated using pymatgen
data_Yb8Si13Pt3
_symmetry_space_group_name_H-M   'P 1'
_cell_length_a   8.18913700
_cell_length_b   8.18913666
_cell_length_c   8.41043700
_cell_angle_alpha   90.00000000
_cell_angle_beta   90.00000000
_cell_angle_gamma   120.00000540
_symmetry_Int_Tables_number   1
_chemical_formula_structural   Yb8Si13Pt3
_chemical_formula_sum   'Yb8 Si13 Pt3'
_cell_volume   488.45597408
_cell_formula_units_Z   1
loop_
 _symmetry_equiv_pos_site_id
 _symmetry_equiv_pos_as_xyz
  1  'x, y, z'
loop_
 _atom_site_type_symbol
 _atom_site_label
 _atom_site_symmetry_multiplicity
 _atom_site_fract_x
 _atom_site_fract_y
 _atom_site_fract_z
 _atom_site_occupancy
  Yb  Yb0  1  0.000000  0.000000  0.248906  1
  Yb  Yb1  1  0.000000  0.000000  0.750842  1
  Yb  Yb2  1  0.499311  0.500689  0.245129  1
  Yb  Yb3  1  0.499311  0.998624  0.245129  1
  Yb  Yb4  1  0.001376  0.500689  0.245129  1
  Yb  Yb5  1  0.501374  0.498626  0.754864  1
  Yb  Yb6  1  0.997251  0.498626  0.754864  1
  Yb  Yb7  1  0.501374  0.002749  0.754864  1
  Si  Si8  1  0.833194  0.166806  0.499345  1
  Si  Si9  1  0.833194  0.666391  0.499345  1
  Si  Si10  1  0.333609  0.166806  0.499345  1
  Si  Si11  1  0.834867  0.165133  0.000851  1
  Si  Si12  1  0.834867  0.669736  0.000851  1
  Si  Si13  1  0.330264  0.165133  0.000851  1
  Si  Si14  1  0.165277  0.834723  0.998973  1
  Si  Si15  1  0.669446  0.834723  0.998973  1
  Si  Si16  1  0.165277  0.330554  0.998973  1
  Si  Si17  1  0.162177  0.837823  0.500343  1
  Si  Si18  1  0.675647  0.837823  0.500343  1
  Si  Si19  1  0.162177  0.324353  0.500343  1
  Si  Si20  1  0.333333  0.666667  0.503182  1
  Pt  Pt21  1  0.666667  0.333333  0.497931  1
  Pt  Pt22  1  0.666667  0.333333  0.001360  1
  Pt  Pt23  1  0.333333  0.666667  0.999268  1
