# generated using pymatgen
data_Ce8Al8Ir4Os3Ru
_symmetry_space_group_name_H-M   'P 1'
_cell_length_a   4.18402700
_cell_length_b   7.07499730
_cell_length_c   15.93241327
_cell_angle_alpha   89.55189431
_cell_angle_beta   90.00000000
_cell_angle_gamma   90.00000000
_symmetry_Int_Tables_number   1
_chemical_formula_structural   Ce8Al8Ir4Os3Ru
_chemical_formula_sum   'Ce8 Al8 Ir4 Os3 Ru1'
_cell_volume   471.61655081
_cell_formula_units_Z   1
loop_
 _symmetry_equiv_pos_site_id
 _symmetry_equiv_pos_as_xyz
  1  'x, y, z'
loop_
 _atom_site_type_symbol
 _atom_site_label
 _atom_site_symmetry_multiplicity
 _atom_site_fract_x
 _atom_site_fract_y
 _atom_site_fract_z
 _atom_site_occupancy
  Ce  Ce0  1  0.750000  0.968666  0.221505  1
  Ce  Ce1  1  0.250000  0.160186  0.561965  1
  Ce  Ce2  1  0.750000  0.835334  0.439028  1
  Ce  Ce3  1  0.750000  0.468894  0.279655  1
  Ce  Ce4  1  0.750000  0.337997  0.063362  1
  Ce  Ce5  1  0.250000  0.658948  0.939562  1
  Ce  Ce6  1  0.250000  0.036248  0.778012  1
  Ce  Ce7  1  0.250000  0.534506  0.716463  1
  Al  Al8  1  0.750000  0.496812  0.562740  1
  Al  Al9  1  0.750000  0.363385  0.848959  1
  Al  Al10  1  0.750000  0.999889  0.936837  1
  Al  Al11  1  0.750000  0.861203  0.649430  1
  Al  Al12  1  0.250000  0.498108  0.435960  1
  Al  Al13  1  0.250000  0.999844  0.063532  1
  Al  Al14  1  0.250000  0.638482  0.150651  1
  Al  Al15  1  0.250000  0.138390  0.350605  1
  Ir  Ir16  1  0.750000  0.746294  0.815856  1
  Ir  Ir17  1  0.250000  0.233405  0.931939  1
  Ir  Ir18  1  0.750000  0.265433  0.432486  1
  Ir  Ir19  1  0.750000  0.767918  0.068617  1
  Os  Os20  1  0.250000  0.763346  0.316529  1
  Os  Os21  1  0.750000  0.237983  0.684676  1
  Os  Os22  1  0.250000  0.258443  0.184148  1
  Ru  Ru23  1  0.250000  0.730285  0.567484  1
