# generated using pymatgen
data_NdSm4(In2Rh)2
_symmetry_space_group_name_H-M   'P 1'
_cell_length_a   8.13584200
_cell_length_b   18.59057000
_cell_length_c   3.74283300
_cell_angle_alpha   90.00000000
_cell_angle_beta   90.00000000
_cell_angle_gamma   90.00000000
_symmetry_Int_Tables_number   1
_chemical_formula_structural   NdSm4(In2Rh)2
_chemical_formula_sum   'Nd2 Sm8 In8 Rh4'
_cell_volume   566.10326747
_cell_formula_units_Z   2
loop_
 _symmetry_equiv_pos_site_id
 _symmetry_equiv_pos_as_xyz
  1  'x, y, z'
loop_
 _atom_site_type_symbol
 _atom_site_label
 _atom_site_symmetry_multiplicity
 _atom_site_fract_x
 _atom_site_fract_y
 _atom_site_fract_z
 _atom_site_occupancy
  Nd  Nd0  1  0.500000  0.500000  0.000000  1
  Nd  Nd1  1  0.000000  0.000000  0.000000  1
  Sm  Sm2  1  0.754893  0.278461  0.000000  1
  Sm  Sm3  1  0.245107  0.721539  0.000000  1
  Sm  Sm4  1  0.745107  0.778461  0.000000  1
  Sm  Sm5  1  0.254893  0.221539  0.000000  1
  Sm  Sm6  1  0.622074  0.088646  0.000000  1
  Sm  Sm7  1  0.377926  0.911354  0.000000  1
  Sm  Sm8  1  0.877926  0.588646  0.000000  1
  Sm  Sm9  1  0.122074  0.411354  0.000000  1
  In  In10  1  0.703515  0.930360  0.500000  1
  In  In11  1  0.296485  0.069640  0.500000  1
  In  In12  1  0.796485  0.430360  0.500000  1
  In  In13  1  0.203515  0.569640  0.500000  1
  In  In14  1  0.560334  0.650808  0.500000  1
  In  In15  1  0.439666  0.349192  0.500000  1
  In  In16  1  0.939666  0.150808  0.500000  1
  In  In17  1  0.060334  0.849192  0.500000  1
  Rh  Rh18  1  0.526411  0.194660  0.500000  1
  Rh  Rh19  1  0.473589  0.805340  0.500000  1
  Rh  Rh20  1  0.973589  0.694660  0.500000  1
  Rh  Rh21  1  0.026411  0.305340  0.500000  1
