# generated using pymatgen
data_Tm5AlBi3
_symmetry_space_group_name_H-M   'P 1'
_cell_length_a   8.10217200
_cell_length_b   15.48953800
_cell_length_c   8.15070000
_cell_angle_alpha   90.00000000
_cell_angle_beta   90.00000000
_cell_angle_gamma   90.00000000
_symmetry_Int_Tables_number   1
_chemical_formula_structural   Tm5AlBi3
_chemical_formula_sum   'Tm20 Al4 Bi12'
_cell_volume   1022.90389300
_cell_formula_units_Z   4
loop_
 _symmetry_equiv_pos_site_id
 _symmetry_equiv_pos_as_xyz
  1  'x, y, z'
loop_
 _atom_site_type_symbol
 _atom_site_label
 _atom_site_symmetry_multiplicity
 _atom_site_fract_x
 _atom_site_fract_y
 _atom_site_fract_z
 _atom_site_occupancy
  Tm  Tm0  1  0.220108  0.250000  0.012883  1
  Tm  Tm1  1  0.106359  0.622050  0.146376  1
  Tm  Tm2  1  0.106359  0.877950  0.146376  1
  Tm  Tm3  1  0.560100  0.114308  0.185717  1
  Tm  Tm4  1  0.560100  0.385692  0.185717  1
  Tm  Tm5  1  0.060100  0.114308  0.314283  1
  Tm  Tm6  1  0.060100  0.385692  0.314283  1
  Tm  Tm7  1  0.606358  0.622050  0.353624  1
  Tm  Tm8  1  0.606358  0.877950  0.353624  1
  Tm  Tm9  1  0.720108  0.250000  0.487117  1
  Tm  Tm10  1  0.279892  0.750000  0.512883  1
  Tm  Tm11  1  0.393641  0.122050  0.646376  1
  Tm  Tm12  1  0.393641  0.377950  0.646376  1
  Tm  Tm13  1  0.939900  0.614308  0.685718  1
  Tm  Tm14  1  0.939900  0.885692  0.685718  1
  Tm  Tm15  1  0.439900  0.614308  0.814283  1
  Tm  Tm16  1  0.439900  0.885692  0.814283  1
  Tm  Tm17  1  0.893641  0.122050  0.853624  1
  Tm  Tm18  1  0.893641  0.377950  0.853624  1
  Tm  Tm19  1  0.779892  0.750000  0.987117  1
  Al  Al20  1  0.865657  0.250000  0.144678  1
  Al  Al21  1  0.365657  0.250000  0.355322  1
  Al  Al22  1  0.634342  0.750000  0.644678  1
  Al  Al23  1  0.134342  0.750000  0.855322  1
  Bi  Bi24  1  0.758006  0.544934  0.026772  1
  Bi  Bi25  1  0.758006  0.955066  0.026772  1
  Bi  Bi26  1  0.409051  0.750000  0.124148  1
  Bi  Bi27  1  0.909051  0.750000  0.375852  1
  Bi  Bi28  1  0.258006  0.544934  0.473228  1
  Bi  Bi29  1  0.258006  0.955066  0.473228  1
  Bi  Bi30  1  0.741994  0.044934  0.526772  1
  Bi  Bi31  1  0.741994  0.455066  0.526772  1
  Bi  Bi32  1  0.090949  0.250000  0.624148  1
  Bi  Bi33  1  0.590949  0.250000  0.875852  1
  Bi  Bi34  1  0.241993  0.044934  0.973228  1
  Bi  Bi35  1  0.241993  0.455066  0.973228  1
