# generated using pymatgen
data_Ho2Lu8In8RuPt3
_symmetry_space_group_name_H-M   'P 1'
_cell_length_a   3.57566800
_cell_length_b   8.02241347
_cell_length_c   18.04433600
_cell_angle_alpha   90.05360292
_cell_angle_beta   90.00000000
_cell_angle_gamma   90.00000000
_symmetry_Int_Tables_number   1
_chemical_formula_structural   Ho2Lu8In8RuPt3
_chemical_formula_sum   'Ho2 Lu8 In8 Ru1 Pt3'
_cell_volume   517.61034168
_cell_formula_units_Z   1
loop_
 _symmetry_equiv_pos_site_id
 _symmetry_equiv_pos_as_xyz
  1  'x, y, z'
loop_
 _atom_site_type_symbol
 _atom_site_label
 _atom_site_symmetry_multiplicity
 _atom_site_fract_x
 _atom_site_fract_y
 _atom_site_fract_z
 _atom_site_occupancy
  Ho  Ho0  1  0.000000  0.999705  0.000456  1
  Ho  Ho1  1  0.000000  0.500328  0.499293  1
  Lu  Lu2  1  0.000000  0.115951  0.411716  1
  Lu  Lu3  1  0.000000  0.884158  0.585612  1
  Lu  Lu4  1  0.000000  0.383851  0.914315  1
  Lu  Lu5  1  0.000000  0.618231  0.087304  1
  Lu  Lu6  1  0.000000  0.233339  0.222847  1
  Lu  Lu7  1  0.000000  0.757243  0.778526  1
  Lu  Lu8  1  0.000000  0.256802  0.721524  1
  Lu  Lu9  1  0.000000  0.751112  0.278570  1
  In  In10  1  0.500000  0.423564  0.351069  1
  In  In11  1  0.500000  0.575002  0.647720  1
  In  In12  1  0.500000  0.075075  0.852246  1
  In  In13  1  0.500000  0.930079  0.149541  1
  In  In14  1  0.500000  0.294052  0.066126  1
  In  In15  1  0.500000  0.706925  0.933941  1
  In  In16  1  0.500000  0.207936  0.566566  1
  In  In17  1  0.500000  0.794883  0.431361  1
  Ru  Ru18  1  0.500000  0.019687  0.304517  1
  Pt  Pt19  1  0.500000  0.975927  0.696106  1
  Pt  Pt20  1  0.500000  0.476671  0.804244  1
  Pt  Pt21  1  0.500000  0.519479  0.196400  1
