# generated using pymatgen
data_Tc2Os5WO24
_symmetry_space_group_name_H-M   'P 1'
_cell_length_a   7.55647401
_cell_length_b   7.56224148
_cell_length_c   7.56717611
_cell_angle_alpha   90.02981494
_cell_angle_beta   90.00284236
_cell_angle_gamma   90.00586512
_symmetry_Int_Tables_number   1
_chemical_formula_structural   Tc2Os5WO24
_chemical_formula_sum   'Tc2 Os5 W1 O24'
_cell_volume   432.41775136
_cell_formula_units_Z   1
loop_
 _symmetry_equiv_pos_site_id
 _symmetry_equiv_pos_as_xyz
  1  'x, y, z'
loop_
 _atom_site_type_symbol
 _atom_site_label
 _atom_site_symmetry_multiplicity
 _atom_site_fract_x
 _atom_site_fract_y
 _atom_site_fract_z
 _atom_site_occupancy
  Tc  Tc0  1  0.250005  0.499485  0.249714  1
  Tc  Tc1  1  0.249954  0.999068  0.750359  1
  Os  Os2  1  0.749998  0.500449  0.250223  1
  Os  Os3  1  0.750001  0.000437  0.249745  1
  Os  Os4  1  0.249997  0.999596  0.250264  1
  Os  Os5  1  0.250064  0.499260  0.749689  1
  Os  Os6  1  0.750028  0.500771  0.750169  1
  W  W7  1  0.749938  0.000826  0.749651  1
  O  O8  1  0.752524  0.500854  0.501845  1
  O  O9  1  0.252422  0.499344  0.997876  1
  O  O10  1  0.739712  0.000528  0.001392  1
  O  O11  1  0.241157  0.999556  0.500911  1
  O  O12  1  0.247577  0.499341  0.501863  1
  O  O13  1  0.747467  0.500598  0.998425  1
  O  O14  1  0.258821  0.999238  0.999390  1
  O  O15  1  0.760227  0.000698  0.498275  1
  O  O16  1  0.499157  0.983166  0.739869  1
  O  O17  1  0.000871  0.016444  0.760146  1
  O  O18  1  0.999120  0.485625  0.752518  1
  O  O19  1  0.500833  0.514478  0.747494  1
  O  O20  1  0.500921  0.002827  0.259069  1
  O  O21  1  0.999092  0.997274  0.241036  1
  O  O22  1  0.998641  0.502332  0.247549  1
  O  O23  1  0.501369  0.497696  0.252468  1
  O  O24  1  0.752781  0.248666  0.250021  1
  O  O25  1  0.264242  0.248719  0.749781  1
  O  O26  1  0.733291  0.252139  0.749579  1
  O  O27  1  0.235820  0.750121  0.750190  1
  O  O28  1  0.247623  0.247793  0.249920  1
  O  O29  1  0.747250  0.752079  0.250057  1
  O  O30  1  0.252409  0.751507  0.250075  1
  O  O31  1  0.766687  0.749084  0.750437  1
