# generated using pymatgen
data_Dy5Er7Co4TcBi
_symmetry_space_group_name_H-M   'P 1'
_cell_length_a   8.29216691
_cell_length_b   8.29096529
_cell_length_c   8.29096573
_cell_angle_alpha   110.54751429
_cell_angle_beta   111.54515497
_cell_angle_gamma   106.36094980
_symmetry_Int_Tables_number   1
_chemical_formula_structural   Dy5Er7Co4TcBi
_chemical_formula_sum   'Dy5 Er7 Co4 Tc1 Bi1'
_cell_volume   437.82350130
_cell_formula_units_Z   1
loop_
 _symmetry_equiv_pos_site_id
 _symmetry_equiv_pos_as_xyz
  1  'x, y, z'
loop_
 _atom_site_type_symbol
 _atom_site_label
 _atom_site_symmetry_multiplicity
 _atom_site_fract_x
 _atom_site_fract_y
 _atom_site_fract_z
 _atom_site_occupancy
  Dy  Dy0  1  0.281937  0.182951  0.465496  1
  Dy  Dy1  1  0.717789  0.817264  0.534762  1
  Dy  Dy2  1  0.281937  0.816439  0.098985  1
  Dy  Dy3  1  0.717789  0.183029  0.900525  1
  Dy  Dy4  1  0.618573  0.310283  0.308290  1
  Er  Er5  1  0.380554  0.689432  0.691121  1
  Er  Er6  1  0.002274  0.310709  0.691563  1
  Er  Er7  1  0.998572  0.689662  0.308911  1
  Er  Er8  1  0.214177  0.411416  0.196868  1
  Er  Er9  1  0.785693  0.588877  0.803585  1
  Er  Er10  1  0.214177  0.017309  0.802761  1
  Er  Er11  1  0.785693  0.982108  0.196816  1
  Co  Co12  1  0.000606  0.378015  0.377919  1
  Co  Co13  1  0.000606  0.622687  0.622591  1
  Co  Co14  1  0.388660  0.888698  0.499961  1
  Co  Co15  1  0.611104  0.110930  0.500174  1
  Tc  Tc16  1  0.999936  0.000022  0.999913  1
  Bi  Bi17  1  0.499925  0.500167  0.999758  1
