# generated using pymatgen
data_Sm2Y2BeSi5
_symmetry_space_group_name_H-M   'P 1'
_cell_length_a   3.90234500
_cell_length_b   4.30895049
_cell_length_c   12.40443000
_cell_angle_alpha   100.00220894
_cell_angle_beta   90.00000000
_cell_angle_gamma   90.00000000
_symmetry_Int_Tables_number   1
_chemical_formula_structural   Sm2Y2BeSi5
_chemical_formula_sum   'Sm2 Y2 Be1 Si5'
_cell_volume   205.41042686
_cell_formula_units_Z   1
loop_
 _symmetry_equiv_pos_site_id
 _symmetry_equiv_pos_as_xyz
  1  'x, y, z'
loop_
 _atom_site_type_symbol
 _atom_site_label
 _atom_site_symmetry_multiplicity
 _atom_site_fract_x
 _atom_site_fract_y
 _atom_site_fract_z
 _atom_site_occupancy
  Sm  Sm0  1  0.750000  0.430151  0.860301  1
  Sm  Sm1  1  0.250000  0.570538  0.141077  1
  Y  Y2  1  0.750000  0.702629  0.405259  1
  Y  Y3  1  0.250000  0.297445  0.594888  1
  Be  Be4  1  0.750000  0.022738  0.045475  1
  Si  Si5  1  0.250000  0.980710  0.961419  1
  Si  Si6  1  0.750000  0.113801  0.227603  1
  Si  Si7  1  0.250000  0.883508  0.767015  1
  Si  Si8  1  0.750000  0.823852  0.647706  1
  Si  Si9  1  0.250000  0.174628  0.349255  1
