# generated using pymatgen
data_Tm16TlCd2InNi4
_symmetry_space_group_name_H-M   'P 1'
_cell_length_a   9.44381632
_cell_length_b   9.44437713
_cell_length_c   9.44799773
_cell_angle_alpha   59.78355582
_cell_angle_beta   59.78263972
_cell_angle_gamma   59.92729191
_symmetry_Int_Tables_number   1
_chemical_formula_structural   Tm16TlCd2InNi4
_chemical_formula_sum   'Tm16 Tl1 Cd2 In1 Ni4'
_cell_volume   593.57605123
_cell_formula_units_Z   1
loop_
 _symmetry_equiv_pos_site_id
 _symmetry_equiv_pos_as_xyz
  1  'x, y, z'
loop_
 _atom_site_type_symbol
 _atom_site_label
 _atom_site_symmetry_multiplicity
 _atom_site_fract_x
 _atom_site_fract_y
 _atom_site_fract_z
 _atom_site_occupancy
  Tm  Tm0  1  0.345677  0.345374  0.346099  1
  Tm  Tm1  1  0.349439  0.349047  0.954420  1
  Tm  Tm2  1  0.350966  0.952027  0.349844  1
  Tm  Tm3  1  0.952013  0.351313  0.349620  1
  Tm  Tm4  1  0.810944  0.189562  0.187807  1
  Tm  Tm5  1  0.188145  0.812003  0.811563  1
  Tm  Tm6  1  0.189563  0.811076  0.187799  1
  Tm  Tm7  1  0.811726  0.188121  0.811859  1
  Tm  Tm8  1  0.187490  0.187543  0.812300  1
  Tm  Tm9  1  0.810965  0.810505  0.189104  1
  Tm  Tm10  1  0.939085  0.565528  0.563475  1
  Tm  Tm11  1  0.563139  0.938555  0.935210  1
  Tm  Tm12  1  0.565638  0.939044  0.563366  1
  Tm  Tm13  1  0.938604  0.563112  0.935124  1
  Tm  Tm14  1  0.564429  0.564629  0.936037  1
  Tm  Tm15  1  0.938279  0.938408  0.561507  1
  Tl  Tl16  1  0.584169  0.583914  0.586624  1
  Cd  Cd17  1  0.578675  0.253023  0.581855  1
  Cd  Cd18  1  0.252916  0.578853  0.581795  1
  In  In19  1  0.580222  0.580361  0.253399  1
  Ni  Ni20  1  0.142279  0.143935  0.142875  1
  Ni  Ni21  1  0.138887  0.141220  0.573851  1
  Ni  Ni22  1  0.142233  0.573626  0.141490  1
  Ni  Ni23  1  0.574518  0.139222  0.142979  1
