# generated using pymatgen
data_Tl2Fe(PO3)4
_symmetry_space_group_name_H-M   'P 1'
_cell_length_a   8.67904443
_cell_length_b   8.67904421
_cell_length_c   7.92890700
_cell_angle_alpha   81.59125842
_cell_angle_beta   81.59125863
_cell_angle_gamma   97.22501448
_symmetry_Int_Tables_number   1
_chemical_formula_structural   Tl2Fe(PO3)4
_chemical_formula_sum   'Tl4 Fe2 P8 O24'
_cell_volume   577.83418265
_cell_formula_units_Z   2
loop_
 _symmetry_equiv_pos_site_id
 _symmetry_equiv_pos_as_xyz
  1  'x, y, z'
loop_
 _atom_site_type_symbol
 _atom_site_label
 _atom_site_symmetry_multiplicity
 _atom_site_fract_x
 _atom_site_fract_y
 _atom_site_fract_z
 _atom_site_occupancy
  Tl  Tl0  1  0.488778  0.243811  0.080286  1
  Tl  Tl1  1  0.243811  0.488778  0.580286  1
  Tl  Tl2  1  0.529243  0.791259  0.913592  1
  Tl  Tl3  1  0.791259  0.529243  0.413592  1
  Fe  Fe4  1  0.847767  0.151726  0.751567  1
  Fe  Fe5  1  0.151726  0.847767  0.251567  1
  P  P6  1  0.184854  0.026354  0.833322  1
  P  P7  1  0.026354  0.184854  0.333322  1
  P  P8  1  0.494303  0.164932  0.579002  1
  P  P9  1  0.164932  0.494303  0.079002  1
  P  P10  1  0.494911  0.871896  0.415675  1
  P  P11  1  0.871896  0.494911  0.915675  1
  P  P12  1  0.811682  0.968913  0.180240  1
  P  P13  1  0.968913  0.811682  0.680240  1
  O  O14  1  0.504916  0.330127  0.485648  1
  O  O15  1  0.330127  0.504916  0.985648  1
  O  O16  1  0.602120  0.126546  0.706630  1
  O  O17  1  0.126546  0.602120  0.206630  1
  O  O18  1  0.313912  0.107544  0.667326  1
  O  O19  1  0.107544  0.313912  0.167326  1
  O  O20  1  0.510201  0.057484  0.427450  1
  O  O21  1  0.057484  0.510201  0.927450  1
  O  O22  1  0.385307  0.841823  0.288471  1
  O  O23  1  0.841823  0.385307  0.788471  1
  O  O24  1  0.463194  0.767508  0.588183  1
  O  O25  1  0.767508  0.463194  0.088183  1
  O  O26  1  0.672691  0.862311  0.325245  1
  O  O27  1  0.862311  0.672691  0.825245  1
  O  O28  1  0.741563  0.031822  0.025826  1
  O  O29  1  0.031822  0.741563  0.525826  1
  O  O30  1  0.937531  0.865431  0.162408  1
  O  O31  1  0.865431  0.937531  0.662408  1
  O  O32  1  0.864800  0.115934  0.272273  1
  O  O33  1  0.115934  0.864800  0.772273  1
  O  O34  1  0.265718  0.977047  0.983784  1
  O  O35  1  0.977047  0.265718  0.483784  1
  O  O36  1  0.065159  0.135879  0.847473  1
  O  O37  1  0.135879  0.065159  0.347473  1
