# generated using pymatgen
data_Er2B2Ru5W
_symmetry_space_group_name_H-M   'P 1'
_cell_length_a   9.58667700
_cell_length_b   9.58667700
_cell_length_c   3.11472200
_cell_angle_alpha   90.00000000
_cell_angle_beta   90.00000000
_cell_angle_gamma   90.00000000
_symmetry_Int_Tables_number   1
_chemical_formula_structural   Er2B2Ru5W
_chemical_formula_sum   'Er4 B4 Ru10 W2'
_cell_volume   286.25658152
_cell_formula_units_Z   2
loop_
 _symmetry_equiv_pos_site_id
 _symmetry_equiv_pos_as_xyz
  1  'x, y, z'
loop_
 _atom_site_type_symbol
 _atom_site_label
 _atom_site_symmetry_multiplicity
 _atom_site_fract_x
 _atom_site_fract_y
 _atom_site_fract_z
 _atom_site_occupancy
  Er  Er0  1  0.675411  0.175411  0.000000  1
  Er  Er1  1  0.324589  0.824589  0.000000  1
  Er  Er2  1  0.175411  0.324589  0.000000  1
  Er  Er3  1  0.824589  0.675411  0.000000  1
  B  B4  1  0.120407  0.620407  0.000000  1
  B  B5  1  0.879593  0.379593  0.000000  1
  B  B6  1  0.620407  0.879593  0.000000  1
  B  B7  1  0.379593  0.120407  0.000000  1
  Ru  Ru8  1  0.215801  0.069617  0.500000  1
  Ru  Ru9  1  0.784199  0.930383  0.500000  1
  Ru  Ru10  1  0.069617  0.784199  0.500000  1
  Ru  Ru11  1  0.715801  0.430383  0.500000  1
  Ru  Ru12  1  0.930383  0.215801  0.500000  1
  Ru  Ru13  1  0.284199  0.569617  0.500000  1
  Ru  Ru14  1  0.569617  0.715801  0.500000  1
  Ru  Ru15  1  0.430383  0.284199  0.500000  1
  Ru  Ru16  1  0.500000  0.000000  0.500000  1
  Ru  Ru17  1  0.000000  0.500000  0.500000  1
  W  W18  1  0.000000  0.000000  0.000000  1
  W  W19  1  0.500000  0.500000  0.000000  1
