# generated using pymatgen
data_LaYb3(Si5Pt3)2
_symmetry_space_group_name_H-M   'P 1'
_cell_length_a   8.27200595
_cell_length_b   8.29163420
_cell_length_c   8.29163461
_cell_angle_alpha   138.07725099
_cell_angle_beta   104.48594392
_cell_angle_gamma   90.36775354
_symmetry_Int_Tables_number   1
_chemical_formula_structural   LaYb3(Si5Pt3)2
_chemical_formula_sum   'La1 Yb3 Si10 Pt6'
_cell_volume   351.21877826
_cell_formula_units_Z   1
loop_
 _symmetry_equiv_pos_site_id
 _symmetry_equiv_pos_as_xyz
  1  'x, y, z'
loop_
 _atom_site_type_symbol
 _atom_site_label
 _atom_site_symmetry_multiplicity
 _atom_site_fract_x
 _atom_site_fract_y
 _atom_site_fract_z
 _atom_site_occupancy
  La  La0  1  0.603433  0.870179  0.733254  1
  Yb  Yb1  1  0.861840  0.630215  0.231625  1
  Yb  Yb2  1  0.138000  0.370716  0.767285  1
  Yb  Yb3  1  0.394866  0.128332  0.266534  1
  Si  Si4  1  0.499160  0.750726  0.249240  1
  Si  Si5  1  0.499160  0.249921  0.748434  1
  Si  Si6  1  0.226824  0.977791  0.748094  1
  Si  Si7  1  0.772358  0.520915  0.751649  1
  Si  Si8  1  0.772358  0.020708  0.251442  1
  Si  Si9  1  0.226824  0.478730  0.249033  1
  Si  Si10  1  0.039313  0.888234  0.151078  1
  Si  Si11  1  0.964392  0.114674  0.849719  1
  Si  Si12  1  0.739827  0.389148  0.350679  1
  Si  Si13  1  0.260343  0.609343  0.650999  1
  Pt  Pt14  1  0.001249  0.752246  0.752121  1
  Pt  Pt15  1  0.001249  0.249128  0.249004  1
  Pt  Pt16  1  0.248472  0.863733  0.384740  1
  Pt  Pt17  1  0.752543  0.137770  0.614771  1
  Pt  Pt18  1  0.477580  0.363268  0.114312  1
  Pt  Pt19  1  0.520211  0.634223  0.885988  1
