# generated using pymatgen
data_Ce8Zn3Si12Au
_symmetry_space_group_name_H-M   'P 1'
_cell_length_a   8.25403100
_cell_length_b   8.25403116
_cell_length_c   8.63816500
_cell_angle_alpha   90.00000000
_cell_angle_beta   90.00000000
_cell_angle_gamma   119.99999536
_symmetry_Int_Tables_number   1
_chemical_formula_structural   Ce8Zn3Si12Au
_chemical_formula_sum   'Ce8 Zn3 Si12 Au1'
_cell_volume   509.66445598
_cell_formula_units_Z   1
loop_
 _symmetry_equiv_pos_site_id
 _symmetry_equiv_pos_as_xyz
  1  'x, y, z'
loop_
 _atom_site_type_symbol
 _atom_site_label
 _atom_site_symmetry_multiplicity
 _atom_site_fract_x
 _atom_site_fract_y
 _atom_site_fract_z
 _atom_site_occupancy
  Ce  Ce0  1  0.000000  0.000000  0.250482  1
  Ce  Ce1  1  0.000000  0.000000  0.749732  1
  Ce  Ce2  1  0.501388  0.498612  0.251064  1
  Ce  Ce3  1  0.501388  0.002775  0.251064  1
  Ce  Ce4  1  0.997225  0.498612  0.251064  1
  Ce  Ce5  1  0.500220  0.499780  0.748855  1
  Ce  Ce6  1  0.500220  0.000440  0.748855  1
  Ce  Ce7  1  0.999560  0.499780  0.748855  1
  Zn  Zn8  1  0.333333  0.666667  0.495898  1
  Zn  Zn9  1  0.666667  0.333333  0.503611  1
  Zn  Zn10  1  0.666667  0.333333  0.997171  1
  Si  Si11  1  0.165817  0.834183  0.500637  1
  Si  Si12  1  0.165817  0.331634  0.500637  1
  Si  Si13  1  0.668366  0.834183  0.500637  1
  Si  Si14  1  0.834210  0.165790  0.499518  1
  Si  Si15  1  0.834210  0.668419  0.499518  1
  Si  Si16  1  0.331581  0.165790  0.499518  1
  Si  Si17  1  0.833799  0.166201  0.000033  1
  Si  Si18  1  0.833799  0.667597  0.000033  1
  Si  Si19  1  0.332403  0.166201  0.000033  1
  Si  Si20  1  0.162684  0.837316  0.000264  1
  Si  Si21  1  0.162684  0.325369  0.000264  1
  Si  Si22  1  0.674631  0.837316  0.000264  1
  Au  Au23  1  0.333333  0.666667  0.001994  1
