# generated using pymatgen
data_DyY3(AlPd)4
_symmetry_space_group_name_H-M   'P 1'
_cell_length_a   4.48021900
_cell_length_b   6.90709271
_cell_length_c   7.79742829
_cell_angle_alpha   90.21129466
_cell_angle_beta   90.00000000
_cell_angle_gamma   90.00000000
_symmetry_Int_Tables_number   1
_chemical_formula_structural   DyY3(AlPd)4
_chemical_formula_sum   'Dy1 Y3 Al4 Pd4'
_cell_volume   241.29202332
_cell_formula_units_Z   1
loop_
 _symmetry_equiv_pos_site_id
 _symmetry_equiv_pos_as_xyz
  1  'x, y, z'
loop_
 _atom_site_type_symbol
 _atom_site_label
 _atom_site_symmetry_multiplicity
 _atom_site_fract_x
 _atom_site_fract_y
 _atom_site_fract_z
 _atom_site_occupancy
  Dy  Dy0  1  0.750000  0.466378  0.820437  1
  Y  Y1  1  0.250000  0.032849  0.319756  1
  Y  Y2  1  0.250000  0.532548  0.180279  1
  Y  Y3  1  0.750000  0.966845  0.680517  1
  Al  Al4  1  0.250000  0.145946  0.938649  1
  Al  Al5  1  0.250000  0.646682  0.561247  1
  Al  Al6  1  0.750000  0.853684  0.061616  1
  Al  Al7  1  0.750000  0.353834  0.438425  1
  Pd  Pd8  1  0.250000  0.274996  0.619976  1
  Pd  Pd9  1  0.250000  0.773100  0.880620  1
  Pd  Pd10  1  0.750000  0.726284  0.380577  1
  Pd  Pd11  1  0.750000  0.226853  0.117902  1
