# generated using pymatgen
data_Dy4Y(In2Ru)2
_symmetry_space_group_name_H-M   'P 1'
_cell_length_a   3.66242000
_cell_length_b   7.95042900
_cell_length_c   18.30133300
_cell_angle_alpha   90.00000000
_cell_angle_beta   90.00000000
_cell_angle_gamma   90.00000000
_symmetry_Int_Tables_number   1
_chemical_formula_structural   Dy4Y(In2Ru)2
_chemical_formula_sum   'Dy8 Y2 In8 Ru4'
_cell_volume   532.89474030
_cell_formula_units_Z   2
loop_
 _symmetry_equiv_pos_site_id
 _symmetry_equiv_pos_as_xyz
  1  'x, y, z'
loop_
 _atom_site_type_symbol
 _atom_site_label
 _atom_site_symmetry_multiplicity
 _atom_site_fract_x
 _atom_site_fract_y
 _atom_site_fract_z
 _atom_site_occupancy
  Dy  Dy0  1  0.500000  0.384047  0.589447  1
  Dy  Dy1  1  0.500000  0.884047  0.910553  1
  Dy  Dy2  1  0.500000  0.115953  0.089447  1
  Dy  Dy3  1  0.500000  0.755335  0.721591  1
  Dy  Dy4  1  0.500000  0.255335  0.778409  1
  Dy  Dy5  1  0.500000  0.744665  0.221591  1
  Dy  Dy6  1  0.500000  0.244665  0.278409  1
  Dy  Dy7  1  0.500000  0.615953  0.410553  1
  Y  Y8  1  0.500000  0.500000  0.000000  1
  Y  Y9  1  0.500000  0.000000  0.500000  1
  In  In10  1  0.000000  0.792970  0.068863  1
  In  In11  1  0.000000  0.930391  0.350181  1
  In  In12  1  0.000000  0.069609  0.649819  1
  In  In13  1  0.000000  0.569609  0.850181  1
  In  In14  1  0.000000  0.707030  0.568863  1
  In  In15  1  0.000000  0.207030  0.931137  1
  In  In16  1  0.000000  0.292970  0.431137  1
  In  In17  1  0.000000  0.430391  0.149819  1
  Ru  Ru18  1  0.000000  0.980621  0.803792  1
  Ru  Ru19  1  0.000000  0.519379  0.303792  1
  Ru  Ru20  1  0.000000  0.480621  0.696208  1
  Ru  Ru21  1  0.000000  0.019379  0.196208  1
