# generated using pymatgen
data_Dy13LuAu20
_symmetry_space_group_name_H-M   'P 1'
_cell_length_a   8.70797961
_cell_length_b   8.70798076
_cell_length_c   10.43986315
_cell_angle_alpha   90.01166409
_cell_angle_beta   90.01166602
_cell_angle_gamma   106.93948624
_symmetry_Int_Tables_number   1
_chemical_formula_structural   Dy13LuAu20
_chemical_formula_sum   'Dy13 Lu1 Au20'
_cell_volume   757.29646564
_cell_formula_units_Z   1
loop_
 _symmetry_equiv_pos_site_id
 _symmetry_equiv_pos_as_xyz
  1  'x, y, z'
loop_
 _atom_site_type_symbol
 _atom_site_label
 _atom_site_symmetry_multiplicity
 _atom_site_fract_x
 _atom_site_fract_y
 _atom_site_fract_z
 _atom_site_occupancy
  Dy  Dy0  1  0.694319  0.305681  0.000000  1
  Dy  Dy1  1  0.305681  0.694319  0.000000  1
  Dy  Dy2  1  0.806126  0.193874  0.500000  1
  Dy  Dy3  1  0.193874  0.806126  0.500000  1
  Dy  Dy4  1  0.500000  0.500000  0.500000  1
  Dy  Dy5  1  0.002715  0.502643  0.249548  1
  Dy  Dy6  1  0.997285  0.497357  0.750452  1
  Dy  Dy7  1  0.497357  0.997285  0.750452  1
  Dy  Dy8  1  0.502643  0.002715  0.249548  1
  Dy  Dy9  1  0.311731  0.311731  0.187436  1
  Dy  Dy10  1  0.688269  0.688269  0.812564  1
  Dy  Dy11  1  0.187385  0.187385  0.689334  1
  Dy  Dy12  1  0.812615  0.812615  0.310666  1
  Lu  Lu13  1  0.000000  0.000000  0.000000  1
  Au  Au14  1  0.862274  0.147832  0.208173  1
  Au  Au15  1  0.137726  0.852168  0.791827  1
  Au  Au16  1  0.640442  0.350899  0.709808  1
  Au  Au17  1  0.649101  0.359558  0.290192  1
  Au  Au18  1  0.359558  0.649101  0.290192  1
  Au  Au19  1  0.350899  0.640442  0.709808  1
  Au  Au20  1  0.852168  0.137726  0.791827  1
  Au  Au21  1  0.147832  0.862274  0.208173  1
  Au  Au22  1  0.937799  0.647711  0.002759  1
  Au  Au23  1  0.062201  0.352289  0.997241  1
  Au  Au24  1  0.562906  0.855211  0.501938  1
  Au  Au25  1  0.144789  0.437094  0.498062  1
  Au  Au26  1  0.437094  0.144789  0.498062  1
  Au  Au27  1  0.855211  0.562906  0.501938  1
  Au  Au28  1  0.352289  0.062201  0.997241  1
  Au  Au29  1  0.647711  0.937799  0.002759  1
  Au  Au30  1  0.106046  0.106046  0.397936  1
  Au  Au31  1  0.893954  0.893954  0.602064  1
  Au  Au32  1  0.395283  0.395283  0.897700  1
  Au  Au33  1  0.604717  0.604717  0.102300  1
