# generated using pymatgen
data_Dy2Er10IrOs3
_symmetry_space_group_name_H-M   'P 1'
_cell_length_a   6.33539605
_cell_length_b   7.33132830
_cell_length_c   8.97382200
_cell_angle_alpha   90.00000000
_cell_angle_beta   90.00000000
_cell_angle_gamma   90.08406709
_symmetry_Int_Tables_number   1
_chemical_formula_structural   Dy2Er10IrOs3
_chemical_formula_sum   'Dy2 Er10 Ir1 Os3'
_cell_volume   416.80548046
_cell_formula_units_Z   1
loop_
 _symmetry_equiv_pos_site_id
 _symmetry_equiv_pos_as_xyz
  1  'x, y, z'
loop_
 _atom_site_type_symbol
 _atom_site_label
 _atom_site_symmetry_multiplicity
 _atom_site_fract_x
 _atom_site_fract_y
 _atom_site_fract_z
 _atom_site_occupancy
  Dy  Dy0  1  0.872993  0.537674  0.250000  1
  Dy  Dy1  1  0.628127  0.038799  0.250000  1
  Er  Er2  1  0.332148  0.673254  0.061391  1
  Er  Er3  1  0.170199  0.176252  0.438876  1
  Er  Er4  1  0.669632  0.325027  0.563160  1
  Er  Er5  1  0.827510  0.824654  0.935083  1
  Er  Er6  1  0.669632  0.325027  0.936840  1
  Er  Er7  1  0.827510  0.824654  0.564917  1
  Er  Er8  1  0.332148  0.673254  0.438609  1
  Er  Er9  1  0.170199  0.176252  0.061124  1
  Er  Er10  1  0.127706  0.462019  0.750000  1
  Er  Er11  1  0.370222  0.961533  0.750000  1
  Ir  Ir12  1  0.041987  0.884787  0.250000  1
  Os  Os13  1  0.460785  0.383872  0.250000  1
  Os  Os14  1  0.963198  0.116054  0.750000  1
  Os  Os15  1  0.536003  0.616887  0.750000  1
