# generated using pymatgen
data_Eu3Al2(SbP)2
_symmetry_space_group_name_H-M   'P 1'
_cell_length_a   8.64074279
_cell_length_b   8.64074150
_cell_length_c   6.78426178
_cell_angle_alpha   90.18446020
_cell_angle_beta   90.18446373
_cell_angle_gamma   75.29078323
_symmetry_Int_Tables_number   1
_chemical_formula_structural   Eu3Al2(SbP)2
_chemical_formula_sum   'Eu6 Al4 Sb4 P4'
_cell_volume   489.92485589
_cell_formula_units_Z   2
loop_
 _symmetry_equiv_pos_site_id
 _symmetry_equiv_pos_as_xyz
  1  'x, y, z'
loop_
 _atom_site_type_symbol
 _atom_site_label
 _atom_site_symmetry_multiplicity
 _atom_site_fract_x
 _atom_site_fract_y
 _atom_site_fract_z
 _atom_site_occupancy
  Eu  Eu0  1  0.735530  0.003043  0.986894  1
  Eu  Eu1  1  0.996957  0.264470  0.513106  1
  Eu  Eu2  1  0.264470  0.996957  0.013106  1
  Eu  Eu3  1  0.003043  0.735530  0.486894  1
  Eu  Eu4  1  0.584280  0.415720  0.250000  1
  Eu  Eu5  1  0.415720  0.584280  0.750000  1
  Al  Al6  1  0.593185  0.807654  0.398645  1
  Al  Al7  1  0.192346  0.406815  0.101355  1
  Al  Al8  1  0.406815  0.192346  0.601355  1
  Al  Al9  1  0.807654  0.593185  0.898645  1
  Sb  Sb10  1  0.714748  0.064449  0.484300  1
  Sb  Sb11  1  0.935551  0.285252  0.015700  1
  Sb  Sb12  1  0.285252  0.935551  0.515700  1
  Sb  Sb13  1  0.064449  0.714748  0.984300  1
  P  P14  1  0.568952  0.739152  0.060753  1
  P  P15  1  0.260848  0.431048  0.439247  1
  P  P16  1  0.431048  0.260848  0.939247  1
  P  P17  1  0.739152  0.568952  0.560753  1
