# generated using pymatgen
data_Tb16Cd4Ni2IrRh
_symmetry_space_group_name_H-M   'P 1'
_cell_length_a   9.63951283
_cell_length_b   9.63951292
_cell_length_c   9.68910712
_cell_angle_alpha   59.93510906
_cell_angle_beta   59.93510479
_cell_angle_gamma   59.70235234
_symmetry_Int_Tables_number   1
_chemical_formula_structural   Tb16Cd4Ni2IrRh
_chemical_formula_sum   'Tb16 Cd4 Ni2 Ir1 Rh1'
_cell_volume   634.55270824
_cell_formula_units_Z   1
loop_
 _symmetry_equiv_pos_site_id
 _symmetry_equiv_pos_as_xyz
  1  'x, y, z'
loop_
 _atom_site_type_symbol
 _atom_site_label
 _atom_site_symmetry_multiplicity
 _atom_site_fract_x
 _atom_site_fract_y
 _atom_site_fract_z
 _atom_site_occupancy
  Tb  Tb0  1  0.348832  0.348832  0.343992  1
  Tb  Tb1  1  0.351784  0.351784  0.952349  1
  Tb  Tb2  1  0.353652  0.951894  0.348955  1
  Tb  Tb3  1  0.951894  0.353652  0.348955  1
  Tb  Tb4  1  0.808109  0.188183  0.190599  1
  Tb  Tb5  1  0.187350  0.809569  0.812200  1
  Tb  Tb6  1  0.188183  0.808109  0.190599  1
  Tb  Tb7  1  0.809569  0.187350  0.812200  1
  Tb  Tb8  1  0.189180  0.189180  0.810305  1
  Tb  Tb9  1  0.810983  0.810983  0.188073  1
  Tb  Tb10  1  0.937313  0.561794  0.566760  1
  Tb  Tb11  1  0.561904  0.936993  0.935659  1
  Tb  Tb12  1  0.561794  0.937313  0.566760  1
  Tb  Tb13  1  0.936993  0.561904  0.935659  1
  Tb  Tb14  1  0.566366  0.566366  0.935149  1
  Tb  Tb15  1  0.938503  0.938503  0.561810  1
  Cd  Cd16  1  0.579676  0.579676  0.582026  1
  Cd  Cd17  1  0.579673  0.579673  0.256138  1
  Cd  Cd18  1  0.579768  0.255830  0.580893  1
  Cd  Cd19  1  0.255830  0.579768  0.580893  1
  Ni  Ni20  1  0.143116  0.573257  0.142486  1
  Ni  Ni21  1  0.573257  0.143116  0.142486  1
  Ir  Ir22  1  0.142687  0.142687  0.573518  1
  Rh  Rh23  1  0.143581  0.143581  0.141535  1
