# generated using pymatgen
data_Ho20Ru7Pt5
_symmetry_space_group_name_H-M   'P 1'
_cell_length_a   10.82213325
_cell_length_b   10.82213331
_cell_length_c   6.41496417
_cell_angle_alpha   90.02509077
_cell_angle_beta   90.02509447
_cell_angle_gamma   89.73562872
_symmetry_Int_Tables_number   1
_chemical_formula_structural   Ho20Ru7Pt5
_chemical_formula_sum   'Ho20 Ru7 Pt5'
_cell_volume   751.30328092
_cell_formula_units_Z   1
loop_
 _symmetry_equiv_pos_site_id
 _symmetry_equiv_pos_as_xyz
  1  'x, y, z'
loop_
 _atom_site_type_symbol
 _atom_site_label
 _atom_site_symmetry_multiplicity
 _atom_site_fract_x
 _atom_site_fract_y
 _atom_site_fract_z
 _atom_site_occupancy
  Ho  Ho0  1  0.296932  0.089197  0.373794  1
  Ho  Ho1  1  0.296852  0.910214  0.873477  1
  Ho  Ho2  1  0.702456  0.084330  0.873305  1
  Ho  Ho3  1  0.702629  0.910275  0.373876  1
  Ho  Ho4  1  0.584318  0.790485  0.877658  1
  Ho  Ho5  1  0.582574  0.205521  0.372836  1
  Ho  Ho6  1  0.415155  0.792310  0.377055  1
  Ho  Ho7  1  0.412199  0.206513  0.879451  1
  Ho  Ho8  1  0.209515  0.415682  0.622342  1
  Ho  Ho9  1  0.207690  0.584845  0.122945  1
  Ho  Ho10  1  0.794479  0.417426  0.127164  1
  Ho  Ho11  1  0.793487  0.587801  0.620549  1
  Ho  Ho12  1  0.910803  0.703068  0.126206  1
  Ho  Ho13  1  0.915670  0.297544  0.626695  1
  Ho  Ho14  1  0.089786  0.703148  0.626523  1
  Ho  Ho15  1  0.089725  0.297371  0.126124  1
  Ho  Ho16  1  0.999942  0.999770  0.499298  1
  Ho  Ho17  1  0.000230  0.000058  0.000702  1
  Ho  Ho18  1  0.497521  0.501699  0.002277  1
  Ho  Ho19  1  0.498301  0.502479  0.497723  1
  Ru  Ru20  1  0.653494  0.652173  0.249603  1
  Ru  Ru21  1  0.347827  0.346506  0.250397  1
  Ru  Ru22  1  0.345889  0.654111  0.750000  1
  Ru  Ru23  1  0.499950  0.000412  0.122331  1
  Ru  Ru24  1  0.499993  0.000239  0.623844  1
  Ru  Ru25  1  0.999761  0.500007  0.876156  1
  Ru  Ru26  1  0.999588  0.500050  0.377669  1
  Pt  Pt27  1  0.846837  0.153163  0.250000  1
  Pt  Pt28  1  0.848207  0.848788  0.750284  1
  Pt  Pt29  1  0.151212  0.151793  0.749716  1
  Pt  Pt30  1  0.152081  0.847919  0.250000  1
  Pt  Pt31  1  0.654896  0.345104  0.750000  1
