# generated using pymatgen
data_Tb6Ga7Co16
_symmetry_space_group_name_H-M   'P 1'
_cell_length_a   8.47080143
_cell_length_b   8.47125879
_cell_length_c   8.46963502
_cell_angle_alpha   60.00667512
_cell_angle_beta   60.00557111
_cell_angle_gamma   60.01113034
_symmetry_Int_Tables_number   1
_chemical_formula_structural   Tb6Ga7Co16
_chemical_formula_sum   'Tb6 Ga7 Co16'
_cell_volume   429.83211612
_cell_formula_units_Z   1
loop_
 _symmetry_equiv_pos_site_id
 _symmetry_equiv_pos_as_xyz
  1  'x, y, z'
loop_
 _atom_site_type_symbol
 _atom_site_label
 _atom_site_symmetry_multiplicity
 _atom_site_fract_x
 _atom_site_fract_y
 _atom_site_fract_z
 _atom_site_occupancy
  Tb  Tb0  1  0.719502  0.719469  0.280521  1
  Tb  Tb1  1  0.280500  0.719479  0.280527  1
  Tb  Tb2  1  0.719494  0.280513  0.280516  1
  Tb  Tb3  1  0.280498  0.280531  0.719479  1
  Tb  Tb4  1  0.719500  0.280521  0.719473  1
  Tb  Tb5  1  0.280506  0.719487  0.719484  1
  Ga  Ga6  1  0.000000  0.000000  0.000000  1
  Ga  Ga7  1  0.000000  0.000000  0.500000  1
  Ga  Ga8  1  0.500000  0.000000  0.500000  1
  Ga  Ga9  1  0.000000  0.500000  0.500000  1
  Ga  Ga10  1  0.500000  0.500000  0.000000  1
  Ga  Ga11  1  0.000000  0.500000  0.000000  1
  Ga  Ga12  1  0.500000  0.000000  0.000000  1
  Co  Co13  1  0.873798  0.873762  0.378683  1
  Co  Co14  1  0.873749  0.378820  0.873732  1
  Co  Co15  1  0.378741  0.873748  0.873770  1
  Co  Co16  1  0.873779  0.873738  0.873755  1
  Co  Co17  1  0.126202  0.126238  0.621317  1
  Co  Co18  1  0.126251  0.621180  0.126268  1
  Co  Co19  1  0.621259  0.126252  0.126230  1
  Co  Co20  1  0.126221  0.126262  0.126245  1
  Co  Co21  1  0.679087  0.679030  0.962911  1
  Co  Co22  1  0.679096  0.962926  0.678995  1
  Co  Co23  1  0.963070  0.679010  0.678965  1
  Co  Co24  1  0.679094  0.679039  0.678998  1
  Co  Co25  1  0.320913  0.320970  0.037089  1
  Co  Co26  1  0.320904  0.037074  0.321005  1
  Co  Co27  1  0.036930  0.320990  0.321035  1
  Co  Co28  1  0.320906  0.320961  0.321002  1
