# generated using pymatgen
data_Th2Al3CuGeAu
_symmetry_space_group_name_H-M   'P 1'
_cell_length_a   9.34528787
_cell_length_b   9.34528781
_cell_length_c   4.25339400
_cell_angle_alpha   90.00000000
_cell_angle_beta   90.00000000
_cell_angle_gamma   153.87307793
_symmetry_Int_Tables_number   1
_chemical_formula_structural   Th2Al3CuGeAu
_chemical_formula_sum   'Th2 Al3 Cu1 Ge1 Au1'
_cell_volume   163.57989025
_cell_formula_units_Z   1
loop_
 _symmetry_equiv_pos_site_id
 _symmetry_equiv_pos_as_xyz
  1  'x, y, z'
loop_
 _atom_site_type_symbol
 _atom_site_label
 _atom_site_symmetry_multiplicity
 _atom_site_fract_x
 _atom_site_fract_y
 _atom_site_fract_z
 _atom_site_occupancy
  Th  Th0  1  0.896794  0.103206  0.750000  1
  Th  Th1  1  0.097882  0.902118  0.250000  1
  Al  Al2  1  0.254973  0.745027  0.750000  1
  Al  Al3  1  0.754652  0.245348  0.250000  1
  Al  Al4  1  0.533878  0.466122  0.750000  1
  Cu  Cu5  1  0.328825  0.671175  0.250000  1
  Ge  Ge6  1  0.461560  0.538440  0.250000  1
  Au  Au7  1  0.671435  0.328565  0.750000  1
