# generated using pymatgen
data_CePrSiIrI2
_symmetry_space_group_name_H-M   'P 1'
_cell_length_a   4.25781700
_cell_length_b   4.25781652
_cell_length_c   11.65717300
_cell_angle_alpha   90.00000000
_cell_angle_beta   90.00000000
_cell_angle_gamma   119.99998041
_symmetry_Int_Tables_number   1
_chemical_formula_structural   CePrSiIrI2
_chemical_formula_sum   'Ce1 Pr1 Si1 Ir1 I2'
_cell_volume   183.01972295
_cell_formula_units_Z   1
loop_
 _symmetry_equiv_pos_site_id
 _symmetry_equiv_pos_as_xyz
  1  'x, y, z'
loop_
 _atom_site_type_symbol
 _atom_site_label
 _atom_site_symmetry_multiplicity
 _atom_site_fract_x
 _atom_site_fract_y
 _atom_site_fract_z
 _atom_site_occupancy
  Ce  Ce0  1  0.000000  0.000000  0.157479  1
  Pr  Pr1  1  0.000000  0.000000  0.835933  1
  Si  Si2  1  0.666667  0.333333  0.993652  1
  Ir  Ir3  1  0.333333  0.666667  0.015443  1
  I  I4  1  0.333333  0.666667  0.651623  1
  I  I5  1  0.666667  0.333333  0.345870  1
