# generated using pymatgen
data_Tb5In4GaCo
_symmetry_space_group_name_H-M   'P 1'
_cell_length_a   3.60255800
_cell_length_b   8.21620708
_cell_length_c   18.24873189
_cell_angle_alpha   90.87612129
_cell_angle_beta   90.00000000
_cell_angle_gamma   90.00000000
_symmetry_Int_Tables_number   1
_chemical_formula_structural   Tb5In4GaCo
_chemical_formula_sum   'Tb10 In8 Ga2 Co2'
_cell_volume   540.08768329
_cell_formula_units_Z   2
loop_
 _symmetry_equiv_pos_site_id
 _symmetry_equiv_pos_as_xyz
  1  'x, y, z'
loop_
 _atom_site_type_symbol
 _atom_site_label
 _atom_site_symmetry_multiplicity
 _atom_site_fract_x
 _atom_site_fract_y
 _atom_site_fract_z
 _atom_site_occupancy
  Tb  Tb0  1  0.000000  0.113707  0.412512  1
  Tb  Tb1  1  0.000000  0.886293  0.587488  1
  Tb  Tb2  1  0.000000  0.375919  0.919811  1
  Tb  Tb3  1  0.000000  0.624081  0.080189  1
  Tb  Tb4  1  0.000000  0.212255  0.226383  1
  Tb  Tb5  1  0.000000  0.787745  0.773617  1
  Tb  Tb6  1  0.000000  0.234639  0.716381  1
  Tb  Tb7  1  0.000000  0.765361  0.283619  1
  Tb  Tb8  1  0.000000  0.000000  0.000000  1
  Tb  Tb9  1  0.000000  0.500000  0.500000  1
  In  In10  1  0.500000  0.419707  0.351078  1
  In  In11  1  0.500000  0.580293  0.648922  1
  In  In12  1  0.500000  0.073703  0.849855  1
  In  In13  1  0.500000  0.926297  0.150145  1
  In  In14  1  0.500000  0.291847  0.071817  1
  In  In15  1  0.500000  0.708153  0.928183  1
  In  In16  1  0.500000  0.205207  0.568045  1
  In  In17  1  0.500000  0.794793  0.431955  1
  Ga  Ga18  1  0.500000  0.480595  0.800229  1
  Ga  Ga19  1  0.500000  0.519405  0.199771  1
  Co  Co20  1  0.500000  0.019450  0.304889  1
  Co  Co21  1  0.500000  0.980550  0.695111  1
