# generated using pymatgen
data_TmLu3(Al3Rh)6
_symmetry_space_group_name_H-M   'P 1'
_cell_length_a   7.52934604
_cell_length_b   7.53094860
_cell_length_c   9.40582400
_cell_angle_alpha   90.00000000
_cell_angle_beta   90.00000000
_cell_angle_gamma   119.34456040
_symmetry_Int_Tables_number   1
_chemical_formula_structural   TmLu3(Al3Rh)6
_chemical_formula_sum   'Tm1 Lu3 Al18 Rh6'
_cell_volume   464.90589896
_cell_formula_units_Z   1
loop_
 _symmetry_equiv_pos_site_id
 _symmetry_equiv_pos_as_xyz
  1  'x, y, z'
loop_
 _atom_site_type_symbol
 _atom_site_label
 _atom_site_symmetry_multiplicity
 _atom_site_fract_x
 _atom_site_fract_y
 _atom_site_fract_z
 _atom_site_occupancy
  Tm  Tm0  1  0.994468  0.671772  0.250000  1
  Lu  Lu1  1  0.005328  0.328336  0.750000  1
  Lu  Lu2  1  0.671678  0.994666  0.250000  1
  Lu  Lu3  1  0.328457  0.005405  0.750000  1
  Al  Al4  1  0.127229  0.127529  0.250000  1
  Al  Al5  1  0.872267  0.872528  0.750000  1
  Al  Al6  1  0.000051  0.335118  0.075630  1
  Al  Al7  1  0.999743  0.664120  0.923601  1
  Al  Al8  1  0.999743  0.664120  0.576399  1
  Al  Al9  1  0.336098  0.000499  0.424255  1
  Al  Al10  1  0.000051  0.335118  0.424370  1
  Al  Al11  1  0.664228  0.999872  0.575687  1
  Al  Al12  1  0.664228  0.999872  0.924313  1
  Al  Al13  1  0.336098  0.000499  0.075745  1
  Al  Al14  1  0.332437  0.332389  0.551718  1
  Al  Al15  1  0.667177  0.667604  0.449053  1
  Al  Al16  1  0.667177  0.667604  0.050947  1
  Al  Al17  1  0.332437  0.332389  0.948282  1
  Al  Al18  1  0.339961  0.551288  0.250000  1
  Al  Al19  1  0.660285  0.449238  0.750000  1
  Al  Al20  1  0.550879  0.339151  0.250000  1
  Al  Al21  1  0.449458  0.660496  0.750000  1
  Rh  Rh22  1  0.672479  0.327639  0.000020  1
  Rh  Rh23  1  0.327740  0.672464  0.999917  1
  Rh  Rh24  1  0.327740  0.672464  0.500083  1
  Rh  Rh25  1  0.672479  0.327639  0.499980  1
  Rh  Rh26  1  0.000042  0.000090  0.999908  1
  Rh  Rh27  1  0.000042  0.000090  0.500092  1
