# generated using pymatgen
data_Sr2Gd3ErO8
_symmetry_space_group_name_H-M   'P 1'
_cell_length_a   3.46276800
_cell_length_b   10.23722516
_cell_length_c   12.08696220
_cell_angle_alpha   89.97943336
_cell_angle_beta   90.00000000
_cell_angle_gamma   90.00000000
_symmetry_Int_Tables_number   1
_chemical_formula_structural   Sr2Gd3ErO8
_chemical_formula_sum   'Sr4 Gd6 Er2 O16'
_cell_volume   428.47233556
_cell_formula_units_Z   2
loop_
 _symmetry_equiv_pos_site_id
 _symmetry_equiv_pos_as_xyz
  1  'x, y, z'
loop_
 _atom_site_type_symbol
 _atom_site_label
 _atom_site_symmetry_multiplicity
 _atom_site_fract_x
 _atom_site_fract_y
 _atom_site_fract_z
 _atom_site_occupancy
  Sr  Sr0  1  0.750000  0.754722  0.646883  1
  Sr  Sr1  1  0.750000  0.253575  0.850140  1
  Sr  Sr2  1  0.250000  0.247640  0.353341  1
  Sr  Sr3  1  0.250000  0.747634  0.150947  1
  Gd  Gd4  1  0.250000  0.077712  0.608017  1
  Gd  Gd5  1  0.250000  0.577158  0.888158  1
  Gd  Gd6  1  0.250000  0.077118  0.113960  1
  Gd  Gd7  1  0.750000  0.422792  0.111866  1
  Gd  Gd8  1  0.750000  0.922289  0.887630  1
  Gd  Gd9  1  0.250000  0.580213  0.390736  1
  Er  Er10  1  0.750000  0.922560  0.387840  1
  Er  Er11  1  0.750000  0.425617  0.613280  1
  O  O12  1  0.250000  0.979864  0.285004  1
  O  O13  1  0.750000  0.121367  0.474866  1
  O  O14  1  0.750000  0.714582  0.324533  1
  O  O15  1  0.250000  0.292459  0.669992  1
  O  O16  1  0.250000  0.872095  0.516552  1
  O  O17  1  0.750000  0.509227  0.783699  1
  O  O18  1  0.750000  0.627315  0.020570  1
  O  O19  1  0.750000  0.924308  0.078177  1
  O  O20  1  0.250000  0.574413  0.581356  1
  O  O21  1  0.250000  0.371702  0.979361  1
  O  O22  1  0.250000  0.788398  0.819830  1
  O  O23  1  0.750000  0.211382  0.180959  1
  O  O24  1  0.250000  0.076103  0.922130  1
  O  O25  1  0.750000  0.425126  0.427097  1
  O  O26  1  0.750000  0.015767  0.715082  1
  O  O27  1  0.250000  0.486862  0.217992  1
