# generated using pymatgen
data_Dy8Ho4Tc3Ru
_symmetry_space_group_name_H-M   'P 1'
_cell_length_a   6.27750201
_cell_length_b   7.39020111
_cell_length_c   9.14327002
_cell_angle_alpha   89.99303420
_cell_angle_beta   89.99784538
_cell_angle_gamma   89.97237220
_symmetry_Int_Tables_number   1
_chemical_formula_structural   Dy8Ho4Tc3Ru
_chemical_formula_sum   'Dy8 Ho4 Tc3 Ru1'
_cell_volume   424.17455140
_cell_formula_units_Z   1
loop_
 _symmetry_equiv_pos_site_id
 _symmetry_equiv_pos_as_xyz
  1  'x, y, z'
loop_
 _atom_site_type_symbol
 _atom_site_label
 _atom_site_symmetry_multiplicity
 _atom_site_fract_x
 _atom_site_fract_y
 _atom_site_fract_z
 _atom_site_occupancy
  Dy  Dy0  1  0.334966  0.676516  0.063321  1
  Dy  Dy1  1  0.162565  0.175547  0.437355  1
  Dy  Dy2  1  0.662870  0.324484  0.562891  1
  Dy  Dy3  1  0.836060  0.824161  0.937473  1
  Dy  Dy4  1  0.873452  0.540371  0.250033  1
  Dy  Dy5  1  0.626054  0.039152  0.249992  1
  Dy  Dy6  1  0.131138  0.458771  0.750003  1
  Dy  Dy7  1  0.373258  0.957819  0.749984  1
  Ho  Ho8  1  0.662869  0.324510  0.937111  1
  Ho  Ho9  1  0.836079  0.824117  0.562494  1
  Ho  Ho10  1  0.334963  0.676560  0.436691  1
  Ho  Ho11  1  0.162566  0.175579  0.062622  1
  Tc  Tc12  1  0.040020  0.884599  0.250095  1
  Tc  Tc13  1  0.461895  0.386687  0.249890  1
  Tc  Tc14  1  0.961703  0.115229  0.750135  1
  Ru  Ru15  1  0.539544  0.615898  0.749911  1
