# generated using pymatgen
data_Ho4Al17Fe2SiPd4
_symmetry_space_group_name_H-M   'P 1'
_cell_length_a   7.55616263
_cell_length_b   7.55616210
_cell_length_c   9.34370300
_cell_angle_alpha   90.00000000
_cell_angle_beta   90.00000000
_cell_angle_gamma   119.94202999
_symmetry_Int_Tables_number   1
_chemical_formula_structural   Ho4Al17Fe2SiPd4
_chemical_formula_sum   'Ho4 Al17 Fe2 Si1 Pd4'
_cell_volume   462.28054220
_cell_formula_units_Z   1
loop_
 _symmetry_equiv_pos_site_id
 _symmetry_equiv_pos_as_xyz
  1  'x, y, z'
loop_
 _atom_site_type_symbol
 _atom_site_label
 _atom_site_symmetry_multiplicity
 _atom_site_fract_x
 _atom_site_fract_y
 _atom_site_fract_z
 _atom_site_occupancy
  Ho  Ho0  1  0.992198  0.668800  0.250000  1
  Ho  Ho1  1  0.004441  0.339014  0.750000  1
  Ho  Ho2  1  0.668800  0.992198  0.250000  1
  Ho  Ho3  1  0.339014  0.004441  0.750000  1
  Al  Al4  1  0.893587  0.893587  0.750000  1
  Al  Al5  1  0.999793  0.324125  0.077157  1
  Al  Al6  1  0.001074  0.679606  0.925993  1
  Al  Al7  1  0.001074  0.679606  0.574007  1
  Al  Al8  1  0.324125  0.999793  0.422843  1
  Al  Al9  1  0.999793  0.324125  0.422843  1
  Al  Al10  1  0.679606  0.001074  0.574007  1
  Al  Al11  1  0.679606  0.001074  0.925993  1
  Al  Al12  1  0.324125  0.999793  0.077157  1
  Al  Al13  1  0.320491  0.320491  0.557590  1
  Al  Al14  1  0.673059  0.673060  0.448675  1
  Al  Al15  1  0.673059  0.673060  0.051325  1
  Al  Al16  1  0.320491  0.320491  0.942410  1
  Al  Al17  1  0.337208  0.542265  0.250000  1
  Al  Al18  1  0.661993  0.459175  0.750000  1
  Al  Al19  1  0.542265  0.337208  0.250000  1
  Al  Al20  1  0.459175  0.661993  0.750000  1
  Fe  Fe21  1  0.000098  0.000098  0.010034  1
  Fe  Fe22  1  0.000098  0.000098  0.489966  1
  Si  Si23  1  0.110855  0.110855  0.250000  1
  Pd  Pd24  1  0.670966  0.326021  0.999811  1
  Pd  Pd25  1  0.326021  0.670966  0.999811  1
  Pd  Pd26  1  0.326021  0.670966  0.500189  1
  Pd  Pd27  1  0.670966  0.326021  0.500189  1
