# generated using pymatgen
data_PSe2Cl13
_symmetry_space_group_name_H-M   'P 1'
_cell_length_a   11.20994400
_cell_length_b   9.46214246
_cell_length_c   10.08339734
_cell_angle_alpha   77.04356497
_cell_angle_beta   90.00000000
_cell_angle_gamma   90.00000000
_symmetry_Int_Tables_number   1
_chemical_formula_structural   PSe2Cl13
_chemical_formula_sum   'P2 Se4 Cl26'
_cell_volume   1042.31705426
_cell_formula_units_Z   2
loop_
 _symmetry_equiv_pos_site_id
 _symmetry_equiv_pos_as_xyz
  1  'x, y, z'
loop_
 _atom_site_type_symbol
 _atom_site_label
 _atom_site_symmetry_multiplicity
 _atom_site_fract_x
 _atom_site_fract_y
 _atom_site_fract_z
 _atom_site_occupancy
  P  P0  1  0.250000  0.263262  0.509067  1
  P  P1  1  0.750000  0.736738  0.490933  1
  Se  Se2  1  0.250000  0.844479  0.109694  1
  Se  Se3  1  0.750000  0.155521  0.890306  1
  Se  Se4  1  0.250000  0.664999  0.846468  1
  Se  Se5  1  0.750000  0.335001  0.153532  1
  Cl  Cl6  1  0.607437  0.800058  0.574799  1
  Cl  Cl7  1  0.107437  0.199942  0.425201  1
  Cl  Cl8  1  0.750000  0.438218  0.895687  1
  Cl  Cl9  1  0.250000  0.561782  0.104313  1
  Cl  Cl10  1  0.902072  0.149076  0.084606  1
  Cl  Cl11  1  0.402072  0.850924  0.915394  1
  Cl  Cl12  1  0.097928  0.850924  0.915394  1
  Cl  Cl13  1  0.597928  0.149076  0.084606  1
  Cl  Cl14  1  0.750000  0.205330  0.379197  1
  Cl  Cl15  1  0.250000  0.794670  0.620803  1
  Cl  Cl16  1  0.900140  0.484484  0.185782  1
  Cl  Cl17  1  0.400140  0.515516  0.814218  1
  Cl  Cl18  1  0.099860  0.515516  0.814218  1
  Cl  Cl19  1  0.599860  0.484484  0.185782  1
  Cl  Cl20  1  0.750000  0.911143  0.924583  1
  Cl  Cl21  1  0.250000  0.088857  0.075417  1
  Cl  Cl22  1  0.899626  0.189311  0.729517  1
  Cl  Cl23  1  0.399626  0.810689  0.270483  1
  Cl  Cl24  1  0.100374  0.810689  0.270483  1
  Cl  Cl25  1  0.600374  0.189311  0.729517  1
  Cl  Cl26  1  0.750000  0.820940  0.295989  1
  Cl  Cl27  1  0.250000  0.179060  0.704011  1
  Cl  Cl28  1  0.750000  0.524956  0.524522  1
  Cl  Cl29  1  0.250000  0.475044  0.475478  1
  Cl  Cl30  1  0.892563  0.800058  0.574799  1
  Cl  Cl31  1  0.392563  0.199942  0.425201  1
