# generated using pymatgen
data_Gd5Er5(GePb3)2
_symmetry_space_group_name_H-M   'P 1'
_cell_length_a   9.25447100
_cell_length_b   9.25726397
_cell_length_c   6.46933100
_cell_angle_alpha   90.00000000
_cell_angle_beta   90.00000000
_cell_angle_gamma   119.99003088
_symmetry_Int_Tables_number   1
_chemical_formula_structural   Gd5Er5(GePb3)2
_chemical_formula_sum   'Gd5 Er5 Ge2 Pb6'
_cell_volume   480.02943521
_cell_formula_units_Z   1
loop_
 _symmetry_equiv_pos_site_id
 _symmetry_equiv_pos_as_xyz
  1  'x, y, z'
loop_
 _atom_site_type_symbol
 _atom_site_label
 _atom_site_symmetry_multiplicity
 _atom_site_fract_x
 _atom_site_fract_y
 _atom_site_fract_z
 _atom_site_occupancy
  Gd  Gd0  1  0.252589  0.000000  0.250000  1
  Gd  Gd1  1  0.333528  0.666580  0.000049  1
  Gd  Gd2  1  0.666949  0.333420  0.000049  1
  Gd  Gd3  1  0.666949  0.333420  0.499951  1
  Gd  Gd4  1  0.333528  0.666580  0.499951  1
  Er  Er5  1  0.746491  0.000000  0.750000  1
  Er  Er6  1  0.000682  0.251661  0.250000  1
  Er  Er7  1  0.999403  0.747280  0.750000  1
  Er  Er8  1  0.749020  0.748339  0.250000  1
  Er  Er9  1  0.252123  0.252720  0.750000  1
  Ge  Ge10  1  0.998713  0.000000  0.997181  1
  Ge  Ge11  1  0.998713  0.000000  0.502819  1
  Pb  Pb12  1  0.612443  0.000000  0.250000  1
  Pb  Pb13  1  0.388883  0.000000  0.750000  1
  Pb  Pb14  1  0.999026  0.608135  0.250000  1
  Pb  Pb15  1  0.999759  0.389448  0.750000  1
  Pb  Pb16  1  0.390891  0.391865  0.250000  1
  Pb  Pb17  1  0.610311  0.610552  0.750000  1
