# generated using pymatgen
data_Tb3Er3Lu2(CdIr)2
_symmetry_space_group_name_H-M   'P 1'
_cell_length_a   9.57170415
_cell_length_b   9.56591443
_cell_length_c   9.56591575
_cell_angle_alpha   60.04003934
_cell_angle_beta   59.97997543
_cell_angle_gamma   59.97997960
_symmetry_Int_Tables_number   1
_chemical_formula_structural   Tb3Er3Lu2(CdIr)2
_chemical_formula_sum   'Tb6 Er6 Lu4 Cd4 Ir4'
_cell_volume   619.33692823
_cell_formula_units_Z   2
loop_
 _symmetry_equiv_pos_site_id
 _symmetry_equiv_pos_as_xyz
  1  'x, y, z'
loop_
 _atom_site_type_symbol
 _atom_site_label
 _atom_site_symmetry_multiplicity
 _atom_site_fract_x
 _atom_site_fract_y
 _atom_site_fract_z
 _atom_site_occupancy
  Tb  Tb0  1  0.189299  0.810701  0.810701  1
  Tb  Tb1  1  0.810701  0.189299  0.189299  1
  Tb  Tb2  1  0.810780  0.189220  0.810780  1
  Tb  Tb3  1  0.189220  0.810780  0.189220  1
  Tb  Tb4  1  0.810780  0.810780  0.189220  1
  Tb  Tb5  1  0.189220  0.189220  0.810780  1
  Er  Er6  1  0.598694  0.598988  0.598988  1
  Er  Er7  1  0.598988  0.598694  0.203333  1
  Er  Er8  1  0.598988  0.203333  0.598694  1
  Er  Er9  1  0.203333  0.598988  0.598988  1
  Er  Er10  1  0.062408  0.437592  0.437592  1
  Er  Er11  1  0.437592  0.062408  0.062408  1
  Lu  Lu12  1  0.437720  0.062280  0.437720  1
  Lu  Lu13  1  0.062280  0.437720  0.062280  1
  Lu  Lu14  1  0.437720  0.437720  0.062280  1
  Lu  Lu15  1  0.062280  0.062280  0.437720  1
  Cd  Cd16  1  0.830402  0.830201  0.830201  1
  Cd  Cd17  1  0.830201  0.830402  0.509199  1
  Cd  Cd18  1  0.830201  0.509199  0.830402  1
  Cd  Cd19  1  0.509199  0.830201  0.830201  1
  Ir  Ir20  1  0.392096  0.390970  0.390970  1
  Ir  Ir21  1  0.390970  0.392096  0.825966  1
  Ir  Ir22  1  0.390970  0.825966  0.392096  1
  Ir  Ir23  1  0.825966  0.390970  0.390970  1
