# generated using pymatgen
data_Ba4MnAlO8
_symmetry_space_group_name_H-M   'P 1'
_cell_length_a   7.67690600
_cell_length_b   6.08793246
_cell_length_c   11.90336457
_cell_angle_alpha   62.02207137
_cell_angle_beta   90.00000000
_cell_angle_gamma   90.00000000
_symmetry_Int_Tables_number   1
_chemical_formula_structural   Ba4MnAlO8
_chemical_formula_sum   'Ba8 Mn2 Al2 O16'
_cell_volume   491.30323391
_cell_formula_units_Z   2
loop_
 _symmetry_equiv_pos_site_id
 _symmetry_equiv_pos_as_xyz
  1  'x, y, z'
loop_
 _atom_site_type_symbol
 _atom_site_label
 _atom_site_symmetry_multiplicity
 _atom_site_fract_x
 _atom_site_fract_y
 _atom_site_fract_z
 _atom_site_occupancy
  Ba  Ba0  1  0.000687  0.972393  0.305071  1
  Ba  Ba1  1  0.500687  0.027607  0.194929  1
  Ba  Ba2  1  0.000730  0.042039  0.693549  1
  Ba  Ba3  1  0.500730  0.957961  0.806451  1
  Ba  Ba4  1  0.665028  0.336138  0.396650  1
  Ba  Ba5  1  0.165028  0.663862  0.103350  1
  Ba  Ba6  1  0.344258  0.691736  0.555800  1
  Ba  Ba7  1  0.844258  0.308264  0.944200  1
  Mn  Mn8  1  0.777364  0.654587  0.586988  1
  Mn  Mn9  1  0.277364  0.345413  0.913012  1
  Al  Al10  1  0.222324  0.328604  0.423463  1
  Al  Al11  1  0.722324  0.671396  0.076537  1
  O  O12  1  0.316035  0.229766  0.578319  1
  O  O13  1  0.816035  0.770234  0.921681  1
  O  O14  1  0.689353  0.751369  0.436127  1
  O  O15  1  0.189353  0.248631  0.063873  1
  O  O16  1  0.322419  0.153571  0.354205  1
  O  O17  1  0.822419  0.846429  0.145795  1
  O  O18  1  0.678141  0.846580  0.636790  1
  O  O19  1  0.178141  0.153420  0.863210  1
  O  O20  1  0.270159  0.653858  0.330430  1
  O  O21  1  0.770159  0.346142  0.169570  1
  O  O22  1  0.723212  0.350603  0.682363  1
  O  O23  1  0.223212  0.649397  0.817637  1
  O  O24  1  0.496860  0.310038  0.918360  1
  O  O25  1  0.996860  0.689962  0.581640  1
  O  O26  1  0.493428  0.729425  0.065243  1
  O  O27  1  0.993428  0.270575  0.434757  1
