# generated using pymatgen
data_KBaLa(H6Ir)2
_symmetry_space_group_name_H-M   'P 1'
_cell_length_a   5.32067100
_cell_length_b   5.32067140
_cell_length_c   8.60911900
_cell_angle_alpha   90.00000000
_cell_angle_beta   90.00000000
_cell_angle_gamma   119.99999131
_symmetry_Int_Tables_number   1
_chemical_formula_structural   KBaLa(H6Ir)2
_chemical_formula_sum   'K1 Ba1 La1 H12 Ir2'
_cell_volume   211.06791697
_cell_formula_units_Z   1
loop_
 _symmetry_equiv_pos_site_id
 _symmetry_equiv_pos_as_xyz
  1  'x, y, z'
loop_
 _atom_site_type_symbol
 _atom_site_label
 _atom_site_symmetry_multiplicity
 _atom_site_fract_x
 _atom_site_fract_y
 _atom_site_fract_z
 _atom_site_occupancy
  K  K0  1  0.666667  0.333333  0.355224  1
  Ba  Ba1  1  0.000000  0.000000  0.041873  1
  La  La2  1  0.333333  0.666667  0.620772  1
  H  H3  1  0.182589  0.817411  0.368797  1
  H  H4  1  0.634821  0.817411  0.368797  1
  H  H5  1  0.182589  0.365179  0.368797  1
  H  H6  1  0.821205  0.178795  0.634506  1
  H  H7  1  0.357590  0.178795  0.634506  1
  H  H8  1  0.821205  0.642410  0.634506  1
  H  H9  1  0.518976  0.037951  0.855815  1
  H  H10  1  0.518976  0.481024  0.855815  1
  H  H11  1  0.962049  0.481024  0.855815  1
  H  H12  1  0.475758  0.951517  0.135837  1
  H  H13  1  0.475758  0.524242  0.135837  1
  H  H14  1  0.048483  0.524242  0.135837  1
  Ir  Ir15  1  0.666667  0.333333  0.741460  1
  Ir  Ir16  1  0.333333  0.666667  0.255804  1
