# generated using pymatgen
data_Tb2Dy4TcIr
_symmetry_space_group_name_H-M   'P 1'
_cell_length_a   6.34120300
_cell_length_b   7.34169800
_cell_length_c   9.20104400
_cell_angle_alpha   90.00000000
_cell_angle_beta   90.00000000
_cell_angle_gamma   90.00000000
_symmetry_Int_Tables_number   1
_chemical_formula_structural   Tb2Dy4TcIr
_chemical_formula_sum   'Tb4 Dy8 Tc2 Ir2'
_cell_volume   428.35641955
_cell_formula_units_Z   2
loop_
 _symmetry_equiv_pos_site_id
 _symmetry_equiv_pos_as_xyz
  1  'x, y, z'
loop_
 _atom_site_type_symbol
 _atom_site_label
 _atom_site_symmetry_multiplicity
 _atom_site_fract_x
 _atom_site_fract_y
 _atom_site_fract_z
 _atom_site_occupancy
  Tb  Tb0  1  0.871945  0.538314  0.250000  1
  Tb  Tb1  1  0.628055  0.038314  0.250000  1
  Tb  Tb2  1  0.133739  0.460094  0.750000  1
  Tb  Tb3  1  0.366261  0.960094  0.750000  1
  Dy  Dy4  1  0.328884  0.676502  0.066218  1
  Dy  Dy5  1  0.171116  0.176502  0.433782  1
  Dy  Dy6  1  0.668065  0.324004  0.561410  1
  Dy  Dy7  1  0.831935  0.824004  0.938590  1
  Dy  Dy8  1  0.668065  0.324004  0.938590  1
  Dy  Dy9  1  0.831935  0.824004  0.561410  1
  Dy  Dy10  1  0.328884  0.676502  0.433782  1
  Dy  Dy11  1  0.171116  0.176502  0.066218  1
  Tc  Tc12  1  0.036927  0.885820  0.250000  1
  Tc  Tc13  1  0.463073  0.385820  0.250000  1
  Ir  Ir14  1  0.953165  0.114759  0.750000  1
  Ir  Ir15  1  0.546835  0.614759  0.750000  1
