# generated using pymatgen
data_Zr10AlAgSnBi5
_symmetry_space_group_name_H-M   'P 1'
_cell_length_a   8.88762574
_cell_length_b   8.88762591
_cell_length_c   5.96743101
_cell_angle_alpha   89.92779896
_cell_angle_beta   89.92779869
_cell_angle_gamma   120.18410525
_symmetry_Int_Tables_number   1
_chemical_formula_structural   Zr10AlAgSnBi5
_chemical_formula_sum   'Zr10 Al1 Ag1 Sn1 Bi5'
_cell_volume   407.45485245
_cell_formula_units_Z   1
loop_
 _symmetry_equiv_pos_site_id
 _symmetry_equiv_pos_as_xyz
  1  'x, y, z'
loop_
 _atom_site_type_symbol
 _atom_site_label
 _atom_site_symmetry_multiplicity
 _atom_site_fract_x
 _atom_site_fract_y
 _atom_site_fract_z
 _atom_site_occupancy
  Zr  Zr0  1  0.000825  0.270705  0.262990  1
  Zr  Zr1  1  0.724873  0.993935  0.737525  1
  Zr  Zr2  1  0.728901  0.728901  0.260513  1
  Zr  Zr3  1  0.665673  0.336851  0.501942  1
  Zr  Zr4  1  0.993935  0.724873  0.737525  1
  Zr  Zr5  1  0.275457  0.275457  0.738943  1
  Zr  Zr6  1  0.336978  0.665243  0.998391  1
  Zr  Zr7  1  0.665243  0.336978  0.998391  1
  Zr  Zr8  1  0.336851  0.665673  0.501942  1
  Zr  Zr9  1  0.270705  0.000825  0.262990  1
  Al  Al10  1  0.000207  0.000207  0.503209  1
  Ag  Ag11  1  0.000032  0.000032  0.996583  1
  Sn  Sn12  1  0.617117  0.617117  0.752972  1
  Bi  Bi13  1  0.615351  0.000200  0.245786  1
  Bi  Bi14  1  0.382774  0.999923  0.754468  1
  Bi  Bi15  1  0.384952  0.384952  0.245578  1
  Bi  Bi16  1  0.000200  0.615351  0.245786  1
  Bi  Bi17  1  0.999923  0.382774  0.754468  1
