# generated using pymatgen
data_TbEuNp2O8
_symmetry_space_group_name_H-M   'P 1'
_cell_length_a   6.49833431
_cell_length_b   6.49833532
_cell_length_c   5.40729500
_cell_angle_alpha   67.79428737
_cell_angle_beta   67.79429325
_cell_angle_gamma   111.69777397
_symmetry_Int_Tables_number   1
_chemical_formula_structural   TbEuNp2O8
_chemical_formula_sum   'Tb1 Eu1 Np2 O8'
_cell_volume   156.88105482
_cell_formula_units_Z   1
loop_
 _symmetry_equiv_pos_site_id
 _symmetry_equiv_pos_as_xyz
  1  'x, y, z'
loop_
 _atom_site_type_symbol
 _atom_site_label
 _atom_site_symmetry_multiplicity
 _atom_site_fract_x
 _atom_site_fract_y
 _atom_site_fract_z
 _atom_site_occupancy
  Tb  Tb0  1  0.625644  0.374356  0.250000  1
  Eu  Eu1  1  0.374203  0.625797  0.750000  1
  Np  Np2  1  0.122719  0.877281  0.250000  1
  Np  Np3  1  0.877399  0.122601  0.750000  1
  O  O4  1  0.545951  0.043475  0.722009  1
  O  O5  1  0.772403  0.764078  0.768781  1
  O  O6  1  0.235922  0.227597  0.731219  1
  O  O7  1  0.031864  0.542016  0.230822  1
  O  O8  1  0.956525  0.454049  0.777991  1
  O  O9  1  0.767737  0.768353  0.262383  1
  O  O10  1  0.231647  0.232263  0.237617  1
  O  O11  1  0.457984  0.968136  0.269178  1
