# generated using pymatgen
data_EuCO3F
_symmetry_space_group_name_H-M   'P 1'
_cell_length_a   4.51224301
_cell_length_b   6.56137313
_cell_length_c   7.05023890
_cell_angle_alpha   90.00730482
_cell_angle_beta   90.25383509
_cell_angle_gamma   90.56544613
_symmetry_Int_Tables_number   1
_chemical_formula_structural   EuCO3F
_chemical_formula_sum   'Eu2 C2 O6 F2'
_cell_volume   208.72075266
_cell_formula_units_Z   2
loop_
 _symmetry_equiv_pos_site_id
 _symmetry_equiv_pos_as_xyz
  1  'x, y, z'
loop_
 _atom_site_type_symbol
 _atom_site_label
 _atom_site_symmetry_multiplicity
 _atom_site_fract_x
 _atom_site_fract_y
 _atom_site_fract_z
 _atom_site_occupancy
  Eu  Eu0  1  0.500149  0.334302  0.249962  1
  Eu  Eu1  1  0.499850  0.665698  0.750038  1
  C  C2  1  0.501313  0.788355  0.250105  1
  C  C3  1  0.498685  0.211645  0.749895  1
  O  O4  1  0.505124  0.682222  0.093983  1
  O  O5  1  0.497938  0.981431  0.250044  1
  O  O6  1  0.500808  0.682228  0.406128  1
  O  O7  1  0.499194  0.317772  0.593872  1
  O  O8  1  0.502064  0.018568  0.749956  1
  O  O9  1  0.494875  0.317778  0.906016  1
  F  F10  1  0.000167  0.342408  0.249879  1
  F  F11  1  0.999832  0.657592  0.750121  1
