# generated using pymatgen
data_Ho2Er2Hf3O12
_symmetry_space_group_name_H-M   'P 1'
_cell_length_a   6.31069396
_cell_length_b   6.36178189
_cell_length_c   6.57587300
_cell_angle_alpha   99.96011269
_cell_angle_beta   98.26239418
_cell_angle_gamma   99.68622498
_symmetry_Int_Tables_number   1
_chemical_formula_structural   Ho2Er2Hf3O12
_chemical_formula_sum   'Ho2 Er2 Hf3 O12'
_cell_volume   252.22460948
_cell_formula_units_Z   1
loop_
 _symmetry_equiv_pos_site_id
 _symmetry_equiv_pos_as_xyz
  1  'x, y, z'
loop_
 _atom_site_type_symbol
 _atom_site_label
 _atom_site_symmetry_multiplicity
 _atom_site_fract_x
 _atom_site_fract_y
 _atom_site_fract_z
 _atom_site_occupancy
  Ho  Ho0  1  0.303585  0.134356  0.611012  1
  Ho  Ho1  1  0.614546  0.300750  0.132890  1
  Er  Er2  1  0.695523  0.865487  0.388524  1
  Er  Er3  1  0.385563  0.700553  0.866789  1
  Hf  Hf4  1  0.999319  0.999031  0.999377  1
  Hf  Hf5  1  0.847446  0.398126  0.666578  1
  Hf  Hf6  1  0.152766  0.602403  0.333286  1
  O  O7  1  0.586608  0.417539  0.819468  1
  O  O8  1  0.829075  0.572286  0.425680  1
  O  O9  1  0.411169  0.809852  0.565894  1
  O  O10  1  0.413311  0.586091  0.179564  1
  O  O11  1  0.170116  0.428930  0.575036  1
  O  O12  1  0.590448  0.189143  0.433763  1
  O  O13  1  0.020565  0.678976  0.877987  1
  O  O14  1  0.918895  0.088683  0.698898  1
  O  O15  1  0.685880  0.932219  0.059133  1
  O  O16  1  0.981291  0.319673  0.123829  1
  O  O17  1  0.079611  0.910466  0.301898  1
  O  O18  1  0.314283  0.065436  0.940391  1
