# generated using pymatgen
data_Ba2Ag(BrO)2
_symmetry_space_group_name_H-M   'P 1'
_cell_length_a   4.39074891
_cell_length_b   4.39074847
_cell_length_c   9.28323050
_cell_angle_alpha   103.67936540
_cell_angle_beta   103.67936478
_cell_angle_gamma   90.00000004
_symmetry_Int_Tables_number   1
_chemical_formula_structural   Ba2Ag(BrO)2
_chemical_formula_sum   'Ba2 Ag1 Br2 O2'
_cell_volume   168.66253848
_cell_formula_units_Z   1
loop_
 _symmetry_equiv_pos_site_id
 _symmetry_equiv_pos_as_xyz
  1  'x, y, z'
loop_
 _atom_site_type_symbol
 _atom_site_label
 _atom_site_symmetry_multiplicity
 _atom_site_fract_x
 _atom_site_fract_y
 _atom_site_fract_z
 _atom_site_occupancy
  Ba  Ba0  1  0.604482  0.604482  0.208962  1
  Ba  Ba1  1  0.395519  0.395519  0.791038  1
  Ag  Ag2  1  0.000000  0.000000  0.000000  1
  Br  Br3  1  0.183795  0.183795  0.367590  1
  Br  Br4  1  0.816206  0.816206  0.632410  1
  O  O5  1  0.500001  0.000000  0.000000  1
  O  O6  1  0.000000  0.500001  0.000000  1
