# generated using pymatgen
data_NdEuAsPt8
_symmetry_space_group_name_H-M   'P 1'
_cell_length_a   9.27941534
_cell_length_b   9.34569208
_cell_length_c   4.33798800
_cell_angle_alpha   90.00000000
_cell_angle_beta   90.00000000
_cell_angle_gamma   145.63621021
_symmetry_Int_Tables_number   1
_chemical_formula_structural   NdEuAsPt8
_chemical_formula_sum   'Nd1 Eu1 As1 Pt8'
_cell_volume   212.34517063
_cell_formula_units_Z   1
loop_
 _symmetry_equiv_pos_site_id
 _symmetry_equiv_pos_as_xyz
  1  'x, y, z'
loop_
 _atom_site_type_symbol
 _atom_site_label
 _atom_site_symmetry_multiplicity
 _atom_site_fract_x
 _atom_site_fract_y
 _atom_site_fract_z
 _atom_site_occupancy
  Nd  Nd0  1  0.378730  0.630338  0.500000  1
  Eu  Eu1  1  0.620580  0.374904  0.500000  1
  As  As2  1  0.229323  0.223705  0.000000  1
  Pt  Pt3  1  0.098877  0.869924  0.000000  1
  Pt  Pt4  1  0.883146  0.109287  0.000000  1
  Pt  Pt5  1  0.491610  0.986534  0.000000  1
  Pt  Pt6  1  0.991572  0.490806  0.000000  1
  Pt  Pt7  1  0.196649  0.789321  0.500000  1
  Pt  Pt8  1  0.794307  0.199982  0.500000  1
  Pt  Pt9  1  0.985013  0.985592  0.500000  1
  Pt  Pt10  1  0.643792  0.653207  0.000000  1
