# generated using pymatgen
data_Ce2HoTm5(Si3Rh)4
_symmetry_space_group_name_H-M   'P 1'
_cell_length_a   8.14579803
_cell_length_b   8.14699247
_cell_length_c   7.89101400
_cell_angle_alpha   90.00000000
_cell_angle_beta   90.00000000
_cell_angle_gamma   120.00485250
_symmetry_Int_Tables_number   1
_chemical_formula_structural   Ce2HoTm5(Si3Rh)4
_chemical_formula_sum   'Ce2 Ho1 Tm5 Si12 Rh4'
_cell_volume   453.49568638
_cell_formula_units_Z   1
loop_
 _symmetry_equiv_pos_site_id
 _symmetry_equiv_pos_as_xyz
  1  'x, y, z'
loop_
 _atom_site_type_symbol
 _atom_site_label
 _atom_site_symmetry_multiplicity
 _atom_site_fract_x
 _atom_site_fract_y
 _atom_site_fract_z
 _atom_site_occupancy
  Ce  Ce0  1  0.999918  0.999959  0.250000  1
  Ce  Ce1  1  0.999975  0.999988  0.750000  1
  Ho  Ho2  1  0.018009  0.509005  0.750000  1
  Tm  Tm3  1  0.508841  0.491057  0.250000  1
  Tm  Tm4  1  0.508841  0.017783  0.250000  1
  Tm  Tm5  1  0.982116  0.491058  0.250000  1
  Tm  Tm6  1  0.491561  0.508711  0.750000  1
  Tm  Tm7  1  0.491561  0.982850  0.750000  1
  Si  Si8  1  0.167996  0.832569  0.500909  1
  Si  Si9  1  0.167996  0.335425  0.500909  1
  Si  Si10  1  0.664496  0.832247  0.501679  1
  Si  Si11  1  0.832169  0.167451  0.498187  1
  Si  Si12  1  0.832169  0.664720  0.498187  1
  Si  Si13  1  0.335097  0.167549  0.498284  1
  Si  Si14  1  0.832169  0.167451  0.001813  1
  Si  Si15  1  0.832169  0.664720  0.001813  1
  Si  Si16  1  0.335097  0.167549  0.001716  1
  Si  Si17  1  0.167996  0.832569  0.999091  1
  Si  Si18  1  0.167996  0.335425  0.999091  1
  Si  Si19  1  0.664496  0.832247  0.998321  1
  Rh  Rh20  1  0.333653  0.666827  0.464575  1
  Rh  Rh21  1  0.666013  0.333006  0.533069  1
  Rh  Rh22  1  0.666013  0.333006  0.966931  1
  Rh  Rh23  1  0.333653  0.666827  0.035425  1
