# generated using pymatgen
data_YEr3Al2(CdPt2)2
_symmetry_space_group_name_H-M   'P 1'
_cell_length_a   4.33875500
_cell_length_b   6.93205365
_cell_length_c   8.22696036
_cell_angle_alpha   92.72564717
_cell_angle_beta   90.00000000
_cell_angle_gamma   90.00000000
_symmetry_Int_Tables_number   1
_chemical_formula_structural   YEr3Al2(CdPt2)2
_chemical_formula_sum   'Y1 Er3 Al2 Cd2 Pt4'
_cell_volume   247.15809953
_cell_formula_units_Z   1
loop_
 _symmetry_equiv_pos_site_id
 _symmetry_equiv_pos_as_xyz
  1  'x, y, z'
loop_
 _atom_site_type_symbol
 _atom_site_label
 _atom_site_symmetry_multiplicity
 _atom_site_fract_x
 _atom_site_fract_y
 _atom_site_fract_z
 _atom_site_occupancy
  Y  Y0  1  0.250000  0.463986  0.185976  1
  Er  Er1  1  0.750000  0.536067  0.814675  1
  Er  Er2  1  0.750000  0.036151  0.676121  1
  Er  Er3  1  0.250000  0.963611  0.324706  1
  Al  Al4  1  0.750000  0.638945  0.443608  1
  Al  Al5  1  0.250000  0.360861  0.556680  1
  Cd  Cd6  1  0.250000  0.857447  0.935596  1
  Cd  Cd7  1  0.750000  0.142191  0.063222  1
  Pt  Pt8  1  0.250000  0.732942  0.601316  1
  Pt  Pt9  1  0.750000  0.265043  0.400001  1
  Pt  Pt10  1  0.750000  0.741269  0.144491  1
  Pt  Pt11  1  0.250000  0.261487  0.853607  1
