# generated using pymatgen
data_Rb7Ti(SO4)6
_symmetry_space_group_name_H-M   'P 1'
_cell_length_a   9.79974540
_cell_length_b   9.79974530
_cell_length_c   9.79974622
_cell_angle_alpha   109.81276555
_cell_angle_beta   109.81276288
_cell_angle_gamma   109.81277495
_symmetry_Int_Tables_number   1
_chemical_formula_structural   Rb7Ti(SO4)6
_chemical_formula_sum   'Rb7 Ti1 S6 O24'
_cell_volume   715.16559395
_cell_formula_units_Z   1
loop_
 _symmetry_equiv_pos_site_id
 _symmetry_equiv_pos_as_xyz
  1  'x, y, z'
loop_
 _atom_site_type_symbol
 _atom_site_label
 _atom_site_symmetry_multiplicity
 _atom_site_fract_x
 _atom_site_fract_y
 _atom_site_fract_z
 _atom_site_occupancy
  Rb  Rb0  1  0.500000  0.500000  0.500000  1
  Rb  Rb1  1  0.834750  0.333057  0.674935  1
  Rb  Rb2  1  0.333057  0.674935  0.834750  1
  Rb  Rb3  1  0.674935  0.834750  0.333057  1
  Rb  Rb4  1  0.165250  0.666943  0.325065  1
  Rb  Rb5  1  0.666943  0.325065  0.165250  1
  Rb  Rb6  1  0.325065  0.165250  0.666943  1
  Ti  Ti7  1  0.000000  0.000000  0.000000  1
  S  S8  1  0.970106  0.755700  0.634564  1
  S  S9  1  0.755700  0.634564  0.970106  1
  S  S10  1  0.634564  0.970106  0.755700  1
  S  S11  1  0.029894  0.244300  0.365436  1
  S  S12  1  0.244300  0.365436  0.029894  1
  S  S13  1  0.365436  0.029894  0.244300  1
  O  O14  1  0.408269  0.909289  0.158811  1
  O  O15  1  0.909289  0.158811  0.408269  1
  O  O16  1  0.158811  0.408269  0.909289  1
  O  O17  1  0.591731  0.090711  0.841189  1
  O  O18  1  0.090711  0.841189  0.591731  1
  O  O19  1  0.841189  0.591731  0.090711  1
  O  O20  1  0.307021  0.987053  0.352151  1
  O  O21  1  0.987053  0.352151  0.307021  1
  O  O22  1  0.352151  0.307021  0.987053  1
  O  O23  1  0.692979  0.012947  0.647849  1
  O  O24  1  0.012947  0.647849  0.692979  1
  O  O25  1  0.647849  0.692979  0.012947  1
  O  O26  1  0.776726  0.977163  0.892840  1
  O  O27  1  0.977163  0.892840  0.776726  1
  O  O28  1  0.656853  0.487565  0.795303  1
  O  O29  1  0.795303  0.656853  0.487565  1
  O  O30  1  0.487565  0.795303  0.656853  1
  O  O31  1  0.343147  0.512435  0.204697  1
  O  O32  1  0.204697  0.343147  0.512435  1
  O  O33  1  0.512435  0.204697  0.343147  1
  O  O34  1  0.107160  0.223274  0.022837  1
  O  O35  1  0.022837  0.107160  0.223274  1
  O  O36  1  0.223274  0.022837  0.107160  1
  O  O37  1  0.892840  0.776726  0.977163  1
