# generated using pymatgen
data_SmLu2Co8MoP6
_symmetry_space_group_name_H-M   'P 1'
_cell_length_a   3.70526100
_cell_length_b   10.52918900
_cell_length_c   12.21351400
_cell_angle_alpha   90.00000000
_cell_angle_beta   90.00000000
_cell_angle_gamma   90.00000000
_symmetry_Int_Tables_number   1
_chemical_formula_structural   SmLu2Co8MoP6
_chemical_formula_sum   'Sm2 Lu4 Co16 Mo2 P12'
_cell_volume   476.49062603
_cell_formula_units_Z   2
loop_
 _symmetry_equiv_pos_site_id
 _symmetry_equiv_pos_as_xyz
  1  'x, y, z'
loop_
 _atom_site_type_symbol
 _atom_site_label
 _atom_site_symmetry_multiplicity
 _atom_site_fract_x
 _atom_site_fract_y
 _atom_site_fract_z
 _atom_site_occupancy
  Sm  Sm0  1  0.000000  0.500000  0.525198  1
  Sm  Sm1  1  0.500000  0.000000  0.474802  1
  Lu  Lu2  1  0.500000  0.819044  0.204183  1
  Lu  Lu3  1  0.500000  0.180956  0.204183  1
  Lu  Lu4  1  0.000000  0.680956  0.795817  1
  Lu  Lu5  1  0.000000  0.319044  0.795817  1
  Co  Co6  1  0.500000  0.500000  0.704410  1
  Co  Co7  1  0.000000  0.000000  0.295590  1
  Co  Co8  1  0.000000  0.500000  0.986050  1
  Co  Co9  1  0.500000  0.000000  0.013950  1
  Co  Co10  1  0.500000  0.332156  0.989841  1
  Co  Co11  1  0.500000  0.667844  0.989841  1
  Co  Co12  1  0.000000  0.167844  0.010159  1
  Co  Co13  1  0.000000  0.832156  0.010159  1
  Co  Co14  1  0.500000  0.295380  0.430222  1
  Co  Co15  1  0.500000  0.704620  0.430222  1
  Co  Co16  1  0.000000  0.204620  0.569778  1
  Co  Co17  1  0.000000  0.795380  0.569778  1
  Co  Co18  1  0.500000  0.877422  0.708800  1
  Co  Co19  1  0.500000  0.122578  0.708800  1
  Co  Co20  1  0.000000  0.622578  0.291200  1
  Co  Co21  1  0.000000  0.377422  0.291200  1
  Mo  Mo22  1  0.500000  0.500000  0.155376  1
  Mo  Mo23  1  0.000000  0.000000  0.844624  1
  P  P24  1  0.500000  0.500000  0.880690  1
  P  P25  1  0.000000  0.000000  0.119310  1
  P  P26  1  0.500000  0.500000  0.347570  1
  P  P27  1  0.000000  0.000000  0.652430  1
  P  P28  1  0.500000  0.310001  0.618178  1
  P  P29  1  0.500000  0.689999  0.618178  1
  P  P30  1  0.000000  0.189999  0.381822  1
  P  P31  1  0.000000  0.810001  0.381822  1
  P  P32  1  0.500000  0.843685  0.892509  1
  P  P33  1  0.500000  0.156315  0.892509  1
  P  P34  1  0.000000  0.656315  0.107491  1
  P  P35  1  0.000000  0.343685  0.107491  1
