# generated using pymatgen
data_Th5In2BiC
_symmetry_space_group_name_H-M   'P 1'
_cell_length_a   9.48693400
_cell_length_b   9.48693327
_cell_length_c   6.45371600
_cell_angle_alpha   90.00000000
_cell_angle_beta   90.00000000
_cell_angle_gamma   119.87366977
_symmetry_Int_Tables_number   1
_chemical_formula_structural   Th5In2BiC
_chemical_formula_sum   'Th10 In4 Bi2 C2'
_cell_volume   503.66717920
_cell_formula_units_Z   2
loop_
 _symmetry_equiv_pos_site_id
 _symmetry_equiv_pos_as_xyz
  1  'x, y, z'
loop_
 _atom_site_type_symbol
 _atom_site_label
 _atom_site_symmetry_multiplicity
 _atom_site_fract_x
 _atom_site_fract_y
 _atom_site_fract_z
 _atom_site_occupancy
  Th  Th0  1  0.328413  0.671587  0.500000  1
  Th  Th1  1  0.671587  0.328413  0.500000  1
  Th  Th2  1  0.671587  0.328413  0.000000  1
  Th  Th3  1  0.328413  0.671587  0.000000  1
  Th  Th4  1  0.218052  0.997264  0.750000  1
  Th  Th5  1  0.781948  0.002736  0.250000  1
  Th  Th6  1  0.997264  0.218052  0.750000  1
  Th  Th7  1  0.002736  0.781948  0.250000  1
  Th  Th8  1  0.784912  0.784912  0.750000  1
  Th  Th9  1  0.215088  0.215088  0.250000  1
  In  In10  1  0.599497  0.997615  0.750000  1
  In  In11  1  0.400503  0.002385  0.250000  1
  In  In12  1  0.997615  0.599497  0.750000  1
  In  In13  1  0.002385  0.400503  0.250000  1
  Bi  Bi14  1  0.398703  0.398703  0.750000  1
  Bi  Bi15  1  0.601297  0.601297  0.250000  1
  C  C16  1  0.000000  0.000000  0.500000  1
  C  C17  1  0.000000  0.000000  0.000000  1
