# generated using pymatgen
data_CaThIr3Rh
_symmetry_space_group_name_H-M   'P 1'
_cell_length_a   5.42800453
_cell_length_b   5.41598970
_cell_length_c   5.41599000
_cell_angle_alpha   59.99999815
_cell_angle_beta   60.07319285
_cell_angle_gamma   60.07319714
_symmetry_Int_Tables_number   1
_chemical_formula_structural   CaThIr3Rh
_chemical_formula_sum   'Ca1 Th1 Ir3 Rh1'
_cell_volume   112.70948734
_cell_formula_units_Z   1
loop_
 _symmetry_equiv_pos_site_id
 _symmetry_equiv_pos_as_xyz
  1  'x, y, z'
loop_
 _atom_site_type_symbol
 _atom_site_label
 _atom_site_symmetry_multiplicity
 _atom_site_fract_x
 _atom_site_fract_y
 _atom_site_fract_z
 _atom_site_occupancy
  Ca  Ca0  1  0.999133  0.000289  0.000289  1
  Th  Th1  1  0.251717  0.249427  0.249427  1
  Ir  Ir2  1  0.625115  0.625497  0.123891  1
  Ir  Ir3  1  0.625115  0.625497  0.625497  1
  Ir  Ir4  1  0.625115  0.123891  0.625497  1
  Rh  Rh5  1  0.123806  0.625398  0.625398  1
