# generated using pymatgen
data_Ta10Ga5GeB2
_symmetry_space_group_name_H-M   'P 1'
_cell_length_a   7.77985401
_cell_length_b   7.78670445
_cell_length_c   5.34086300
_cell_angle_alpha   90.00000000
_cell_angle_beta   90.00000000
_cell_angle_gamma   120.02912520
_symmetry_Int_Tables_number   1
_chemical_formula_structural   Ta10Ga5GeB2
_chemical_formula_sum   'Ta10 Ga5 Ge1 B2'
_cell_volume   280.11713410
_cell_formula_units_Z   1
loop_
 _symmetry_equiv_pos_site_id
 _symmetry_equiv_pos_as_xyz
  1  'x, y, z'
loop_
 _atom_site_type_symbol
 _atom_site_label
 _atom_site_symmetry_multiplicity
 _atom_site_fract_x
 _atom_site_fract_y
 _atom_site_fract_z
 _atom_site_occupancy
  Ta  Ta0  1  0.667373  0.333329  0.499758  1
  Ta  Ta1  1  0.332627  0.665958  0.499758  1
  Ta  Ta2  1  0.332627  0.665958  0.000242  1
  Ta  Ta3  1  0.667373  0.333329  0.000242  1
  Ta  Ta4  1  0.757706  0.757160  0.250000  1
  Ta  Ta5  1  0.242294  0.999454  0.250000  1
  Ta  Ta6  1  0.000000  0.243091  0.250000  1
  Ta  Ta7  1  0.241661  0.242223  0.750000  1
  Ta  Ta8  1  0.758339  0.000562  0.750000  1
  Ta  Ta9  1  0.000000  0.757945  0.750000  1
  Ga  Ga10  1  0.402166  0.401425  0.250000  1
  Ga  Ga11  1  0.597834  0.999258  0.250000  1
  Ga  Ga12  1  0.000000  0.599903  0.250000  1
  Ga  Ga13  1  0.598143  0.598045  0.750000  1
  Ga  Ga14  1  0.401857  0.999902  0.750000  1
  Ge  Ge15  1  0.000000  0.403193  0.750000  1
  B  B16  1  0.000000  0.999632  0.499573  1
  B  B17  1  0.000000  0.999632  0.000427  1
