# generated using pymatgen
data_MgZn2Ni2AuO8
_symmetry_space_group_name_H-M   'P 1'
_cell_length_a   5.97224320
_cell_length_b   5.97224444
_cell_length_c   6.09135666
_cell_angle_alpha   61.00868803
_cell_angle_beta   61.00869062
_cell_angle_gamma   59.88090244
_symmetry_Int_Tables_number   1
_chemical_formula_structural   MgZn2Ni2AuO8
_chemical_formula_sum   'Mg1 Zn2 Ni2 Au1 O8'
_cell_volume   155.78514894
_cell_formula_units_Z   1
loop_
 _symmetry_equiv_pos_site_id
 _symmetry_equiv_pos_as_xyz
  1  'x, y, z'
loop_
 _atom_site_type_symbol
 _atom_site_label
 _atom_site_symmetry_multiplicity
 _atom_site_fract_x
 _atom_site_fract_y
 _atom_site_fract_z
 _atom_site_occupancy
  Mg  Mg0  1  0.125000  0.125000  0.125000  1
  Zn  Zn1  1  0.491029  0.491029  0.539123  1
  Zn  Zn2  1  0.758971  0.758971  0.710877  1
  Ni  Ni3  1  0.625000  0.125000  0.125000  1
  Ni  Ni4  1  0.125000  0.625000  0.125000  1
  Au  Au5  1  0.125000  0.125000  0.625000  1
  O  O6  1  0.887236  0.887236  0.872435  1
  O  O7  1  0.898511  0.366047  0.372928  1
  O  O8  1  0.366047  0.898511  0.372928  1
  O  O9  1  0.362905  0.362905  0.923980  1
  O  O10  1  0.883953  0.351489  0.877072  1
  O  O11  1  0.887095  0.887095  0.326020  1
  O  O12  1  0.351489  0.883953  0.877072  1
  O  O13  1  0.362764  0.362764  0.377565  1
