# generated using pymatgen
data_Rb6MnV(IrBr9)2
_symmetry_space_group_name_H-M   'P 1'
_cell_length_a   7.58133300
_cell_length_b   7.58133364
_cell_length_c   19.12088300
_cell_angle_alpha   90.00000000
_cell_angle_beta   90.00000000
_cell_angle_gamma   119.99999285
_symmetry_Int_Tables_number   1
_chemical_formula_structural   Rb6MnV(IrBr9)2
_chemical_formula_sum   'Rb6 Mn1 V1 Ir2 Br18'
_cell_volume   951.76513008
_cell_formula_units_Z   1
loop_
 _symmetry_equiv_pos_site_id
 _symmetry_equiv_pos_as_xyz
  1  'x, y, z'
loop_
 _atom_site_type_symbol
 _atom_site_label
 _atom_site_symmetry_multiplicity
 _atom_site_fract_x
 _atom_site_fract_y
 _atom_site_fract_z
 _atom_site_occupancy
  Rb  Rb0  1  0.666667  0.333333  0.568803  1
  Rb  Rb1  1  0.333333  0.666667  0.060750  1
  Rb  Rb2  1  0.333333  0.666667  0.436020  1
  Rb  Rb3  1  0.666667  0.333333  0.937010  1
  Rb  Rb4  1  0.000000  0.000000  0.250391  1
  Rb  Rb5  1  0.000000  0.000000  0.748471  1
  Mn  Mn6  1  0.333333  0.666667  0.841034  1
  V  V7  1  0.666667  0.333333  0.168974  1
  Ir  Ir8  1  0.333333  0.666667  0.665492  1
  Ir  Ir9  1  0.666667  0.333333  0.328471  1
  Br  Br10  1  0.821622  0.643245  0.404149  1
  Br  Br11  1  0.176969  0.823031  0.590926  1
  Br  Br12  1  0.646062  0.823031  0.590926  1
  Br  Br13  1  0.821622  0.178378  0.404149  1
  Br  Br14  1  0.356755  0.178378  0.404149  1
  Br  Br15  1  0.170450  0.340899  0.908381  1
  Br  Br16  1  0.026072  0.513036  0.745637  1
  Br  Br17  1  0.659101  0.829550  0.908381  1
  Br  Br18  1  0.824993  0.649986  0.096431  1
  Br  Br19  1  0.176969  0.353938  0.590926  1
  Br  Br20  1  0.486964  0.973928  0.745637  1
  Br  Br21  1  0.508313  0.491687  0.252670  1
  Br  Br22  1  0.486964  0.513036  0.745637  1
  Br  Br23  1  0.170450  0.829550  0.908381  1
  Br  Br24  1  0.350014  0.175007  0.096431  1
  Br  Br25  1  0.983375  0.491687  0.252670  1
  Br  Br26  1  0.508313  0.016625  0.252670  1
  Br  Br27  1  0.824993  0.175007  0.096431  1
