# generated using pymatgen
data_RbLi6Tl3B2(P2O7)4
_symmetry_space_group_name_H-M   'P 1'
_cell_length_a   14.10266700
_cell_length_b   14.10266739
_cell_length_c   7.17903400
_cell_angle_alpha   90.00000000
_cell_angle_beta   90.00000000
_cell_angle_gamma   118.72769135
_symmetry_Int_Tables_number   1
_chemical_formula_structural   RbLi6Tl3B2(P2O7)4
_chemical_formula_sum   'Rb2 Li12 Tl6 B4 P16 O56'
_cell_volume   1252.06106823
_cell_formula_units_Z   2
loop_
 _symmetry_equiv_pos_site_id
 _symmetry_equiv_pos_as_xyz
  1  'x, y, z'
loop_
 _atom_site_type_symbol
 _atom_site_label
 _atom_site_symmetry_multiplicity
 _atom_site_fract_x
 _atom_site_fract_y
 _atom_site_fract_z
 _atom_site_occupancy
  Rb  Rb0  1  0.595912  0.095912  0.250000  1
  Rb  Rb1  1  0.904088  0.404088  0.750000  1
  Li  Li2  1  0.881455  0.118545  0.500000  1
  Li  Li3  1  0.381240  0.618760  0.000000  1
  Li  Li4  1  0.118760  0.881240  0.500000  1
  Li  Li5  1  0.618545  0.381455  0.000000  1
  Li  Li6  1  0.601863  0.868208  0.976409  1
  Li  Li7  1  0.131792  0.398137  0.023591  1
  Li  Li8  1  0.631159  0.897311  0.478114  1
  Li  Li9  1  0.102689  0.368841  0.521886  1
  Li  Li10  1  0.397311  0.131159  0.021886  1
  Li  Li11  1  0.868841  0.602689  0.978114  1
  Li  Li12  1  0.368208  0.101863  0.523591  1
  Li  Li13  1  0.898137  0.631792  0.476409  1
  Tl  Tl14  1  0.389932  0.390018  0.814102  1
  Tl  Tl15  1  0.609982  0.610068  0.185898  1
  Tl  Tl16  1  0.110068  0.109982  0.314102  1
  Tl  Tl17  1  0.890018  0.889932  0.685898  1
  Tl  Tl18  1  0.407040  0.907040  0.750000  1
  Tl  Tl19  1  0.092960  0.592960  0.250000  1
  B  B20  1  0.879943  0.120057  0.000000  1
  B  B21  1  0.379958  0.620042  0.500000  1
  B  B22  1  0.120042  0.879958  0.000000  1
  B  B23  1  0.620057  0.379943  0.500000  1
  P  P24  1  0.713570  0.091038  0.759981  1
  P  P25  1  0.908962  0.286430  0.240019  1
  P  P26  1  0.408967  0.786564  0.260472  1
  P  P27  1  0.213436  0.591033  0.739528  1
  P  P28  1  0.286564  0.908967  0.239528  1
  P  P29  1  0.091033  0.713436  0.760472  1
  P  P30  1  0.591038  0.213570  0.740019  1
  P  P31  1  0.786430  0.408962  0.259981  1
  P  P32  1  0.071413  0.196708  0.801311  1
  P  P33  1  0.803292  0.928587  0.198689  1
  P  P34  1  0.303422  0.428461  0.301268  1
  P  P35  1  0.571539  0.696578  0.698732  1
  P  P36  1  0.928461  0.803422  0.198732  1
  P  P37  1  0.196578  0.071539  0.801268  1
  P  P38  1  0.696708  0.571413  0.698689  1
  P  P39  1  0.428587  0.303292  0.301311  1
  O  O40  1  0.631289  0.013082  0.895703  1
  O  O41  1  0.986918  0.368711  0.104297  1
  O  O42  1  0.487272  0.869334  0.395230  1
  O  O43  1  0.130666  0.512728  0.604770  1
  O  O44  1  0.369334  0.987272  0.104770  1
  O  O45  1  0.012728  0.630666  0.895230  1
  O  O46  1  0.513082  0.131289  0.604297  1
  O  O47  1  0.868711  0.486918  0.395703  1
  O  O48  1  0.834555  0.144077  0.832038  1
  O  O49  1  0.855923  0.165445  0.167962  1
  O  O50  1  0.356367  0.665630  0.332190  1
  O  O51  1  0.334370  0.643633  0.667810  1
  O  O52  1  0.165630  0.856367  0.167810  1
  O  O53  1  0.143633  0.834370  0.832190  1
  O  O54  1  0.644077  0.334555  0.667962  1
  O  O55  1  0.665445  0.355923  0.332038  1
  O  O56  1  0.713756  0.052691  0.562551  1
  O  O57  1  0.947309  0.286244  0.437449  1
  O  O58  1  0.447605  0.786079  0.063142  1
  O  O59  1  0.213921  0.552395  0.936858  1
  O  O60  1  0.286079  0.947605  0.436858  1
  O  O61  1  0.052395  0.713921  0.563142  1
  O  O62  1  0.552691  0.213756  0.937449  1
  O  O63  1  0.786244  0.447309  0.062551  1
  O  O64  1  0.699778  0.199778  0.750000  1
  O  O65  1  0.800222  0.300222  0.250000  1
  O  O66  1  0.300388  0.800388  0.250000  1
  O  O67  1  0.199612  0.699612  0.750000  1
  O  O68  1  0.161939  0.162059  0.864056  1
  O  O69  1  0.837941  0.838061  0.135944  1
  O  O70  1  0.338061  0.337941  0.364056  1
  O  O71  1  0.662059  0.661939  0.635944  1
  O  O72  1  0.131734  0.318740  0.779974  1
  O  O73  1  0.681260  0.868266  0.220026  1
  O  O74  1  0.181360  0.367846  0.279988  1
  O  O75  1  0.632154  0.818640  0.720012  1
  O  O76  1  0.867846  0.681360  0.220012  1
  O  O77  1  0.318640  0.132154  0.779988  1
  O  O78  1  0.818740  0.631734  0.720026  1
  O  O79  1  0.368266  0.181260  0.279974  1
  O  O80  1  0.010485  0.132170  0.632822  1
  O  O81  1  0.867830  0.989515  0.367178  1
  O  O82  1  0.367774  0.489347  0.132632  1
  O  O83  1  0.510653  0.632226  0.867368  1
  O  O84  1  0.989347  0.867774  0.367368  1
  O  O85  1  0.132226  0.010653  0.632632  1
  O  O86  1  0.632170  0.510485  0.867178  1
  O  O87  1  0.489515  0.367830  0.132822  1
  O  O88  1  0.998456  0.166920  0.981059  1
  O  O89  1  0.833080  0.001544  0.018941  1
  O  O90  1  0.333179  0.501475  0.480844  1
  O  O91  1  0.498525  0.666821  0.519156  1
  O  O92  1  0.001475  0.833179  0.019156  1
  O  O93  1  0.166821  0.998525  0.980844  1
  O  O94  1  0.666920  0.498456  0.518941  1
  O  O95  1  0.501544  0.333080  0.481059  1
