# generated using pymatgen
data_Dy5ZrCo12(P2Ru)6
_symmetry_space_group_name_H-M   'P 1'
_cell_length_a   12.25624505
_cell_length_b   12.27041308
_cell_length_c   3.73408500
_cell_angle_alpha   90.00000000
_cell_angle_beta   90.00000000
_cell_angle_gamma   119.72301479
_symmetry_Int_Tables_number   1
_chemical_formula_structural   Dy5ZrCo12(P2Ru)6
_chemical_formula_sum   'Dy5 Zr1 Co12 P12 Ru6'
_cell_volume   487.68213894
_cell_formula_units_Z   1
loop_
 _symmetry_equiv_pos_site_id
 _symmetry_equiv_pos_as_xyz
  1  'x, y, z'
loop_
 _atom_site_type_symbol
 _atom_site_label
 _atom_site_symmetry_multiplicity
 _atom_site_fract_x
 _atom_site_fract_y
 _atom_site_fract_z
 _atom_site_occupancy
  Dy  Dy0  1  0.667230  0.333099  0.000000  1
  Dy  Dy1  1  0.335535  0.668322  0.000000  1
  Dy  Dy2  1  0.179136  0.178603  0.500000  1
  Dy  Dy3  1  0.816808  0.999201  0.500000  1
  Dy  Dy4  1  0.998277  0.816650  0.500000  1
  Zr  Zr5  1  0.557237  0.562495  0.000000  1
  Co  Co6  1  0.829010  0.199712  0.000000  1
  Co  Co7  1  0.806454  0.630578  0.000000  1
  Co  Co8  1  0.367113  0.166324  0.000000  1
  Co  Co9  1  0.199836  0.826907  0.000000  1
  Co  Co10  1  0.626578  0.811696  0.000000  1
  Co  Co11  1  0.173587  0.369374  0.000000  1
  Co  Co12  1  0.517434  0.875710  0.500000  1
  Co  Co13  1  0.349047  0.483013  0.500000  1
  Co  Co14  1  0.721452  0.725873  0.500000  1
  Co  Co15  1  0.280272  0.996645  0.500000  1
  Co  Co16  1  0.000961  0.280750  0.500000  1
  Co  Co17  1  0.000415  0.999832  0.000000  1
  P  P18  1  0.349595  0.352455  0.000000  1
  P  P19  1  0.639091  0.001328  0.000000  1
  P  P20  1  0.004632  0.638889  0.000000  1
  P  P21  1  0.839442  0.314092  0.500000  1
  P  P22  1  0.688900  0.522570  0.500000  1
  P  P23  1  0.473824  0.158747  0.500000  1
  P  P24  1  0.319655  0.839923  0.500000  1
  P  P25  1  0.520537  0.695683  0.500000  1
  P  P26  1  0.164598  0.474672  0.500000  1
  P  P27  1  0.820784  0.822257  0.000000  1
  P  P28  1  0.177731  0.996873  0.000000  1
  P  P29  1  0.999766  0.178287  0.000000  1
  Ru  Ru30  1  0.445170  0.994500  0.000000  1
  Ru  Ru31  1  0.004255  0.446083  0.000000  1
  Ru  Ru32  1  0.645773  0.124982  0.500000  1
  Ru  Ru33  1  0.875797  0.518085  0.500000  1
  Ru  Ru34  1  0.471087  0.348367  0.500000  1
  Ru  Ru35  1  0.132981  0.647426  0.500000  1
