# generated using pymatgen
data_Th2Mn2Fe7Ni3P7
_symmetry_space_group_name_H-M   'P 1'
_cell_length_a   9.14903808
_cell_length_b   9.13326776
_cell_length_c   3.71840900
_cell_angle_alpha   90.00000000
_cell_angle_beta   90.00000000
_cell_angle_gamma   120.07231627
_symmetry_Int_Tables_number   1
_chemical_formula_structural   Th2Mn2Fe7Ni3P7
_chemical_formula_sum   'Th2 Mn2 Fe7 Ni3 P7'
_cell_volume   268.88865560
_cell_formula_units_Z   1
loop_
 _symmetry_equiv_pos_site_id
 _symmetry_equiv_pos_as_xyz
  1  'x, y, z'
loop_
 _atom_site_type_symbol
 _atom_site_label
 _atom_site_symmetry_multiplicity
 _atom_site_fract_x
 _atom_site_fract_y
 _atom_site_fract_z
 _atom_site_occupancy
  Th  Th0  1  0.331067  0.663665  0.000000  1
  Th  Th1  1  0.999166  0.000385  0.500000  1
  Mn  Mn2  1  0.772345  0.547536  0.500000  1
  Mn  Mn3  1  0.454204  0.222258  0.500000  1
  Fe  Fe4  1  0.545571  0.057650  0.000000  1
  Fe  Fe5  1  0.939634  0.487126  0.000000  1
  Fe  Fe6  1  0.514065  0.451860  0.000000  1
  Fe  Fe7  1  0.619588  0.901152  0.500000  1
  Fe  Fe8  1  0.101480  0.720386  0.500000  1
  Fe  Fe9  1  0.280075  0.381284  0.500000  1
  Fe  Fe10  1  0.782204  0.236647  0.500000  1
  Ni  Ni11  1  0.029457  0.268394  0.000000  1
  Ni  Ni12  1  0.731934  0.763465  0.000000  1
  Ni  Ni13  1  0.236934  0.969886  0.000000  1
  P  P14  1  0.764966  0.029536  0.000000  1
  P  P15  1  0.973611  0.738568  0.000000  1
  P  P16  1  0.261446  0.235703  0.000000  1
  P  P17  1  0.382476  0.933770  0.500000  1
  P  P18  1  0.058177  0.441979  0.500000  1
  P  P19  1  0.553529  0.617769  0.500000  1
  P  P20  1  0.668074  0.330976  0.000000  1
