# generated using pymatgen
data_NaAg3Te2
_symmetry_space_group_name_H-M   'P 1'
_cell_length_a   9.09418414
_cell_length_b   9.09418414
_cell_length_c   9.26402218
_cell_angle_alpha   59.96262437
_cell_angle_beta   59.96262388
_cell_angle_gamma   29.42331873
_symmetry_Int_Tables_number   1
_chemical_formula_structural   NaAg3Te2
_chemical_formula_sum   'Na2 Ag6 Te4'
_cell_volume   322.06259764
_cell_formula_units_Z   2
loop_
 _symmetry_equiv_pos_site_id
 _symmetry_equiv_pos_as_xyz
  1  'x, y, z'
loop_
 _atom_site_type_symbol
 _atom_site_label
 _atom_site_symmetry_multiplicity
 _atom_site_fract_x
 _atom_site_fract_y
 _atom_site_fract_z
 _atom_site_occupancy
  Na  Na0  1  0.863907  0.863907  0.053060  1
  Na  Na1  1  0.136093  0.136093  0.946940  1
  Ag  Ag2  1  0.942427  0.942427  0.406286  1
  Ag  Ag3  1  0.057573  0.057573  0.593714  1
  Ag  Ag4  1  0.312999  0.312999  0.445514  1
  Ag  Ag5  1  0.687001  0.687001  0.554486  1
  Ag  Ag6  1  0.402978  0.402978  0.638809  1
  Ag  Ag7  1  0.597022  0.597022  0.361191  1
  Te  Te8  1  0.496982  0.496982  0.803206  1
  Te  Te9  1  0.503018  0.503018  0.196794  1
  Te  Te10  1  0.780375  0.780375  0.723192  1
  Te  Te11  1  0.219625  0.219625  0.276808  1
