# generated using pymatgen
data_CaY4Rh5
_symmetry_space_group_name_H-M   'P 1'
_cell_length_a   3.42885200
_cell_length_b   3.42885200
_cell_length_c   17.32833400
_cell_angle_alpha   90.00000000
_cell_angle_beta   90.00000000
_cell_angle_gamma   90.00000000
_symmetry_Int_Tables_number   1
_chemical_formula_structural   CaY4Rh5
_chemical_formula_sum   'Ca1 Y4 Rh5'
_cell_volume   203.72967403
_cell_formula_units_Z   1
loop_
 _symmetry_equiv_pos_site_id
 _symmetry_equiv_pos_as_xyz
  1  'x, y, z'
loop_
 _atom_site_type_symbol
 _atom_site_label
 _atom_site_symmetry_multiplicity
 _atom_site_fract_x
 _atom_site_fract_y
 _atom_site_fract_z
 _atom_site_occupancy
  Ca  Ca0  1  0.000000  0.000000  0.000000  1
  Y  Y1  1  0.000000  0.000000  0.197657  1
  Y  Y2  1  0.000000  0.000000  0.399098  1
  Y  Y3  1  0.000000  0.000000  0.600902  1
  Y  Y4  1  0.000000  0.000000  0.802343  1
  Rh  Rh5  1  0.500000  0.500000  0.106114  1
  Rh  Rh6  1  0.500000  0.500000  0.300055  1
  Rh  Rh7  1  0.500000  0.500000  0.500000  1
  Rh  Rh8  1  0.500000  0.500000  0.699945  1
  Rh  Rh9  1  0.500000  0.500000  0.893886  1
