# generated using pymatgen
data_DyTmGe(PRh2)6
_symmetry_space_group_name_H-M   'P 1'
_cell_length_a   9.67992400
_cell_length_b   9.67992442
_cell_length_c   3.86508500
_cell_angle_alpha   90.00000000
_cell_angle_beta   90.00000000
_cell_angle_gamma   120.00000539
_symmetry_Int_Tables_number   1
_chemical_formula_structural   DyTmGe(PRh2)6
_chemical_formula_sum   'Dy1 Tm1 Ge1 P6 Rh12'
_cell_volume   313.64153548
_cell_formula_units_Z   1
loop_
 _symmetry_equiv_pos_site_id
 _symmetry_equiv_pos_as_xyz
  1  'x, y, z'
loop_
 _atom_site_type_symbol
 _atom_site_label
 _atom_site_symmetry_multiplicity
 _atom_site_fract_x
 _atom_site_fract_y
 _atom_site_fract_z
 _atom_site_occupancy
  Dy  Dy0  1  0.666667  0.333333  0.251562  1
  Tm  Tm1  1  0.333333  0.666667  0.748474  1
  Ge  Ge2  1  0.000000  0.000000  0.500066  1
  P  P3  1  0.404169  0.285961  0.751424  1
  P  P4  1  0.714039  0.118207  0.751424  1
  P  P5  1  0.881793  0.595831  0.751424  1
  P  P6  1  0.595302  0.713754  0.249522  1
  P  P7  1  0.286246  0.881548  0.249522  1
  P  P8  1  0.118452  0.404698  0.249522  1
  Rh  Rh9  1  0.451535  0.067026  0.749744  1
  Rh  Rh10  1  0.932974  0.384509  0.749744  1
  Rh  Rh11  1  0.615491  0.548465  0.749744  1
  Rh  Rh12  1  0.546748  0.930373  0.249507  1
  Rh  Rh13  1  0.069627  0.616375  0.249507  1
  Rh  Rh14  1  0.383625  0.453252  0.249507  1
  Rh  Rh15  1  0.155470  0.275348  0.751974  1
  Rh  Rh16  1  0.724652  0.880122  0.751974  1
  Rh  Rh17  1  0.119878  0.844530  0.751974  1
  Rh  Rh18  1  0.844789  0.725241  0.247795  1
  Rh  Rh19  1  0.274759  0.119547  0.247795  1
  Rh  Rh20  1  0.880453  0.155211  0.247795  1
