# generated using pymatgen
data_Cs12Al(GaTe4)3
_symmetry_space_group_name_H-M   'P 1'
_cell_length_a   14.87169459
_cell_length_b   9.29988547
_cell_length_c   12.18682294
_cell_angle_alpha   53.14867881
_cell_angle_beta   89.90822960
_cell_angle_gamma   89.99246135
_symmetry_Int_Tables_number   1
_chemical_formula_structural   Cs12Al(GaTe4)3
_chemical_formula_sum   'Cs12 Al1 Ga3 Te12'
_cell_volume   1348.72474677
_cell_formula_units_Z   1
loop_
 _symmetry_equiv_pos_site_id
 _symmetry_equiv_pos_as_xyz
  1  'x, y, z'
loop_
 _atom_site_type_symbol
 _atom_site_label
 _atom_site_symmetry_multiplicity
 _atom_site_fract_x
 _atom_site_fract_y
 _atom_site_fract_z
 _atom_site_occupancy
  Cs  Cs0  1  0.579908  0.647017  0.108622  1
  Cs  Cs1  1  0.079163  0.352702  0.390936  1
  Cs  Cs2  1  0.420407  0.353185  0.891372  1
  Cs  Cs3  1  0.920054  0.646533  0.608808  1
  Cs  Cs4  1  0.304664  0.878088  0.908983  1
  Cs  Cs5  1  0.805105  0.123642  0.590653  1
  Cs  Cs6  1  0.693286  0.122789  0.091550  1
  Cs  Cs7  1  0.195188  0.878512  0.408136  1
  Cs  Cs8  1  0.876457  0.627972  0.016535  1
  Cs  Cs9  1  0.377010  0.367871  0.485052  1
  Cs  Cs10  1  0.124010  0.370171  0.984255  1
  Cs  Cs11  1  0.623617  0.631919  0.514494  1
  Al  Al12  1  0.941022  0.932646  0.159347  1
  Ga  Ga13  1  0.559525  0.931570  0.661216  1
  Ga  Ga14  1  0.059413  0.068078  0.839640  1
  Ga  Ga15  1  0.440456  0.068117  0.339051  1
  Te  Te16  1  0.105424  0.857382  0.113851  1
  Te  Te17  1  0.605405  0.142093  0.386769  1
  Te  Te18  1  0.894221  0.141143  0.888134  1
  Te  Te19  1  0.394544  0.857818  0.613399  1
  Te  Te20  1  0.833194  0.650836  0.307352  1
  Te  Te21  1  0.332472  0.351809  0.191914  1
  Te  Te22  1  0.167535  0.351611  0.692131  1
  Te  Te23  1  0.667644  0.648149  0.807945  1
  Te  Te24  1  0.055113  0.884570  0.738306  1
  Te  Te25  1  0.555575  0.115335  0.762475  1
  Te  Te26  1  0.945219  0.114082  0.261336  1
  Te  Te27  1  0.444370  0.884360  0.237740  1
