# generated using pymatgen
data_Ce(ThRh2)5
_symmetry_space_group_name_H-M   'P 1'
_cell_length_a   5.98066927
_cell_length_b   5.98067279
_cell_length_c   9.30428700
_cell_angle_alpha   90.00000000
_cell_angle_beta   90.00000000
_cell_angle_gamma   104.40054632
_symmetry_Int_Tables_number   1
_chemical_formula_structural   Ce(ThRh2)5
_chemical_formula_sum   'Ce1 Th5 Rh10'
_cell_volume   322.34339749
_cell_formula_units_Z   1
loop_
 _symmetry_equiv_pos_site_id
 _symmetry_equiv_pos_as_xyz
  1  'x, y, z'
loop_
 _atom_site_type_symbol
 _atom_site_label
 _atom_site_symmetry_multiplicity
 _atom_site_fract_x
 _atom_site_fract_y
 _atom_site_fract_z
 _atom_site_occupancy
  Ce  Ce0  1  0.616472  0.616471  0.750000  1
  Th  Th1  1  0.380050  0.380052  0.250000  1
  Th  Th2  1  0.799288  0.203347  0.501210  1
  Th  Th3  1  0.203342  0.799283  0.998791  1
  Th  Th4  1  0.203342  0.799283  0.501209  1
  Th  Th5  1  0.799288  0.203347  0.998790  1
  Rh  Rh6  1  0.688873  0.688880  0.046285  1
  Rh  Rh7  1  0.688873  0.688880  0.453715  1
  Rh  Rh8  1  0.316327  0.316317  0.943937  1
  Rh  Rh9  1  0.316327  0.316317  0.556063  1
  Rh  Rh10  1  0.508921  0.043160  0.750000  1
  Rh  Rh11  1  0.492307  0.947062  0.250000  1
  Rh  Rh12  1  0.979112  0.979115  0.250000  1
  Rh  Rh13  1  0.017258  0.017256  0.750000  1
  Rh  Rh14  1  0.043169  0.508921  0.750000  1
  Rh  Rh15  1  0.947050  0.492310  0.250000  1
