# generated using pymatgen
data_HoTm15ZnIn3Rh4
_symmetry_space_group_name_H-M   'P 1'
_cell_length_a   9.48773001
_cell_length_b   9.48772980
_cell_length_c   9.48048705
_cell_angle_alpha   59.99397087
_cell_angle_beta   59.99396988
_cell_angle_gamma   60.03020142
_symmetry_Int_Tables_number   1
_chemical_formula_structural   HoTm15ZnIn3Rh4
_chemical_formula_sum   'Ho1 Tm15 Zn1 In3 Rh4'
_cell_volume   603.53116437
_cell_formula_units_Z   1
loop_
 _symmetry_equiv_pos_site_id
 _symmetry_equiv_pos_as_xyz
  1  'x, y, z'
loop_
 _atom_site_type_symbol
 _atom_site_label
 _atom_site_symmetry_multiplicity
 _atom_site_fract_x
 _atom_site_fract_y
 _atom_site_fract_z
 _atom_site_occupancy
  Ho  Ho0  1  0.062143  0.062143  0.437980  1
  Tm  Tm1  1  0.436638  0.068823  0.435942  1
  Tm  Tm2  1  0.061935  0.438736  0.061348  1
  Tm  Tm3  1  0.053964  0.646626  0.646992  1
  Tm  Tm4  1  0.435960  0.435960  0.068869  1
  Tm  Tm5  1  0.646626  0.053964  0.646992  1
  Tm  Tm6  1  0.189279  0.811192  0.189087  1
  Tm  Tm7  1  0.189260  0.189260  0.811350  1
  Tm  Tm8  1  0.809988  0.809988  0.191076  1
  Tm  Tm9  1  0.438736  0.061935  0.061348  1
  Tm  Tm10  1  0.811192  0.189279  0.189087  1
  Tm  Tm11  1  0.068823  0.436638  0.435942  1
  Tm  Tm12  1  0.809671  0.191085  0.810452  1
  Tm  Tm13  1  0.191085  0.809671  0.810452  1
  Tm  Tm14  1  0.646779  0.646779  0.053898  1
  Tm  Tm15  1  0.651616  0.651616  0.651714  1
  Zn  Zn16  1  0.415764  0.415764  0.415834  1
  In  In17  1  0.745360  0.417759  0.417035  1
  In  In18  1  0.417759  0.745360  0.417035  1
  In  In19  1  0.417030  0.417030  0.745879  1
  Rh  Rh20  1  0.858298  0.858298  0.427435  1
  Rh  Rh21  1  0.856074  0.856074  0.856883  1
  Rh  Rh22  1  0.427449  0.858571  0.858685  1
  Rh  Rh23  1  0.858571  0.427449  0.858685  1
