# generated using pymatgen
data_Fe2ReMo3N
_symmetry_space_group_name_H-M   'P 1'
_cell_length_a   7.95887171
_cell_length_b   7.95887124
_cell_length_c   7.95887100
_cell_angle_alpha   59.99999683
_cell_angle_beta   59.99999879
_cell_angle_gamma   59.99999964
_symmetry_Int_Tables_number   1
_chemical_formula_structural   Fe2ReMo3N
_chemical_formula_sum   'Fe8 Re4 Mo12 N4'
_cell_volume   356.48350144
_cell_formula_units_Z   4
loop_
 _symmetry_equiv_pos_site_id
 _symmetry_equiv_pos_as_xyz
  1  'x, y, z'
loop_
 _atom_site_type_symbol
 _atom_site_label
 _atom_site_symmetry_multiplicity
 _atom_site_fract_x
 _atom_site_fract_y
 _atom_site_fract_z
 _atom_site_occupancy
  Fe  Fe0  1  0.916980  0.916980  0.249059  1
  Fe  Fe1  1  0.249059  0.916980  0.916980  1
  Fe  Fe2  1  0.916980  0.249059  0.916980  1
  Fe  Fe3  1  0.333020  0.000941  0.333020  1
  Fe  Fe4  1  0.333020  0.333020  0.000941  1
  Fe  Fe5  1  0.333020  0.333020  0.333020  1
  Fe  Fe6  1  0.916980  0.916980  0.916980  1
  Fe  Fe7  1  0.000941  0.333020  0.333020  1
  Re  Re8  1  0.625000  0.125000  0.125000  1
  Re  Re9  1  0.125000  0.125000  0.625000  1
  Re  Re10  1  0.125000  0.625000  0.125000  1
  Re  Re11  1  0.125000  0.125000  0.125000  1
  Mo  Mo12  1  0.554727  0.945273  0.945273  1
  Mo  Mo13  1  0.304727  0.695273  0.304727  1
  Mo  Mo14  1  0.945273  0.945273  0.554727  1
  Mo  Mo15  1  0.945273  0.554727  0.554727  1
  Mo  Mo16  1  0.695273  0.304727  0.695273  1
  Mo  Mo17  1  0.304727  0.304727  0.695273  1
  Mo  Mo18  1  0.695273  0.304727  0.304727  1
  Mo  Mo19  1  0.554727  0.945273  0.554727  1
  Mo  Mo20  1  0.304727  0.695273  0.695273  1
  Mo  Mo21  1  0.945273  0.554727  0.945273  1
  Mo  Mo22  1  0.554727  0.554727  0.945273  1
  Mo  Mo23  1  0.695273  0.695273  0.304727  1
  N  N24  1  0.625000  0.625000  0.625000  1
  N  N25  1  0.125000  0.625000  0.625000  1
  N  N26  1  0.625000  0.125000  0.625000  1
  N  N27  1  0.625000  0.625000  0.125000  1
