# generated using pymatgen
data_Dy8Sc2Ga3Bi2Pt
_symmetry_space_group_name_H-M   'P 1'
_cell_length_a   8.56625035
_cell_length_b   8.56625007
_cell_length_c   8.70021526
_cell_angle_alpha   124.98192604
_cell_angle_beta   124.98191986
_cell_angle_gamma   80.52786616
_symmetry_Int_Tables_number   1
_chemical_formula_structural   Dy8Sc2Ga3Bi2Pt
_chemical_formula_sum   'Dy8 Sc2 Ga3 Bi2 Pt1'
_cell_volume   415.57416912
_cell_formula_units_Z   1
loop_
 _symmetry_equiv_pos_site_id
 _symmetry_equiv_pos_as_xyz
  1  'x, y, z'
loop_
 _atom_site_type_symbol
 _atom_site_label
 _atom_site_symmetry_multiplicity
 _atom_site_fract_x
 _atom_site_fract_y
 _atom_site_fract_z
 _atom_site_occupancy
  Dy  Dy0  1  0.786180  0.297346  0.803004  1
  Dy  Dy1  1  0.202654  0.713820  0.196996  1
  Dy  Dy2  1  0.483177  0.994342  0.196996  1
  Dy  Dy3  1  0.300471  0.466975  0.500000  1
  Dy  Dy4  1  0.033025  0.199529  0.500000  1
  Dy  Dy5  1  0.505658  0.016823  0.803004  1
  Dy  Dy6  1  0.703706  0.515706  0.500000  1
  Dy  Dy7  1  0.984294  0.796294  0.500000  1
  Sc  Sc8  1  0.994693  0.996994  0.991687  1
  Sc  Sc9  1  0.503006  0.505307  0.008313  1
  Ga  Ga10  1  0.147209  0.647779  0.794987  1
  Ga  Ga11  1  0.852221  0.352791  0.205013  1
  Ga  Ga12  1  0.640575  0.859425  0.500000  1
  Bi  Bi13  1  0.246370  0.253630  0.000000  1
  Bi  Bi14  1  0.746370  0.753630  0.000000  1
  Pt  Pt15  1  0.370391  0.129609  0.500000  1
