# generated using pymatgen
data_Na4ErBiO6
_symmetry_space_group_name_H-M   'P 1'
_cell_length_a   5.83120545
_cell_length_b   5.83120607
_cell_length_c   5.94006437
_cell_angle_alpha   99.56672990
_cell_angle_beta   99.56672850
_cell_angle_gamma   119.93611732
_symmetry_Int_Tables_number   1
_chemical_formula_structural   Na4ErBiO6
_chemical_formula_sum   'Na4 Er1 Bi1 O6'
_cell_volume   165.09975866
_cell_formula_units_Z   1
loop_
 _symmetry_equiv_pos_site_id
 _symmetry_equiv_pos_as_xyz
  1  'x, y, z'
loop_
 _atom_site_type_symbol
 _atom_site_label
 _atom_site_symmetry_multiplicity
 _atom_site_fract_x
 _atom_site_fract_y
 _atom_site_fract_z
 _atom_site_occupancy
  Na  Na0  1  0.499273  0.500727  0.000000  1
  Na  Na1  1  0.009196  0.990804  0.500000  1
  Na  Na2  1  0.657737  0.342259  0.500000  1
  Na  Na3  1  0.337613  0.662383  0.500000  1
  Er  Er4  1  0.832851  0.167148  0.000000  1
  Bi  Bi5  1  0.167050  0.832950  0.000000  1
  O  O6  1  0.943030  0.586726  0.215465  1
  O  O7  1  0.560233  0.932170  0.219808  1
  O  O8  1  0.214987  0.203078  0.220197  1
  O  O9  1  0.796924  0.785016  0.779805  1
  O  O10  1  0.067830  0.439767  0.780193  1
  O  O11  1  0.413275  0.056971  0.784534  1
