# generated using pymatgen
data_CsV(AgTe2)2
_symmetry_space_group_name_H-M   'P 1'
_cell_length_a   10.92624063
_cell_length_b   10.92624155
_cell_length_c   8.74505000
_cell_angle_alpha   90.00000000
_cell_angle_beta   90.00000000
_cell_angle_gamma   145.83701503
_symmetry_Int_Tables_number   1
_chemical_formula_structural   CsV(AgTe2)2
_chemical_formula_sum   'Cs2 V2 Ag4 Te8'
_cell_volume   586.26162282
_cell_formula_units_Z   2
loop_
 _symmetry_equiv_pos_site_id
 _symmetry_equiv_pos_as_xyz
  1  'x, y, z'
loop_
 _atom_site_type_symbol
 _atom_site_label
 _atom_site_symmetry_multiplicity
 _atom_site_fract_x
 _atom_site_fract_y
 _atom_site_fract_z
 _atom_site_occupancy
  Cs  Cs0  1  0.457578  0.824202  0.750000  1
  Cs  Cs1  1  0.824202  0.457578  0.250000  1
  V  V2  1  0.517775  0.298321  0.750000  1
  V  V3  1  0.298321  0.517775  0.250000  1
  Ag  Ag4  1  0.376647  0.376647  0.000000  1
  Ag  Ag5  1  0.376647  0.376647  0.500000  1
  Ag  Ag6  1  0.023712  0.796701  0.750000  1
  Ag  Ag7  1  0.796701  0.023712  0.250000  1
  Te  Te8  1  0.651870  0.635127  0.750000  1
  Te  Te9  1  0.635127  0.651870  0.250000  1
  Te  Te10  1  0.304380  0.066837  0.993835  1
  Te  Te11  1  0.066837  0.304380  0.493835  1
  Te  Te12  1  0.409783  0.832624  0.250000  1
  Te  Te13  1  0.066837  0.304380  0.006165  1
  Te  Te14  1  0.304380  0.066837  0.506165  1
  Te  Te15  1  0.832624  0.409783  0.750000  1
