# generated using pymatgen
data_Mn4TcW
_symmetry_space_group_name_H-M   'P 1'
_cell_length_a   4.68380700
_cell_length_b   4.68380825
_cell_length_c   7.71124400
_cell_angle_alpha   90.00000000
_cell_angle_beta   90.00000000
_cell_angle_gamma   119.99999825
_symmetry_Int_Tables_number   1
_chemical_formula_structural   Mn4TcW
_chemical_formula_sum   'Mn8 Tc2 W2'
_cell_volume   146.50524835
_cell_formula_units_Z   2
loop_
 _symmetry_equiv_pos_site_id
 _symmetry_equiv_pos_as_xyz
  1  'x, y, z'
loop_
 _atom_site_type_symbol
 _atom_site_label
 _atom_site_symmetry_multiplicity
 _atom_site_fract_x
 _atom_site_fract_y
 _atom_site_fract_z
 _atom_site_occupancy
  Mn  Mn0  1  0.654601  0.827300  0.749738  1
  Mn  Mn1  1  0.345399  0.172700  0.249738  1
  Mn  Mn2  1  0.827300  0.172700  0.249738  1
  Mn  Mn3  1  0.172700  0.345399  0.749738  1
  Mn  Mn4  1  0.172700  0.827300  0.749738  1
  Mn  Mn5  1  0.827300  0.654601  0.249738  1
  Mn  Mn6  1  0.000000  0.000000  0.497695  1
  Mn  Mn7  1  0.000000  0.000000  0.997695  1
  Tc  Tc8  1  0.666667  0.333333  0.567876  1
  Tc  Tc9  1  0.333333  0.666667  0.067876  1
  W  W10  1  0.333333  0.666667  0.435214  1
  W  W11  1  0.666667  0.333333  0.935214  1
