# generated using pymatgen
data_La2Bi(AsRh2)6
_symmetry_space_group_name_H-M   'P 1'
_cell_length_a   10.18487200
_cell_length_b   10.18487210
_cell_length_c   4.01634600
_cell_angle_alpha   90.00000000
_cell_angle_beta   90.00000000
_cell_angle_gamma   119.99999968
_symmetry_Int_Tables_number   1
_chemical_formula_structural   La2Bi(AsRh2)6
_chemical_formula_sum   'La2 Bi1 As6 Rh12'
_cell_volume   360.80529901
_cell_formula_units_Z   1
loop_
 _symmetry_equiv_pos_site_id
 _symmetry_equiv_pos_as_xyz
  1  'x, y, z'
loop_
 _atom_site_type_symbol
 _atom_site_label
 _atom_site_symmetry_multiplicity
 _atom_site_fract_x
 _atom_site_fract_y
 _atom_site_fract_z
 _atom_site_occupancy
  La  La0  1  0.333333  0.666667  0.246853  1
  La  La1  1  0.666667  0.333333  0.753147  1
  Bi  Bi2  1  0.000000  0.000000  0.500000  1
  As  As3  1  0.404262  0.113915  0.255390  1
  As  As4  1  0.709654  0.595738  0.255390  1
  As  As5  1  0.886085  0.290346  0.255390  1
  As  As6  1  0.595738  0.886085  0.744610  1
  As  As7  1  0.290346  0.404262  0.744610  1
  As  As8  1  0.113915  0.709654  0.744610  1
  Rh  Rh9  1  0.445801  0.384015  0.253159  1
  Rh  Rh10  1  0.938213  0.554199  0.253159  1
  Rh  Rh11  1  0.615985  0.061787  0.253159  1
  Rh  Rh12  1  0.554199  0.615985  0.746841  1
  Rh  Rh13  1  0.061787  0.445801  0.746841  1
  Rh  Rh14  1  0.384015  0.938213  0.746841  1
  Rh  Rh15  1  0.158702  0.875249  0.235724  1
  Rh  Rh16  1  0.716547  0.841298  0.235724  1
  Rh  Rh17  1  0.124751  0.283453  0.235724  1
  Rh  Rh18  1  0.841298  0.124751  0.764276  1
  Rh  Rh19  1  0.283453  0.158702  0.764276  1
  Rh  Rh20  1  0.875249  0.716547  0.764276  1
