# generated using pymatgen
data_Li3Pr4Si4AgPb2
_symmetry_space_group_name_H-M   'P 1'
_cell_length_a   9.92182992
_cell_length_b   9.92182971
_cell_length_c   6.99965548
_cell_angle_alpha   90.20357594
_cell_angle_beta   89.79642225
_cell_angle_gamma   153.23541676
_symmetry_Int_Tables_number   1
_chemical_formula_structural   Li3Pr4Si4AgPb2
_chemical_formula_sum   'Li3 Pr4 Si4 Ag1 Pb2'
_cell_volume   310.30163196
_cell_formula_units_Z   1
loop_
 _symmetry_equiv_pos_site_id
 _symmetry_equiv_pos_as_xyz
  1  'x, y, z'
loop_
 _atom_site_type_symbol
 _atom_site_label
 _atom_site_symmetry_multiplicity
 _atom_site_fract_x
 _atom_site_fract_y
 _atom_site_fract_z
 _atom_site_occupancy
  Li  Li0  1  0.182473  0.817527  0.445033  1
  Li  Li1  1  0.179935  0.820065  0.057853  1
  Li  Li2  1  0.820113  0.179887  0.942679  1
  Pr  Pr3  1  0.546834  0.453166  0.249654  1
  Pr  Pr4  1  0.451049  0.548951  0.748956  1
  Pr  Pr5  1  0.351496  0.648504  0.246629  1
  Pr  Pr6  1  0.647775  0.352225  0.746831  1
  Si  Si7  1  0.943938  0.056062  0.075192  1
  Si  Si8  1  0.055923  0.944077  0.923106  1
  Si  Si9  1  0.055708  0.944292  0.576939  1
  Si  Si10  1  0.945302  0.054698  0.420544  1
  Ag  Ag11  1  0.823144  0.176856  0.557066  1
  Pb  Pb12  1  0.718642  0.281358  0.244818  1
  Pb  Pb13  1  0.277669  0.722331  0.764701  1
