# generated using pymatgen
data_Zr3InCo5Os3
_symmetry_space_group_name_H-M   'P 1'
_cell_length_a   5.01281916
_cell_length_b   4.98017493
_cell_length_c   8.32072834
_cell_angle_alpha   89.99999945
_cell_angle_beta   90.10167965
_cell_angle_gamma   119.78480648
_symmetry_Int_Tables_number   1
_chemical_formula_structural   Zr3InCo5Os3
_chemical_formula_sum   'Zr3 In1 Co5 Os3'
_cell_volume   180.28324315
_cell_formula_units_Z   1
loop_
 _symmetry_equiv_pos_site_id
 _symmetry_equiv_pos_as_xyz
  1  'x, y, z'
loop_
 _atom_site_type_symbol
 _atom_site_label
 _atom_site_symmetry_multiplicity
 _atom_site_fract_x
 _atom_site_fract_y
 _atom_site_fract_z
 _atom_site_occupancy
  Zr  Zr0  1  0.660147  0.330073  0.554735  1
  Zr  Zr1  1  0.662286  0.331143  0.932566  1
  Zr  Zr2  1  0.329530  0.664766  0.082460  1
  In  In3  1  0.322934  0.661468  0.438008  1
  Co  Co4  1  0.832360  0.168719  0.247431  1
  Co  Co5  1  0.832360  0.663640  0.247431  1
  Co  Co6  1  0.342612  0.171306  0.247134  1
  Co  Co7  1  0.178513  0.834875  0.753049  1
  Co  Co8  1  0.178513  0.343638  0.753049  1
  Os  Os9  1  0.996662  0.998331  0.493727  1
  Os  Os10  1  0.001586  0.000793  0.000725  1
  Os  Os11  1  0.662496  0.831247  0.749685  1
