# generated using pymatgen
data_Tb16InHg3(IrRh)2
_symmetry_space_group_name_H-M   'P 1'
_cell_length_a   9.65235961
_cell_length_b   9.66945362
_cell_length_c   9.65554482
_cell_angle_alpha   59.95233984
_cell_angle_beta   59.85309593
_cell_angle_gamma   59.94140014
_symmetry_Int_Tables_number   1
_chemical_formula_structural   Tb16InHg3(IrRh)2
_chemical_formula_sum   'Tb16 In1 Hg3 Ir2 Rh2'
_cell_volume   636.01046642
_cell_formula_units_Z   1
loop_
 _symmetry_equiv_pos_site_id
 _symmetry_equiv_pos_as_xyz
  1  'x, y, z'
loop_
 _atom_site_type_symbol
 _atom_site_label
 _atom_site_symmetry_multiplicity
 _atom_site_fract_x
 _atom_site_fract_y
 _atom_site_fract_z
 _atom_site_occupancy
  Tb  Tb0  1  0.811391  0.807260  0.190756  1
  Tb  Tb1  1  0.810469  0.190607  0.808317  1
  Tb  Tb2  1  0.189690  0.189983  0.811285  1
  Tb  Tb3  1  0.649762  0.050974  0.649373  1
  Tb  Tb4  1  0.064005  0.060992  0.438363  1
  Tb  Tb5  1  0.440183  0.436753  0.061015  1
  Tb  Tb6  1  0.649762  0.649892  0.649373  1
  Tb  Tb7  1  0.811391  0.190593  0.190756  1
  Tb  Tb8  1  0.189690  0.809041  0.811285  1
  Tb  Tb9  1  0.053075  0.649092  0.648740  1
  Tb  Tb10  1  0.440183  0.062049  0.061015  1
  Tb  Tb11  1  0.438133  0.062572  0.436724  1
  Tb  Tb12  1  0.063721  0.438417  0.059446  1
  Tb  Tb13  1  0.649452  0.649424  0.051702  1
  Tb  Tb14  1  0.189291  0.810373  0.189962  1
  Tb  Tb15  1  0.064005  0.436640  0.438363  1
  In  In16  1  0.743082  0.418617  0.419683  1
  Hg  Hg17  1  0.414967  0.414655  0.415187  1
  Hg  Hg18  1  0.414879  0.414538  0.756042  1
  Hg  Hg19  1  0.414967  0.755189  0.415187  1
  Ir  Ir20  1  0.857023  0.426822  0.857226  1
  Ir  Ir21  1  0.857023  0.858931  0.857226  1
  Rh  Rh22  1  0.856952  0.858485  0.426080  1
  Rh  Rh23  1  0.426903  0.858102  0.856895  1
