# generated using pymatgen
data_Tm3Cd3CuAu2
_symmetry_space_group_name_H-M   'P 1'
_cell_length_a   3.77289700
_cell_length_b   7.72712068
_cell_length_c   7.72712000
_cell_angle_alpha   119.99999710
_cell_angle_beta   90.00000000
_cell_angle_gamma   90.00000000
_symmetry_Int_Tables_number   1
_chemical_formula_structural   Tm3Cd3CuAu2
_chemical_formula_sum   'Tm3 Cd3 Cu1 Au2'
_cell_volume   195.09266671
_cell_formula_units_Z   1
loop_
 _symmetry_equiv_pos_site_id
 _symmetry_equiv_pos_as_xyz
  1  'x, y, z'
loop_
 _atom_site_type_symbol
 _atom_site_label
 _atom_site_symmetry_multiplicity
 _atom_site_fract_x
 _atom_site_fract_y
 _atom_site_fract_z
 _atom_site_occupancy
  Tm  Tm0  1  0.000000  0.405072  0.405072  1
  Tm  Tm1  1  0.000000  0.000000  0.594928  1
  Tm  Tm2  1  0.000000  0.594928  0.000000  1
  Cd  Cd3  1  0.500000  0.750722  0.750722  1
  Cd  Cd4  1  0.500000  0.000000  0.249278  1
  Cd  Cd5  1  0.500000  0.249278  0.000000  1
  Cu  Cu6  1  0.000000  0.000000  0.000000  1
  Au  Au7  1  0.500000  0.666667  0.333333  1
  Au  Au8  1  0.500000  0.333333  0.666667  1
