# generated using pymatgen
data_Cs8Si5Ge3Se20
_symmetry_space_group_name_H-M   'P 1'
_cell_length_a   11.98913936
_cell_length_b   11.96151979
_cell_length_c   9.95888279
_cell_angle_alpha   81.85429194
_cell_angle_beta   81.72503750
_cell_angle_gamma   90.32386458
_symmetry_Int_Tables_number   1
_chemical_formula_structural   Cs8Si5Ge3Se20
_chemical_formula_sum   'Cs8 Si5 Ge3 Se20'
_cell_volume   1398.56392766
_cell_formula_units_Z   1
loop_
 _symmetry_equiv_pos_site_id
 _symmetry_equiv_pos_as_xyz
  1  'x, y, z'
loop_
 _atom_site_type_symbol
 _atom_site_label
 _atom_site_symmetry_multiplicity
 _atom_site_fract_x
 _atom_site_fract_y
 _atom_site_fract_z
 _atom_site_occupancy
  Cs  Cs0  1  0.713004  0.976877  0.368679  1
  Cs  Cs1  1  0.023771  0.287281  0.129497  1
  Cs  Cs2  1  0.287065  0.025260  0.629261  1
  Cs  Cs3  1  0.974859  0.712432  0.870328  1
  Cs  Cs4  1  0.548201  0.709113  0.882996  1
  Cs  Cs5  1  0.289821  0.452563  0.617018  1
  Cs  Cs6  1  0.453180  0.290481  0.117509  1
  Cs  Cs7  1  0.709626  0.546370  0.381141  1
  Si  Si8  1  0.768368  0.359594  0.884850  1
  Si  Si9  1  0.767004  0.041137  0.885857  1
  Si  Si10  1  0.958736  0.233670  0.614768  1
  Si  Si11  1  0.233123  0.959864  0.113611  1
  Si  Si12  1  0.040162  0.766969  0.386492  1
  Ge  Ge13  1  0.362010  0.768730  0.385783  1
  Ge  Ge14  1  0.231288  0.637323  0.113695  1
  Ge  Ge15  1  0.638942  0.231712  0.615536  1
  Se  Se16  1  0.748932  0.878157  0.021731  1
  Se  Se17  1  0.122776  0.252390  0.481501  1
  Se  Se18  1  0.250983  0.123760  0.979837  1
  Se  Se19  1  0.876361  0.749383  0.520291  1
  Se  Se20  1  0.497975  0.748610  0.527528  1
  Se  Se21  1  0.251778  0.501003  0.971694  1
  Se  Se22  1  0.502488  0.254196  0.474514  1
  Se  Se23  1  0.750248  0.490530  0.021750  1
  Se  Se24  1  0.619398  0.049600  0.756629  1
  Se  Se25  1  0.942853  0.379714  0.748859  1
  Se  Se26  1  0.380604  0.950360  0.243213  1
  Se  Se27  1  0.049959  0.618869  0.256782  1
  Se  Se28  1  0.746840  0.184643  0.024200  1
  Se  Se29  1  0.821019  0.253100  0.470478  1
  Se  Se30  1  0.253646  0.820537  0.970563  1
  Se  Se31  1  0.179028  0.746606  0.529277  1
  Se  Se32  1  0.941674  0.057794  0.749313  1
  Se  Se33  1  0.058323  0.942218  0.250427  1
  Se  Se34  1  0.384168  0.615279  0.249590  1
  Se  Se35  1  0.621787  0.383873  0.754805  1
