# generated using pymatgen
data_Ho6ErMoO12
_symmetry_space_group_name_H-M   'P 1'
_cell_length_a   6.64668431
_cell_length_b   6.64668345
_cell_length_c   6.64668427
_cell_angle_alpha   92.40806020
_cell_angle_beta   92.40805530
_cell_angle_gamma   92.40805028
_symmetry_Int_Tables_number   1
_chemical_formula_structural   Ho6ErMoO12
_chemical_formula_sum   'Ho6 Er1 Mo1 O12'
_cell_volume   292.83948108
_cell_formula_units_Z   1
loop_
 _symmetry_equiv_pos_site_id
 _symmetry_equiv_pos_as_xyz
  1  'x, y, z'
loop_
 _atom_site_type_symbol
 _atom_site_label
 _atom_site_symmetry_multiplicity
 _atom_site_fract_x
 _atom_site_fract_y
 _atom_site_fract_z
 _atom_site_occupancy
  Ho  Ho0  1  0.744432  0.929820  0.439552  1
  Ho  Ho1  1  0.929820  0.439552  0.744432  1
  Ho  Ho2  1  0.439552  0.744432  0.929820  1
  Ho  Ho3  1  0.255568  0.070180  0.560448  1
  Ho  Ho4  1  0.070180  0.560448  0.255568  1
  Ho  Ho5  1  0.560448  0.255568  0.070180  1
  Er  Er6  1  0.000000  0.000000  0.000000  1
  Mo  Mo7  1  0.500000  0.500000  0.500000  1
  O  O8  1  0.597156  0.467019  0.811309  1
  O  O9  1  0.467019  0.811309  0.597156  1
  O  O10  1  0.811309  0.597156  0.467019  1
  O  O11  1  0.402844  0.532981  0.188691  1
  O  O12  1  0.532981  0.188691  0.402844  1
  O  O13  1  0.188691  0.402844  0.532981  1
  O  O14  1  0.070222  0.907237  0.316775  1
  O  O15  1  0.907237  0.316775  0.070222  1
  O  O16  1  0.683225  0.929778  0.092763  1
  O  O17  1  0.092763  0.683225  0.929778  1
  O  O18  1  0.929778  0.092763  0.683225  1
  O  O19  1  0.316775  0.070222  0.907237  1
