# generated using pymatgen
data_Ag2Sb2S3Cl2
_symmetry_space_group_name_H-M   'P 1'
_cell_length_a   7.12377521
_cell_length_b   11.50379140
_cell_length_c   11.23635301
_cell_angle_alpha   104.83777223
_cell_angle_beta   89.86863629
_cell_angle_gamma   91.87621977
_symmetry_Int_Tables_number   1
_chemical_formula_structural   Ag2Sb2S3Cl2
_chemical_formula_sum   'Ag8 Sb8 S12 Cl8'
_cell_volume   889.62393006
_cell_formula_units_Z   4
loop_
 _symmetry_equiv_pos_site_id
 _symmetry_equiv_pos_as_xyz
  1  'x, y, z'
loop_
 _atom_site_type_symbol
 _atom_site_label
 _atom_site_symmetry_multiplicity
 _atom_site_fract_x
 _atom_site_fract_y
 _atom_site_fract_z
 _atom_site_occupancy
  Ag  Ag0  1  0.512166  0.712900  0.301485  1
  Ag  Ag1  1  0.985108  0.304167  0.203563  1
  Ag  Ag2  1  0.254845  0.506340  0.350707  1
  Ag  Ag3  1  0.745155  0.493660  0.649293  1
  Ag  Ag4  1  0.257227  0.495285  0.851371  1
  Ag  Ag5  1  0.742773  0.504715  0.148629  1
  Ag  Ag6  1  0.014892  0.695833  0.796437  1
  Ag  Ag7  1  0.487834  0.287100  0.698515  1
  Sb  Sb8  1  0.940399  0.789339  0.486592  1
  Sb  Sb9  1  0.094664  0.788118  0.154648  1
  Sb  Sb10  1  0.403960  0.213833  0.014644  1
  Sb  Sb11  1  0.596040  0.786167  0.985356  1
  Sb  Sb12  1  0.905336  0.211882  0.845352  1
  Sb  Sb13  1  0.059601  0.210661  0.513408  1
  Sb  Sb14  1  0.557801  0.211742  0.343270  1
  Sb  Sb15  1  0.442199  0.788258  0.656730  1
  S  S16  1  0.993188  0.363494  0.718594  1
  S  S17  1  0.372096  0.343635  0.512847  1
  S  S18  1  0.107268  0.347896  0.012171  1
  S  S19  1  0.006812  0.636506  0.281406  1
  S  S20  1  0.394862  0.653032  0.084704  1
  S  S21  1  0.868841  0.345676  0.418399  1
  S  S22  1  0.492392  0.366666  0.219741  1
  S  S23  1  0.605138  0.346968  0.915296  1
  S  S24  1  0.507608  0.633334  0.780259  1
  S  S25  1  0.892732  0.652104  0.987829  1
  S  S26  1  0.627904  0.656365  0.487153  1
  S  S27  1  0.131159  0.654324  0.581601  1
  Cl  Cl28  1  0.789359  0.884112  0.757491  1
  Cl  Cl29  1  0.717031  0.108833  0.566081  1
  Cl  Cl30  1  0.210641  0.115888  0.242509  1
  Cl  Cl31  1  0.741747  0.115248  0.062655  1
  Cl  Cl32  1  0.238986  0.109268  0.745618  1
  Cl  Cl33  1  0.258253  0.884752  0.937345  1
  Cl  Cl34  1  0.761014  0.890732  0.254382  1
  Cl  Cl35  1  0.282969  0.891167  0.433919  1
