# generated using pymatgen
data_CsZrTlTe3
_symmetry_space_group_name_H-M   'P 1'
_cell_length_a   14.56836600
_cell_length_b   6.83695583
_cell_length_c   9.50815900
_cell_angle_alpha   70.68166588
_cell_angle_beta   90.00000000
_cell_angle_gamma   90.00000000
_symmetry_Int_Tables_number   1
_chemical_formula_structural   CsZrTlTe3
_chemical_formula_sum   'Cs4 Zr4 Tl4 Te12'
_cell_volume   893.72060864
_cell_formula_units_Z   4
loop_
 _symmetry_equiv_pos_site_id
 _symmetry_equiv_pos_as_xyz
  1  'x, y, z'
loop_
 _atom_site_type_symbol
 _atom_site_label
 _atom_site_symmetry_multiplicity
 _atom_site_fract_x
 _atom_site_fract_y
 _atom_site_fract_z
 _atom_site_occupancy
  Cs  Cs0  1  0.941355  0.674201  0.670970  1
  Cs  Cs1  1  0.441355  0.825799  0.329030  1
  Cs  Cs2  1  0.058645  0.325799  0.329030  1
  Cs  Cs3  1  0.558645  0.174201  0.670970  1
  Zr  Zr4  1  0.747334  0.638307  0.289057  1
  Zr  Zr5  1  0.247334  0.861693  0.710943  1
  Zr  Zr6  1  0.252666  0.361693  0.710943  1
  Zr  Zr7  1  0.752666  0.138307  0.289057  1
  Tl  Tl8  1  0.853475  0.045001  0.914405  1
  Tl  Tl9  1  0.353475  0.454999  0.085595  1
  Tl  Tl10  1  0.146525  0.954999  0.085595  1
  Tl  Tl11  1  0.646525  0.545001  0.914405  1
  Te  Te12  1  0.912592  0.878172  0.255705  1
  Te  Te13  1  0.412592  0.621828  0.744295  1
  Te  Te14  1  0.087408  0.121828  0.744295  1
  Te  Te15  1  0.587408  0.378172  0.255705  1
  Te  Te16  1  0.819396  0.265790  0.521408  1
  Te  Te17  1  0.319396  0.234210  0.478592  1
  Te  Te18  1  0.180604  0.734210  0.478592  1
  Te  Te19  1  0.680604  0.765790  0.521408  1
  Te  Te20  1  0.847185  0.469484  0.064334  1
  Te  Te21  1  0.347185  0.030516  0.935666  1
  Te  Te22  1  0.152815  0.530516  0.935666  1
  Te  Te23  1  0.652815  0.969484  0.064334  1
