# generated using pymatgen
data_Tb4HoTl3InPd2
_symmetry_space_group_name_H-M   'P 1'
_cell_length_a   3.65449200
_cell_length_b   8.22912419
_cell_length_c   18.41994028
_cell_angle_alpha   89.89553665
_cell_angle_beta   90.00000000
_cell_angle_gamma   90.00000000
_symmetry_Int_Tables_number   1
_chemical_formula_structural   Tb4HoTl3InPd2
_chemical_formula_sum   'Tb8 Ho2 Tl6 In2 Pd4'
_cell_volume   553.94688936
_cell_formula_units_Z   2
loop_
 _symmetry_equiv_pos_site_id
 _symmetry_equiv_pos_as_xyz
  1  'x, y, z'
loop_
 _atom_site_type_symbol
 _atom_site_label
 _atom_site_symmetry_multiplicity
 _atom_site_fract_x
 _atom_site_fract_y
 _atom_site_fract_z
 _atom_site_occupancy
  Tb  Tb0  1  0.000000  0.500000  0.500000  1
  Tb  Tb1  1  0.000000  0.000000  0.000000  1
  Tb  Tb2  1  0.000000  0.739858  0.282187  1
  Tb  Tb3  1  0.000000  0.260142  0.717813  1
  Tb  Tb4  1  0.000000  0.759640  0.781676  1
  Tb  Tb5  1  0.000000  0.240360  0.218324  1
  Tb  Tb6  1  0.000000  0.618002  0.084732  1
  Tb  Tb7  1  0.000000  0.381998  0.915268  1
  Ho  Ho8  1  0.000000  0.883802  0.585795  1
  Ho  Ho9  1  0.000000  0.116198  0.414205  1
  Tl  Tl10  1  0.500000  0.708648  0.932966  1
  Tl  Tl11  1  0.500000  0.291352  0.067034  1
  Tl  Tl12  1  0.500000  0.795556  0.435217  1
  Tl  Tl13  1  0.500000  0.204444  0.564783  1
  Tl  Tl14  1  0.500000  0.584610  0.649421  1
  Tl  Tl15  1  0.500000  0.415390  0.350579  1
  In  In16  1  0.500000  0.917158  0.151352  1
  In  In17  1  0.500000  0.082842  0.848648  1
  Pd  Pd18  1  0.500000  0.528456  0.196284  1
  Pd  Pd19  1  0.500000  0.471544  0.803716  1
  Pd  Pd20  1  0.500000  0.974977  0.696986  1
  Pd  Pd21  1  0.500000  0.025023  0.303014  1
