# generated using pymatgen
data_MnNb8AlTe8
_symmetry_space_group_name_H-M   'P 1'
_cell_length_a   4.95586000
_cell_length_b   11.29204800
_cell_length_c   19.97693900
_cell_angle_alpha   90.00000000
_cell_angle_beta   90.00000000
_cell_angle_gamma   90.00000000
_symmetry_Int_Tables_number   1
_chemical_formula_structural   MnNb8AlTe8
_chemical_formula_sum   'Mn2 Nb16 Al2 Te16'
_cell_volume   1117.94564475
_cell_formula_units_Z   2
loop_
 _symmetry_equiv_pos_site_id
 _symmetry_equiv_pos_as_xyz
  1  'x, y, z'
loop_
 _atom_site_type_symbol
 _atom_site_label
 _atom_site_symmetry_multiplicity
 _atom_site_fract_x
 _atom_site_fract_y
 _atom_site_fract_z
 _atom_site_occupancy
  Mn  Mn0  1  0.250368  0.500000  0.500000  1
  Mn  Mn1  1  0.749632  0.000000  0.000000  1
  Nb  Nb2  1  0.500668  0.563029  0.387785  1
  Nb  Nb3  1  0.500668  0.436971  0.612215  1
  Nb  Nb4  1  0.499332  0.063029  0.112215  1
  Nb  Nb5  1  0.499332  0.936971  0.887785  1
  Nb  Nb6  1  0.500458  0.698702  0.535252  1
  Nb  Nb7  1  0.500458  0.301298  0.464748  1
  Nb  Nb8  1  0.499542  0.198702  0.964748  1
  Nb  Nb9  1  0.499542  0.801298  0.035252  1
  Nb  Nb10  1  0.000002  0.684872  0.445592  1
  Nb  Nb11  1  0.000002  0.315128  0.554408  1
  Nb  Nb12  1  0.999998  0.184872  0.054408  1
  Nb  Nb13  1  0.999998  0.815128  0.945592  1
  Nb  Nb14  1  0.999964  0.404333  0.395648  1
  Nb  Nb15  1  0.999964  0.595667  0.604352  1
  Nb  Nb16  1  0.000036  0.904333  0.104352  1
  Nb  Nb17  1  0.000036  0.095667  0.895648  1
  Al  Al18  1  0.749959  0.500000  0.500000  1
  Al  Al19  1  0.250041  0.000000  0.000000  1
  Te  Te20  1  0.002402  0.834944  0.560035  1
  Te  Te21  1  0.002402  0.165056  0.439965  1
  Te  Te22  1  0.997598  0.334944  0.939965  1
  Te  Te23  1  0.997598  0.665056  0.060035  1
  Te  Te24  1  0.497795  0.337890  0.324052  1
  Te  Te25  1  0.497795  0.662110  0.675948  1
  Te  Te26  1  0.502205  0.837890  0.175948  1
  Te  Te27  1  0.502205  0.162110  0.824052  1
  Te  Te28  1  0.498545  0.812475  0.408199  1
  Te  Te29  1  0.498545  0.187525  0.591801  1
  Te  Te30  1  0.501455  0.312475  0.091801  1
  Te  Te31  1  0.501455  0.687525  0.908199  1
  Te  Te32  1  0.002699  0.606031  0.310387  1
  Te  Te33  1  0.002699  0.393969  0.689613  1
  Te  Te34  1  0.997301  0.106031  0.189613  1
  Te  Te35  1  0.997301  0.893969  0.810387  1
