# generated using pymatgen
data_BaDyErO4
_symmetry_space_group_name_H-M   'P 1'
_cell_length_a   3.46438700
_cell_length_b   10.46171200
_cell_length_c   12.17271600
_cell_angle_alpha   90.00000000
_cell_angle_beta   90.00000000
_cell_angle_gamma   90.00000000
_symmetry_Int_Tables_number   1
_chemical_formula_structural   BaDyErO4
_chemical_formula_sum   'Ba4 Dy4 Er4 O16'
_cell_volume   441.18084697
_cell_formula_units_Z   4
loop_
 _symmetry_equiv_pos_site_id
 _symmetry_equiv_pos_as_xyz
  1  'x, y, z'
loop_
 _atom_site_type_symbol
 _atom_site_label
 _atom_site_symmetry_multiplicity
 _atom_site_fract_x
 _atom_site_fract_y
 _atom_site_fract_z
 _atom_site_occupancy
  Ba  Ba0  1  0.750000  0.253294  0.148924  1
  Ba  Ba1  1  0.750000  0.753294  0.351076  1
  Ba  Ba2  1  0.250000  0.746706  0.851076  1
  Ba  Ba3  1  0.250000  0.246706  0.648924  1
  Dy  Dy4  1  0.750000  0.925602  0.111374  1
  Dy  Dy5  1  0.750000  0.425602  0.388626  1
  Dy  Dy6  1  0.250000  0.074398  0.888626  1
  Dy  Dy7  1  0.250000  0.574398  0.611374  1
  Er  Er8  1  0.750000  0.423149  0.891568  1
  Er  Er9  1  0.750000  0.923149  0.608432  1
  Er  Er10  1  0.250000  0.576851  0.108432  1
  Er  Er11  1  0.250000  0.076851  0.391568  1
  O  O12  1  0.750000  0.211578  0.841074  1
  O  O13  1  0.750000  0.711578  0.658926  1
  O  O14  1  0.250000  0.788422  0.158926  1
  O  O15  1  0.250000  0.288422  0.341074  1
  O  O16  1  0.750000  0.114187  0.517066  1
  O  O17  1  0.750000  0.614187  0.982934  1
  O  O18  1  0.250000  0.885813  0.482934  1
  O  O19  1  0.250000  0.385813  0.017066  1
  O  O20  1  0.750000  0.018760  0.284165  1
  O  O21  1  0.750000  0.518760  0.215835  1
  O  O22  1  0.250000  0.981240  0.715835  1
  O  O23  1  0.250000  0.481240  0.784165  1
  O  O24  1  0.750000  0.430179  0.574149  1
  O  O25  1  0.750000  0.930179  0.925851  1
  O  O26  1  0.250000  0.569821  0.425851  1
  O  O27  1  0.250000  0.069821  0.074149  1
