# generated using pymatgen
data_Li2Pr3ErPt3
_symmetry_space_group_name_H-M   'P 1'
_cell_length_a   7.67916100
_cell_length_b   7.63026762
_cell_length_c   4.16172600
_cell_angle_alpha   90.00000000
_cell_angle_beta   90.00000000
_cell_angle_gamma   120.21220934
_symmetry_Int_Tables_number   1
_chemical_formula_structural   Li2Pr3ErPt3
_chemical_formula_sum   'Li2 Pr3 Er1 Pt3'
_cell_volume   210.72933801
_cell_formula_units_Z   1
loop_
 _symmetry_equiv_pos_site_id
 _symmetry_equiv_pos_as_xyz
  1  'x, y, z'
loop_
 _atom_site_type_symbol
 _atom_site_label
 _atom_site_symmetry_multiplicity
 _atom_site_fract_x
 _atom_site_fract_y
 _atom_site_fract_z
 _atom_site_occupancy
  Li  Li0  1  0.004856  0.241560  0.500000  1
  Li  Li1  1  0.763296  0.758440  0.500000  1
  Pr  Pr2  1  0.415384  0.439213  0.000000  1
  Pr  Pr3  1  0.614706  0.000000  0.000000  1
  Pr  Pr4  1  0.976171  0.560787  0.000000  1
  Er  Er5  1  0.242390  0.000000  0.500000  1
  Pt  Pt6  1  0.004137  0.000000  0.000000  1
  Pt  Pt7  1  0.650630  0.322199  0.500000  1
  Pt  Pt8  1  0.328430  0.677801  0.500000  1
