# generated using pymatgen
data_Mg3SnP7N12
_symmetry_space_group_name_H-M   'P 1'
_cell_length_a   7.31122314
_cell_length_b   7.31122409
_cell_length_c   7.31122296
_cell_angle_alpha   109.42925638
_cell_angle_beta   109.42926420
_cell_angle_gamma   109.42925161
_symmetry_Int_Tables_number   1
_chemical_formula_structural   Mg3SnP7N12
_chemical_formula_sum   'Mg3 Sn1 P7 N12'
_cell_volume   301.31529838
_cell_formula_units_Z   1
loop_
 _symmetry_equiv_pos_site_id
 _symmetry_equiv_pos_as_xyz
  1  'x, y, z'
loop_
 _atom_site_type_symbol
 _atom_site_label
 _atom_site_symmetry_multiplicity
 _atom_site_fract_x
 _atom_site_fract_y
 _atom_site_fract_z
 _atom_site_occupancy
  Mg  Mg0  1  0.004168  0.648917  0.004168  1
  Mg  Mg1  1  0.648917  0.004168  0.004168  1
  Mg  Mg2  1  0.004168  0.004168  0.648917  1
  Sn  Sn3  1  0.308046  0.308046  0.308046  1
  P  P4  1  0.505226  0.253670  0.756874  1
  P  P5  1  0.505226  0.756874  0.253670  1
  P  P6  1  0.756874  0.253670  0.505226  1
  P  P7  1  0.253670  0.505226  0.756874  1
  P  P8  1  0.756874  0.505226  0.253670  1
  P  P9  1  0.253670  0.756874  0.505226  1
  P  P10  1  0.955570  0.955570  0.955570  1
  N  N11  1  0.003741  0.727545  0.434052  1
  N  N12  1  0.283880  0.715204  0.283880  1
  N  N13  1  0.288207  0.572872  0.572872  1
  N  N14  1  0.572872  0.572872  0.288207  1
  N  N15  1  0.572872  0.288207  0.572872  1
  N  N16  1  0.727545  0.003741  0.434052  1
  N  N17  1  0.434052  0.003741  0.727545  1
  N  N18  1  0.727545  0.434052  0.003741  1
  N  N19  1  0.283880  0.283880  0.715204  1
  N  N20  1  0.715204  0.283880  0.283880  1
  N  N21  1  0.003741  0.434052  0.727545  1
  N  N22  1  0.434052  0.727545  0.003741  1
