# generated using pymatgen
data_Yb4ZnIr5Ru2
_symmetry_space_group_name_H-M   'P 1'
_cell_length_a   5.32204172
_cell_length_b   5.41669351
_cell_length_c   8.58150800
_cell_angle_alpha   90.00000000
_cell_angle_beta   90.00000000
_cell_angle_gamma   120.59232626
_symmetry_Int_Tables_number   1
_chemical_formula_structural   Yb4ZnIr5Ru2
_chemical_formula_sum   'Yb4 Zn1 Ir5 Ru2'
_cell_volume   212.95289644
_cell_formula_units_Z   1
loop_
 _symmetry_equiv_pos_site_id
 _symmetry_equiv_pos_as_xyz
  1  'x, y, z'
loop_
 _atom_site_type_symbol
 _atom_site_label
 _atom_site_symmetry_multiplicity
 _atom_site_fract_x
 _atom_site_fract_y
 _atom_site_fract_z
 _atom_site_occupancy
  Yb  Yb0  1  0.660515  0.330240  0.570550  1
  Yb  Yb1  1  0.337181  0.668613  0.436526  1
  Yb  Yb2  1  0.337181  0.668613  0.063474  1
  Yb  Yb3  1  0.660515  0.330240  0.929450  1
  Zn  Zn4  1  0.346484  0.173292  0.250000  1
  Ir  Ir5  1  0.168353  0.345219  0.750000  1
  Ir  Ir6  1  0.168359  0.823045  0.750000  1
  Ir  Ir7  1  0.665074  0.832509  0.750000  1
  Ir  Ir8  1  0.845179  0.661149  0.250000  1
  Ir  Ir9  1  0.845167  0.184103  0.250000  1
  Ru  Ru10  1  0.982996  0.991489  0.499382  1
  Ru  Ru11  1  0.982996  0.991489  0.000618  1
