# generated using pymatgen
data_Sc4Si2Pd7
_symmetry_space_group_name_H-M   'P 1'
_cell_length_a   3.95916700
_cell_length_b   6.57630800
_cell_length_c   16.62319600
_cell_angle_alpha   90.00000000
_cell_angle_beta   90.00000000
_cell_angle_gamma   90.00000000
_symmetry_Int_Tables_number   1
_chemical_formula_structural   Sc4Si2Pd7
_chemical_formula_sum   'Sc8 Si4 Pd14'
_cell_volume   432.81319415
_cell_formula_units_Z   2
loop_
 _symmetry_equiv_pos_site_id
 _symmetry_equiv_pos_as_xyz
  1  'x, y, z'
loop_
 _atom_site_type_symbol
 _atom_site_label
 _atom_site_symmetry_multiplicity
 _atom_site_fract_x
 _atom_site_fract_y
 _atom_site_fract_z
 _atom_site_occupancy
  Sc  Sc0  1  0.000000  0.282544  0.461247  1
  Sc  Sc1  1  0.000000  0.717456  0.538753  1
  Sc  Sc2  1  0.000000  0.782544  0.038753  1
  Sc  Sc3  1  0.000000  0.217456  0.961247  1
  Sc  Sc4  1  0.000000  0.528081  0.288501  1
  Sc  Sc5  1  0.000000  0.471919  0.711499  1
  Sc  Sc6  1  0.000000  0.028081  0.211499  1
  Sc  Sc7  1  0.000000  0.971919  0.788501  1
  Si  Si8  1  0.500000  0.834612  0.307934  1
  Si  Si9  1  0.500000  0.165388  0.692066  1
  Si  Si10  1  0.500000  0.334612  0.192066  1
  Si  Si11  1  0.500000  0.665388  0.807934  1
  Pd  Pd12  1  0.000000  0.909148  0.383739  1
  Pd  Pd13  1  0.000000  0.090852  0.616261  1
  Pd  Pd14  1  0.000000  0.409148  0.116261  1
  Pd  Pd15  1  0.000000  0.590852  0.883739  1
  Pd  Pd16  1  0.500000  0.592206  0.421573  1
  Pd  Pd17  1  0.500000  0.407794  0.578427  1
  Pd  Pd18  1  0.500000  0.092206  0.078427  1
  Pd  Pd19  1  0.500000  0.907794  0.921573  1
  Pd  Pd20  1  0.500000  0.500000  0.000000  1
  Pd  Pd21  1  0.500000  0.000000  0.500000  1
  Pd  Pd22  1  0.500000  0.212125  0.334215  1
  Pd  Pd23  1  0.500000  0.787875  0.665785  1
  Pd  Pd24  1  0.500000  0.712125  0.165785  1
  Pd  Pd25  1  0.500000  0.287875  0.834215  1
