# generated using pymatgen
data_Nb12Ga8CoTc3C4
_symmetry_space_group_name_H-M   'P 1'
_cell_length_a   8.33534231
_cell_length_b   8.31963152
_cell_length_c   8.31963200
_cell_angle_alpha   60.00000606
_cell_angle_beta   60.06233647
_cell_angle_gamma   60.06233600
_symmetry_Int_Tables_number   1
_chemical_formula_structural   Nb12Ga8CoTc3C4
_chemical_formula_sum   'Nb12 Ga8 Co1 Tc3 C4'
_cell_volume   408.34310396
_cell_formula_units_Z   1
loop_
 _symmetry_equiv_pos_site_id
 _symmetry_equiv_pos_as_xyz
  1  'x, y, z'
loop_
 _atom_site_type_symbol
 _atom_site_label
 _atom_site_symmetry_multiplicity
 _atom_site_fract_x
 _atom_site_fract_y
 _atom_site_fract_z
 _atom_site_occupancy
  Nb  Nb0  1  0.698428  0.305241  0.691090  1
  Nb  Nb1  1  0.948454  0.551877  0.551877  1
  Nb  Nb2  1  0.551572  0.944759  0.944759  1
  Nb  Nb3  1  0.948454  0.551877  0.947793  1
  Nb  Nb4  1  0.551572  0.558910  0.944759  1
  Nb  Nb5  1  0.948454  0.947793  0.551877  1
  Nb  Nb6  1  0.698428  0.691090  0.305241  1
  Nb  Nb7  1  0.301546  0.698123  0.698123  1
  Nb  Nb8  1  0.698428  0.305241  0.305241  1
  Nb  Nb9  1  0.301546  0.302207  0.698123  1
  Nb  Nb10  1  0.551572  0.944759  0.558910  1
  Nb  Nb11  1  0.301546  0.698123  0.302207  1
  Ga  Ga12  1  0.347157  0.331038  0.331038  1
  Ga  Ga13  1  0.258737  0.913754  0.913754  1
  Ga  Ga14  1  0.902843  0.259232  0.918962  1
  Ga  Ga15  1  0.902843  0.918962  0.259232  1
  Ga  Ga16  1  0.347157  0.990768  0.331038  1
  Ga  Ga17  1  0.347157  0.331038  0.990768  1
  Ga  Ga18  1  0.991263  0.336246  0.336246  1
  Ga  Ga19  1  0.902843  0.918962  0.918962  1
  Co  Co20  1  0.625000  0.125000  0.125000  1
  Tc  Tc21  1  0.125000  0.125000  0.125000  1
  Tc  Tc22  1  0.125000  0.625000  0.125000  1
  Tc  Tc23  1  0.125000  0.125000  0.625000  1
  C  C24  1  0.625000  0.625000  0.625000  1
  C  C25  1  0.125000  0.625000  0.625000  1
  C  C26  1  0.625000  0.125000  0.625000  1
  C  C27  1  0.625000  0.625000  0.125000  1
