# generated using pymatgen
data_Ca5Yb3(Re2C3)4
_symmetry_space_group_name_H-M   'P 1'
_cell_length_a   6.51078197
_cell_length_b   5.83250909
_cell_length_c   11.68511000
_cell_angle_alpha   67.72669546
_cell_angle_beta   89.93669179
_cell_angle_gamma   90.12972309
_symmetry_Int_Tables_number   1
_chemical_formula_structural   Ca5Yb3(Re2C3)4
_chemical_formula_sum   'Ca5 Yb3 Re8 C12'
_cell_volume   410.62218686
_cell_formula_units_Z   1
loop_
 _symmetry_equiv_pos_site_id
 _symmetry_equiv_pos_as_xyz
  1  'x, y, z'
loop_
 _atom_site_type_symbol
 _atom_site_label
 _atom_site_symmetry_multiplicity
 _atom_site_fract_x
 _atom_site_fract_y
 _atom_site_fract_z
 _atom_site_occupancy
  Ca  Ca0  1  0.711958  0.669848  0.406212  1
  Ca  Ca1  1  0.989654  0.729495  0.634043  1
  Ca  Ca2  1  0.489324  0.270836  0.867524  1
  Ca  Ca3  1  0.010870  0.267946  0.367065  1
  Ca  Ca4  1  0.509962  0.730071  0.132213  1
  Yb  Yb5  1  0.792126  0.671277  0.906617  1
  Yb  Yb6  1  0.293155  0.329870  0.593327  1
  Yb  Yb7  1  0.207329  0.330049  0.093045  1
  Re  Re8  1  0.991380  0.821277  0.120519  1
  Re  Re9  1  0.490720  0.178270  0.379054  1
  Re  Re10  1  0.008378  0.178590  0.879209  1
  Re  Re11  1  0.508303  0.821204  0.621500  1
  Re  Re12  1  0.758142  0.183727  0.663211  1
  Re  Re13  1  0.242071  0.816267  0.336737  1
  Re  Re14  1  0.742480  0.183277  0.162333  1
  Re  Re15  1  0.257311  0.817122  0.837481  1
  C  C16  1  0.633267  0.511103  0.648185  1
  C  C17  1  0.132630  0.488885  0.853986  1
  C  C18  1  0.365416  0.487934  0.352875  1
  C  C19  1  0.866770  0.510874  0.146300  1
  C  C20  1  0.213278  0.901213  0.990760  1
  C  C21  1  0.712392  0.101015  0.509512  1
  C  C22  1  0.785716  0.098339  0.008922  1
  C  C23  1  0.287015  0.897258  0.491240  1
  C  C24  1  0.479135  0.028693  0.242599  1
  C  C25  1  0.019844  0.027458  0.743670  1
  C  C26  1  0.981573  0.974766  0.255094  1
  C  C27  1  0.519800  0.973335  0.756766  1
