# generated using pymatgen
data_Nd12Ni3RuBr12
_symmetry_space_group_name_H-M   'P 1'
_cell_length_a   10.38425333
_cell_length_b   10.38425350
_cell_length_c   10.38425306
_cell_angle_alpha   109.29634473
_cell_angle_beta   109.29634756
_cell_angle_gamma   109.29634641
_symmetry_Int_Tables_number   1
_chemical_formula_structural   Nd12Ni3RuBr12
_chemical_formula_sum   'Nd12 Ni3 Ru1 Br12'
_cell_volume   867.52951241
_cell_formula_units_Z   1
loop_
 _symmetry_equiv_pos_site_id
 _symmetry_equiv_pos_as_xyz
  1  'x, y, z'
loop_
 _atom_site_type_symbol
 _atom_site_label
 _atom_site_symmetry_multiplicity
 _atom_site_fract_x
 _atom_site_fract_y
 _atom_site_fract_z
 _atom_site_occupancy
  Nd  Nd0  1  0.469107  0.482892  0.234542  1
  Nd  Nd1  1  0.750000  0.232038  0.267962  1
  Nd  Nd2  1  0.750000  0.016955  0.483045  1
  Nd  Nd3  1  0.234542  0.469107  0.482892  1
  Nd  Nd4  1  0.267962  0.750000  0.232038  1
  Nd  Nd5  1  0.030893  0.265458  0.017108  1
  Nd  Nd6  1  0.017108  0.030893  0.265458  1
  Nd  Nd7  1  0.483045  0.750000  0.016955  1
  Nd  Nd8  1  0.482892  0.234542  0.469107  1
  Nd  Nd9  1  0.016955  0.483045  0.750000  1
  Nd  Nd10  1  0.265458  0.017108  0.030893  1
  Nd  Nd11  1  0.232038  0.267962  0.750000  1
  Ni  Ni12  1  0.500196  0.999804  0.250000  1
  Ni  Ni13  1  0.999804  0.250000  0.500196  1
  Ni  Ni14  1  0.250000  0.500196  0.999804  1
  Ru  Ru15  1  0.250000  0.250000  0.250000  1
  Br  Br16  1  0.250000  0.755617  0.744383  1
  Br  Br17  1  0.512450  0.507786  0.758121  1
  Br  Br18  1  0.987550  0.741879  0.992214  1
  Br  Br19  1  0.744383  0.250000  0.755617  1
  Br  Br20  1  0.992214  0.987550  0.741879  1
  Br  Br21  1  0.250000  0.993172  0.506828  1
  Br  Br22  1  0.758121  0.512450  0.507786  1
  Br  Br23  1  0.506828  0.250000  0.993172  1
  Br  Br24  1  0.755617  0.744383  0.250000  1
  Br  Br25  1  0.741879  0.992214  0.987550  1
  Br  Br26  1  0.993172  0.506828  0.250000  1
  Br  Br27  1  0.507786  0.758121  0.512450  1
