# generated using pymatgen
data_Nd3Pu(WN3)4
_symmetry_space_group_name_H-M   'P 1'
_cell_length_a   7.38106491
_cell_length_b   7.38106468
_cell_length_c   6.36315978
_cell_angle_alpha   75.39504588
_cell_angle_beta   75.39505420
_cell_angle_gamma   83.82185172
_symmetry_Int_Tables_number   1
_chemical_formula_structural   Nd3Pu(WN3)4
_chemical_formula_sum   'Nd3 Pu1 W4 N12'
_cell_volume   324.26510796
_cell_formula_units_Z   1
loop_
 _symmetry_equiv_pos_site_id
 _symmetry_equiv_pos_as_xyz
  1  'x, y, z'
loop_
 _atom_site_type_symbol
 _atom_site_label
 _atom_site_symmetry_multiplicity
 _atom_site_fract_x
 _atom_site_fract_y
 _atom_site_fract_z
 _atom_site_occupancy
  Nd  Nd0  1  0.697448  0.302552  0.750000  1
  Nd  Nd1  1  0.089483  0.910517  0.750000  1
  Nd  Nd2  1  0.303108  0.696892  0.250000  1
  Pu  Pu3  1  0.909351  0.090649  0.250000  1
  W  W4  1  0.382310  0.201955  0.242264  1
  W  W5  1  0.619839  0.798331  0.755680  1
  W  W6  1  0.798045  0.617690  0.257736  1
  W  W7  1  0.201669  0.380161  0.744320  1
  N  N8  1  0.622788  0.116265  0.155957  1
  N  N9  1  0.361287  0.341429  0.469895  1
  N  N10  1  0.000229  0.222661  0.856650  1
  N  N11  1  0.383240  0.885449  0.848789  1
  N  N12  1  0.777339  0.999771  0.643350  1
  N  N13  1  0.114551  0.616760  0.651211  1
  N  N14  1  0.883735  0.377212  0.344043  1
  N  N15  1  0.636654  0.654678  0.531473  1
  N  N16  1  0.658571  0.638713  0.030105  1
  N  N17  1  0.345322  0.363346  0.968527  1
  N  N18  1  0.995143  0.780112  0.158473  1
  N  N19  1  0.219888  0.004857  0.341527  1
