# generated using pymatgen
data_TcHgF6
_symmetry_space_group_name_H-M   'P 1'
_cell_length_a   5.96296480
_cell_length_b   5.96296403
_cell_length_c   5.96296513
_cell_angle_alpha   53.30246899
_cell_angle_beta   53.30247303
_cell_angle_gamma   53.30248205
_symmetry_Int_Tables_number   1
_chemical_formula_structural   TcHgF6
_chemical_formula_sum   'Tc1 Hg1 F6'
_cell_volume   126.41251822
_cell_formula_units_Z   1
loop_
 _symmetry_equiv_pos_site_id
 _symmetry_equiv_pos_as_xyz
  1  'x, y, z'
loop_
 _atom_site_type_symbol
 _atom_site_label
 _atom_site_symmetry_multiplicity
 _atom_site_fract_x
 _atom_site_fract_y
 _atom_site_fract_z
 _atom_site_occupancy
  Tc  Tc0  1  0.000000  0.000000  0.000000  1
  Hg  Hg1  1  0.500000  0.500000  0.500000  1
  F  F2  1  0.075254  0.372689  0.778660  1
  F  F3  1  0.778660  0.075254  0.372689  1
  F  F4  1  0.627311  0.221340  0.924746  1
  F  F5  1  0.221340  0.924746  0.627311  1
  F  F6  1  0.924746  0.627311  0.221340  1
  F  F7  1  0.372689  0.778660  0.075254  1
