# generated using pymatgen
data_Hf3Al2CoN
_symmetry_space_group_name_H-M   'P 1'
_cell_length_a   8.41709603
_cell_length_b   8.41709664
_cell_length_c   8.41709600
_cell_angle_alpha   60.00000251
_cell_angle_beta   60.00000013
_cell_angle_gamma   60.00000473
_symmetry_Int_Tables_number   1
_chemical_formula_structural   Hf3Al2CoN
_chemical_formula_sum   'Hf12 Al8 Co4 N4'
_cell_volume   421.66922179
_cell_formula_units_Z   4
loop_
 _symmetry_equiv_pos_site_id
 _symmetry_equiv_pos_as_xyz
  1  'x, y, z'
loop_
 _atom_site_type_symbol
 _atom_site_label
 _atom_site_symmetry_multiplicity
 _atom_site_fract_x
 _atom_site_fract_y
 _atom_site_fract_z
 _atom_site_occupancy
  Hf  Hf0  1  0.557829  0.942171  0.557829  1
  Hf  Hf1  1  0.307829  0.692171  0.692171  1
  Hf  Hf2  1  0.692171  0.307829  0.307829  1
  Hf  Hf3  1  0.307829  0.692171  0.307829  1
  Hf  Hf4  1  0.692171  0.692171  0.307829  1
  Hf  Hf5  1  0.307829  0.307829  0.692171  1
  Hf  Hf6  1  0.557829  0.557829  0.942171  1
  Hf  Hf7  1  0.942171  0.557829  0.557829  1
  Hf  Hf8  1  0.557829  0.942171  0.942171  1
  Hf  Hf9  1  0.942171  0.942171  0.557829  1
  Hf  Hf10  1  0.692171  0.307829  0.692171  1
  Hf  Hf11  1  0.942171  0.557829  0.942171  1
  Al  Al12  1  0.920415  0.920415  0.920415  1
  Al  Al13  1  0.011242  0.329585  0.329585  1
  Al  Al14  1  0.329585  0.011242  0.329585  1
  Al  Al15  1  0.329585  0.329585  0.011242  1
  Al  Al16  1  0.920415  0.238758  0.920415  1
  Al  Al17  1  0.920415  0.920415  0.238758  1
  Al  Al18  1  0.238758  0.920415  0.920415  1
  Al  Al19  1  0.329585  0.329585  0.329585  1
  Co  Co20  1  0.125000  0.125000  0.125000  1
  Co  Co21  1  0.625000  0.125000  0.125000  1
  Co  Co22  1  0.125000  0.625000  0.125000  1
  Co  Co23  1  0.125000  0.125000  0.625000  1
  N  N24  1  0.625000  0.625000  0.625000  1
  N  N25  1  0.125000  0.625000  0.625000  1
  N  N26  1  0.625000  0.125000  0.625000  1
  N  N27  1  0.625000  0.625000  0.125000  1
