# generated using pymatgen
data_La2Pd3AuO8
_symmetry_space_group_name_H-M   'P 1'
_cell_length_a   6.69922682
_cell_length_b   6.71193481
_cell_length_c   6.75027456
_cell_angle_alpha   127.10995866
_cell_angle_beta   125.65592851
_cell_angle_gamma   79.06170821
_symmetry_Int_Tables_number   1
_chemical_formula_structural   La2Pd3AuO8
_chemical_formula_sum   'La2 Pd3 Au1 O8'
_cell_volume   190.43529458
_cell_formula_units_Z   1
loop_
 _symmetry_equiv_pos_site_id
 _symmetry_equiv_pos_as_xyz
  1  'x, y, z'
loop_
 _atom_site_type_symbol
 _atom_site_label
 _atom_site_symmetry_multiplicity
 _atom_site_fract_x
 _atom_site_fract_y
 _atom_site_fract_z
 _atom_site_occupancy
  La  La0  1  0.743612  0.245919  0.490156  1
  La  La1  1  0.006388  0.004081  0.009844  1
  Pd  Pd2  1  0.375000  0.625000  0.250000  1
  Pd  Pd3  1  0.375000  0.625000  0.750000  1
  Pd  Pd4  1  0.375000  0.125000  0.750000  1
  Au  Au5  1  0.875000  0.625000  0.250000  1
  O  O6  1  0.594768  0.954355  0.947833  1
  O  O7  1  0.396519  0.843757  0.142572  1
  O  O8  1  0.702990  0.251439  0.855337  1
  O  O9  1  0.004470  0.643393  0.048998  1
  O  O10  1  0.155232  0.295645  0.552167  1
  O  O11  1  0.353481  0.406243  0.357428  1
  O  O12  1  0.745530  0.606607  0.451002  1
  O  O13  1  0.047010  0.998561  0.644663  1
