# generated using pymatgen
data_Tb10Al4Ru5Rh
_symmetry_space_group_name_H-M   'P 1'
_cell_length_a   8.36638199
_cell_length_b   8.36768338
_cell_length_c   8.36768299
_cell_angle_alpha   109.46765872
_cell_angle_beta   109.57478246
_cell_angle_gamma   109.37758287
_symmetry_Int_Tables_number   1
_chemical_formula_structural   Tb10Al4Ru5Rh
_chemical_formula_sum   'Tb10 Al4 Ru5 Rh1'
_cell_volume   450.91136835
_cell_formula_units_Z   1
loop_
 _symmetry_equiv_pos_site_id
 _symmetry_equiv_pos_as_xyz
  1  'x, y, z'
loop_
 _atom_site_type_symbol
 _atom_site_label
 _atom_site_symmetry_multiplicity
 _atom_site_fract_x
 _atom_site_fract_y
 _atom_site_fract_z
 _atom_site_occupancy
  Tb  Tb0  1  0.250000  0.680796  0.430796  1
  Tb  Tb1  1  0.750000  0.818363  0.068363  1
  Tb  Tb2  1  0.433433  0.251049  0.680496  1
  Tb  Tb3  1  0.683022  0.432551  0.251894  1
  Tb  Tb4  1  0.066567  0.747062  0.817616  1
  Tb  Tb5  1  0.816978  0.068872  0.749530  1
  Tb  Tb6  1  0.213227  0.215023  0.216220  1
  Tb  Tb7  1  0.500355  0.000179  0.286689  1
  Tb  Tb8  1  0.286773  0.502992  0.001795  1
  Tb  Tb9  1  0.999645  0.286335  0.499823  1
  Al  Al10  1  0.589027  0.589122  0.588840  1
  Al  Al11  1  0.500731  0.998659  0.910493  1
  Al  Al12  1  0.910973  0.499813  0.000095  1
  Al  Al13  1  0.999269  0.909763  0.497929  1
  Ru  Ru14  1  0.750000  0.377977  0.627977  1
  Ru  Ru15  1  0.870868  0.250039  0.121340  1
  Ru  Ru16  1  0.123094  0.873552  0.250018  1
  Ru  Ru17  1  0.629131  0.750470  0.379170  1
  Ru  Ru18  1  0.376906  0.626924  0.750459  1
  Rh  Rh19  1  0.250000  0.120459  0.870459  1
