# generated using pymatgen
data_Nd2Y14Cd4IrPt3
_symmetry_space_group_name_H-M   'P 1'
_cell_length_a   9.77287258
_cell_length_b   9.73714268
_cell_length_c   9.71839000
_cell_angle_alpha   60.06368754
_cell_angle_beta   60.18424479
_cell_angle_gamma   60.01721853
_symmetry_Int_Tables_number   1
_chemical_formula_structural   Nd2Y14Cd4IrPt3
_chemical_formula_sum   'Nd2 Y14 Cd4 Ir1 Pt3'
_cell_volume   655.23946968
_cell_formula_units_Z   1
loop_
 _symmetry_equiv_pos_site_id
 _symmetry_equiv_pos_as_xyz
  1  'x, y, z'
loop_
 _atom_site_type_symbol
 _atom_site_label
 _atom_site_symmetry_multiplicity
 _atom_site_fract_x
 _atom_site_fract_y
 _atom_site_fract_z
 _atom_site_occupancy
  Nd  Nd0  1  0.569400  0.566251  0.932175  1
  Nd  Nd1  1  0.934904  0.934739  0.565179  1
  Y  Y2  1  0.353832  0.349839  0.346177  1
  Y  Y3  1  0.353832  0.349839  0.950152  1
  Y  Y4  1  0.355010  0.943942  0.350524  1
  Y  Y5  1  0.936344  0.354939  0.354358  1
  Y  Y6  1  0.808572  0.189260  0.188834  1
  Y  Y7  1  0.191129  0.810441  0.809192  1
  Y  Y8  1  0.191129  0.810441  0.189238  1
  Y  Y9  1  0.808572  0.189260  0.813334  1
  Y  Y10  1  0.191949  0.189161  0.809445  1
  Y  Y11  1  0.808747  0.814445  0.188404  1
  Y  Y12  1  0.940519  0.560134  0.561141  1
  Y  Y13  1  0.562280  0.940008  0.938956  1
  Y  Y14  1  0.562280  0.940008  0.558757  1
  Y  Y15  1  0.940519  0.560134  0.938207  1
  Cd  Cd16  1  0.581281  0.582088  0.578940  1
  Cd  Cd17  1  0.581281  0.582088  0.257690  1
  Cd  Cd18  1  0.577176  0.255229  0.583797  1
  Cd  Cd19  1  0.256657  0.577263  0.583039  1
  Ir  Ir20  1  0.573721  0.138159  0.144060  1
  Pt  Pt21  1  0.141876  0.145099  0.143075  1
  Pt  Pt22  1  0.141876  0.145099  0.569949  1
  Pt  Pt23  1  0.137116  0.572132  0.145376  1
