# generated using pymatgen
data_Tb11Y4Ho(In3Co)2
_symmetry_space_group_name_H-M   'P 1'
_cell_length_a   10.42652700
_cell_length_b   10.42781273
_cell_length_c   7.05460141
_cell_angle_alpha   90.01607003
_cell_angle_beta   90.00000000
_cell_angle_gamma   119.99593093
_symmetry_Int_Tables_number   1
_chemical_formula_structural   Tb11Y4Ho(In3Co)2
_chemical_formula_sum   'Tb11 Y4 Ho1 In6 Co2'
_cell_volume   664.28399823
_cell_formula_units_Z   1
loop_
 _symmetry_equiv_pos_site_id
 _symmetry_equiv_pos_as_xyz
  1  'x, y, z'
loop_
 _atom_site_type_symbol
 _atom_site_label
 _atom_site_symmetry_multiplicity
 _atom_site_fract_x
 _atom_site_fract_y
 _atom_site_fract_z
 _atom_site_occupancy
  Tb  Tb0  1  0.464034  0.535558  0.483837  1
  Tb  Tb1  1  0.071525  0.535558  0.483837  1
  Tb  Tb2  1  0.464434  0.928867  0.483512  1
  Tb  Tb3  1  0.535206  0.464194  0.983280  1
  Tb  Tb4  1  0.928989  0.464194  0.983280  1
  Tb  Tb5  1  0.535750  0.071499  0.983465  1
  Tb  Tb6  1  0.822267  0.177883  0.275534  1
  Tb  Tb7  1  0.355615  0.177883  0.275534  1
  Tb  Tb8  1  0.822128  0.644255  0.275487  1
  Tb  Tb9  1  0.177924  0.822289  0.775517  1
  Tb  Tb10  1  0.644366  0.822289  0.775517  1
  Y  Y11  1  0.333091  0.666182  0.091715  1
  Y  Y12  1  0.666685  0.333367  0.592480  1
  Y  Y13  1  0.000119  0.000239  0.495414  1
  Y  Y14  1  0.999886  0.999774  0.994741  1
  Ho  Ho15  1  0.177924  0.355847  0.775450  1
  In  In16  1  0.163118  0.836919  0.234355  1
  In  In17  1  0.673801  0.836919  0.234355  1
  In  In18  1  0.163066  0.326130  0.233217  1
  In  In19  1  0.837744  0.163430  0.734475  1
  In  In20  1  0.325686  0.163430  0.734475  1
  In  In21  1  0.836933  0.673867  0.734528  1
  Co  Co22  1  0.333024  0.666049  0.705240  1
  Co  Co23  1  0.666688  0.333375  0.205305  1
