# generated using pymatgen
data_TbDy3(OF4)2
_symmetry_space_group_name_H-M   'P 1'
_cell_length_a   6.77509088
_cell_length_b   6.77784679
_cell_length_c   5.72869159
_cell_angle_alpha   79.85265828
_cell_angle_beta   79.85703983
_cell_angle_gamma   46.31303089
_symmetry_Int_Tables_number   1
_chemical_formula_structural   TbDy3(OF4)2
_chemical_formula_sum   'Tb1 Dy3 O2 F8'
_cell_volume   186.70485928
_cell_formula_units_Z   1
loop_
 _symmetry_equiv_pos_site_id
 _symmetry_equiv_pos_as_xyz
  1  'x, y, z'
loop_
 _atom_site_type_symbol
 _atom_site_label
 _atom_site_symmetry_multiplicity
 _atom_site_fract_x
 _atom_site_fract_y
 _atom_site_fract_z
 _atom_site_occupancy
  Tb  Tb0  1  0.103887  0.681054  0.577131  1
  Dy  Dy1  1  0.681413  0.103980  0.076993  1
  Dy  Dy2  1  0.318809  0.896083  0.923020  1
  Dy  Dy3  1  0.895984  0.318769  0.422546  1
  O  O4  1  0.950743  0.049828  0.750410  1
  O  O5  1  0.048483  0.952280  0.248979  1
  F  F6  1  0.317701  0.513344  0.922576  1
  F  F7  1  0.515691  0.315234  0.420877  1
  F  F8  1  0.704984  0.853811  0.829441  1
  F  F9  1  0.852255  0.706240  0.327689  1
  F  F10  1  0.147009  0.292955  0.671351  1
  F  F11  1  0.293777  0.146937  0.171357  1
  F  F12  1  0.486499  0.682869  0.578801  1
  F  F13  1  0.682765  0.486615  0.078831  1
