# generated using pymatgen
data_Nd5Dy3(LuSb)12
_symmetry_space_group_name_H-M   'P 1'
_cell_length_a   8.13152778
_cell_length_b   9.18627800
_cell_length_c   11.89365600
_cell_angle_alpha   90.00000000
_cell_angle_beta   90.17694263
_cell_angle_gamma   90.00000000
_symmetry_Int_Tables_number   1
_chemical_formula_structural   Nd5Dy3(LuSb)12
_chemical_formula_sum   'Nd5 Dy3 Lu12 Sb12'
_cell_volume   888.43372538
_cell_formula_units_Z   1
loop_
 _symmetry_equiv_pos_site_id
 _symmetry_equiv_pos_as_xyz
  1  'x, y, z'
loop_
 _atom_site_type_symbol
 _atom_site_label
 _atom_site_symmetry_multiplicity
 _atom_site_fract_x
 _atom_site_fract_y
 _atom_site_fract_z
 _atom_site_occupancy
  Nd  Nd0  1  0.174433  0.750000  0.225073  1
  Nd  Nd1  1  0.674421  0.250000  0.274646  1
  Nd  Nd2  1  0.826168  0.250000  0.775032  1
  Nd  Nd3  1  0.323717  0.750000  0.727725  1
  Nd  Nd4  1  0.662865  0.750000  0.290088  1
  Dy  Dy5  1  0.165236  0.250000  0.210541  1
  Dy  Dy6  1  0.335529  0.250000  0.710188  1
  Dy  Dy7  1  0.834630  0.750000  0.789539  1
  Lu  Lu8  1  0.811198  0.938248  0.063402  1
  Lu  Lu9  1  0.312866  0.062597  0.434398  1
  Lu  Lu10  1  0.188809  0.437788  0.934395  1
  Lu  Lu11  1  0.687047  0.562478  0.567089  1
  Lu  Lu12  1  0.188809  0.062212  0.934395  1
  Lu  Lu13  1  0.687047  0.937522  0.567089  1
  Lu  Lu14  1  0.811198  0.561752  0.063402  1
  Lu  Lu15  1  0.312866  0.437403  0.434398  1
  Lu  Lu16  1  0.526139  0.250000  0.995577  1
  Lu  Lu17  1  0.024205  0.750000  0.504392  1
  Lu  Lu18  1  0.473509  0.750000  0.001503  1
  Lu  Lu19  1  0.975427  0.250000  0.497717  1
  Sb  Sb20  1  0.942949  0.994990  0.330238  1
  Sb  Sb21  1  0.435845  0.009458  0.166748  1
  Sb  Sb22  1  0.062362  0.491882  0.670249  1
  Sb  Sb23  1  0.562702  0.507392  0.830126  1
  Sb  Sb24  1  0.062362  0.008118  0.670249  1
  Sb  Sb25  1  0.562702  0.992608  0.830126  1
  Sb  Sb26  1  0.942949  0.505010  0.330238  1
  Sb  Sb27  1  0.435845  0.490542  0.166748  1
  Sb  Sb28  1  0.904981  0.250000  0.031844  1
  Sb  Sb29  1  0.398829  0.750000  0.472560  1
  Sb  Sb30  1  0.095552  0.750000  0.967985  1
  Sb  Sb31  1  0.596800  0.250000  0.532303  1
