# generated using pymatgen
data_K2BaNdB24
_symmetry_space_group_name_H-M   'P 1'
_cell_length_a   7.29850230
_cell_length_b   7.29850222
_cell_length_c   5.96246500
_cell_angle_alpha   90.00000000
_cell_angle_beta   90.00000000
_cell_angle_gamma   109.41786757
_symmetry_Int_Tables_number   1
_chemical_formula_structural   K2BaNdB24
_chemical_formula_sum   'K2 Ba1 Nd1 B24'
_cell_volume   299.54346084
_cell_formula_units_Z   1
loop_
 _symmetry_equiv_pos_site_id
 _symmetry_equiv_pos_as_xyz
  1  'x, y, z'
loop_
 _atom_site_type_symbol
 _atom_site_label
 _atom_site_symmetry_multiplicity
 _atom_site_fract_x
 _atom_site_fract_y
 _atom_site_fract_z
 _atom_site_occupancy
  K  K0  1  0.750369  0.249631  0.500000  1
  K  K1  1  0.249631  0.750369  0.500000  1
  Ba  Ba2  1  0.000000  0.000000  0.000000  1
  Nd  Nd3  1  0.500000  0.500000  0.000000  1
  B  B4  1  0.177221  0.327508  0.647807  1
  B  B5  1  0.924938  0.573074  0.149919  1
  B  B6  1  0.672492  0.822779  0.647807  1
  B  B7  1  0.426926  0.075062  0.149919  1
  B  B8  1  0.177221  0.327508  0.352193  1
  B  B9  1  0.924938  0.573074  0.850081  1
  B  B10  1  0.672492  0.822779  0.352193  1
  B  B11  1  0.426926  0.075062  0.850081  1
  B  B12  1  0.400388  0.400388  0.500000  1
  B  B13  1  0.148925  0.649272  0.000000  1
  B  B14  1  0.897740  0.897740  0.500000  1
  B  B15  1  0.649272  0.148925  0.000000  1
  B  B16  1  0.327508  0.177221  0.647807  1
  B  B17  1  0.075062  0.426926  0.149919  1
  B  B18  1  0.822779  0.672492  0.647807  1
  B  B19  1  0.573074  0.924938  0.149919  1
  B  B20  1  0.102260  0.102260  0.500000  1
  B  B21  1  0.851075  0.350728  0.000000  1
  B  B22  1  0.599612  0.599612  0.500000  1
  B  B23  1  0.350728  0.851075  0.000000  1
  B  B24  1  0.327508  0.177221  0.352193  1
  B  B25  1  0.075062  0.426926  0.850081  1
  B  B26  1  0.822779  0.672492  0.352193  1
  B  B27  1  0.573074  0.924938  0.850081  1
