# generated using pymatgen
data_Nd12Ir2PtAu
_symmetry_space_group_name_H-M   'P 1'
_cell_length_a   6.63169558
_cell_length_b   7.36669959
_cell_length_c   10.00395700
_cell_angle_alpha   90.00000000
_cell_angle_beta   90.00000000
_cell_angle_gamma   89.93894400
_symmetry_Int_Tables_number   1
_chemical_formula_structural   Nd12Ir2PtAu
_chemical_formula_sum   'Nd12 Ir2 Pt1 Au1'
_cell_volume   488.73012755
_cell_formula_units_Z   1
loop_
 _symmetry_equiv_pos_site_id
 _symmetry_equiv_pos_as_xyz
  1  'x, y, z'
loop_
 _atom_site_type_symbol
 _atom_site_label
 _atom_site_symmetry_multiplicity
 _atom_site_fract_x
 _atom_site_fract_y
 _atom_site_fract_z
 _atom_site_occupancy
  Nd  Nd0  1  0.337234  0.670779  0.060457  1
  Nd  Nd1  1  0.173933  0.186945  0.440603  1
  Nd  Nd2  1  0.670439  0.325462  0.564413  1
  Nd  Nd3  1  0.828103  0.820526  0.935014  1
  Nd  Nd4  1  0.670439  0.325462  0.935587  1
  Nd  Nd5  1  0.828103  0.820526  0.564986  1
  Nd  Nd6  1  0.337234  0.670779  0.439543  1
  Nd  Nd7  1  0.173933  0.186945  0.059397  1
  Nd  Nd8  1  0.852577  0.518594  0.250000  1
  Nd  Nd9  1  0.623085  0.040066  0.250000  1
  Nd  Nd10  1  0.145999  0.469665  0.750000  1
  Nd  Nd11  1  0.364957  0.959912  0.750000  1
  Ir  Ir12  1  0.430415  0.382850  0.250000  1
  Ir  Ir13  1  0.563693  0.617975  0.750000  1
  Pt  Pt14  1  0.939081  0.116926  0.750000  1
  Au  Au15  1  0.060773  0.886588  0.250000  1
