# generated using pymatgen
data_Pr2TeS2
_symmetry_space_group_name_H-M   'P 1'
_cell_length_a   4.69480000
_cell_length_b   4.69479994
_cell_length_c   7.81972600
_cell_angle_alpha   90.00000000
_cell_angle_beta   90.00000000
_cell_angle_gamma   120.00000040
_symmetry_Int_Tables_number   1
_chemical_formula_structural   Pr2TeS2
_chemical_formula_sum   'Pr2 Te1 S2'
_cell_volume   149.26443876
_cell_formula_units_Z   1
loop_
 _symmetry_equiv_pos_site_id
 _symmetry_equiv_pos_as_xyz
  1  'x, y, z'
loop_
 _atom_site_type_symbol
 _atom_site_label
 _atom_site_symmetry_multiplicity
 _atom_site_fract_x
 _atom_site_fract_y
 _atom_site_fract_z
 _atom_site_occupancy
  Pr  Pr0  1  0.666667  0.333333  0.732564  1
  Pr  Pr1  1  0.333333  0.666667  0.267436  1
  Te  Te2  1  0.000000  0.000000  0.000000  1
  S  S3  1  0.333333  0.666667  0.635967  1
  S  S4  1  0.666667  0.333333  0.364033  1
