# generated using pymatgen
data_Yb9Er(PtPb2)4
_symmetry_space_group_name_H-M   'P 1'
_cell_length_a   3.66773600
_cell_length_b   8.36753966
_cell_length_c   18.75318869
_cell_angle_alpha   90.33164379
_cell_angle_beta   90.00000000
_cell_angle_gamma   90.00000000
_symmetry_Int_Tables_number   1
_chemical_formula_structural   Yb9Er(PtPb2)4
_chemical_formula_sum   'Yb9 Er1 Pt4 Pb8'
_cell_volume   575.52434044
_cell_formula_units_Z   1
loop_
 _symmetry_equiv_pos_site_id
 _symmetry_equiv_pos_as_xyz
  1  'x, y, z'
loop_
 _atom_site_type_symbol
 _atom_site_label
 _atom_site_symmetry_multiplicity
 _atom_site_fract_x
 _atom_site_fract_y
 _atom_site_fract_z
 _atom_site_occupancy
  Yb  Yb0  1  0.000000  0.115425  0.410205  1
  Yb  Yb1  1  0.000000  0.879872  0.590345  1
  Yb  Yb2  1  0.000000  0.381796  0.909892  1
  Yb  Yb3  1  0.000000  0.619019  0.088659  1
  Yb  Yb4  1  0.000000  0.245876  0.222218  1
  Yb  Yb5  1  0.000000  0.757166  0.777768  1
  Yb  Yb6  1  0.000000  0.257570  0.722130  1
  Yb  Yb7  1  0.000000  0.001086  0.999310  1
  Yb  Yb8  1  0.000000  0.498398  0.500114  1
  Er  Er9  1  0.000000  0.744829  0.277110  1
  Pt  Pt10  1  0.500000  0.009200  0.301264  1
  Pt  Pt11  1  0.500000  0.984991  0.698111  1
  Pt  Pt12  1  0.500000  0.485085  0.801955  1
  Pt  Pt13  1  0.500000  0.531892  0.200872  1
  Pb  Pb14  1  0.500000  0.424976  0.351544  1
  Pb  Pb15  1  0.500000  0.571234  0.650685  1
  Pb  Pb16  1  0.500000  0.073957  0.849072  1
  Pb  Pb17  1  0.500000  0.924695  0.148356  1
  Pb  Pb18  1  0.500000  0.296911  0.069995  1
  Pb  Pb19  1  0.500000  0.703180  0.930296  1
  Pb  Pb20  1  0.500000  0.201083  0.568797  1
  Pb  Pb21  1  0.500000  0.791760  0.431299  1
