# generated using pymatgen
data_Zr8Al14Co7Si
_symmetry_space_group_name_H-M   'P 1'
_cell_length_a   8.67937974
_cell_length_b   8.67937864
_cell_length_c   8.67938000
_cell_angle_alpha   120.25243706
_cell_angle_beta   119.78986202
_cell_angle_gamma   89.96383748
_symmetry_Int_Tables_number   1
_chemical_formula_structural   Zr8Al14Co7Si
_chemical_formula_sum   'Zr8 Al14 Co7 Si1'
_cell_volume   462.17157732
_cell_formula_units_Z   1
loop_
 _symmetry_equiv_pos_site_id
 _symmetry_equiv_pos_as_xyz
  1  'x, y, z'
loop_
 _atom_site_type_symbol
 _atom_site_label
 _atom_site_symmetry_multiplicity
 _atom_site_fract_x
 _atom_site_fract_y
 _atom_site_fract_z
 _atom_site_occupancy
  Zr  Zr0  1  0.801520  0.294737  0.084849  1
  Zr  Zr1  1  0.209861  0.294748  0.493217  1
  Zr  Zr2  1  0.200162  0.700169  0.500000  1
  Zr  Zr3  1  0.209888  0.716677  0.915151  1
  Zr  Zr4  1  0.801539  0.716648  0.506781  1
  Zr  Zr5  1  0.786087  0.286077  0.500001  1
  Zr  Zr6  1  0.379966  0.119420  0.739518  1
  Zr  Zr7  1  0.379858  0.640459  0.260425  1
  Al  Al8  1  0.162086  0.329243  0.166897  1
  Al  Al9  1  0.162273  0.995192  0.833003  1
  Al  Al10  1  0.153061  0.336708  0.816495  1
  Al  Al11  1  0.520223  0.336559  0.183413  1
  Al  Al12  1  0.835662  0.662881  0.827510  1
  Al  Al13  1  0.835471  0.008155  0.172625  1
  Al  Al14  1  0.834865  0.664572  0.170150  1
  Al  Al15  1  0.494427  0.664728  0.829946  1
  Al  Al16  1  0.381576  0.119729  0.261727  1
  Al  Al17  1  0.858041  0.119863  0.738252  1
  Al  Al18  1  0.621646  0.879915  0.258226  1
  Al  Al19  1  0.621732  0.363401  0.741827  1
  Al  Al20  1  0.623741  0.879829  0.744016  1
  Al  Al21  1  0.135780  0.879718  0.255996  1
  Co  Co22  1  0.999228  0.999591  0.501693  1
  Co  Co23  1  0.497931  0.999578  0.000384  1
  Co  Co24  1  0.498188  0.498191  0.000000  1
  Co  Co25  1  0.497876  0.497551  0.498282  1
  Co  Co26  1  0.999177  0.497538  0.999597  1
  Co  Co27  1  0.999843  0.999843  0.000000  1
  Co  Co28  1  0.505623  0.005618  0.500005  1
  Si  Si29  1  0.992668  0.492658  0.500009  1
