# generated using pymatgen
data_V7Si6Mo3C
_symmetry_space_group_name_H-M   'P 1'
_cell_length_a   7.22779400
_cell_length_b   7.22779331
_cell_length_c   4.84481600
_cell_angle_alpha   90.00000000
_cell_angle_beta   90.00000000
_cell_angle_gamma   119.99999400
_symmetry_Int_Tables_number   1
_chemical_formula_structural   V7Si6Mo3C
_chemical_formula_sum   'V7 Si6 Mo3 C1'
_cell_volume   219.18934394
_cell_formula_units_Z   1
loop_
 _symmetry_equiv_pos_site_id
 _symmetry_equiv_pos_as_xyz
  1  'x, y, z'
loop_
 _atom_site_type_symbol
 _atom_site_label
 _atom_site_symmetry_multiplicity
 _atom_site_fract_x
 _atom_site_fract_y
 _atom_site_fract_z
 _atom_site_occupancy
  V  V0  1  0.000000  0.240812  0.745852  1
  V  V1  1  0.759188  0.759188  0.745852  1
  V  V2  1  0.240812  0.000000  0.745852  1
  V  V3  1  0.333333  0.666667  0.996141  1
  V  V4  1  0.666667  0.333333  0.996141  1
  V  V5  1  0.666667  0.333333  0.504749  1
  V  V6  1  0.333333  0.666667  0.504749  1
  Si  Si7  1  0.000000  0.402066  0.244155  1
  Si  Si8  1  0.597934  0.597934  0.244155  1
  Si  Si9  1  0.402066  0.000000  0.244155  1
  Si  Si10  1  0.000000  0.597016  0.753059  1
  Si  Si11  1  0.402984  0.402984  0.753059  1
  Si  Si12  1  0.597016  0.000000  0.753059  1
  Mo  Mo13  1  0.000000  0.756993  0.252450  1
  Mo  Mo14  1  0.243007  0.243007  0.252450  1
  Mo  Mo15  1  0.756993  0.000000  0.252450  1
  C  C16  1  0.000000  0.000000  0.511670  1
