# generated using pymatgen
data_Er10Tl5In3Au4
_symmetry_space_group_name_H-M   'P 1'
_cell_length_a   3.65180100
_cell_length_b   8.12330992
_cell_length_c   18.30959300
_cell_angle_alpha   89.95140306
_cell_angle_beta   90.00000000
_cell_angle_gamma   90.00000000
_symmetry_Int_Tables_number   1
_chemical_formula_structural   Er10Tl5In3Au4
_chemical_formula_sum   'Er10 Tl5 In3 Au4'
_cell_volume   543.14859493
_cell_formula_units_Z   1
loop_
 _symmetry_equiv_pos_site_id
 _symmetry_equiv_pos_as_xyz
  1  'x, y, z'
loop_
 _atom_site_type_symbol
 _atom_site_label
 _atom_site_symmetry_multiplicity
 _atom_site_fract_x
 _atom_site_fract_y
 _atom_site_fract_z
 _atom_site_occupancy
  Er  Er0  1  0.000000  0.498670  0.499054  1
  Er  Er1  1  0.000000  0.000199  0.000218  1
  Er  Er2  1  0.000000  0.739477  0.284183  1
  Er  Er3  1  0.000000  0.261248  0.716335  1
  Er  Er4  1  0.000000  0.759955  0.783680  1
  Er  Er5  1  0.000000  0.239976  0.216384  1
  Er  Er6  1  0.000000  0.619226  0.081804  1
  Er  Er7  1  0.000000  0.380652  0.918193  1
  Er  Er8  1  0.000000  0.883154  0.582129  1
  Er  Er9  1  0.000000  0.118038  0.418111  1
  Tl  Tl10  1  0.500000  0.712346  0.935710  1
  Tl  Tl11  1  0.500000  0.288905  0.064127  1
  Tl  Tl12  1  0.500000  0.787712  0.436231  1
  Tl  Tl13  1  0.500000  0.209524  0.563475  1
  Tl  Tl14  1  0.500000  0.582936  0.644367  1
  In  In15  1  0.500000  0.416643  0.353535  1
  In  In16  1  0.500000  0.917224  0.146763  1
  In  In17  1  0.500000  0.081321  0.854024  1
  Au  Au18  1  0.500000  0.532070  0.198579  1
  Au  Au19  1  0.500000  0.467743  0.802444  1
  Au  Au20  1  0.500000  0.971597  0.699155  1
  Au  Au21  1  0.500000  0.031384  0.301502  1
