# generated using pymatgen
data_Yb2Sc3Pb4
_symmetry_space_group_name_H-M   'P 1'
_cell_length_a   7.77013700
_cell_length_b   8.22770200
_cell_length_c   15.37025600
_cell_angle_alpha   90.00000000
_cell_angle_beta   90.00000000
_cell_angle_gamma   90.00000000
_symmetry_Int_Tables_number   1
_chemical_formula_structural   Yb2Sc3Pb4
_chemical_formula_sum   'Yb8 Sc12 Pb16'
_cell_volume   982.62617974
_cell_formula_units_Z   4
loop_
 _symmetry_equiv_pos_site_id
 _symmetry_equiv_pos_as_xyz
  1  'x, y, z'
loop_
 _atom_site_type_symbol
 _atom_site_label
 _atom_site_symmetry_multiplicity
 _atom_site_fract_x
 _atom_site_fract_y
 _atom_site_fract_z
 _atom_site_occupancy
  Yb  Yb0  1  0.484478  0.680135  0.591839  1
  Yb  Yb1  1  0.984478  0.819865  0.908161  1
  Yb  Yb2  1  0.515522  0.319865  0.091839  1
  Yb  Yb3  1  0.015522  0.180135  0.408161  1
  Yb  Yb4  1  0.515522  0.319865  0.408161  1
  Yb  Yb5  1  0.015522  0.180135  0.091839  1
  Yb  Yb6  1  0.484478  0.680135  0.908161  1
  Yb  Yb7  1  0.984478  0.819865  0.591839  1
  Sc  Sc8  1  0.658072  0.155586  0.625039  1
  Sc  Sc9  1  0.158072  0.344414  0.874961  1
  Sc  Sc10  1  0.341928  0.844414  0.125039  1
  Sc  Sc11  1  0.841928  0.655586  0.374961  1
  Sc  Sc12  1  0.341928  0.844414  0.374961  1
  Sc  Sc13  1  0.841928  0.655586  0.125039  1
  Sc  Sc14  1  0.658072  0.155586  0.874961  1
  Sc  Sc15  1  0.158072  0.344414  0.625039  1
  Sc  Sc16  1  0.819706  0.500730  0.750000  1
  Sc  Sc17  1  0.319706  0.999270  0.750000  1
  Sc  Sc18  1  0.180294  0.499270  0.250000  1
  Sc  Sc19  1  0.680294  0.000730  0.250000  1
  Pb  Pb20  1  0.684353  0.958349  0.455737  1
  Pb  Pb21  1  0.184353  0.541651  0.044263  1
  Pb  Pb22  1  0.315647  0.041651  0.955737  1
  Pb  Pb23  1  0.815647  0.458349  0.544263  1
  Pb  Pb24  1  0.315647  0.041651  0.544263  1
  Pb  Pb25  1  0.815647  0.458349  0.955737  1
  Pb  Pb26  1  0.684353  0.958349  0.044263  1
  Pb  Pb27  1  0.184353  0.541651  0.455737  1
  Pb  Pb28  1  0.462167  0.366232  0.750000  1
  Pb  Pb29  1  0.962167  0.133768  0.750000  1
  Pb  Pb30  1  0.537833  0.633768  0.250000  1
  Pb  Pb31  1  0.037833  0.866232  0.250000  1
  Pb  Pb32  1  0.678184  0.850959  0.750000  1
  Pb  Pb33  1  0.178184  0.649041  0.750000  1
  Pb  Pb34  1  0.321816  0.149041  0.250000  1
  Pb  Pb35  1  0.821816  0.350959  0.250000  1
