# generated using pymatgen
data_TbGd(H2Cl)2
_symmetry_space_group_name_H-M   'P 1'
_cell_length_a   11.16748981
_cell_length_b   11.16749000
_cell_length_c   11.16748991
_cell_angle_alpha   19.32415715
_cell_angle_beta   19.32415535
_cell_angle_gamma   19.32415445
_symmetry_Int_Tables_number   1
_chemical_formula_structural   TbGd(H2Cl)2
_chemical_formula_sum   'Tb1 Gd1 H4 Cl2'
_cell_volume   133.32742366
_cell_formula_units_Z   1
loop_
 _symmetry_equiv_pos_site_id
 _symmetry_equiv_pos_as_xyz
  1  'x, y, z'
loop_
 _atom_site_type_symbol
 _atom_site_label
 _atom_site_symmetry_multiplicity
 _atom_site_fract_x
 _atom_site_fract_y
 _atom_site_fract_z
 _atom_site_occupancy
  Tb  Tb0  1  0.117102  0.117102  0.117102  1
  Gd  Gd1  1  0.882920  0.882920  0.882920  1
  H  H2  1  0.814623  0.814623  0.814623  1
  H  H3  1  0.184910  0.184910  0.184910  1
  H  H4  1  0.542005  0.542005  0.542005  1
  H  H5  1  0.457857  0.457857  0.457857  1
  Cl  Cl6  1  0.729836  0.729836  0.729836  1
  Cl  Cl7  1  0.270747  0.270747  0.270747  1
