# generated using pymatgen
data_Cs6ScTe4Cl
_symmetry_space_group_name_H-M   'P 1'
_cell_length_a   12.17961100
_cell_length_b   12.17961079
_cell_length_c   9.07903800
_cell_angle_alpha   90.00000000
_cell_angle_beta   90.00000000
_cell_angle_gamma   120.00000329
_symmetry_Int_Tables_number   1
_chemical_formula_structural   Cs6ScTe4Cl
_chemical_formula_sum   'Cs12 Sc2 Te8 Cl2'
_cell_volume   1166.37252003
_cell_formula_units_Z   2
loop_
 _symmetry_equiv_pos_site_id
 _symmetry_equiv_pos_as_xyz
  1  'x, y, z'
loop_
 _atom_site_type_symbol
 _atom_site_label
 _atom_site_symmetry_multiplicity
 _atom_site_fract_x
 _atom_site_fract_y
 _atom_site_fract_z
 _atom_site_occupancy
  Cs  Cs0  1  0.126819  0.873181  0.515071  1
  Cs  Cs1  1  0.746361  0.873181  0.515071  1
  Cs  Cs2  1  0.947983  0.473991  0.316906  1
  Cs  Cs3  1  0.526009  0.473991  0.316906  1
  Cs  Cs4  1  0.873181  0.746361  0.015071  1
  Cs  Cs5  1  0.253639  0.126819  0.015071  1
  Cs  Cs6  1  0.526009  0.052017  0.316906  1
  Cs  Cs7  1  0.126819  0.253639  0.515071  1
  Cs  Cs8  1  0.873181  0.126819  0.015071  1
  Cs  Cs9  1  0.052017  0.526009  0.816906  1
  Cs  Cs10  1  0.473991  0.947983  0.816906  1
  Cs  Cs11  1  0.473991  0.526009  0.816906  1
  Sc  Sc12  1  0.666667  0.333333  0.711386  1
  Sc  Sc13  1  0.333333  0.666667  0.211386  1
  Te  Te14  1  0.414631  0.207316  0.611759  1
  Te  Te15  1  0.585369  0.792684  0.111759  1
  Te  Te16  1  0.666667  0.333333  0.022067  1
  Te  Te17  1  0.792684  0.585369  0.611759  1
  Te  Te18  1  0.207316  0.414631  0.111759  1
  Te  Te19  1  0.333333  0.666667  0.522067  1
  Te  Te20  1  0.207316  0.792684  0.111759  1
  Te  Te21  1  0.792684  0.207316  0.611759  1
  Cl  Cl22  1  0.000000  0.000000  0.275942  1
  Cl  Cl23  1  0.000000  0.000000  0.775942  1
