# generated using pymatgen
data_Dy2ErTiAl11Ru4
_symmetry_space_group_name_H-M   'P 1'
_cell_length_a   8.84934334
_cell_length_b   8.84934270
_cell_length_c   9.53626301
_cell_angle_alpha   89.99591895
_cell_angle_beta   90.00408260
_cell_angle_gamma   120.03128897
_symmetry_Int_Tables_number   1
_chemical_formula_structural   Dy2ErTiAl11Ru4
_chemical_formula_sum   'Dy4 Er2 Ti2 Al22 Ru8'
_cell_volume   646.53776110
_cell_formula_units_Z   2
loop_
 _symmetry_equiv_pos_site_id
 _symmetry_equiv_pos_as_xyz
  1  'x, y, z'
loop_
 _atom_site_type_symbol
 _atom_site_label
 _atom_site_symmetry_multiplicity
 _atom_site_fract_x
 _atom_site_fract_y
 _atom_site_fract_z
 _atom_site_occupancy
  Dy  Dy0  1  0.193919  0.387883  0.250732  1
  Dy  Dy1  1  0.806081  0.612117  0.749268  1
  Dy  Dy2  1  0.612117  0.806081  0.250732  1
  Dy  Dy3  1  0.387883  0.193919  0.749268  1
  Er  Er4  1  0.194374  0.805626  0.250885  1
  Er  Er5  1  0.805626  0.194374  0.749115  1
  Ti  Ti6  1  0.333269  0.666731  0.996797  1
  Ti  Ti7  1  0.666731  0.333269  0.003203  1
  Al  Al8  1  0.666766  0.333234  0.517346  1
  Al  Al9  1  0.333234  0.666766  0.482654  1
  Al  Al10  1  0.161224  0.322840  0.577573  1
  Al  Al11  1  0.838776  0.677160  0.422427  1
  Al  Al12  1  0.677160  0.838776  0.577573  1
  Al  Al13  1  0.840994  0.681665  0.077750  1
  Al  Al14  1  0.322840  0.161224  0.422427  1
  Al  Al15  1  0.159006  0.318335  0.922250  1
  Al  Al16  1  0.161445  0.838555  0.577303  1
  Al  Al17  1  0.318335  0.159006  0.077750  1
  Al  Al18  1  0.838555  0.161445  0.422697  1
  Al  Al19  1  0.681665  0.840994  0.922250  1
  Al  Al20  1  0.840792  0.159208  0.077436  1
  Al  Al21  1  0.159208  0.840792  0.922564  1
  Al  Al22  1  0.560581  0.121557  0.252197  1
  Al  Al23  1  0.439419  0.878443  0.747803  1
  Al  Al24  1  0.878443  0.439419  0.252197  1
  Al  Al25  1  0.121557  0.560581  0.747803  1
  Al  Al26  1  0.560967  0.439033  0.252207  1
  Al  Al27  1  0.439033  0.560967  0.747793  1
  Al  Al28  1  0.000262  0.999738  0.250502  1
  Al  Al29  1  0.999738  0.000262  0.749498  1
  Ru  Ru30  1  0.500000  0.000000  0.000000  1
  Ru  Ru31  1  0.000000  0.500000  0.000000  1
  Ru  Ru32  1  0.500000  0.000000  0.500000  1
  Ru  Ru33  1  0.500000  0.500000  0.000000  1
  Ru  Ru34  1  0.000000  0.500000  0.500000  1
  Ru  Ru35  1  0.500000  0.500000  0.500000  1
  Ru  Ru36  1  0.000000  0.000000  0.000000  1
  Ru  Ru37  1  0.000000  0.000000  0.500000  1
