# generated using pymatgen
data_DyMgB6Ru
_symmetry_space_group_name_H-M   'P 1'
_cell_length_a   3.56758600
_cell_length_b   8.90480300
_cell_length_c   11.27512600
_cell_angle_alpha   90.00000000
_cell_angle_beta   90.00000000
_cell_angle_gamma   90.00000000
_symmetry_Int_Tables_number   1
_chemical_formula_structural   DyMgB6Ru
_chemical_formula_sum   'Dy4 Mg4 B24 Ru4'
_cell_volume   358.19553741
_cell_formula_units_Z   4
loop_
 _symmetry_equiv_pos_site_id
 _symmetry_equiv_pos_as_xyz
  1  'x, y, z'
loop_
 _atom_site_type_symbol
 _atom_site_label
 _atom_site_symmetry_multiplicity
 _atom_site_fract_x
 _atom_site_fract_y
 _atom_site_fract_z
 _atom_site_occupancy
  Dy  Dy0  1  0.000000  0.323310  0.413982  1
  Dy  Dy1  1  0.000000  0.676690  0.586018  1
  Dy  Dy2  1  0.000000  0.823310  0.086018  1
  Dy  Dy3  1  0.000000  0.176690  0.913982  1
  Mg  Mg4  1  0.000000  0.943616  0.370796  1
  Mg  Mg5  1  0.000000  0.056384  0.629204  1
  Mg  Mg6  1  0.000000  0.443616  0.129204  1
  Mg  Mg7  1  0.000000  0.556384  0.870796  1
  B  B8  1  0.500000  0.555831  0.432096  1
  B  B9  1  0.500000  0.444169  0.567904  1
  B  B10  1  0.500000  0.055831  0.067904  1
  B  B11  1  0.500000  0.944169  0.932096  1
  B  B12  1  0.500000  0.755207  0.418055  1
  B  B13  1  0.500000  0.244793  0.581945  1
  B  B14  1  0.500000  0.255207  0.081945  1
  B  B15  1  0.500000  0.744793  0.918055  1
  B  B16  1  0.500000  0.793844  0.263247  1
  B  B17  1  0.500000  0.206156  0.736753  1
  B  B18  1  0.500000  0.293844  0.236753  1
  B  B19  1  0.500000  0.706156  0.763247  1
  B  B20  1  0.500000  0.627858  0.182220  1
  B  B21  1  0.500000  0.372142  0.817780  1
  B  B22  1  0.500000  0.127858  0.317780  1
  B  B23  1  0.500000  0.872142  0.682220  1
  B  B24  1  0.500000  0.981155  0.213267  1
  B  B25  1  0.500000  0.018845  0.786733  1
  B  B26  1  0.500000  0.481155  0.286733  1
  B  B27  1  0.500000  0.518845  0.713267  1
  B  B28  1  0.500000  0.592704  0.025365  1
  B  B29  1  0.500000  0.407296  0.974635  1
  B  B30  1  0.500000  0.092704  0.474635  1
  B  B31  1  0.500000  0.907296  0.525365  1
  Ru  Ru32  1  0.000000  0.641190  0.317923  1
  Ru  Ru33  1  0.000000  0.358810  0.682077  1
  Ru  Ru34  1  0.000000  0.141190  0.182077  1
  Ru  Ru35  1  0.000000  0.858810  0.817923  1
