# generated using pymatgen
data_Zr3Pa(InRh5)2
_symmetry_space_group_name_H-M   'P 1'
_cell_length_a   5.69950514
_cell_length_b   5.69950405
_cell_length_c   8.31774501
_cell_angle_alpha   90.00294666
_cell_angle_beta   90.00294090
_cell_angle_gamma   96.22420628
_symmetry_Int_Tables_number   1
_chemical_formula_structural   Zr3Pa(InRh5)2
_chemical_formula_sum   'Zr3 Pa1 In2 Rh10'
_cell_volume   268.60381927
_cell_formula_units_Z   1
loop_
 _symmetry_equiv_pos_site_id
 _symmetry_equiv_pos_as_xyz
  1  'x, y, z'
loop_
 _atom_site_type_symbol
 _atom_site_label
 _atom_site_symmetry_multiplicity
 _atom_site_fract_x
 _atom_site_fract_y
 _atom_site_fract_z
 _atom_site_occupancy
  Zr  Zr0  1  0.218628  0.781372  0.000000  1
  Zr  Zr1  1  0.221905  0.778095  0.500000  1
  Zr  Zr2  1  0.778717  0.221283  0.000000  1
  Pa  Pa3  1  0.783230  0.216770  0.500000  1
  In  In4  1  0.495108  0.504647  0.755131  1
  In  In5  1  0.495353  0.504892  0.244869  1
  Rh  Rh6  1  0.738154  0.736392  0.999932  1
  Rh  Rh7  1  0.733032  0.731497  0.500066  1
  Rh  Rh8  1  0.263608  0.261846  0.000068  1
  Rh  Rh9  1  0.268503  0.266968  0.499934  1
  Rh  Rh10  1  0.502184  0.001820  0.748879  1
  Rh  Rh11  1  0.502186  0.002037  0.251114  1
  Rh  Rh12  1  0.001581  0.998332  0.249159  1
  Rh  Rh13  1  0.001668  0.998419  0.750841  1
  Rh  Rh14  1  0.997963  0.497814  0.748886  1
  Rh  Rh15  1  0.998180  0.497816  0.251121  1
