# generated using pymatgen
data_Tb16MgCd(HgPt2)2
_symmetry_space_group_name_H-M   'P 1'
_cell_length_a   9.74379106
_cell_length_b   9.72848288
_cell_length_c   9.73578800
_cell_angle_alpha   59.97515732
_cell_angle_beta   60.02716632
_cell_angle_gamma   60.11250597
_symmetry_Int_Tables_number   1
_chemical_formula_structural   Tb16MgCd(HgPt2)2
_chemical_formula_sum   'Tb16 Mg1 Cd1 Hg2 Pt4'
_cell_volume   653.13740776
_cell_formula_units_Z   1
loop_
 _symmetry_equiv_pos_site_id
 _symmetry_equiv_pos_as_xyz
  1  'x, y, z'
loop_
 _atom_site_type_symbol
 _atom_site_label
 _atom_site_symmetry_multiplicity
 _atom_site_fract_x
 _atom_site_fract_y
 _atom_site_fract_z
 _atom_site_occupancy
  Tb  Tb0  1  0.350812  0.352004  0.349732  1
  Tb  Tb1  1  0.350812  0.352004  0.947452  1
  Tb  Tb2  1  0.354590  0.938373  0.353519  1
  Tb  Tb3  1  0.944154  0.353417  0.351214  1
  Tb  Tb4  1  0.811377  0.187431  0.190377  1
  Tb  Tb5  1  0.190569  0.808922  0.808749  1
  Tb  Tb6  1  0.190569  0.808922  0.191760  1
  Tb  Tb7  1  0.811377  0.187431  0.810815  1
  Tb  Tb8  1  0.189836  0.188328  0.810918  1
  Tb  Tb9  1  0.807902  0.807548  0.192275  1
  Tb  Tb10  1  0.935080  0.563113  0.565314  1
  Tb  Tb11  1  0.564144  0.934063  0.936393  1
  Tb  Tb12  1  0.564144  0.934063  0.565401  1
  Tb  Tb13  1  0.935080  0.563113  0.936494  1
  Tb  Tb14  1  0.564245  0.563599  0.936078  1
  Tb  Tb15  1  0.935610  0.934507  0.564941  1
  Mg  Mg16  1  0.574675  0.280584  0.572369  1
  Cd  Cd17  1  0.252932  0.581611  0.582727  1
  Hg  Hg18  1  0.586146  0.582665  0.588628  1
  Hg  Hg19  1  0.586146  0.582665  0.242559  1
  Pt  Pt20  1  0.143719  0.141877  0.145089  1
  Pt  Pt21  1  0.143719  0.141877  0.569316  1
  Pt  Pt22  1  0.142299  0.570761  0.143471  1
  Pt  Pt23  1  0.570064  0.141120  0.144409  1
