# generated using pymatgen
data_Yb12SiGe7Pd8
_symmetry_space_group_name_H-M   'P 1'
_cell_length_a   5.57006200
_cell_length_b   8.17109358
_cell_length_c   13.33059280
_cell_angle_alpha   89.85436556
_cell_angle_beta   90.00000000
_cell_angle_gamma   90.00000000
_symmetry_Int_Tables_number   1
_chemical_formula_structural   Yb12SiGe7Pd8
_chemical_formula_sum   'Yb12 Si1 Ge7 Pd8'
_cell_volume   606.71994663
_cell_formula_units_Z   1
loop_
 _symmetry_equiv_pos_site_id
 _symmetry_equiv_pos_as_xyz
  1  'x, y, z'
loop_
 _atom_site_type_symbol
 _atom_site_label
 _atom_site_symmetry_multiplicity
 _atom_site_fract_x
 _atom_site_fract_y
 _atom_site_fract_z
 _atom_site_occupancy
  Yb  Yb0  1  0.646440  0.251751  0.249937  1
  Yb  Yb1  1  0.353975  0.748865  0.749129  1
  Yb  Yb2  1  0.353975  0.751135  0.250871  1
  Yb  Yb3  1  0.646440  0.248249  0.750063  1
  Yb  Yb4  1  0.143053  0.390905  0.102912  1
  Yb  Yb5  1  0.856250  0.609728  0.896788  1
  Yb  Yb6  1  0.858115  0.611107  0.602338  1
  Yb  Yb7  1  0.858115  0.888893  0.397662  1
  Yb  Yb8  1  0.140272  0.391126  0.396677  1
  Yb  Yb9  1  0.140272  0.108874  0.603323  1
  Yb  Yb10  1  0.143053  0.109095  0.897088  1
  Yb  Yb11  1  0.856250  0.890272  0.103212  1
  Si  Si12  1  0.622608  0.250000  0.500000  1
  Ge  Ge13  1  0.145924  0.103431  0.250283  1
  Ge  Ge14  1  0.853890  0.895953  0.749465  1
  Ge  Ge15  1  0.853890  0.604047  0.250535  1
  Ge  Ge16  1  0.145924  0.396569  0.749717  1
  Ge  Ge17  1  0.638776  0.250000  0.000000  1
  Ge  Ge18  1  0.360791  0.750000  0.000000  1
  Ge  Ge19  1  0.366065  0.750000  0.500000  1
  Pd  Pd20  1  0.372877  0.031773  0.090312  1
  Pd  Pd21  1  0.626653  0.968271  0.909741  1
  Pd  Pd22  1  0.631240  0.978646  0.588033  1
  Pd  Pd23  1  0.631240  0.521354  0.411967  1
  Pd  Pd24  1  0.377192  0.037684  0.410450  1
  Pd  Pd25  1  0.377192  0.462316  0.589550  1
  Pd  Pd26  1  0.372877  0.468227  0.909688  1
  Pd  Pd27  1  0.626653  0.531729  0.090259  1
