# generated using pymatgen
data_HoEr(Co2O5)2
_symmetry_space_group_name_H-M   'P 1'
_cell_length_a   5.68049600
_cell_length_b   7.19210475
_cell_length_c   8.34055127
_cell_angle_alpha   89.96399258
_cell_angle_beta   90.00002017
_cell_angle_gamma   90.00001598
_symmetry_Int_Tables_number   1
_chemical_formula_structural   HoEr(Co2O5)2
_chemical_formula_sum   'Ho2 Er2 Co8 O20'
_cell_volume   340.75083846
_cell_formula_units_Z   2
loop_
 _symmetry_equiv_pos_site_id
 _symmetry_equiv_pos_as_xyz
  1  'x, y, z'
loop_
 _atom_site_type_symbol
 _atom_site_label
 _atom_site_symmetry_multiplicity
 _atom_site_fract_x
 _atom_site_fract_y
 _atom_site_fract_z
 _atom_site_occupancy
  Ho  Ho0  1  0.999959  0.138243  0.171812  1
  Ho  Ho1  1  0.999959  0.861757  0.828188  1
  Er  Er2  1  0.999956  0.638211  0.328231  1
  Er  Er3  1  0.999956  0.361789  0.671769  1
  Co  Co4  1  0.499988  0.908894  0.151046  1
  Co  Co5  1  0.499990  0.091106  0.848955  1
  Co  Co6  1  0.499977  0.408702  0.349332  1
  Co  Co7  1  0.499977  0.591299  0.650668  1
  Co  Co8  1  0.255478  0.500001  0.000000  1
  Co  Co9  1  0.745112  0.999999  0.499999  1
  Co  Co10  1  0.744838  0.499999  0.000000  1
  Co  Co11  1  0.254620  0.000001  0.500000  1
  O  O12  1  0.272599  0.500000  0.500000  1
  O  O13  1  0.726121  0.000000  0.000000  1
  O  O14  1  0.727345  0.500000  0.500000  1
  O  O15  1  0.274052  0.000000  0.000000  1
  O  O16  1  0.000160  0.663262  0.055424  1
  O  O17  1  0.000160  0.336738  0.944575  1
  O  O18  1  0.999912  0.163559  0.445912  1
  O  O19  1  0.999912  0.836441  0.554089  1
  O  O20  1  0.500140  0.652262  0.069346  1
  O  O21  1  0.500140  0.347739  0.930653  1
  O  O22  1  0.499870  0.152284  0.431065  1
  O  O23  1  0.499870  0.847716  0.568935  1
  O  O24  1  0.242506  0.895587  0.292984  1
  O  O25  1  0.242505  0.104414  0.707016  1
  O  O26  1  0.757354  0.395885  0.207515  1
  O  O27  1  0.757355  0.604114  0.792486  1
  O  O28  1  0.757359  0.104347  0.707007  1
  O  O29  1  0.757359  0.895652  0.292993  1
  O  O30  1  0.242737  0.604101  0.792522  1
  O  O31  1  0.242737  0.395899  0.207478  1
