# generated using pymatgen
data_Er6Al10Ag13S
_symmetry_space_group_name_H-M   'P 1'
_cell_length_a   9.25423346
_cell_length_b   9.28764576
_cell_length_c   9.28764600
_cell_angle_alpha   60.00117449
_cell_angle_beta   59.88195328
_cell_angle_gamma   59.88194811
_symmetry_Int_Tables_number   1
_chemical_formula_structural   Er6Al10Ag13S
_chemical_formula_sum   'Er6 Al10 Ag13 S1'
_cell_volume   563.46035434
_cell_formula_units_Z   1
loop_
 _symmetry_equiv_pos_site_id
 _symmetry_equiv_pos_as_xyz
  1  'x, y, z'
loop_
 _atom_site_type_symbol
 _atom_site_label
 _atom_site_symmetry_multiplicity
 _atom_site_fract_x
 _atom_site_fract_y
 _atom_site_fract_z
 _atom_site_occupancy
  Er  Er0  1  0.707961  0.291467  0.291467  1
  Er  Er1  1  0.707950  0.291465  0.709109  1
  Er  Er2  1  0.707950  0.709109  0.291465  1
  Er  Er3  1  0.292635  0.709299  0.709299  1
  Er  Er4  1  0.292625  0.709300  0.288769  1
  Er  Er5  1  0.292625  0.288769  0.709300  1
  Al  Al6  1  0.497153  0.003282  0.003282  1
  Al  Al7  1  0.497152  0.003278  0.496290  1
  Al  Al8  1  0.497152  0.496290  0.003278  1
  Al  Al9  1  0.002869  0.497474  0.497474  1
  Al  Al10  1  0.002870  0.497473  0.002192  1
  Al  Al11  1  0.002870  0.002192  0.497473  1
  Al  Al12  1  0.001852  0.999382  0.999382  1
  Al  Al13  1  0.671461  0.988410  0.670066  1
  Al  Al14  1  0.671461  0.670066  0.988410  1
  Al  Al15  1  0.671461  0.670068  0.670068  1
  Ag  Ag16  1  0.646513  0.117837  0.117837  1
  Ag  Ag17  1  0.117446  0.647067  0.117757  1
  Ag  Ag18  1  0.117446  0.117757  0.647067  1
  Ag  Ag19  1  0.117454  0.117742  0.117742  1
  Ag  Ag20  1  0.366434  0.877855  0.877855  1
  Ag  Ag21  1  0.876899  0.360650  0.881225  1
  Ag  Ag22  1  0.876899  0.881225  0.360650  1
  Ag  Ag23  1  0.876887  0.881227  0.881227  1
  Ag  Ag24  1  0.999525  0.333490  0.333490  1
  Ag  Ag25  1  0.332689  0.000260  0.333535  1
  Ag  Ag26  1  0.332689  0.333535  0.000260  1
  Ag  Ag27  1  0.332690  0.333521  0.333521  1
  Ag  Ag28  1  0.989371  0.670207  0.670207  1
  S  S29  1  0.499012  0.500303  0.500303  1
