# generated using pymatgen
data_LaLu2(P2Rh3)3
_symmetry_space_group_name_H-M   'P 1'
_cell_length_a   3.91632300
_cell_length_b   11.22955800
_cell_length_c   12.82181600
_cell_angle_alpha   90.00000000
_cell_angle_beta   90.00000000
_cell_angle_gamma   90.00000000
_symmetry_Int_Tables_number   1
_chemical_formula_structural   LaLu2(P2Rh3)3
_chemical_formula_sum   'La2 Lu4 P12 Rh18'
_cell_volume   563.88521294
_cell_formula_units_Z   2
loop_
 _symmetry_equiv_pos_site_id
 _symmetry_equiv_pos_as_xyz
  1  'x, y, z'
loop_
 _atom_site_type_symbol
 _atom_site_label
 _atom_site_symmetry_multiplicity
 _atom_site_fract_x
 _atom_site_fract_y
 _atom_site_fract_z
 _atom_site_occupancy
  La  La0  1  0.000000  0.500000  0.521622  1
  La  La1  1  0.500000  0.000000  0.478378  1
  Lu  Lu2  1  0.500000  0.815174  0.204089  1
  Lu  Lu3  1  0.500000  0.184826  0.204089  1
  Lu  Lu4  1  0.000000  0.684826  0.795911  1
  Lu  Lu5  1  0.000000  0.315174  0.795911  1
  P  P6  1  0.500000  0.500000  0.879848  1
  P  P7  1  0.000000  0.000000  0.120152  1
  P  P8  1  0.500000  0.500000  0.345359  1
  P  P9  1  0.000000  0.000000  0.654641  1
  P  P10  1  0.500000  0.313279  0.621362  1
  P  P11  1  0.500000  0.686721  0.621362  1
  P  P12  1  0.000000  0.186721  0.378638  1
  P  P13  1  0.000000  0.813279  0.378638  1
  P  P14  1  0.500000  0.845200  0.893371  1
  P  P15  1  0.500000  0.154800  0.893371  1
  P  P16  1  0.000000  0.654800  0.106629  1
  P  P17  1  0.000000  0.345200  0.106629  1
  Rh  Rh18  1  0.500000  0.500000  0.165986  1
  Rh  Rh19  1  0.000000  0.000000  0.834014  1
  Rh  Rh20  1  0.500000  0.500000  0.706185  1
  Rh  Rh21  1  0.000000  0.000000  0.293815  1
  Rh  Rh22  1  0.000000  0.500000  0.979228  1
  Rh  Rh23  1  0.500000  0.000000  0.020772  1
  Rh  Rh24  1  0.500000  0.333674  0.992766  1
  Rh  Rh25  1  0.500000  0.666326  0.992766  1
  Rh  Rh26  1  0.000000  0.166326  0.007234  1
  Rh  Rh27  1  0.000000  0.833674  0.007234  1
  Rh  Rh28  1  0.500000  0.291604  0.427774  1
  Rh  Rh29  1  0.500000  0.708396  0.427774  1
  Rh  Rh30  1  0.000000  0.208396  0.572226  1
  Rh  Rh31  1  0.000000  0.791604  0.572226  1
  Rh  Rh32  1  0.500000  0.871823  0.714508  1
  Rh  Rh33  1  0.500000  0.128177  0.714508  1
  Rh  Rh34  1  0.000000  0.628177  0.285492  1
  Rh  Rh35  1  0.000000  0.371823  0.285492  1
