# generated using pymatgen
data_Hf3Al2SbRu6
_symmetry_space_group_name_H-M   'P 1'
_cell_length_a   4.49452900
_cell_length_b   6.31779000
_cell_length_c   13.41955200
_cell_angle_alpha   90.00000000
_cell_angle_beta   90.00025551
_cell_angle_gamma   90.00000000
_symmetry_Int_Tables_number   1
_chemical_formula_structural   Hf3Al2SbRu6
_chemical_formula_sum   'Hf6 Al4 Sb2 Ru12'
_cell_volume   381.05475960
_cell_formula_units_Z   2
loop_
 _symmetry_equiv_pos_site_id
 _symmetry_equiv_pos_as_xyz
  1  'x, y, z'
loop_
 _atom_site_type_symbol
 _atom_site_label
 _atom_site_symmetry_multiplicity
 _atom_site_fract_x
 _atom_site_fract_y
 _atom_site_fract_z
 _atom_site_occupancy
  Hf  Hf0  1  0.000004  0.000000  0.994252  1
  Hf  Hf1  1  0.499927  0.500000  0.172445  1
  Hf  Hf2  1  0.999921  0.000000  0.341258  1
  Hf  Hf3  1  0.499995  0.500000  0.503086  1
  Hf  Hf4  1  0.000068  0.000000  0.663570  1
  Hf  Hf5  1  0.500084  0.500000  0.825376  1
  Al  Al6  1  0.999919  0.500000  0.336848  1
  Al  Al7  1  0.499988  0.000000  0.500994  1
  Al  Al8  1  0.000059  0.500000  0.665652  1
  Al  Al9  1  0.500074  0.000000  0.829846  1
  Sb  Sb10  1  0.000002  0.500000  0.996980  1
  Sb  Sb11  1  0.499944  0.000000  0.169693  1
  Ru  Ru12  1  0.500006  0.247841  0.998455  1
  Ru  Ru13  1  0.500006  0.752160  0.998455  1
  Ru  Ru14  1  0.999924  0.252175  0.168260  1
  Ru  Ru15  1  0.999924  0.747826  0.168260  1
  Ru  Ru16  1  0.499923  0.252867  0.336106  1
  Ru  Ru17  1  0.499923  0.747134  0.336106  1
  Ru  Ru18  1  0.999991  0.252164  0.500582  1
  Ru  Ru19  1  0.999991  0.747836  0.500582  1
  Ru  Ru20  1  0.500064  0.247750  0.666066  1
  Ru  Ru21  1  0.500064  0.752251  0.666066  1
  Ru  Ru22  1  0.000098  0.247221  0.830530  1
  Ru  Ru23  1  0.000098  0.752780  0.830530  1
