# generated using pymatgen
data_TbY5(AuO7)2
_symmetry_space_group_name_H-M   'P 1'
_cell_length_a   6.51252175
_cell_length_b   6.51252312
_cell_length_c   7.47102312
_cell_angle_alpha   90.01702507
_cell_angle_beta   89.98297324
_cell_angle_gamma   108.95389132
_symmetry_Int_Tables_number   1
_chemical_formula_structural   TbY5(AuO7)2
_chemical_formula_sum   'Tb1 Y5 Au2 O14'
_cell_volume   299.68759479
_cell_formula_units_Z   1
loop_
 _symmetry_equiv_pos_site_id
 _symmetry_equiv_pos_as_xyz
  1  'x, y, z'
loop_
 _atom_site_type_symbol
 _atom_site_label
 _atom_site_symmetry_multiplicity
 _atom_site_fract_x
 _atom_site_fract_y
 _atom_site_fract_z
 _atom_site_occupancy
  Tb  Tb0  1  0.500000  0.500000  0.000000  1
  Y  Y1  1  0.500000  0.500000  0.500000  1
  Y  Y2  1  0.528785  0.997555  0.749873  1
  Y  Y3  1  0.997555  0.528785  0.250127  1
  Y  Y4  1  0.471215  0.002445  0.250127  1
  Y  Y5  1  0.002445  0.471215  0.749873  1
  Au  Au6  1  0.000000  0.000000  0.500000  1
  Au  Au7  1  0.000000  0.000000  0.000000  1
  O  O8  1  0.670805  0.918939  0.475378  1
  O  O9  1  0.918939  0.670805  0.524622  1
  O  O10  1  0.670708  0.918897  0.024595  1
  O  O11  1  0.918897  0.670708  0.975405  1
  O  O12  1  0.329195  0.081061  0.524622  1
  O  O13  1  0.081061  0.329195  0.475378  1
  O  O14  1  0.329292  0.081103  0.975405  1
  O  O15  1  0.081103  0.329292  0.024595  1
  O  O16  1  0.921138  0.078862  0.750007  1
  O  O17  1  0.078862  0.921138  0.249993  1
  O  O18  1  0.368185  0.631815  0.749594  1
  O  O19  1  0.631815  0.368185  0.250406  1
  O  O20  1  0.638721  0.361279  0.749751  1
  O  O21  1  0.361279  0.638721  0.250249  1
