# generated using pymatgen
data_Gd6Al14Fe2Os7
_symmetry_space_group_name_H-M   'P 1'
_cell_length_a   8.86155580
_cell_length_b   8.86155522
_cell_length_c   8.87798700
_cell_angle_alpha   59.93863830
_cell_angle_beta   59.93864044
_cell_angle_gamma   59.95818940
_symmetry_Int_Tables_number   1
_chemical_formula_structural   Gd6Al14Fe2Os7
_chemical_formula_sum   'Gd6 Al14 Fe2 Os7'
_cell_volume   492.35556634
_cell_formula_units_Z   1
loop_
 _symmetry_equiv_pos_site_id
 _symmetry_equiv_pos_as_xyz
  1  'x, y, z'
loop_
 _atom_site_type_symbol
 _atom_site_label
 _atom_site_symmetry_multiplicity
 _atom_site_fract_x
 _atom_site_fract_y
 _atom_site_fract_z
 _atom_site_occupancy
  Gd  Gd0  1  0.203104  0.794543  0.791055  1
  Gd  Gd1  1  0.794543  0.203104  0.211299  1
  Gd  Gd2  1  0.794543  0.203104  0.791055  1
  Gd  Gd3  1  0.794705  0.794705  0.205295  1
  Gd  Gd4  1  0.203104  0.794543  0.211299  1
  Gd  Gd5  1  0.210190  0.210190  0.789810  1
  Al  Al6  1  0.519130  0.827004  0.826933  1
  Al  Al7  1  0.827004  0.519130  0.826933  1
  Al  Al8  1  0.171827  0.171827  0.170727  1
  Al  Al9  1  0.171827  0.171827  0.485618  1
  Al  Al10  1  0.171804  0.485520  0.171338  1
  Al  Al11  1  0.485520  0.171804  0.171338  1
  Al  Al12  1  0.620045  0.620045  0.618050  1
  Al  Al13  1  0.620045  0.620045  0.141859  1
  Al  Al14  1  0.137476  0.622232  0.620147  1
  Al  Al15  1  0.622232  0.137476  0.620147  1
  Al  Al16  1  0.381121  0.381121  0.379637  1
  Al  Al17  1  0.381121  0.381121  0.858121  1
  Al  Al18  1  0.381550  0.858329  0.380061  1
  Al  Al19  1  0.858329  0.381550  0.380061  1
  Fe  Fe20  1  0.823080  0.823080  0.823125  1
  Fe  Fe21  1  0.823080  0.823080  0.530715  1
  Os  Os22  1  0.498892  0.498892  0.501108  1
  Os  Os23  1  0.996730  0.508630  0.496938  1
  Os  Os24  1  0.508630  0.996730  0.997702  1
  Os  Os25  1  0.508630  0.996730  0.496938  1
  Os  Os26  1  0.500390  0.500390  0.999610  1
  Os  Os27  1  0.996730  0.508630  0.997702  1
  Os  Os28  1  0.994618  0.994618  0.505382  1
