# generated using pymatgen
data_Ta3Fe(PO4)6
_symmetry_space_group_name_H-M   'P 1'
_cell_length_a   8.73326855
_cell_length_b   8.73139650
_cell_length_c   9.02052082
_cell_angle_alpha   89.92738908
_cell_angle_beta   61.12251676
_cell_angle_gamma   120.00506398
_symmetry_Int_Tables_number   1
_chemical_formula_structural   Ta3Fe(PO4)6
_chemical_formula_sum   'Ta3 Fe1 P6 O24'
_cell_volume   494.14088824
_cell_formula_units_Z   1
loop_
 _symmetry_equiv_pos_site_id
 _symmetry_equiv_pos_as_xyz
  1  'x, y, z'
loop_
 _atom_site_type_symbol
 _atom_site_label
 _atom_site_symmetry_multiplicity
 _atom_site_fract_x
 _atom_site_fract_y
 _atom_site_fract_z
 _atom_site_occupancy
  Ta  Ta0  1  0.786727  0.642727  0.570612  1
  Ta  Ta1  1  0.216455  0.358863  0.424854  1
  Ta  Ta2  1  0.216080  0.858772  0.925369  1
  Fe  Fe3  1  0.785001  0.141751  0.073254  1
  P  P4  1  0.289247  0.033921  0.247802  1
  P  P5  1  0.718205  0.755095  0.246384  1
  P  P6  1  0.276696  0.249589  0.755038  1
  P  P7  1  0.719013  0.969731  0.753880  1
  P  P8  1  0.997140  0.528023  0.753986  1
  P  P9  1  0.995024  0.461188  0.249735  1
  O  O10  1  0.484753  0.064426  0.225731  1
  O  O11  1  0.852153  0.361004  0.917528  1
  O  O12  1  0.910436  0.143060  0.585099  1
  O  O13  1  0.861780  0.568562  0.717296  1
  O  O14  1  0.136327  0.638418  0.086392  1
  O  O15  1  0.086460  0.860940  0.412768  1
  O  O16  1  0.150640  0.444274  0.276598  1
  O  O17  1  0.146214  0.708098  0.777715  1
  O  O18  1  0.144652  0.505464  0.583150  1
  O  O19  1  0.275044  0.203367  0.281352  1
  O  O20  1  0.277539  0.004418  0.082685  1
  O  O21  1  0.705637  0.918717  0.230250  1
  O  O22  1  0.516465  0.571374  0.277945  1
  O  O23  1  0.272081  0.271397  0.586699  1
  O  O24  1  0.862393  0.496691  0.418223  1
  O  O25  1  0.092592  0.229813  0.921031  1
  O  O26  1  0.914253  0.778352  0.078438  1
  O  O27  1  0.512996  0.936124  0.780642  1
  O  O28  1  0.727253  0.720755  0.409795  1
  O  O29  1  0.489667  0.423832  0.715323  1
  O  O30  1  0.287872  0.078785  0.776142  1
  O  O31  1  0.722898  0.988098  0.917662  1
  O  O32  1  0.719602  0.797039  0.711604  1
  O  O33  1  0.850707  0.287332  0.229020  1
