# generated using pymatgen
data_Tm3Sc(Co4As3)2
_symmetry_space_group_name_H-M   'P 1'
_cell_length_a   3.80162200
_cell_length_b   10.98126400
_cell_length_c   12.71887700
_cell_angle_alpha   90.00000000
_cell_angle_beta   90.00000000
_cell_angle_gamma   90.00000000
_symmetry_Int_Tables_number   1
_chemical_formula_structural   Tm3Sc(Co4As3)2
_chemical_formula_sum   'Tm6 Sc2 Co16 As12'
_cell_volume   530.97005894
_cell_formula_units_Z   2
loop_
 _symmetry_equiv_pos_site_id
 _symmetry_equiv_pos_as_xyz
  1  'x, y, z'
loop_
 _atom_site_type_symbol
 _atom_site_label
 _atom_site_symmetry_multiplicity
 _atom_site_fract_x
 _atom_site_fract_y
 _atom_site_fract_z
 _atom_site_occupancy
  Tm  Tm0  1  0.000000  0.500000  0.529505  1
  Tm  Tm1  1  0.500000  0.000000  0.470495  1
  Tm  Tm2  1  0.500000  0.824115  0.205607  1
  Tm  Tm3  1  0.500000  0.175885  0.205607  1
  Tm  Tm4  1  0.000000  0.675885  0.794393  1
  Tm  Tm5  1  0.000000  0.324115  0.794393  1
  Sc  Sc6  1  0.500000  0.500000  0.157909  1
  Sc  Sc7  1  0.000000  0.000000  0.842091  1
  Co  Co8  1  0.500000  0.500000  0.703994  1
  Co  Co9  1  0.000000  0.000000  0.296006  1
  Co  Co10  1  0.000000  0.500000  0.988788  1
  Co  Co11  1  0.500000  0.000000  0.011212  1
  Co  Co12  1  0.500000  0.331449  0.996847  1
  Co  Co13  1  0.500000  0.668551  0.996847  1
  Co  Co14  1  0.000000  0.168551  0.003153  1
  Co  Co15  1  0.000000  0.831449  0.003153  1
  Co  Co16  1  0.500000  0.295675  0.432855  1
  Co  Co17  1  0.500000  0.704325  0.432855  1
  Co  Co18  1  0.000000  0.204325  0.567145  1
  Co  Co19  1  0.000000  0.795675  0.567145  1
  Co  Co20  1  0.500000  0.878278  0.702070  1
  Co  Co21  1  0.500000  0.121722  0.702070  1
  Co  Co22  1  0.000000  0.621722  0.297930  1
  Co  Co23  1  0.000000  0.378278  0.297930  1
  As  As24  1  0.500000  0.500000  0.883657  1
  As  As25  1  0.000000  0.000000  0.116343  1
  As  As26  1  0.500000  0.500000  0.362451  1
  As  As27  1  0.000000  0.000000  0.637549  1
  As  As28  1  0.500000  0.313088  0.616484  1
  As  As29  1  0.500000  0.686912  0.616484  1
  As  As30  1  0.000000  0.186912  0.383516  1
  As  As31  1  0.000000  0.813088  0.383516  1
  As  As32  1  0.500000  0.837390  0.888567  1
  As  As33  1  0.500000  0.162610  0.888567  1
  As  As34  1  0.000000  0.662610  0.111433  1
  As  As35  1  0.000000  0.337390  0.111433  1
