# generated using pymatgen
data_Yb6Th2AsPd24
_symmetry_space_group_name_H-M   'P 1'
_cell_length_a   8.33971300
_cell_length_b   8.37438872
_cell_length_c   8.37438900
_cell_angle_alpha   90.02372732
_cell_angle_beta   90.00000000
_cell_angle_gamma   90.00000000
_symmetry_Int_Tables_number   1
_chemical_formula_structural   Yb6Th2AsPd24
_chemical_formula_sum   'Yb6 Th2 As1 Pd24'
_cell_volume   584.86726471
_cell_formula_units_Z   1
loop_
 _symmetry_equiv_pos_site_id
 _symmetry_equiv_pos_as_xyz
  1  'x, y, z'
loop_
 _atom_site_type_symbol
 _atom_site_label
 _atom_site_symmetry_multiplicity
 _atom_site_fract_x
 _atom_site_fract_y
 _atom_site_fract_z
 _atom_site_occupancy
  Yb  Yb0  1  0.748326  0.252521  0.252521  1
  Yb  Yb1  1  0.748326  0.747479  0.747479  1
  Yb  Yb2  1  0.747505  0.747477  0.252523  1
  Yb  Yb3  1  0.747505  0.252523  0.747477  1
  Yb  Yb4  1  0.252058  0.747774  0.747774  1
  Yb  Yb5  1  0.252058  0.252226  0.252226  1
  Th  Th6  1  0.256869  0.255123  0.744877  1
  Th  Th7  1  0.256869  0.744877  0.255123  1
  As  As8  1  0.995465  0.000000  0.000000  1
  Pd  Pd9  1  0.501300  0.501585  0.747051  1
  Pd  Pd10  1  0.501300  0.252949  0.498415  1
  Pd  Pd11  1  0.253177  0.500000  0.500000  1
  Pd  Pd12  1  0.501300  0.498415  0.252949  1
  Pd  Pd13  1  0.501300  0.747051  0.501585  1
  Pd  Pd14  1  0.748093  0.500000  0.500000  1
  Pd  Pd15  1  0.998416  0.998215  0.711093  1
  Pd  Pd16  1  0.998416  0.288907  0.001785  1
  Pd  Pd17  1  0.288446  0.000000  0.000000  1
  Pd  Pd18  1  0.998416  0.001785  0.288907  1
  Pd  Pd19  1  0.998416  0.711093  0.998215  1
  Pd  Pd20  1  0.708434  0.000000  0.000000  1
  Pd  Pd21  1  0.000383  0.499816  0.740660  1
  Pd  Pd22  1  0.499906  0.259716  0.001273  1
  Pd  Pd23  1  0.259124  0.000000  0.500000  1
  Pd  Pd24  1  0.000383  0.259340  0.500184  1
  Pd  Pd25  1  0.499906  0.998727  0.740284  1
  Pd  Pd26  1  0.259124  0.500000  0.000000  1
  Pd  Pd27  1  0.000383  0.500184  0.259340  1
  Pd  Pd28  1  0.499906  0.740284  0.998727  1
  Pd  Pd29  1  0.000383  0.740660  0.499816  1
  Pd  Pd30  1  0.499906  0.001273  0.259716  1
  Pd  Pd31  1  0.739300  0.000000  0.500000  1
  Pd  Pd32  1  0.739300  0.500000  0.000000  1
