# generated using pymatgen
data_Zr4Al2CuRh9
_symmetry_space_group_name_H-M   'P 1'
_cell_length_a   5.52868944
_cell_length_b   5.52868861
_cell_length_c   8.26774500
_cell_angle_alpha   90.00000000
_cell_angle_beta   90.00000000
_cell_angle_gamma   99.00937297
_symmetry_Int_Tables_number   1
_chemical_formula_structural   Zr4Al2CuRh9
_chemical_formula_sum   'Zr4 Al2 Cu1 Rh9'
_cell_volume   249.59740580
_cell_formula_units_Z   1
loop_
 _symmetry_equiv_pos_site_id
 _symmetry_equiv_pos_as_xyz
  1  'x, y, z'
loop_
 _atom_site_type_symbol
 _atom_site_label
 _atom_site_symmetry_multiplicity
 _atom_site_fract_x
 _atom_site_fract_y
 _atom_site_fract_z
 _atom_site_occupancy
  Zr  Zr0  1  0.777493  0.222510  0.502574  1
  Zr  Zr1  1  0.222509  0.777492  0.997426  1
  Zr  Zr2  1  0.222510  0.777493  0.502574  1
  Zr  Zr3  1  0.777492  0.222509  0.997426  1
  Al  Al4  1  0.500297  0.500297  0.750000  1
  Al  Al5  1  0.499723  0.499723  0.250000  1
  Cu  Cu6  1  0.000012  0.000012  0.250001  1
  Rh  Rh7  1  0.718637  0.718637  0.000166  1
  Rh  Rh8  1  0.718638  0.718638  0.499833  1
  Rh  Rh9  1  0.281376  0.281376  0.999945  1
  Rh  Rh10  1  0.281377  0.281377  0.500053  1
  Rh  Rh11  1  0.499968  0.000081  0.750001  1
  Rh  Rh12  1  0.500086  0.999918  0.250000  1
  Rh  Rh13  1  0.999884  0.999884  0.750001  1
  Rh  Rh14  1  0.000081  0.499968  0.750001  1
  Rh  Rh15  1  0.999918  0.500086  0.250000  1
