# generated using pymatgen
data_Li3(NiSn)2
_symmetry_space_group_name_H-M   'P 1'
_cell_length_a   6.97919375
_cell_length_b   6.97919374
_cell_length_c   6.97919278
_cell_angle_alpha   36.33661450
_cell_angle_beta   36.33661260
_cell_angle_gamma   36.33661678
_symmetry_Int_Tables_number   1
_chemical_formula_structural   Li3(NiSn)2
_chemical_formula_sum   'Li3 Ni2 Sn2'
_cell_volume   106.81588164
_cell_formula_units_Z   1
loop_
 _symmetry_equiv_pos_site_id
 _symmetry_equiv_pos_as_xyz
  1  'x, y, z'
loop_
 _atom_site_type_symbol
 _atom_site_label
 _atom_site_symmetry_multiplicity
 _atom_site_fract_x
 _atom_site_fract_y
 _atom_site_fract_z
 _atom_site_occupancy
  Li  Li0  1  0.647706  0.647706  0.647706  1
  Li  Li1  1  0.352294  0.352294  0.352294  1
  Li  Li2  1  0.500000  0.500000  0.500000  1
  Ni  Ni3  1  0.783026  0.783026  0.783026  1
  Ni  Ni4  1  0.216975  0.216975  0.216975  1
  Sn  Sn5  1  0.915069  0.915069  0.915069  1
  Sn  Sn6  1  0.084931  0.084931  0.084931  1
