# generated using pymatgen
data_Pa2SnPd2
_symmetry_space_group_name_H-M   'P 1'
_cell_length_a   7.57018600
_cell_length_b   7.57018600
_cell_length_c   3.91150400
_cell_angle_alpha   90.00000000
_cell_angle_beta   90.00000000
_cell_angle_gamma   90.00000000
_symmetry_Int_Tables_number   1
_chemical_formula_structural   Pa2SnPd2
_chemical_formula_sum   'Pa4 Sn2 Pd4'
_cell_volume   224.15936066
_cell_formula_units_Z   2
loop_
 _symmetry_equiv_pos_site_id
 _symmetry_equiv_pos_as_xyz
  1  'x, y, z'
loop_
 _atom_site_type_symbol
 _atom_site_label
 _atom_site_symmetry_multiplicity
 _atom_site_fract_x
 _atom_site_fract_y
 _atom_site_fract_z
 _atom_site_occupancy
  Pa  Pa0  1  0.676297  0.176297  0.500000  1
  Pa  Pa1  1  0.323703  0.823703  0.500000  1
  Pa  Pa2  1  0.176297  0.323703  0.500000  1
  Pa  Pa3  1  0.823703  0.676297  0.500000  1
  Sn  Sn4  1  0.000000  0.000000  0.000000  1
  Sn  Sn5  1  0.500000  0.500000  0.000000  1
  Pd  Pd6  1  0.129477  0.629477  0.000000  1
  Pd  Pd7  1  0.870523  0.370523  0.000000  1
  Pd  Pd8  1  0.629477  0.870523  0.000000  1
  Pd  Pd9  1  0.370523  0.129477  0.000000  1
