# generated using pymatgen
data_LiTbNd2(Co4P3)2
_symmetry_space_group_name_H-M   'P 1'
_cell_length_a   3.75761900
_cell_length_b   10.65199000
_cell_length_c   12.32080000
_cell_angle_alpha   90.00000000
_cell_angle_beta   90.00000000
_cell_angle_gamma   90.00000000
_symmetry_Int_Tables_number   1
_chemical_formula_structural   LiTbNd2(Co4P3)2
_chemical_formula_sum   'Li2 Tb2 Nd4 Co16 P12'
_cell_volume   493.15381944
_cell_formula_units_Z   2
loop_
 _symmetry_equiv_pos_site_id
 _symmetry_equiv_pos_as_xyz
  1  'x, y, z'
loop_
 _atom_site_type_symbol
 _atom_site_label
 _atom_site_symmetry_multiplicity
 _atom_site_fract_x
 _atom_site_fract_y
 _atom_site_fract_z
 _atom_site_occupancy
  Li  Li0  1  0.500000  0.500000  0.150737  1
  Li  Li1  1  0.000000  0.000000  0.849854  1
  Tb  Tb2  1  0.500000  0.819673  0.205682  1
  Tb  Tb3  1  0.500000  0.180327  0.205682  1
  Nd  Nd4  1  0.000000  0.500000  0.521977  1
  Nd  Nd5  1  0.500000  0.000000  0.475989  1
  Nd  Nd6  1  0.000000  0.681350  0.793990  1
  Nd  Nd7  1  0.000000  0.318650  0.793990  1
  Co  Co8  1  0.500000  0.500000  0.706087  1
  Co  Co9  1  0.000000  0.000000  0.293159  1
  Co  Co10  1  0.000000  0.500000  0.990567  1
  Co  Co11  1  0.500000  0.000000  0.015061  1
  Co  Co12  1  0.500000  0.331851  0.999683  1
  Co  Co13  1  0.500000  0.668149  0.999683  1
  Co  Co14  1  0.000000  0.166098  0.005035  1
  Co  Co15  1  0.000000  0.833902  0.005035  1
  Co  Co16  1  0.500000  0.296190  0.427880  1
  Co  Co17  1  0.500000  0.703810  0.427880  1
  Co  Co18  1  0.000000  0.202641  0.567399  1
  Co  Co19  1  0.000000  0.797359  0.567399  1
  Co  Co20  1  0.500000  0.880611  0.706666  1
  Co  Co21  1  0.500000  0.119389  0.706666  1
  Co  Co22  1  0.000000  0.620812  0.291033  1
  Co  Co23  1  0.000000  0.379188  0.291033  1
  P  P24  1  0.500000  0.500000  0.890199  1
  P  P25  1  0.000000  0.000000  0.115224  1
  P  P26  1  0.500000  0.500000  0.341101  1
  P  P27  1  0.000000  0.000000  0.657540  1
  P  P28  1  0.500000  0.304652  0.612527  1
  P  P29  1  0.500000  0.695348  0.612527  1
  P  P30  1  0.000000  0.193581  0.382174  1
  P  P31  1  0.000000  0.806419  0.382174  1
  P  P32  1  0.500000  0.845355  0.897632  1
  P  P33  1  0.500000  0.154645  0.897632  1
  P  P34  1  0.000000  0.657386  0.106552  1
  P  P35  1  0.000000  0.342614  0.106552  1
