# generated using pymatgen
data_Sc8Ti5Nb2Si16W5
_symmetry_space_group_name_H-M   'P 1'
_cell_length_a   6.61294944
_cell_length_b   6.79928977
_cell_length_c   12.93637561
_cell_angle_alpha   89.97373304
_cell_angle_beta   90.04041846
_cell_angle_gamma   89.91891733
_symmetry_Int_Tables_number   1
_chemical_formula_structural   Sc8Ti5Nb2Si16W5
_chemical_formula_sum   'Sc8 Ti5 Nb2 Si16 W5'
_cell_volume   581.66211864
_cell_formula_units_Z   1
loop_
 _symmetry_equiv_pos_site_id
 _symmetry_equiv_pos_as_xyz
  1  'x, y, z'
loop_
 _atom_site_type_symbol
 _atom_site_label
 _atom_site_symmetry_multiplicity
 _atom_site_fract_x
 _atom_site_fract_y
 _atom_site_fract_z
 _atom_site_occupancy
  Sc  Sc0  1  0.497859  0.671813  0.593926  1
  Sc  Sc1  1  0.999911  0.827385  0.905073  1
  Sc  Sc2  1  0.501117  0.326653  0.094870  1
  Sc  Sc3  1  0.999642  0.175278  0.407042  1
  Sc  Sc4  1  0.500766  0.326687  0.405784  1
  Sc  Sc5  1  0.998206  0.173902  0.094864  1
  Sc  Sc6  1  0.499418  0.674586  0.905880  1
  Sc  Sc7  1  0.000515  0.824766  0.593563  1
  Ti  Ti8  1  0.664429  0.170945  0.624976  1
  Ti  Ti9  1  0.167529  0.328886  0.872715  1
  Ti  Ti10  1  0.333680  0.827005  0.126217  1
  Ti  Ti11  1  0.832123  0.668428  0.374972  1
  Ti  Ti12  1  0.334254  0.828668  0.374413  1
  Nb  Nb13  1  0.833127  0.669925  0.126412  1
  Nb  Nb14  1  0.667782  0.171030  0.872988  1
  Si  Si15  1  0.667902  0.964358  0.458915  1
  Si  Si16  1  0.170787  0.534481  0.040037  1
  Si  Si17  1  0.329519  0.035132  0.959824  1
  Si  Si18  1  0.834241  0.463623  0.541298  1
  Si  Si19  1  0.330798  0.036471  0.540788  1
  Si  Si20  1  0.834206  0.465278  0.958448  1
  Si  Si21  1  0.665299  0.965521  0.041959  1
  Si  Si22  1  0.168564  0.538480  0.459466  1
  Si  Si23  1  0.463958  0.387316  0.749014  1
  Si  Si24  1  0.967396  0.114689  0.747015  1
  Si  Si25  1  0.533320  0.614620  0.251595  1
  Si  Si26  1  0.035464  0.886766  0.252278  1
  Si  Si27  1  0.704309  0.858076  0.748151  1
  Si  Si28  1  0.202648  0.640445  0.750597  1
  Si  Si29  1  0.295670  0.139397  0.250724  1
  Si  Si30  1  0.795591  0.358240  0.251336  1
  W  W31  1  0.169805  0.331377  0.625502  1
  W  W32  1  0.839823  0.492095  0.748372  1
  W  W33  1  0.339531  0.007862  0.749040  1
  W  W34  1  0.161245  0.506726  0.250761  1
  W  W35  1  0.659560  0.993091  0.251186  1
