# generated using pymatgen
data_Re3Te4F
_symmetry_space_group_name_H-M   'P 1'
_cell_length_a   7.02852306
_cell_length_b   7.06204278
_cell_length_c   9.35119000
_cell_angle_alpha   104.05271930
_cell_angle_beta   110.65033490
_cell_angle_gamma   86.21597254
_symmetry_Int_Tables_number   1
_chemical_formula_structural   Re3Te4F
_chemical_formula_sum   'Re6 Te8 F2'
_cell_volume   421.23439661
_cell_formula_units_Z   2
loop_
 _symmetry_equiv_pos_site_id
 _symmetry_equiv_pos_as_xyz
  1  'x, y, z'
loop_
 _atom_site_type_symbol
 _atom_site_label
 _atom_site_symmetry_multiplicity
 _atom_site_fract_x
 _atom_site_fract_y
 _atom_site_fract_z
 _atom_site_occupancy
  Re  Re0  1  0.103941  0.255077  0.534276  1
  Re  Re1  1  0.155198  0.628041  0.713120  1
  Re  Re2  1  0.844802  0.371959  0.286880  1
  Re  Re3  1  0.218209  0.536754  0.434349  1
  Re  Re4  1  0.896059  0.744923  0.465724  1
  Re  Re5  1  0.781791  0.463246  0.565651  1
  Te  Te6  1  0.172413  0.163055  0.257025  1
  Te  Te7  1  0.827587  0.836945  0.742975  1
  Te  Te8  1  0.488343  0.410410  0.698642  1
  Te  Te9  1  0.290562  0.908627  0.613310  1
  Te  Te10  1  0.709438  0.091373  0.386690  1
  Te  Te11  1  0.511657  0.589590  0.301358  1
  Te  Te12  1  0.953150  0.662420  0.183907  1
  Te  Te13  1  0.046850  0.337580  0.816093  1
  F  F14  1  0.685836  0.242279  0.066211  1
  F  F15  1  0.314164  0.757721  0.933789  1
