# generated using pymatgen
data_Pa2CI2
_symmetry_space_group_name_H-M   'P 1'
_cell_length_a   3.76920400
_cell_length_b   3.76920451
_cell_length_c   11.35058200
_cell_angle_alpha   90.00000000
_cell_angle_beta   90.00000000
_cell_angle_gamma   119.99999556
_symmetry_Int_Tables_number   1
_chemical_formula_structural   Pa2CI2
_chemical_formula_sum   'Pa2 C1 I2'
_cell_volume   139.65231089
_cell_formula_units_Z   1
loop_
 _symmetry_equiv_pos_site_id
 _symmetry_equiv_pos_as_xyz
  1  'x, y, z'
loop_
 _atom_site_type_symbol
 _atom_site_label
 _atom_site_symmetry_multiplicity
 _atom_site_fract_x
 _atom_site_fract_y
 _atom_site_fract_z
 _atom_site_occupancy
  Pa  Pa0  1  0.333333  0.666667  0.115261  1
  Pa  Pa1  1  0.666667  0.333333  0.884739  1
  C  C2  1  0.000000  0.000000  0.000000  1
  I  I3  1  0.333333  0.666667  0.682968  1
  I  I4  1  0.666667  0.333333  0.317032  1
