# generated using pymatgen
data_Dy4Fe4P12Ru7Rh9
_symmetry_space_group_name_H-M   'P 1'
_cell_length_a   3.85521300
_cell_length_b   10.75913604
_cell_length_c   12.29178803
_cell_angle_alpha   90.00915507
_cell_angle_beta   90.00000000
_cell_angle_gamma   90.00000000
_symmetry_Int_Tables_number   1
_chemical_formula_structural   Dy4Fe4P12Ru7Rh9
_chemical_formula_sum   'Dy4 Fe4 P12 Ru7 Rh9'
_cell_volume   509.84813318
_cell_formula_units_Z   1
loop_
 _symmetry_equiv_pos_site_id
 _symmetry_equiv_pos_as_xyz
  1  'x, y, z'
loop_
 _atom_site_type_symbol
 _atom_site_label
 _atom_site_symmetry_multiplicity
 _atom_site_fract_x
 _atom_site_fract_y
 _atom_site_fract_z
 _atom_site_occupancy
  Dy  Dy0  1  0.250000  0.583072  0.706433  1
  Dy  Dy1  1  0.250000  0.916464  0.207794  1
  Dy  Dy2  1  0.750000  0.416433  0.293674  1
  Dy  Dy3  1  0.750000  0.083907  0.792220  1
  Fe  Fe4  1  0.250000  0.462699  0.934821  1
  Fe  Fe5  1  0.250000  0.037812  0.434963  1
  Fe  Fe6  1  0.750000  0.537572  0.064581  1
  Fe  Fe7  1  0.750000  0.961977  0.564718  1
  P  P8  1  0.250000  0.428527  0.107286  1
  P  P9  1  0.250000  0.071921  0.607335  1
  P  P10  1  0.750000  0.571730  0.892019  1
  P  P11  1  0.750000  0.928519  0.392484  1
  P  P12  1  0.250000  0.269062  0.873752  1
  P  P13  1  0.250000  0.231001  0.373738  1
  P  P14  1  0.750000  0.728189  0.128525  1
  P  P15  1  0.750000  0.769150  0.626110  1
  P  P16  1  0.250000  0.596999  0.395899  1
  P  P17  1  0.250000  0.901747  0.891776  1
  P  P18  1  0.750000  0.402423  0.604435  1
  P  P19  1  0.750000  0.101024  0.105933  1
  Ru  Ru20  1  0.250000  0.710504  0.987972  1
  Ru  Ru21  1  0.250000  0.792244  0.486172  1
  Ru  Ru22  1  0.750000  0.291233  0.012197  1
  Ru  Ru23  1  0.750000  0.207790  0.513302  1
  Ru  Ru24  1  0.250000  0.403695  0.487901  1
  Ru  Ru25  1  0.250000  0.093815  0.988221  1
  Ru  Ru26  1  0.750000  0.596223  0.512261  1
  Rh  Rh27  1  0.750000  0.904191  0.014745  1
  Rh  Rh28  1  0.250000  0.233237  0.178267  1
  Rh  Rh29  1  0.250000  0.266419  0.679067  1
  Rh  Rh30  1  0.750000  0.767768  0.821628  1
  Rh  Rh31  1  0.750000  0.733547  0.321393  1
  Rh  Rh32  1  0.250000  0.885297  0.701581  1
  Rh  Rh33  1  0.250000  0.613768  0.203179  1
  Rh  Rh34  1  0.750000  0.113874  0.296940  1
  Rh  Rh35  1  0.750000  0.386167  0.796680  1
