# generated using pymatgen
data_Mg2ZnIn9Ir4
_symmetry_space_group_name_H-M   'P 1'
_cell_length_a   7.14506841
_cell_length_b   6.95502689
_cell_length_c   7.24257200
_cell_angle_alpha   90.00000000
_cell_angle_beta   90.00000000
_cell_angle_gamma   89.15536669
_symmetry_Int_Tables_number   1
_chemical_formula_structural   Mg2ZnIn9Ir4
_chemical_formula_sum   'Mg2 Zn1 In9 Ir4'
_cell_volume   359.87430128
_cell_formula_units_Z   1
loop_
 _symmetry_equiv_pos_site_id
 _symmetry_equiv_pos_as_xyz
  1  'x, y, z'
loop_
 _atom_site_type_symbol
 _atom_site_label
 _atom_site_symmetry_multiplicity
 _atom_site_fract_x
 _atom_site_fract_y
 _atom_site_fract_z
 _atom_site_occupancy
  Mg  Mg0  1  0.500000  0.000000  0.000000  1
  Mg  Mg1  1  0.000000  0.500000  0.500000  1
  Zn  Zn2  1  0.000000  0.500000  0.000000  1
  In  In3  1  0.335825  0.346634  0.261005  1
  In  In4  1  0.158107  0.832191  0.771758  1
  In  In5  1  0.158107  0.832191  0.228242  1
  In  In6  1  0.841893  0.167809  0.228242  1
  In  In7  1  0.841893  0.167809  0.771758  1
  In  In8  1  0.664175  0.653366  0.261005  1
  In  In9  1  0.664175  0.653366  0.738995  1
  In  In10  1  0.335825  0.346634  0.738995  1
  In  In11  1  0.500000  0.000000  0.500000  1
  Ir  Ir12  1  0.151854  0.156586  0.000000  1
  Ir  Ir13  1  0.655525  0.346589  0.500000  1
  Ir  Ir14  1  0.344475  0.653411  0.500000  1
  Ir  Ir15  1  0.848146  0.843414  0.000000  1
