# generated using pymatgen
data_Dy8Hg2IrRu
_symmetry_space_group_name_H-M   'P 1'
_cell_length_a   9.59579289
_cell_length_b   9.59579404
_cell_length_c   9.62655300
_cell_angle_alpha   59.89390392
_cell_angle_beta   59.89389995
_cell_angle_gamma   59.87740368
_symmetry_Int_Tables_number   1
_chemical_formula_structural   Dy8Hg2IrRu
_chemical_formula_sum   'Dy16 Hg4 Ir2 Ru2'
_cell_volume   625.19652496
_cell_formula_units_Z   2
loop_
 _symmetry_equiv_pos_site_id
 _symmetry_equiv_pos_as_xyz
  1  'x, y, z'
loop_
 _atom_site_type_symbol
 _atom_site_label
 _atom_site_symmetry_multiplicity
 _atom_site_fract_x
 _atom_site_fract_y
 _atom_site_fract_z
 _atom_site_occupancy
  Dy  Dy0  1  0.599569  0.599569  0.599231  1
  Dy  Dy1  1  0.599569  0.599569  0.201630  1
  Dy  Dy2  1  0.598214  0.204754  0.598516  1
  Dy  Dy3  1  0.204754  0.598214  0.598516  1
  Dy  Dy4  1  0.061034  0.438816  0.440885  1
  Dy  Dy5  1  0.438816  0.061034  0.059264  1
  Dy  Dy6  1  0.438816  0.061034  0.440885  1
  Dy  Dy7  1  0.061034  0.438816  0.059264  1
  Dy  Dy8  1  0.439185  0.439185  0.060815  1
  Dy  Dy9  1  0.058726  0.058726  0.441274  1
  Dy  Dy10  1  0.188409  0.809998  0.812745  1
  Dy  Dy11  1  0.809998  0.188409  0.188848  1
  Dy  Dy12  1  0.809998  0.188409  0.812745  1
  Dy  Dy13  1  0.188409  0.809998  0.188848  1
  Dy  Dy14  1  0.811824  0.811824  0.188176  1
  Dy  Dy15  1  0.188754  0.188754  0.811246  1
  Hg  Hg16  1  0.833791  0.833791  0.834262  1
  Hg  Hg17  1  0.833791  0.833791  0.498158  1
  Hg  Hg18  1  0.834121  0.496722  0.834579  1
  Hg  Hg19  1  0.496722  0.834121  0.834579  1
  Ir  Ir20  1  0.393673  0.827101  0.389613  1
  Ir  Ir21  1  0.827101  0.393673  0.389613  1
  Ru  Ru22  1  0.391844  0.391844  0.386796  1
  Ru  Ru23  1  0.391844  0.391844  0.829516  1
