# generated using pymatgen
data_Sc12Fe(Si4Tc)3
_symmetry_space_group_name_H-M   'P 1'
_cell_length_a   3.91396700
_cell_length_b   10.45167766
_cell_length_c   11.83234180
_cell_angle_alpha   89.76387625
_cell_angle_beta   90.00000000
_cell_angle_gamma   90.00000000
_symmetry_Int_Tables_number   1
_chemical_formula_structural   Sc12Fe(Si4Tc)3
_chemical_formula_sum   'Sc12 Fe1 Si12 Tc3'
_cell_volume   484.02766563
_cell_formula_units_Z   1
loop_
 _symmetry_equiv_pos_site_id
 _symmetry_equiv_pos_as_xyz
  1  'x, y, z'
loop_
 _atom_site_type_symbol
 _atom_site_label
 _atom_site_symmetry_multiplicity
 _atom_site_fract_x
 _atom_site_fract_y
 _atom_site_fract_z
 _atom_site_occupancy
  Sc  Sc0  1  0.250000  0.877155  0.015752  1
  Sc  Sc1  1  0.250000  0.619547  0.520683  1
  Sc  Sc2  1  0.750000  0.125820  0.980384  1
  Sc  Sc3  1  0.750000  0.376489  0.481197  1
  Sc  Sc4  1  0.250000  0.922366  0.608371  1
  Sc  Sc5  1  0.250000  0.577143  0.106304  1
  Sc  Sc6  1  0.750000  0.076964  0.395412  1
  Sc  Sc7  1  0.750000  0.424201  0.897533  1
  Sc  Sc8  1  0.250000  0.651554  0.797440  1
  Sc  Sc9  1  0.250000  0.838953  0.299187  1
  Sc  Sc10  1  0.750000  0.338801  0.200876  1
  Sc  Sc11  1  0.750000  0.167182  0.701189  1
  Fe  Fe12  1  0.250000  0.385871  0.675355  1
  Si  Si13  1  0.250000  0.024174  0.821092  1
  Si  Si14  1  0.250000  0.480316  0.322678  1
  Si  Si15  1  0.750000  0.980746  0.177243  1
  Si  Si16  1  0.750000  0.504982  0.678808  1
  Si  Si17  1  0.250000  0.259062  0.838665  1
  Si  Si18  1  0.250000  0.248812  0.346157  1
  Si  Si19  1  0.750000  0.748702  0.154102  1
  Si  Si20  1  0.750000  0.746166  0.656680  1
  Si  Si21  1  0.250000  0.197983  0.546351  1
  Si  Si22  1  0.250000  0.309897  0.041019  1
  Si  Si23  1  0.750000  0.807329  0.459354  1
  Si  Si24  1  0.750000  0.692031  0.955799  1
  Tc  Tc25  1  0.250000  0.115769  0.176799  1
  Tc  Tc26  1  0.750000  0.614559  0.324049  1
  Tc  Tc27  1  0.750000  0.887423  0.821520  1
