# generated using pymatgen
data_Hf8Co11Si16Rh
_symmetry_space_group_name_H-M   'P 1'
_cell_length_a   5.23475684
_cell_length_b   6.76543140
_cell_length_c   13.70439954
_cell_angle_alpha   90.06182409
_cell_angle_beta   90.03239623
_cell_angle_gamma   89.88499835
_symmetry_Int_Tables_number   1
_chemical_formula_structural   Hf8Co11Si16Rh
_chemical_formula_sum   'Hf8 Co11 Si16 Rh1'
_cell_volume   485.34529364
_cell_formula_units_Z   1
loop_
 _symmetry_equiv_pos_site_id
 _symmetry_equiv_pos_as_xyz
  1  'x, y, z'
loop_
 _atom_site_type_symbol
 _atom_site_label
 _atom_site_symmetry_multiplicity
 _atom_site_fract_x
 _atom_site_fract_y
 _atom_site_fract_z
 _atom_site_occupancy
  Hf  Hf0  1  0.234256  0.399157  0.149803  1
  Hf  Hf1  1  0.729091  0.100182  0.148457  1
  Hf  Hf2  1  0.269878  0.099864  0.644666  1
  Hf  Hf3  1  0.766921  0.400471  0.644512  1
  Hf  Hf4  1  0.230434  0.600654  0.354242  1
  Hf  Hf5  1  0.731826  0.899041  0.354053  1
  Hf  Hf6  1  0.266778  0.901699  0.853205  1
  Hf  Hf7  1  0.770715  0.601764  0.851422  1
  Co  Co8  1  0.506649  0.224875  0.481376  1
  Co  Co9  1  0.774497  0.999066  0.749230  1
  Co  Co10  1  0.492283  0.220933  0.981744  1
  Co  Co11  1  0.723907  0.500520  0.251142  1
  Co  Co12  1  0.493939  0.774940  0.518558  1
  Co  Co13  1  0.006461  0.275008  0.481303  1
  Co  Co14  1  0.006077  0.723693  0.019252  1
  Co  Co15  1  0.223927  0.999317  0.251281  1
  Co  Co16  1  0.278004  0.501864  0.749373  1
  Co  Co17  1  0.506166  0.775322  0.019488  1
  Co  Co18  1  0.993930  0.724843  0.518613  1
  Si  Si19  1  0.221959  0.013717  0.071590  1
  Si  Si20  1  0.717740  0.519392  0.432154  1
  Si  Si21  1  0.783307  0.018780  0.567493  1
  Si  Si22  1  0.480234  0.754074  0.189303  1
  Si  Si23  1  0.021005  0.254343  0.804641  1
  Si  Si24  1  0.519649  0.246615  0.811686  1
  Si  Si25  1  0.217375  0.980754  0.432340  1
  Si  Si26  1  0.293257  0.525541  0.931583  1
  Si  Si27  1  0.979656  0.745951  0.188577  1
  Si  Si28  1  0.709541  0.485836  0.070742  1
  Si  Si29  1  0.282110  0.481220  0.567559  1
  Si  Si30  1  0.480295  0.246036  0.313055  1
  Si  Si31  1  0.020617  0.746209  0.687069  1
  Si  Si32  1  0.775874  0.973672  0.930717  1
  Si  Si33  1  0.519416  0.754213  0.687440  1
  Si  Si34  1  0.979603  0.253817  0.312667  1
  Rh  Rh35  1  0.992624  0.276617  0.979665  1
