# generated using pymatgen
data_Ce4Co5Si10Ru
_symmetry_space_group_name_H-M   'P 1'
_cell_length_a   7.98775193
_cell_length_b   7.98775183
_cell_length_c   7.98775252
_cell_angle_alpha   138.57932273
_cell_angle_beta   105.26564976
_cell_angle_gamma   89.24556308
_symmetry_Int_Tables_number   1
_chemical_formula_structural   Ce4Co5Si10Ru
_chemical_formula_sum   'Ce4 Co5 Si10 Ru1'
_cell_volume   311.42751862
_cell_formula_units_Z   1
loop_
 _symmetry_equiv_pos_site_id
 _symmetry_equiv_pos_as_xyz
  1  'x, y, z'
loop_
 _atom_site_type_symbol
 _atom_site_label
 _atom_site_symmetry_multiplicity
 _atom_site_fract_x
 _atom_site_fract_y
 _atom_site_fract_z
 _atom_site_occupancy
  Ce  Ce0  1  0.866212  0.635322  0.239096  1
  Ce  Ce1  1  0.133788  0.372884  0.769109  1
  Ce  Ce2  1  0.396225  0.127116  0.260904  1
  Ce  Ce3  1  0.603775  0.864678  0.730891  1
  Co  Co4  1  0.000000  0.250000  0.250000  1
  Co  Co5  1  0.249934  0.866502  0.389562  1
  Co  Co6  1  0.750066  0.139628  0.616568  1
  Co  Co7  1  0.476940  0.360372  0.110438  1
  Co  Co8  1  0.523060  0.633498  0.883432  1
  Si  Si9  1  0.500000  0.750000  0.250000  1
  Si  Si10  1  0.500000  0.250000  0.750000  1
  Si  Si11  1  0.232757  0.982757  0.750000  1
  Si  Si12  1  0.767243  0.517243  0.750000  1
  Si  Si13  1  0.765293  0.015293  0.250000  1
  Si  Si14  1  0.234707  0.484707  0.250000  1
  Si  Si15  1  0.047633  0.903479  0.163145  1
  Si  Si16  1  0.952367  0.115513  0.855847  1
  Si  Si17  1  0.740334  0.384487  0.336855  1
  Si  Si18  1  0.259666  0.596521  0.644153  1
  Ru  Ru19  1  0.000000  0.750000  0.750000  1
