# generated using pymatgen
data_Dy5Zr2Mn(P3Ir4)4
_symmetry_space_group_name_H-M   'P 1'
_cell_length_a   12.71990800
_cell_length_b   12.87649973
_cell_length_c   3.97769600
_cell_angle_alpha   90.00000000
_cell_angle_beta   90.00000000
_cell_angle_gamma   119.59852458
_symmetry_Int_Tables_number   1
_chemical_formula_structural   Dy5Zr2Mn(P3Ir4)4
_chemical_formula_sum   'Dy5 Zr2 Mn1 P12 Ir16'
_cell_volume   566.48287874
_cell_formula_units_Z   1
loop_
 _symmetry_equiv_pos_site_id
 _symmetry_equiv_pos_as_xyz
  1  'x, y, z'
loop_
 _atom_site_type_symbol
 _atom_site_label
 _atom_site_symmetry_multiplicity
 _atom_site_fract_x
 _atom_site_fract_y
 _atom_site_fract_z
 _atom_site_occupancy
  Dy  Dy0  1  0.330769  0.663548  0.500000  1
  Dy  Dy1  1  0.667222  0.336452  0.500000  1
  Dy  Dy2  1  0.000388  0.814741  0.000000  1
  Dy  Dy3  1  0.185648  0.185259  0.000000  1
  Dy  Dy4  1  0.810275  0.000000  0.000000  1
  Zr  Zr5  1  0.997233  0.445664  0.500000  1
  Zr  Zr6  1  0.551569  0.554336  0.500000  1
  Mn  Mn7  1  0.461975  0.000000  0.500000  1
  P  P8  1  0.006495  0.652144  0.500000  1
  P  P9  1  0.354351  0.347856  0.500000  1
  P  P10  1  0.637137  0.000000  0.500000  1
  P  P11  1  0.516105  0.688659  0.000000  1
  P  P12  1  0.313759  0.830105  0.000000  1
  P  P13  1  0.165879  0.481811  0.000000  1
  P  P14  1  0.483653  0.169895  0.000000  1
  P  P15  1  0.684067  0.518189  0.000000  1
  P  P16  1  0.827446  0.311341  0.000000  1
  P  P17  1  0.998647  0.173995  0.500000  1
  P  P18  1  0.824651  0.826005  0.500000  1
  P  P19  1  0.182071  0.000000  0.500000  1
  Ir  Ir20  1  0.506489  0.866560  0.000000  1
  Ir  Ir21  1  0.128369  0.644787  0.000000  1
  Ir  Ir22  1  0.355797  0.496410  0.000000  1
  Ir  Ir23  1  0.483582  0.355213  0.000000  1
  Ir  Ir24  1  0.859388  0.503590  0.000000  1
  Ir  Ir25  1  0.639931  0.133440  0.000000  1
  Ir  Ir26  1  0.998524  0.276971  0.000000  1
  Ir  Ir27  1  0.721553  0.723029  0.000000  1
  Ir  Ir28  1  0.284673  0.000000  0.000000  1
  Ir  Ir29  1  0.627054  0.809483  0.500000  1
  Ir  Ir30  1  0.204713  0.826162  0.500000  1
  Ir  Ir31  1  0.178737  0.367535  0.500000  1
  Ir  Ir32  1  0.378550  0.173838  0.500000  1
  Ir  Ir33  1  0.811201  0.632465  0.500000  1
  Ir  Ir34  1  0.817571  0.190517  0.500000  1
  Ir  Ir35  1  0.004531  0.000000  0.500000  1
