# generated using pymatgen
data_Nb8Fe3Si14Ni5
_symmetry_space_group_name_H-M   'P 1'
_cell_length_a   9.24828798
_cell_length_b   9.24821957
_cell_length_c   9.27656783
_cell_angle_alpha   94.18958734
_cell_angle_beta   94.19107822
_cell_angle_gamma   148.52976800
_symmetry_Int_Tables_number   1
_chemical_formula_structural   Nb8Fe3Si14Ni5
_chemical_formula_sum   'Nb8 Fe3 Si14 Ni5'
_cell_volume   398.89384967
_cell_formula_units_Z   1
loop_
 _symmetry_equiv_pos_site_id
 _symmetry_equiv_pos_as_xyz
  1  'x, y, z'
loop_
 _atom_site_type_symbol
 _atom_site_label
 _atom_site_symmetry_multiplicity
 _atom_site_fract_x
 _atom_site_fract_y
 _atom_site_fract_z
 _atom_site_occupancy
  Nb  Nb0  1  0.133059  0.134239  0.267479  1
  Nb  Nb1  1  0.865738  0.866904  0.732483  1
  Nb  Nb2  1  0.865672  0.134336  0.999979  1
  Nb  Nb3  1  0.133350  0.866552  0.999992  1
  Nb  Nb4  1  0.497935  0.688847  0.190443  1
  Nb  Nb5  1  0.497612  0.305466  0.809166  1
  Nb  Nb6  1  0.311158  0.502089  0.809609  1
  Nb  Nb7  1  0.694501  0.502357  0.190886  1
  Fe  Fe8  1  0.900910  0.098523  0.499977  1
  Fe  Fe9  1  0.900047  0.402075  0.802558  1
  Fe  Fe10  1  0.598223  0.100242  0.197467  1
  Si  Si11  1  0.289594  0.290721  0.586446  1
  Si  Si12  1  0.709280  0.710334  0.413607  1
  Si  Si13  1  0.707495  0.292401  0.999999  1
  Si  Si14  1  0.292258  0.707874  0.999995  1
  Si  Si15  1  0.985373  0.280994  0.295317  1
  Si  Si16  1  0.992836  0.697954  0.707228  1
  Si  Si17  1  0.719062  0.014632  0.704616  1
  Si  Si18  1  0.302063  0.007199  0.292721  1
  Si  Si19  1  0.528609  0.935657  0.405631  1
  Si  Si20  1  0.517519  0.107980  0.596204  1
  Si  Si21  1  0.064343  0.471431  0.594376  1
  Si  Si22  1  0.891942  0.482466  0.403821  1
  Si  Si23  1  0.750791  0.750899  0.000034  1
  Si  Si24  1  0.249074  0.249180  0.999952  1
  Ni  Ni25  1  0.396548  0.894028  0.792903  1
  Ni  Ni26  1  0.105954  0.603571  0.207105  1
  Ni  Ni27  1  0.104990  0.894947  0.499914  1
  Ni  Ni28  1  0.395591  0.604231  0.500049  1
  Ni  Ni29  1  0.598472  0.401868  0.500044  1
