# generated using pymatgen
data_Ca4La5Ce(Sn5Rh2)4
_symmetry_space_group_name_H-M   'P 1'
_cell_length_a   14.24511000
_cell_length_b   14.24511000
_cell_length_c   4.63787600
_cell_angle_alpha   90.00000000
_cell_angle_beta   90.00000000
_cell_angle_gamma   90.00000000
_symmetry_Int_Tables_number   1
_chemical_formula_structural   Ca4La5Ce(Sn5Rh2)4
_chemical_formula_sum   'Ca4 La5 Ce1 Sn20 Rh8'
_cell_volume   941.13244856
_cell_formula_units_Z   1
loop_
 _symmetry_equiv_pos_site_id
 _symmetry_equiv_pos_as_xyz
  1  'x, y, z'
loop_
 _atom_site_type_symbol
 _atom_site_label
 _atom_site_symmetry_multiplicity
 _atom_site_fract_x
 _atom_site_fract_y
 _atom_site_fract_z
 _atom_site_occupancy
  Ca  Ca0  1  0.676681  0.176308  0.500000  1
  Ca  Ca1  1  0.323319  0.823692  0.500000  1
  Ca  Ca2  1  0.176308  0.323319  0.500000  1
  Ca  Ca3  1  0.823692  0.676681  0.500000  1
  La  La4  1  0.500000  0.500000  0.000000  1
  La  La5  1  0.890539  0.390278  0.500000  1
  La  La6  1  0.109461  0.609722  0.500000  1
  La  La7  1  0.390278  0.109461  0.500000  1
  La  La8  1  0.609722  0.890539  0.500000  1
  Ce  Ce9  1  0.000000  0.000000  0.000000  1
  Sn  Sn10  1  0.570929  0.069764  0.000000  1
  Sn  Sn11  1  0.429071  0.930236  0.000000  1
  Sn  Sn12  1  0.069764  0.429071  0.000000  1
  Sn  Sn13  1  0.930236  0.570929  0.000000  1
  Sn  Sn14  1  0.654462  0.696672  0.000000  1
  Sn  Sn15  1  0.345538  0.303328  0.000000  1
  Sn  Sn16  1  0.153679  0.803747  0.000000  1
  Sn  Sn17  1  0.846321  0.196253  0.000000  1
  Sn  Sn18  1  0.303328  0.654462  0.000000  1
  Sn  Sn19  1  0.696672  0.345538  0.000000  1
  Sn  Sn20  1  0.196253  0.153679  0.000000  1
  Sn  Sn21  1  0.803747  0.846321  0.000000  1
  Sn  Sn22  1  0.663620  0.506818  0.500000  1
  Sn  Sn23  1  0.336380  0.493182  0.500000  1
  Sn  Sn24  1  0.161010  0.992661  0.500000  1
  Sn  Sn25  1  0.838990  0.007339  0.500000  1
  Sn  Sn26  1  0.493182  0.663620  0.500000  1
  Sn  Sn27  1  0.506818  0.336380  0.500000  1
  Sn  Sn28  1  0.007339  0.161010  0.500000  1
  Sn  Sn29  1  0.992661  0.838990  0.500000  1
  Rh  Rh30  1  0.747008  0.527303  0.000000  1
  Rh  Rh31  1  0.252992  0.472697  0.000000  1
  Rh  Rh32  1  0.244713  0.972420  0.000000  1
  Rh  Rh33  1  0.755287  0.027580  0.000000  1
  Rh  Rh34  1  0.472697  0.747008  0.000000  1
  Rh  Rh35  1  0.527303  0.252992  0.000000  1
  Rh  Rh36  1  0.027580  0.244713  0.000000  1
  Rh  Rh37  1  0.972420  0.755287  0.000000  1
