# generated using pymatgen
data_Er2Tm2SiBr6
_symmetry_space_group_name_H-M   'P 1'
_cell_length_a   4.00942400
_cell_length_b   13.13040800
_cell_length_c   13.87850500
_cell_angle_alpha   90.00000000
_cell_angle_beta   90.00000000
_cell_angle_gamma   90.00000000
_symmetry_Int_Tables_number   1
_chemical_formula_structural   Er2Tm2SiBr6
_chemical_formula_sum   'Er4 Tm4 Si2 Br12'
_cell_volume   730.63907192
_cell_formula_units_Z   2
loop_
 _symmetry_equiv_pos_site_id
 _symmetry_equiv_pos_as_xyz
  1  'x, y, z'
loop_
 _atom_site_type_symbol
 _atom_site_label
 _atom_site_symmetry_multiplicity
 _atom_site_fract_x
 _atom_site_fract_y
 _atom_site_fract_z
 _atom_site_occupancy
  Er  Er0  1  0.000000  0.116944  0.577988  1
  Er  Er1  1  0.000000  0.883056  0.422012  1
  Er  Er2  1  0.000000  0.616944  0.922012  1
  Er  Er3  1  0.000000  0.383056  0.077988  1
  Tm  Tm4  1  0.500000  0.117479  0.342129  1
  Tm  Tm5  1  0.500000  0.882521  0.657871  1
  Tm  Tm6  1  0.500000  0.617479  0.157871  1
  Tm  Tm7  1  0.500000  0.382521  0.842129  1
  Si  Si8  1  0.500000  0.000000  0.500000  1
  Si  Si9  1  0.500000  0.500000  0.000000  1
  Br  Br10  1  0.500000  0.245634  0.163467  1
  Br  Br11  1  0.500000  0.754366  0.836533  1
  Br  Br12  1  0.500000  0.745634  0.336533  1
  Br  Br13  1  0.500000  0.254366  0.663467  1
  Br  Br14  1  0.000000  0.254758  0.410732  1
  Br  Br15  1  0.000000  0.745242  0.589268  1
  Br  Br16  1  0.000000  0.754758  0.089268  1
  Br  Br17  1  0.000000  0.245242  0.910732  1
  Br  Br18  1  0.000000  0.003250  0.242906  1
  Br  Br19  1  0.000000  0.996750  0.757094  1
  Br  Br20  1  0.000000  0.503250  0.257094  1
  Br  Br21  1  0.000000  0.496750  0.742906  1
