# generated using pymatgen
data_La4SnB4Ir9
_symmetry_space_group_name_H-M   'P 1'
_cell_length_a   11.06997856
_cell_length_b   11.06997835
_cell_length_c   11.06997830
_cell_angle_alpha   29.67352471
_cell_angle_beta   29.67352569
_cell_angle_gamma   29.67352919
_symmetry_Int_Tables_number   1
_chemical_formula_structural   La4SnB4Ir9
_chemical_formula_sum   'La4 Sn1 B4 Ir9'
_cell_volume   294.35330560
_cell_formula_units_Z   1
loop_
 _symmetry_equiv_pos_site_id
 _symmetry_equiv_pos_as_xyz
  1  'x, y, z'
loop_
 _atom_site_type_symbol
 _atom_site_label
 _atom_site_symmetry_multiplicity
 _atom_site_fract_x
 _atom_site_fract_y
 _atom_site_fract_z
 _atom_site_occupancy
  La  La0  1  0.146907  0.146907  0.146907  1
  La  La1  1  0.951106  0.951106  0.951106  1
  La  La2  1  0.853093  0.853093  0.853093  1
  La  La3  1  0.048894  0.048894  0.048894  1
  Sn  Sn4  1  0.500000  0.500000  0.500000  1
  B  B5  1  0.617160  0.617160  0.617160  1
  B  B6  1  0.716642  0.716642  0.716642  1
  B  B7  1  0.382840  0.382840  0.382840  1
  B  B8  1  0.283358  0.283358  0.283358  1
  Ir  Ir9  1  0.405321  0.906580  0.405321  1
  Ir  Ir10  1  0.906580  0.405321  0.405321  1
  Ir  Ir11  1  0.500000  0.500000  0.000000  1
  Ir  Ir12  1  0.500000  0.000000  0.500000  1
  Ir  Ir13  1  0.000000  0.500000  0.500000  1
  Ir  Ir14  1  0.594679  0.093420  0.594679  1
  Ir  Ir15  1  0.594679  0.594679  0.093420  1
  Ir  Ir16  1  0.093420  0.594679  0.594679  1
  Ir  Ir17  1  0.405321  0.405321  0.906580  1
