# generated using pymatgen
data_Yb2Al3Re14C3
_symmetry_space_group_name_H-M   'P 1'
_cell_length_a   6.97563447
_cell_length_b   6.97563445
_cell_length_c   6.97563507
_cell_angle_alpha   82.47556197
_cell_angle_beta   82.47556286
_cell_angle_gamma   82.47555480
_symmetry_Int_Tables_number   1
_chemical_formula_structural   Yb2Al3Re14C3
_chemical_formula_sum   'Yb2 Al3 Re14 C3'
_cell_volume   331.36646656
_cell_formula_units_Z   1
loop_
 _symmetry_equiv_pos_site_id
 _symmetry_equiv_pos_as_xyz
  1  'x, y, z'
loop_
 _atom_site_type_symbol
 _atom_site_label
 _atom_site_symmetry_multiplicity
 _atom_site_fract_x
 _atom_site_fract_y
 _atom_site_fract_z
 _atom_site_occupancy
  Yb  Yb0  1  0.657929  0.657929  0.657929  1
  Yb  Yb1  1  0.342071  0.342071  0.342071  1
  Al  Al2  1  0.000000  0.000000  0.500000  1
  Al  Al3  1  0.500000  0.000000  0.000000  1
  Al  Al4  1  0.000000  0.500000  0.000000  1
  Re  Re5  1  0.719980  0.280020  0.000000  1
  Re  Re6  1  0.000000  0.719980  0.280020  1
  Re  Re7  1  0.280020  0.000000  0.719980  1
  Re  Re8  1  0.000000  0.280020  0.719980  1
  Re  Re9  1  0.719980  0.000000  0.280020  1
  Re  Re10  1  0.280020  0.719980  0.000000  1
  Re  Re11  1  0.350178  0.350178  0.849997  1
  Re  Re12  1  0.849997  0.350178  0.350178  1
  Re  Re13  1  0.350178  0.849997  0.350178  1
  Re  Re14  1  0.649822  0.649822  0.150003  1
  Re  Re15  1  0.150003  0.649822  0.649822  1
  Re  Re16  1  0.649822  0.150003  0.649822  1
  Re  Re17  1  0.904061  0.904061  0.904061  1
  Re  Re18  1  0.095939  0.095939  0.095939  1
  C  C19  1  0.500000  0.500000  0.000000  1
  C  C20  1  0.000000  0.500000  0.500000  1
  C  C21  1  0.500000  0.000000  0.500000  1
