# generated using pymatgen
data_HoTa5(B2Ru5)2
_symmetry_space_group_name_H-M   'P 1'
_cell_length_a   9.50062219
_cell_length_b   9.50062219
_cell_length_c   3.05417300
_cell_angle_alpha   90.00000000
_cell_angle_beta   90.00000000
_cell_angle_gamma   90.24202583
_symmetry_Int_Tables_number   1
_chemical_formula_structural   HoTa5(B2Ru5)2
_chemical_formula_sum   'Ho1 Ta5 B4 Ru10'
_cell_volume   275.67276021
_cell_formula_units_Z   1
loop_
 _symmetry_equiv_pos_site_id
 _symmetry_equiv_pos_as_xyz
  1  'x, y, z'
loop_
 _atom_site_type_symbol
 _atom_site_label
 _atom_site_symmetry_multiplicity
 _atom_site_fract_x
 _atom_site_fract_y
 _atom_site_fract_z
 _atom_site_occupancy
  Ho  Ho0  1  0.824525  0.675475  0.000000  1
  Ta  Ta1  1  0.178288  0.321712  0.000000  1
  Ta  Ta2  1  0.324340  0.823513  0.000000  1
  Ta  Ta3  1  0.676487  0.175660  0.000000  1
  Ta  Ta4  1  0.500642  0.500743  0.000000  1
  Ta  Ta5  1  0.999257  0.999358  0.000000  1
  B  B6  1  0.619020  0.880980  0.000000  1
  B  B7  1  0.377525  0.122475  0.000000  1
  B  B8  1  0.122800  0.620319  0.000000  1
  B  B9  1  0.879681  0.377200  0.000000  1
  Ru  Ru10  1  0.559223  0.723879  0.500000  1
  Ru  Ru11  1  0.427039  0.282961  0.500000  1
  Ru  Ru12  1  0.081683  0.783260  0.500000  1
  Ru  Ru13  1  0.930633  0.216195  0.500000  1
  Ru  Ru14  1  0.283805  0.569367  0.500000  1
  Ru  Ru15  1  0.716740  0.418317  0.500000  1
  Ru  Ru16  1  0.217039  0.072961  0.500000  1
  Ru  Ru17  1  0.776121  0.940777  0.500000  1
  Ru  Ru18  1  0.496515  0.003485  0.500000  1
  Ru  Ru19  1  0.008637  0.491363  0.500000  1
