# generated using pymatgen
data_Y3ZnAg2Pd3
_symmetry_space_group_name_H-M   'P 1'
_cell_length_a   7.55164769
_cell_length_b   7.45466862
_cell_length_c   3.82364900
_cell_angle_alpha   90.00000000
_cell_angle_beta   90.00000000
_cell_angle_gamma   119.57609084
_symmetry_Int_Tables_number   1
_chemical_formula_structural   Y3ZnAg2Pd3
_chemical_formula_sum   'Y3 Zn1 Ag2 Pd3'
_cell_volume   187.20525572
_cell_formula_units_Z   1
loop_
 _symmetry_equiv_pos_site_id
 _symmetry_equiv_pos_as_xyz
  1  'x, y, z'
loop_
 _atom_site_type_symbol
 _atom_site_label
 _atom_site_symmetry_multiplicity
 _atom_site_fract_x
 _atom_site_fract_y
 _atom_site_fract_z
 _atom_site_occupancy
  Y  Y0  1  0.601755  0.603420  0.000000  1
  Y  Y1  1  0.398245  0.001664  0.000000  1
  Y  Y2  1  0.000000  0.400944  0.000000  1
  Zn  Zn3  1  0.000000  0.737873  0.500000  1
  Ag  Ag4  1  0.256912  0.261047  0.500000  1
  Ag  Ag5  1  0.743088  0.004136  0.500000  1
  Pd  Pd6  1  0.000000  0.972919  0.000000  1
  Pd  Pd7  1  0.326385  0.672192  0.500000  1
  Pd  Pd8  1  0.673615  0.345806  0.500000  1
