# generated using pymatgen
data_Er12Co7Si8Rh
_symmetry_space_group_name_H-M   'P 1'
_cell_length_a   5.51929010
_cell_length_b   7.60533407
_cell_length_c   12.58071001
_cell_angle_alpha   89.95465613
_cell_angle_beta   90.33991622
_cell_angle_gamma   90.19866217
_symmetry_Int_Tables_number   1
_chemical_formula_structural   Er12Co7Si8Rh
_chemical_formula_sum   'Er12 Co7 Si8 Rh1'
_cell_volume   528.07582525
_cell_formula_units_Z   1
loop_
 _symmetry_equiv_pos_site_id
 _symmetry_equiv_pos_as_xyz
  1  'x, y, z'
loop_
 _atom_site_type_symbol
 _atom_site_label
 _atom_site_symmetry_multiplicity
 _atom_site_fract_x
 _atom_site_fract_y
 _atom_site_fract_z
 _atom_site_occupancy
  Er  Er0  1  0.624998  0.252535  0.252657  1
  Er  Er1  1  0.373722  0.749261  0.749209  1
  Er  Er2  1  0.367909  0.751816  0.253252  1
  Er  Er3  1  0.630084  0.248428  0.748568  1
  Er  Er4  1  0.142127  0.398374  0.102366  1
  Er  Er5  1  0.864970  0.606363  0.896925  1
  Er  Er6  1  0.858075  0.606190  0.602275  1
  Er  Er7  1  0.853953  0.891946  0.399956  1
  Er  Er8  1  0.138425  0.398345  0.400216  1
  Er  Er9  1  0.140145  0.106194  0.601319  1
  Er  Er10  1  0.139070  0.107584  0.895213  1
  Er  Er11  1  0.856313  0.891689  0.102447  1
  Co  Co12  1  0.640477  0.971364  0.910910  1
  Co  Co13  1  0.632703  0.972463  0.587192  1
  Co  Co14  1  0.632313  0.528411  0.413765  1
  Co  Co15  1  0.363536  0.028333  0.414493  1
  Co  Co16  1  0.367276  0.472048  0.587294  1
  Co  Co17  1  0.372265  0.467803  0.910332  1
  Co  Co18  1  0.637729  0.525159  0.086165  1
  Si  Si19  1  0.140437  0.104065  0.256368  1
  Si  Si20  1  0.849198  0.900108  0.748631  1
  Si  Si21  1  0.843789  0.599988  0.250352  1
  Si  Si22  1  0.154489  0.400395  0.748781  1
  Si  Si23  1  0.620640  0.253736  0.995442  1
  Si  Si24  1  0.397907  0.740109  0.995809  1
  Si  Si25  1  0.388817  0.750209  0.500942  1
  Si  Si26  1  0.608271  0.250389  0.500676  1
  Rh  Rh27  1  0.360361  0.026695  0.088446  1
