# generated using pymatgen
data_Pr11Er(Si7Br3)2
_symmetry_space_group_name_H-M   'P 1'
_cell_length_a   4.09390600
_cell_length_b   11.81706500
_cell_length_c   16.58148400
_cell_angle_alpha   90.00000000
_cell_angle_beta   90.00000000
_cell_angle_gamma   90.00000000
_symmetry_Int_Tables_number   1
_chemical_formula_structural   Pr11Er(Si7Br3)2
_chemical_formula_sum   'Pr11 Er1 Si14 Br6'
_cell_volume   802.17825869
_cell_formula_units_Z   1
loop_
 _symmetry_equiv_pos_site_id
 _symmetry_equiv_pos_as_xyz
  1  'x, y, z'
loop_
 _atom_site_type_symbol
 _atom_site_label
 _atom_site_symmetry_multiplicity
 _atom_site_fract_x
 _atom_site_fract_y
 _atom_site_fract_z
 _atom_site_occupancy
  Pr  Pr0  1  0.500000  0.341771  0.500000  1
  Pr  Pr1  1  0.000000  0.658555  0.000000  1
  Pr  Pr2  1  0.500000  0.360066  0.754610  1
  Pr  Pr3  1  0.000000  0.640910  0.741598  1
  Pr  Pr4  1  0.500000  0.360066  0.245390  1
  Pr  Pr5  1  0.000000  0.640910  0.258402  1
  Pr  Pr6  1  0.500000  0.065034  0.879572  1
  Pr  Pr7  1  0.000000  0.932350  0.618873  1
  Pr  Pr8  1  0.500000  0.065034  0.120428  1
  Pr  Pr9  1  0.000000  0.932350  0.381127  1
  Pr  Pr10  1  0.500000  0.356308  0.000000  1
  Er  Er11  1  0.000000  0.646346  0.500000  1
  Si  Si12  1  0.000000  0.151773  0.000000  1
  Si  Si13  1  0.500000  0.845883  0.500000  1
  Si  Si14  1  0.500000  0.567555  0.875606  1
  Si  Si15  1  0.000000  0.436429  0.620711  1
  Si  Si16  1  0.500000  0.567555  0.124394  1
  Si  Si17  1  0.000000  0.436429  0.379289  1
  Si  Si18  1  0.000000  0.253560  0.873371  1
  Si  Si19  1  0.500000  0.744116  0.623672  1
  Si  Si20  1  0.000000  0.253560  0.126629  1
  Si  Si21  1  0.500000  0.744116  0.376328  1
  Si  Si22  1  0.000000  0.458026  0.876237  1
  Si  Si23  1  0.500000  0.543506  0.618157  1
  Si  Si24  1  0.500000  0.543506  0.381843  1
  Si  Si25  1  0.000000  0.458026  0.123763  1
  Br  Br26  1  0.500000  0.108998  0.692205  1
  Br  Br27  1  0.000000  0.889453  0.806620  1
  Br  Br28  1  0.000000  0.138269  0.500000  1
  Br  Br29  1  0.500000  0.861089  0.000000  1
  Br  Br30  1  0.500000  0.108998  0.307795  1
  Br  Br31  1  0.000000  0.889453  0.193380  1
