# generated using pymatgen
data_Zn5GaMo
_symmetry_space_group_name_H-M   'P 1'
_cell_length_a   5.34950232
_cell_length_b   5.48420780
_cell_length_c   5.48420807
_cell_angle_alpha   60.21801564
_cell_angle_beta   60.80924693
_cell_angle_gamma   60.80924954
_symmetry_Int_Tables_number   1
_chemical_formula_structural   Zn5GaMo
_chemical_formula_sum   'Zn5 Ga1 Mo1'
_cell_volume   115.33443060
_cell_formula_units_Z   1
loop_
 _symmetry_equiv_pos_site_id
 _symmetry_equiv_pos_as_xyz
  1  'x, y, z'
loop_
 _atom_site_type_symbol
 _atom_site_label
 _atom_site_symmetry_multiplicity
 _atom_site_fract_x
 _atom_site_fract_y
 _atom_site_fract_z
 _atom_site_occupancy
  Zn  Zn0  1  0.500000  0.500000  0.000000  1
  Zn  Zn1  1  0.500000  0.000000  0.500000  1
  Zn  Zn2  1  0.000000  0.000000  0.500000  1
  Zn  Zn3  1  0.000000  0.500000  0.000000  1
  Zn  Zn4  1  0.000000  0.500000  0.500000  1
  Ga  Ga5  1  0.500000  0.000000  0.000000  1
  Mo  Mo6  1  0.000000  0.000000  0.000000  1
