# generated using pymatgen
data_YHo3Er(In2Pd)2
_symmetry_space_group_name_H-M   'P 1'
_cell_length_a   3.61521600
_cell_length_b   8.14853302
_cell_length_c   18.23780405
_cell_angle_alpha   89.99187061
_cell_angle_beta   90.00000000
_cell_angle_gamma   90.00000000
_symmetry_Int_Tables_number   1
_chemical_formula_structural   YHo3Er(In2Pd)2
_chemical_formula_sum   'Y2 Ho6 Er2 In8 Pd4'
_cell_volume   537.26211943
_cell_formula_units_Z   2
loop_
 _symmetry_equiv_pos_site_id
 _symmetry_equiv_pos_as_xyz
  1  'x, y, z'
loop_
 _atom_site_type_symbol
 _atom_site_label
 _atom_site_symmetry_multiplicity
 _atom_site_fract_x
 _atom_site_fract_y
 _atom_site_fract_z
 _atom_site_occupancy
  Y  Y0  1  0.000000  0.500000  0.500000  1
  Y  Y1  1  0.000000  0.000000  0.000000  1
  Ho  Ho2  1  0.000000  0.739119  0.281123  1
  Ho  Ho3  1  0.000000  0.260881  0.718877  1
  Ho  Ho4  1  0.000000  0.760968  0.781090  1
  Ho  Ho5  1  0.000000  0.239032  0.218910  1
  Ho  Ho6  1  0.000000  0.617137  0.083722  1
  Ho  Ho7  1  0.000000  0.382863  0.916278  1
  Er  Er8  1  0.000000  0.882991  0.583871  1
  Er  Er9  1  0.000000  0.117009  0.416129  1
  In  In10  1  0.500000  0.707596  0.932609  1
  In  In11  1  0.500000  0.292404  0.067391  1
  In  In12  1  0.500000  0.792717  0.432698  1
  In  In13  1  0.500000  0.207283  0.567302  1
  In  In14  1  0.500000  0.581900  0.650458  1
  In  In15  1  0.500000  0.418100  0.349542  1
  In  In16  1  0.500000  0.918391  0.150526  1
  In  In17  1  0.500000  0.081609  0.849474  1
  Pd  Pd18  1  0.500000  0.523349  0.196069  1
  Pd  Pd19  1  0.500000  0.476651  0.803931  1
  Pd  Pd20  1  0.500000  0.976508  0.695865  1
  Pd  Pd21  1  0.500000  0.023492  0.304135  1
