# generated using pymatgen
data_V9Se8
_symmetry_space_group_name_H-M   'P 1'
_cell_length_a   6.76456321
_cell_length_b   6.76836954
_cell_length_c   6.76364870
_cell_angle_alpha   104.47368747
_cell_angle_beta   104.62443710
_cell_angle_gamma   87.97182597
_symmetry_Int_Tables_number   1
_chemical_formula_structural   V9Se8
_chemical_formula_sum   'V9 Se8'
_cell_volume   290.00432201
_cell_formula_units_Z   1
loop_
 _symmetry_equiv_pos_site_id
 _symmetry_equiv_pos_as_xyz
  1  'x, y, z'
loop_
 _atom_site_type_symbol
 _atom_site_label
 _atom_site_symmetry_multiplicity
 _atom_site_fract_x
 _atom_site_fract_y
 _atom_site_fract_z
 _atom_site_occupancy
  V  V0  1  0.502168  0.502866  0.749991  1
  V  V1  1  0.506448  0.502715  0.258255  1
  V  V2  1  0.572423  0.184570  0.453885  1
  V  V3  1  0.578701  0.186541  0.925830  1
  V  V4  1  0.431925  0.815671  0.553164  1
  V  V5  1  0.441206  0.810268  0.072200  1
  V  V6  1  0.801475  0.574770  0.094327  1
  V  V7  1  0.207989  0.426024  0.393085  1
  V  V8  1  0.210304  0.428031  0.923897  1
  Se  Se9  1  0.162675  0.694212  0.714941  1
  Se  Se10  1  0.159316  0.716960  0.217276  1
  Se  Se11  1  0.829250  0.294222  0.280566  1
  Se  Se12  1  0.837820  0.305387  0.779877  1
  Se  Se13  1  0.712883  0.835691  0.882753  1
  Se  Se14  1  0.725149  0.836720  0.400005  1
  Se  Se15  1  0.292657  0.151592  0.108528  1
  Se  Se16  1  0.276912  0.158459  0.609921  1
