# generated using pymatgen
data_Tm4ScIr2Rh
_symmetry_space_group_name_H-M   'P 1'
_cell_length_a   10.64467300
_cell_length_b   10.64467300
_cell_length_c   6.23990700
_cell_angle_alpha   90.00000000
_cell_angle_beta   90.00000000
_cell_angle_gamma   90.00000000
_symmetry_Int_Tables_number   1
_chemical_formula_structural   Tm4ScIr2Rh
_chemical_formula_sum   'Tm16 Sc4 Ir8 Rh4'
_cell_volume   707.03801711
_cell_formula_units_Z   4
loop_
 _symmetry_equiv_pos_site_id
 _symmetry_equiv_pos_as_xyz
  1  'x, y, z'
loop_
 _atom_site_type_symbol
 _atom_site_label
 _atom_site_symmetry_multiplicity
 _atom_site_fract_x
 _atom_site_fract_y
 _atom_site_fract_z
 _atom_site_occupancy
  Tm  Tm0  1  0.287948  0.086466  0.376864  1
  Tm  Tm1  1  0.287948  0.913534  0.876864  1
  Tm  Tm2  1  0.712052  0.086466  0.876864  1
  Tm  Tm3  1  0.712052  0.913534  0.376864  1
  Tm  Tm4  1  0.586466  0.787948  0.876864  1
  Tm  Tm5  1  0.586466  0.212052  0.376864  1
  Tm  Tm6  1  0.413534  0.787948  0.376864  1
  Tm  Tm7  1  0.413534  0.212052  0.876864  1
  Tm  Tm8  1  0.212052  0.413534  0.623136  1
  Tm  Tm9  1  0.212052  0.586466  0.123136  1
  Tm  Tm10  1  0.787948  0.413534  0.123136  1
  Tm  Tm11  1  0.787948  0.586466  0.623136  1
  Tm  Tm12  1  0.913534  0.712052  0.123136  1
  Tm  Tm13  1  0.913534  0.287948  0.623136  1
  Tm  Tm14  1  0.086466  0.712052  0.623136  1
  Tm  Tm15  1  0.086466  0.287948  0.123136  1
  Sc  Sc16  1  0.000000  0.000000  0.500000  1
  Sc  Sc17  1  0.000000  0.000000  0.000000  1
  Sc  Sc18  1  0.500000  0.500000  0.000000  1
  Sc  Sc19  1  0.500000  0.500000  0.500000  1
  Ir  Ir20  1  0.850524  0.149476  0.250000  1
  Ir  Ir21  1  0.850524  0.850524  0.750000  1
  Ir  Ir22  1  0.149476  0.149476  0.750000  1
  Ir  Ir23  1  0.149476  0.850524  0.250000  1
  Ir  Ir24  1  0.649476  0.350524  0.750000  1
  Ir  Ir25  1  0.649476  0.649476  0.250000  1
  Ir  Ir26  1  0.350524  0.350524  0.250000  1
  Ir  Ir27  1  0.350524  0.649476  0.750000  1
  Rh  Rh28  1  0.500000  0.000000  0.123297  1
  Rh  Rh29  1  0.500000  0.000000  0.623297  1
  Rh  Rh30  1  0.000000  0.500000  0.876703  1
  Rh  Rh31  1  0.000000  0.500000  0.376703  1
