# generated using pymatgen
data_Hf3Al2RuN
_symmetry_space_group_name_H-M   'P 1'
_cell_length_a   8.46948237
_cell_length_b   8.46948360
_cell_length_c   8.46948300
_cell_angle_alpha   60.00000624
_cell_angle_beta   60.00000146
_cell_angle_gamma   60.00000575
_symmetry_Int_Tables_number   1
_chemical_formula_structural   Hf3Al2RuN
_chemical_formula_sum   'Hf12 Al8 Ru4 N4'
_cell_volume   429.59156623
_cell_formula_units_Z   4
loop_
 _symmetry_equiv_pos_site_id
 _symmetry_equiv_pos_as_xyz
  1  'x, y, z'
loop_
 _atom_site_type_symbol
 _atom_site_label
 _atom_site_symmetry_multiplicity
 _atom_site_fract_x
 _atom_site_fract_y
 _atom_site_fract_z
 _atom_site_occupancy
  Hf  Hf0  1  0.560115  0.939885  0.560115  1
  Hf  Hf1  1  0.310115  0.689885  0.689885  1
  Hf  Hf2  1  0.689885  0.310115  0.310115  1
  Hf  Hf3  1  0.310115  0.689885  0.310115  1
  Hf  Hf4  1  0.689885  0.689885  0.310115  1
  Hf  Hf5  1  0.310115  0.310115  0.689885  1
  Hf  Hf6  1  0.560115  0.560115  0.939885  1
  Hf  Hf7  1  0.939885  0.560115  0.560115  1
  Hf  Hf8  1  0.560115  0.939885  0.939885  1
  Hf  Hf9  1  0.939885  0.939885  0.560115  1
  Hf  Hf10  1  0.689885  0.310115  0.689885  1
  Hf  Hf11  1  0.939885  0.560115  0.939885  1
  Al  Al12  1  0.918664  0.918664  0.918664  1
  Al  Al13  1  0.005990  0.331336  0.331336  1
  Al  Al14  1  0.331336  0.005990  0.331336  1
  Al  Al15  1  0.331336  0.331336  0.005990  1
  Al  Al16  1  0.918664  0.244010  0.918664  1
  Al  Al17  1  0.918664  0.918664  0.244010  1
  Al  Al18  1  0.244010  0.918664  0.918664  1
  Al  Al19  1  0.331336  0.331336  0.331336  1
  Ru  Ru20  1  0.125000  0.125000  0.125000  1
  Ru  Ru21  1  0.625000  0.125000  0.125000  1
  Ru  Ru22  1  0.125000  0.625000  0.125000  1
  Ru  Ru23  1  0.125000  0.125000  0.625000  1
  N  N24  1  0.625000  0.625000  0.625000  1
  N  N25  1  0.125000  0.625000  0.625000  1
  N  N26  1  0.625000  0.125000  0.625000  1
  N  N27  1  0.625000  0.625000  0.125000  1
