# generated using pymatgen
data_Tb8TiPd13Pt11
_symmetry_space_group_name_H-M   'P 1'
_cell_length_a   8.46977400
_cell_length_b   8.44400700
_cell_length_c   8.47602000
_cell_angle_alpha   90.00000000
_cell_angle_beta   90.00000000
_cell_angle_gamma   90.00000000
_symmetry_Int_Tables_number   1
_chemical_formula_structural   Tb8TiPd13Pt11
_chemical_formula_sum   'Tb8 Ti1 Pd13 Pt11'
_cell_volume   606.19504146
_cell_formula_units_Z   1
loop_
 _symmetry_equiv_pos_site_id
 _symmetry_equiv_pos_as_xyz
  1  'x, y, z'
loop_
 _atom_site_type_symbol
 _atom_site_label
 _atom_site_symmetry_multiplicity
 _atom_site_fract_x
 _atom_site_fract_y
 _atom_site_fract_z
 _atom_site_occupancy
  Tb  Tb0  1  0.250117  0.250673  0.249763  1
  Tb  Tb1  1  0.750377  0.749232  0.749592  1
  Tb  Tb2  1  0.750377  0.749232  0.250408  1
  Tb  Tb3  1  0.749883  0.250673  0.750237  1
  Tb  Tb4  1  0.250117  0.250673  0.750237  1
  Tb  Tb5  1  0.249623  0.749232  0.250408  1
  Tb  Tb6  1  0.249623  0.749232  0.749592  1
  Tb  Tb7  1  0.749883  0.250673  0.249763  1
  Ti  Ti8  1  0.000000  0.000837  0.000000  1
  Pd  Pd9  1  0.500000  0.735597  0.000000  1
  Pd  Pd10  1  0.500000  0.999777  0.264588  1
  Pd  Pd11  1  0.265304  0.999898  0.500000  1
  Pd  Pd12  1  0.500000  0.999777  0.735412  1
  Pd  Pd13  1  0.734696  0.999898  0.500000  1
  Pd  Pd14  1  0.000000  0.499958  0.265103  1
  Pd  Pd15  1  0.000000  0.499958  0.734897  1
  Pd  Pd16  1  0.254735  0.500101  0.500000  1
  Pd  Pd17  1  0.745265  0.500101  0.500000  1
  Pd  Pd18  1  0.500000  0.255327  0.500000  1
  Pd  Pd19  1  0.500000  0.744564  0.500000  1
  Pd  Pd20  1  0.500000  0.500030  0.255008  1
  Pd  Pd21  1  0.500000  0.500030  0.744992  1
  Pt  Pt22  1  0.264491  0.499947  0.000000  1
  Pt  Pt23  1  0.735509  0.499947  0.000000  1
  Pt  Pt24  1  0.000000  0.264230  0.500000  1
  Pt  Pt25  1  0.500000  0.264118  0.000000  1
  Pt  Pt26  1  0.000000  0.735917  0.500000  1
  Pt  Pt27  1  0.300488  0.999898  0.000000  1
  Pt  Pt28  1  0.699512  0.999898  0.000000  1
  Pt  Pt29  1  0.000000  0.301225  0.000000  1
  Pt  Pt30  1  0.000000  0.699231  0.000000  1
  Pt  Pt31  1  0.000000  0.000058  0.300733  1
  Pt  Pt32  1  0.000000  0.000058  0.699267  1
