# generated using pymatgen
data_Tc4Bi3SbF28
_symmetry_space_group_name_H-M   'P 1'
_cell_length_a   5.72635532
_cell_length_b   9.19775774
_cell_length_c   12.27640800
_cell_angle_alpha   61.86463038
_cell_angle_beta   89.92962040
_cell_angle_gamma   90.01878947
_symmetry_Int_Tables_number   1
_chemical_formula_structural   Tc4Bi3SbF28
_chemical_formula_sum   'Tc4 Bi3 Sb1 F28'
_cell_volume   570.18896396
_cell_formula_units_Z   1
loop_
 _symmetry_equiv_pos_site_id
 _symmetry_equiv_pos_as_xyz
  1  'x, y, z'
loop_
 _atom_site_type_symbol
 _atom_site_label
 _atom_site_symmetry_multiplicity
 _atom_site_fract_x
 _atom_site_fract_y
 _atom_site_fract_z
 _atom_site_occupancy
  Tc  Tc0  1  0.743803  0.271959  0.459067  1
  Tc  Tc1  1  0.240526  0.726920  0.040674  1
  Tc  Tc2  1  0.259194  0.727862  0.543747  1
  Tc  Tc3  1  0.758144  0.273037  0.957672  1
  Bi  Bi4  1  0.738893  0.816133  0.260592  1
  Bi  Bi5  1  0.238734  0.184190  0.237490  1
  Bi  Bi6  1  0.259565  0.190092  0.738674  1
  Sb  Sb7  1  0.768413  0.830352  0.755063  1
  F  F8  1  0.438454  0.708135  0.919930  1
  F  F9  1  0.941475  0.291756  0.581976  1
  F  F10  1  0.557869  0.290600  0.079903  1
  F  F11  1  0.056819  0.708323  0.422190  1
  F  F12  1  0.457515  0.279835  0.546181  1
  F  F13  1  0.956025  0.722160  0.951458  1
  F  F14  1  0.542247  0.717468  0.455223  1
  F  F15  1  0.044336  0.281213  0.044096  1
  F  F16  1  0.766225  0.508161  0.859113  1
  F  F17  1  0.268399  0.485829  0.642844  1
  F  F18  1  0.229767  0.487152  0.140702  1
  F  F19  1  0.732180  0.509457  0.360545  1
  F  F20  1  0.761172  0.027665  0.054779  1
  F  F21  1  0.260935  0.970885  0.446258  1
  F  F22  1  0.241427  0.971450  0.943133  1
  F  F23  1  0.742948  0.024806  0.558570  1
  F  F24  1  0.984357  0.736153  0.637027  1
  F  F25  1  0.480581  0.264550  0.864649  1
  F  F26  1  0.021933  0.265208  0.368296  1
  F  F27  1  0.516811  0.732495  0.135076  1
  F  F28  1  0.045680  0.746278  0.167620  1
  F  F29  1  0.551369  0.250275  0.334517  1
  F  F30  1  0.952080  0.252954  0.830386  1
  F  F31  1  0.455818  0.749864  0.666534  1
  F  F32  1  0.407508  0.970502  0.228264  1
  F  F33  1  0.908162  0.030944  0.270618  1
  F  F34  1  0.598479  0.023101  0.768592  1
  F  F35  1  0.072154  0.972236  0.728541  1
