# generated using pymatgen
data_K4Li2ErGaAs4
_symmetry_space_group_name_H-M   'P 1'
_cell_length_a   8.98477937
_cell_length_b   8.98477943
_cell_length_c   8.98477845
_cell_angle_alpha   137.14391842
_cell_angle_beta   61.97888289
_cell_angle_gamma   137.45381038
_symmetry_Int_Tables_number   1
_chemical_formula_structural   K4Li2ErGaAs4
_chemical_formula_sum   'K4 Li2 Er1 Ga1 As4'
_cell_volume   329.66111665
_cell_formula_units_Z   1
loop_
 _symmetry_equiv_pos_site_id
 _symmetry_equiv_pos_as_xyz
  1  'x, y, z'
loop_
 _atom_site_type_symbol
 _atom_site_label
 _atom_site_symmetry_multiplicity
 _atom_site_fract_x
 _atom_site_fract_y
 _atom_site_fract_z
 _atom_site_occupancy
  K  K0  1  0.334715  0.784662  0.098826  1
  K  K1  1  0.165285  0.264111  0.449948  1
  K  K2  1  0.814164  0.715340  0.550052  1
  K  K3  1  0.685836  0.235890  0.901174  1
  Li  Li4  1  0.750000  0.250000  0.500000  1
  Li  Li5  1  0.250000  0.750001  0.500001  1
  Er  Er6  1  0.250000  0.250000  0.000000  1
  Ga  Ga7  1  0.749999  0.749999  0.000000  1
  As  As8  1  0.889613  0.221235  0.141317  1
  As  As9  1  0.610387  0.751705  0.331622  1
  As  As10  1  0.420082  0.278766  0.668379  1
  As  As11  1  0.079918  0.748296  0.858683  1
