# generated using pymatgen
data_Nd4Ga24CuNi
_symmetry_space_group_name_H-M   'P 1'
_cell_length_a   6.15925300
_cell_length_b   6.15925300
_cell_length_c   15.41599800
_cell_angle_alpha   90.00000000
_cell_angle_beta   90.00000000
_cell_angle_gamma   90.00000000
_symmetry_Int_Tables_number   1
_chemical_formula_structural   Nd4Ga24CuNi
_chemical_formula_sum   'Nd4 Ga24 Cu1 Ni1'
_cell_volume   584.82742826
_cell_formula_units_Z   1
loop_
 _symmetry_equiv_pos_site_id
 _symmetry_equiv_pos_as_xyz
  1  'x, y, z'
loop_
 _atom_site_type_symbol
 _atom_site_label
 _atom_site_symmetry_multiplicity
 _atom_site_fract_x
 _atom_site_fract_y
 _atom_site_fract_z
 _atom_site_occupancy
  Nd  Nd0  1  0.500000  0.000000  0.243775  1
  Nd  Nd1  1  0.500000  0.000000  0.756225  1
  Nd  Nd2  1  0.000000  0.500000  0.753728  1
  Nd  Nd3  1  0.000000  0.500000  0.246272  1
  Ga  Ga4  1  0.330203  0.830203  0.430343  1
  Ga  Ga5  1  0.669797  0.169797  0.430343  1
  Ga  Ga6  1  0.330203  0.169797  0.569657  1
  Ga  Ga7  1  0.669797  0.830203  0.569657  1
  Ga  Ga8  1  0.170428  0.670428  0.569324  1
  Ga  Ga9  1  0.829572  0.329572  0.569324  1
  Ga  Ga10  1  0.829572  0.670428  0.430676  1
  Ga  Ga11  1  0.170428  0.329572  0.430676  1
  Ga  Ga12  1  0.245743  0.745743  0.916248  1
  Ga  Ga13  1  0.754257  0.254257  0.916248  1
  Ga  Ga14  1  0.245743  0.254257  0.083752  1
  Ga  Ga15  1  0.754257  0.745743  0.083752  1
  Ga  Ga16  1  0.245251  0.745251  0.083861  1
  Ga  Ga17  1  0.754749  0.254749  0.083861  1
  Ga  Ga18  1  0.754749  0.745251  0.916139  1
  Ga  Ga19  1  0.245251  0.254749  0.916139  1
  Ga  Ga20  1  0.500000  0.500000  0.342265  1
  Ga  Ga21  1  0.500000  0.500000  0.657735  1
  Ga  Ga22  1  0.000000  0.000000  0.657735  1
  Ga  Ga23  1  0.000000  0.000000  0.342265  1
  Ga  Ga24  1  0.500000  0.500000  0.181591  1
  Ga  Ga25  1  0.500000  0.500000  0.818409  1
  Ga  Ga26  1  0.000000  0.000000  0.818409  1
  Ga  Ga27  1  0.000000  0.000000  0.181591  1
  Cu  Cu28  1  0.500000  0.000000  0.000000  1
  Ni  Ni29  1  0.000000  0.500000  0.000000  1
