# generated using pymatgen
data_PBrO4
_symmetry_space_group_name_H-M   'P 1'
_cell_length_a   4.90771190
_cell_length_b   4.90771190
_cell_length_c   8.03032221
_cell_angle_alpha   84.36109213
_cell_angle_beta   84.36108837
_cell_angle_gamma   74.34931013
_symmetry_Int_Tables_number   1
_chemical_formula_structural   PBrO4
_chemical_formula_sum   'P2 Br2 O8'
_cell_volume   184.82285683
_cell_formula_units_Z   2
loop_
 _symmetry_equiv_pos_site_id
 _symmetry_equiv_pos_as_xyz
  1  'x, y, z'
loop_
 _atom_site_type_symbol
 _atom_site_label
 _atom_site_symmetry_multiplicity
 _atom_site_fract_x
 _atom_site_fract_y
 _atom_site_fract_z
 _atom_site_occupancy
  P  P0  1  0.069922  0.930078  0.750000  1
  P  P1  1  0.930078  0.069922  0.250000  1
  Br  Br2  1  0.000000  0.500000  0.500000  1
  Br  Br3  1  0.500000  0.000000  0.000000  1
  O  O4  1  0.244669  0.801222  0.905789  1
  O  O5  1  0.198778  0.755331  0.594211  1
  O  O6  1  0.755331  0.198778  0.094211  1
  O  O7  1  0.801222  0.244669  0.405789  1
  O  O8  1  0.761374  0.902782  0.786832  1
  O  O9  1  0.097218  0.238626  0.713168  1
  O  O10  1  0.238626  0.097218  0.213168  1
  O  O11  1  0.902782  0.761374  0.286832  1
