# generated using pymatgen
data_La2TlSi2
_symmetry_space_group_name_H-M   'P 1'
_cell_length_a   4.37551600
_cell_length_b   7.89899000
_cell_length_c   15.06139600
_cell_angle_alpha   90.00000000
_cell_angle_beta   90.00000000
_cell_angle_gamma   90.00000000
_symmetry_Int_Tables_number   1
_chemical_formula_structural   La2TlSi2
_chemical_formula_sum   'La8 Tl4 Si8'
_cell_volume   520.55433513
_cell_formula_units_Z   4
loop_
 _symmetry_equiv_pos_site_id
 _symmetry_equiv_pos_as_xyz
  1  'x, y, z'
loop_
 _atom_site_type_symbol
 _atom_site_label
 _atom_site_symmetry_multiplicity
 _atom_site_fract_x
 _atom_site_fract_y
 _atom_site_fract_z
 _atom_site_occupancy
  La  La0  1  0.500000  0.756482  0.035095  1
  La  La1  1  0.500000  0.243518  0.964905  1
  La  La2  1  0.500000  0.256482  0.464905  1
  La  La3  1  0.500000  0.743518  0.535095  1
  La  La4  1  0.500000  0.613406  0.283225  1
  La  La5  1  0.500000  0.386594  0.716775  1
  La  La6  1  0.500000  0.113406  0.216775  1
  La  La7  1  0.500000  0.886594  0.783225  1
  Tl  Tl8  1  0.000000  0.938604  0.378874  1
  Tl  Tl9  1  0.000000  0.061396  0.621126  1
  Tl  Tl10  1  0.000000  0.438604  0.121126  1
  Tl  Tl11  1  0.000000  0.561396  0.878874  1
  Si  Si12  1  0.000000  0.548581  0.424513  1
  Si  Si13  1  0.000000  0.451419  0.575487  1
  Si  Si14  1  0.000000  0.048581  0.075487  1
  Si  Si15  1  0.000000  0.951419  0.924513  1
  Si  Si16  1  0.000000  0.827450  0.183524  1
  Si  Si17  1  0.000000  0.172550  0.816476  1
  Si  Si18  1  0.000000  0.327450  0.316476  1
  Si  Si19  1  0.000000  0.672550  0.683524  1
