# generated using pymatgen
data_HoBi3Te10
_symmetry_space_group_name_H-M   'P 1'
_cell_length_a   23.85678747
_cell_length_b   23.85678688
_cell_length_c   3.17953900
_cell_angle_alpha   90.00000000
_cell_angle_beta   90.00000000
_cell_angle_gamma   166.31540021
_symmetry_Int_Tables_number   1
_chemical_formula_structural   HoBi3Te10
_chemical_formula_sum   'Ho1 Bi3 Te10'
_cell_volume   428.11514303
_cell_formula_units_Z   1
loop_
 _symmetry_equiv_pos_site_id
 _symmetry_equiv_pos_as_xyz
  1  'x, y, z'
loop_
 _atom_site_type_symbol
 _atom_site_label
 _atom_site_symmetry_multiplicity
 _atom_site_fract_x
 _atom_site_fract_y
 _atom_site_fract_z
 _atom_site_occupancy
  Ho  Ho0  1  0.104388  0.895612  0.750000  1
  Bi  Bi1  1  0.682255  0.317745  0.250000  1
  Bi  Bi2  1  0.319709  0.680291  0.750000  1
  Bi  Bi3  1  0.887337  0.112663  0.250000  1
  Te  Te4  1  0.618170  0.381830  0.250000  1
  Te  Te5  1  0.385730  0.614270  0.750000  1
  Te  Te6  1  0.821413  0.178587  0.250000  1
  Te  Te7  1  0.173326  0.826674  0.750000  1
  Te  Te8  1  0.955939  0.044061  0.750000  1
  Te  Te9  1  0.046302  0.953698  0.250000  1
  Te  Te10  1  0.544907  0.455093  0.750000  1
  Te  Te11  1  0.460068  0.539932  0.250000  1
  Te  Te12  1  0.748335  0.251665  0.750000  1
  Te  Te13  1  0.252119  0.747881  0.250000  1
