# generated using pymatgen
data_Ca20Pd3Pt
_symmetry_space_group_name_H-M   'P 1'
_cell_length_a   6.87435000
_cell_length_b   7.58226541
_cell_length_c   16.22610200
_cell_angle_alpha   90.00000000
_cell_angle_beta   90.00000000
_cell_angle_gamma   90.18935241
_symmetry_Int_Tables_number   1
_chemical_formula_structural   Ca20Pd3Pt
_chemical_formula_sum   'Ca20 Pd3 Pt1'
_cell_volume   845.75086811
_cell_formula_units_Z   1
loop_
 _symmetry_equiv_pos_site_id
 _symmetry_equiv_pos_as_xyz
  1  'x, y, z'
loop_
 _atom_site_type_symbol
 _atom_site_label
 _atom_site_symmetry_multiplicity
 _atom_site_fract_x
 _atom_site_fract_y
 _atom_site_fract_z
 _atom_site_occupancy
  Ca  Ca0  1  0.351686  0.312140  0.064284  1
  Ca  Ca1  1  0.651170  0.687387  0.940330  1
  Ca  Ca2  1  0.849629  0.186811  0.940006  1
  Ca  Ca3  1  0.651170  0.687387  0.559670  1
  Ca  Ca4  1  0.148405  0.811838  0.061577  1
  Ca  Ca5  1  0.351686  0.312140  0.435716  1
  Ca  Ca6  1  0.148405  0.811838  0.438423  1
  Ca  Ca7  1  0.849629  0.186811  0.559994  1
  Ca  Ca8  1  0.156027  0.096860  0.250000  1
  Ca  Ca9  1  0.847108  0.902058  0.750000  1
  Ca  Ca10  1  0.653582  0.402684  0.750000  1
  Ca  Ca11  1  0.348632  0.597206  0.250000  1
  Ca  Ca12  1  0.327886  0.039173  0.640970  1
  Ca  Ca13  1  0.672072  0.964774  0.356729  1
  Ca  Ca14  1  0.824744  0.458754  0.356642  1
  Ca  Ca15  1  0.672072  0.964774  0.143271  1
  Ca  Ca16  1  0.172397  0.538746  0.640953  1
  Ca  Ca17  1  0.327886  0.039173  0.859030  1
  Ca  Ca18  1  0.172397  0.538746  0.859047  1
  Ca  Ca19  1  0.824744  0.458754  0.143358  1
  Pd  Pd20  1  0.456143  0.740728  0.750000  1
  Pd  Pd21  1  0.043615  0.240735  0.750000  1
  Pd  Pd22  1  0.959580  0.759275  0.250000  1
  Pt  Pt23  1  0.539334  0.261207  0.250000  1
