# generated using pymatgen
data_Tm12Ga2Tc3
_symmetry_space_group_name_H-M   'P 1'
_cell_length_a   8.25365132
_cell_length_b   8.25365086
_cell_length_c   8.25365146
_cell_angle_alpha   109.35261683
_cell_angle_beta   109.35261442
_cell_angle_gamma   109.70869507
_symmetry_Int_Tables_number   1
_chemical_formula_structural   Tm12Ga2Tc3
_chemical_formula_sum   'Tm12 Ga2 Tc3'
_cell_volume   432.82349857
_cell_formula_units_Z   1
loop_
 _symmetry_equiv_pos_site_id
 _symmetry_equiv_pos_as_xyz
  1  'x, y, z'
loop_
 _atom_site_type_symbol
 _atom_site_label
 _atom_site_symmetry_multiplicity
 _atom_site_fract_x
 _atom_site_fract_y
 _atom_site_fract_z
 _atom_site_occupancy
  Tm  Tm0  1  0.187403  0.432509  0.245106  1
  Tm  Tm1  1  0.812597  0.567491  0.754894  1
  Tm  Tm2  1  0.187403  0.942298  0.754894  1
  Tm  Tm3  1  0.942298  0.187403  0.754894  1
  Tm  Tm4  1  0.812597  0.057702  0.245106  1
  Tm  Tm5  1  0.057702  0.812597  0.245106  1
  Tm  Tm6  1  0.432509  0.187403  0.245106  1
  Tm  Tm7  1  0.567491  0.812597  0.754894  1
  Tm  Tm8  1  0.306124  0.306124  0.612248  1
  Tm  Tm9  1  0.693876  0.693876  0.387752  1
  Tm  Tm10  1  0.693876  0.306124  0.000000  1
  Tm  Tm11  1  0.306124  0.693876  0.000000  1
  Ga  Ga12  1  0.000000  0.500000  0.500000  1
  Ga  Ga13  1  0.500000  0.000000  0.500000  1
  Tc  Tc14  1  0.366820  0.366820  0.000000  1
  Tc  Tc15  1  0.633180  0.633180  0.000000  1
  Tc  Tc16  1  0.000000  0.000000  0.000000  1
