# generated using pymatgen
data_Pr8Ho12Ga11Si4Ge
_symmetry_space_group_name_H-M   'P 1'
_cell_length_a   7.59986656
_cell_length_b   8.01357925
_cell_length_c   15.20991300
_cell_angle_alpha   89.95768727
_cell_angle_beta   90.06931405
_cell_angle_gamma   90.22915383
_symmetry_Int_Tables_number   1
_chemical_formula_structural   Pr8Ho12Ga11Si4Ge
_chemical_formula_sum   'Pr8 Ho12 Ga11 Si4 Ge1'
_cell_volume   926.30780822
_cell_formula_units_Z   1
loop_
 _symmetry_equiv_pos_site_id
 _symmetry_equiv_pos_as_xyz
  1  'x, y, z'
loop_
 _atom_site_type_symbol
 _atom_site_label
 _atom_site_symmetry_multiplicity
 _atom_site_fract_x
 _atom_site_fract_y
 _atom_site_fract_z
 _atom_site_occupancy
  Pr  Pr0  1  0.017110  0.180681  0.405231  1
  Pr  Pr1  1  0.517531  0.322917  0.406439  1
  Pr  Pr2  1  0.485125  0.679815  0.905579  1
  Pr  Pr3  1  0.485060  0.682548  0.594330  1
  Pr  Pr4  1  0.983185  0.814479  0.594423  1
  Pr  Pr5  1  0.981536  0.822004  0.905392  1
  Pr  Pr6  1  0.514530  0.319505  0.094995  1
  Pr  Pr7  1  0.015247  0.182317  0.095192  1
  Ho  Ho8  1  0.327727  0.174458  0.621325  1
  Ho  Ho9  1  0.674642  0.821547  0.378757  1
  Ho  Ho10  1  0.665107  0.982550  0.751940  1
  Ho  Ho11  1  0.174548  0.674758  0.377172  1
  Ho  Ho12  1  0.822242  0.324583  0.877864  1
  Ho  Ho13  1  0.824250  0.328650  0.622042  1
  Ho  Ho14  1  0.838950  0.486638  0.250864  1
  Ho  Ho15  1  0.336344  0.016702  0.250133  1
  Ho  Ho16  1  0.328130  0.176382  0.876842  1
  Ho  Ho17  1  0.174770  0.671754  0.123317  1
  Ho  Ho18  1  0.673183  0.825120  0.121925  1
  Ho  Ho19  1  0.159670  0.512782  0.750931  1
  Ga  Ga20  1  0.274612  0.878721  0.749182  1
  Ga  Ga21  1  0.468472  0.608047  0.251321  1
  Ga  Ga22  1  0.031739  0.115025  0.748098  1
  Ga  Ga23  1  0.531030  0.393270  0.748983  1
  Ga  Ga24  1  0.154122  0.468068  0.540043  1
  Ga  Ga25  1  0.967912  0.885580  0.250037  1
  Ga  Ga26  1  0.724598  0.121465  0.251424  1
  Ga  Ga27  1  0.844802  0.531447  0.041163  1
  Ga  Ga28  1  0.344555  0.966337  0.040199  1
  Ga  Ga29  1  0.153677  0.468456  0.957901  1
  Ga  Ga30  1  0.659207  0.034192  0.540689  1
  Si  Si31  1  0.850684  0.530450  0.457740  1
  Si  Si32  1  0.776033  0.617737  0.749424  1
  Si  Si33  1  0.224510  0.381842  0.251473  1
  Si  Si34  1  0.651241  0.032662  0.959468  1
  Ge  Ge35  1  0.343916  0.966511  0.458163  1
