# generated using pymatgen
data_ErTh2SnRh3Pb2
_symmetry_space_group_name_H-M   'P 1'
_cell_length_a   7.69891558
_cell_length_b   7.64815107
_cell_length_c   4.05630000
_cell_angle_alpha   90.00000000
_cell_angle_beta   90.00000000
_cell_angle_gamma   120.29874035
_symmetry_Int_Tables_number   1
_chemical_formula_structural   ErTh2SnRh3Pb2
_chemical_formula_sum   'Er1 Th2 Sn1 Rh3 Pb2'
_cell_volume   206.22032557
_cell_formula_units_Z   1
loop_
 _symmetry_equiv_pos_site_id
 _symmetry_equiv_pos_as_xyz
  1  'x, y, z'
loop_
 _atom_site_type_symbol
 _atom_site_label
 _atom_site_symmetry_multiplicity
 _atom_site_fract_x
 _atom_site_fract_y
 _atom_site_fract_z
 _atom_site_occupancy
  Er  Er0  1  0.399832  0.407285  0.500000  1
  Th  Th1  1  0.592412  0.004160  0.500000  1
  Th  Th2  1  0.000881  0.585625  0.500000  1
  Sn  Sn3  1  0.010691  0.256361  0.000000  1
  Rh  Rh4  1  0.684768  0.328418  0.000000  1
  Rh  Rh5  1  0.326180  0.667430  0.000000  1
  Rh  Rh6  1  0.993837  0.006065  0.500000  1
  Pb  Pb7  1  0.733287  0.732587  0.000000  1
  Pb  Pb8  1  0.258113  0.012069  0.000000  1
