# generated using pymatgen
data_Hf16Ir7AuO4
_symmetry_space_group_name_H-M   'P 1'
_cell_length_a   8.79137699
_cell_length_b   8.76273228
_cell_length_c   8.76273200
_cell_angle_alpha   60.00000105
_cell_angle_beta   60.10772545
_cell_angle_gamma   60.10772694
_symmetry_Int_Tables_number   1
_chemical_formula_structural   Hf16Ir7AuO4
_chemical_formula_sum   'Hf16 Ir7 Au1 O4'
_cell_volume   478.10822983
_cell_formula_units_Z   1
loop_
 _symmetry_equiv_pos_site_id
 _symmetry_equiv_pos_as_xyz
  1  'x, y, z'
loop_
 _atom_site_type_symbol
 _atom_site_label
 _atom_site_symmetry_multiplicity
 _atom_site_fract_x
 _atom_site_fract_y
 _atom_site_fract_z
 _atom_site_occupancy
  Hf  Hf0  1  0.127637  0.624121  0.624121  1
  Hf  Hf1  1  0.623416  0.113883  0.631350  1
  Hf  Hf2  1  0.623416  0.631350  0.113883  1
  Hf  Hf3  1  0.623416  0.631350  0.631350  1
  Hf  Hf4  1  0.815669  0.817027  0.183652  1
  Hf  Hf5  1  0.184399  0.185658  0.814971  1
  Hf  Hf6  1  0.815669  0.183652  0.817027  1
  Hf  Hf7  1  0.184399  0.814971  0.185658  1
  Hf  Hf8  1  0.184399  0.814971  0.814971  1
  Hf  Hf9  1  0.815669  0.183652  0.183652  1
  Hf  Hf10  1  0.435084  0.434706  0.065105  1
  Hf  Hf11  1  0.069774  0.056898  0.436664  1
  Hf  Hf12  1  0.435084  0.065105  0.434706  1
  Hf  Hf13  1  0.069774  0.436664  0.056898  1
  Hf  Hf14  1  0.069774  0.436664  0.436664  1
  Hf  Hf15  1  0.435084  0.065105  0.065105  1
  Ir  Ir16  1  0.405018  0.786739  0.404121  1
  Ir  Ir17  1  0.405018  0.404121  0.786739  1
  Ir  Ir18  1  0.405018  0.404121  0.404121  1
  Ir  Ir19  1  0.456577  0.847808  0.847808  1
  Ir  Ir20  1  0.849582  0.461381  0.844519  1
  Ir  Ir21  1  0.849582  0.844519  0.461381  1
  Ir  Ir22  1  0.849582  0.844519  0.844519  1
  Au  Au23  1  0.770710  0.409763  0.409763  1
  O  O24  1  0.624013  0.125329  0.125329  1
  O  O25  1  0.124078  0.623995  0.125963  1
  O  O26  1  0.124078  0.125963  0.623995  1
  O  O27  1  0.124078  0.125963  0.125963  1
