# generated using pymatgen
data_Pr4Mg(Ga2Pt)5
_symmetry_space_group_name_H-M   'P 1'
_cell_length_a   8.76763088
_cell_length_b   8.76763111
_cell_length_c   8.76762983
_cell_angle_alpha   139.93235650
_cell_angle_beta   106.60763019
_cell_angle_gamma   87.07084861
_symmetry_Int_Tables_number   1
_chemical_formula_structural   Pr4Mg(Ga2Pt)5
_chemical_formula_sum   'Pr4 Mg1 Ga10 Pt5'
_cell_volume   400.09159048
_cell_formula_units_Z   1
loop_
 _symmetry_equiv_pos_site_id
 _symmetry_equiv_pos_as_xyz
  1  'x, y, z'
loop_
 _atom_site_type_symbol
 _atom_site_label
 _atom_site_symmetry_multiplicity
 _atom_site_fract_x
 _atom_site_fract_y
 _atom_site_fract_z
 _atom_site_occupancy
  Pr  Pr0  1  0.862085  0.636032  0.232224  1
  Pr  Pr1  1  0.137915  0.370141  0.773948  1
  Pr  Pr2  1  0.403808  0.129859  0.267776  1
  Pr  Pr3  1  0.596192  0.863968  0.726052  1
  Mg  Mg4  1  0.000000  0.750000  0.750000  1
  Ga  Ga5  1  0.500000  0.750000  0.250000  1
  Ga  Ga6  1  0.500000  0.250000  0.750000  1
  Ga  Ga7  1  0.223906  0.973906  0.750000  1
  Ga  Ga8  1  0.776094  0.526094  0.750000  1
  Ga  Ga9  1  0.780545  0.030545  0.250000  1
  Ga  Ga10  1  0.219455  0.469455  0.250000  1
  Ga  Ga11  1  0.050360  0.899034  0.168643  1
  Ga  Ga12  1  0.949640  0.118283  0.848674  1
  Ga  Ga13  1  0.730391  0.381717  0.331357  1
  Ga  Ga14  1  0.269609  0.600966  0.651326  1
  Pt  Pt15  1  0.000000  0.250000  0.250000  1
  Pt  Pt16  1  0.257022  0.859892  0.393254  1
  Pt  Pt17  1  0.742978  0.136230  0.602868  1
  Pt  Pt18  1  0.466638  0.363770  0.106746  1
  Pt  Pt19  1  0.533362  0.640108  0.897132  1
