# generated using pymatgen
data_Tb(MnAl5)2
_symmetry_space_group_name_H-M   'P 1'
_cell_length_a   6.80393426
_cell_length_b   6.80401244
_cell_length_c   9.02900700
_cell_angle_alpha   90.00000000
_cell_angle_beta   90.00000000
_cell_angle_gamma   97.54164414
_symmetry_Int_Tables_number   1
_chemical_formula_structural   Tb(MnAl5)2
_chemical_formula_sum   'Tb2 Mn4 Al20'
_cell_volume   414.37361119
_cell_formula_units_Z   2
loop_
 _symmetry_equiv_pos_site_id
 _symmetry_equiv_pos_as_xyz
  1  'x, y, z'
loop_
 _atom_site_type_symbol
 _atom_site_label
 _atom_site_symmetry_multiplicity
 _atom_site_fract_x
 _atom_site_fract_y
 _atom_site_fract_z
 _atom_site_occupancy
  Tb  Tb0  1  0.874245  0.125759  0.750000  1
  Tb  Tb1  1  0.125755  0.874241  0.250000  1
  Mn  Mn2  1  0.000000  0.500000  0.500000  1
  Mn  Mn3  1  0.000000  0.500000  0.000000  1
  Mn  Mn4  1  0.500000  0.000000  0.000000  1
  Mn  Mn5  1  0.500000  0.000000  0.500000  1
  Al  Al6  1  0.625684  0.374332  0.544232  1
  Al  Al7  1  0.374316  0.625668  0.455768  1
  Al  Al8  1  0.374316  0.625668  0.044232  1
  Al  Al9  1  0.625684  0.374332  0.955768  1
  Al  Al10  1  0.228359  0.228379  0.500003  1
  Al  Al11  1  0.771641  0.771621  0.499997  1
  Al  Al12  1  0.771641  0.771621  0.000003  1
  Al  Al13  1  0.228359  0.228379  0.999997  1
  Al  Al14  1  0.843288  0.156725  0.095529  1
  Al  Al15  1  0.156712  0.843275  0.904471  1
  Al  Al16  1  0.156712  0.843275  0.595529  1
  Al  Al17  1  0.843288  0.156725  0.404471  1
  Al  Al18  1  0.868475  0.589388  0.750000  1
  Al  Al19  1  0.131525  0.410612  0.250000  1
  Al  Al20  1  0.410604  0.131537  0.750000  1
  Al  Al21  1  0.589396  0.868463  0.250000  1
  Al  Al22  1  0.217389  0.473923  0.750000  1
  Al  Al23  1  0.782611  0.526077  0.250000  1
  Al  Al24  1  0.526074  0.782603  0.750000  1
  Al  Al25  1  0.473926  0.217397  0.250000  1
