# generated using pymatgen
data_Y12Al11V8FeO48
_symmetry_space_group_name_H-M   'P 1'
_cell_length_a   10.71608709
_cell_length_b   10.71608781
_cell_length_c   10.71608700
_cell_angle_alpha   109.17361404
_cell_angle_beta   109.62022764
_cell_angle_gamma   109.62023008
_symmetry_Int_Tables_number   1
_chemical_formula_structural   Y12Al11V8FeO48
_chemical_formula_sum   'Y12 Al11 V8 Fe1 O48'
_cell_volume   947.27931183
_cell_formula_units_Z   1
loop_
 _symmetry_equiv_pos_site_id
 _symmetry_equiv_pos_as_xyz
  1  'x, y, z'
loop_
 _atom_site_type_symbol
 _atom_site_label
 _atom_site_symmetry_multiplicity
 _atom_site_fract_x
 _atom_site_fract_y
 _atom_site_fract_z
 _atom_site_occupancy
  Y  Y0  1  0.250000  0.372523  0.122523  1
  Y  Y1  1  0.750000  0.625459  0.875459  1
  Y  Y2  1  0.750000  0.124541  0.374541  1
  Y  Y3  1  0.124800  0.247804  0.373799  1
  Y  Y4  1  0.375200  0.748999  0.123004  1
  Y  Y5  1  0.250000  0.877477  0.627477  1
  Y  Y6  1  0.874070  0.750118  0.624988  1
  Y  Y7  1  0.625930  0.250918  0.876049  1
  Y  Y8  1  0.374869  0.123951  0.249882  1
  Y  Y9  1  0.625995  0.876996  0.752196  1
  Y  Y10  1  0.125131  0.375012  0.749082  1
  Y  Y11  1  0.874005  0.626201  0.251001  1
  Al  Al12  1  0.750000  0.375000  0.625000  1
  Al  Al13  1  0.750000  0.875000  0.125000  1
  Al  Al14  1  0.375835  0.251082  0.626500  1
  Al  Al15  1  0.624606  0.750058  0.374744  1
  Al  Al16  1  0.250000  0.125000  0.875000  1
  Al  Al17  1  0.124165  0.750665  0.875247  1
  Al  Al18  1  0.875394  0.250139  0.125452  1
  Al  Al19  1  0.624583  0.373500  0.249335  1
  Al  Al20  1  0.375314  0.625256  0.749861  1
  Al  Al21  1  0.875417  0.124753  0.748918  1
  Al  Al22  1  0.124686  0.874548  0.249942  1
  V  V23  1  0.999230  0.999608  0.999359  1
  V  V24  1  0.501819  0.003010  0.501872  1
  V  V25  1  0.998181  0.500052  0.501190  1
  V  V26  1  0.499750  0.999621  0.000392  1
  V  V27  1  0.500770  0.500129  0.000379  1
  V  V28  1  0.501138  0.498128  0.499948  1
  V  V29  1  0.000250  0.000641  0.499871  1
  V  V30  1  0.998862  0.498810  0.996990  1
  Fe  Fe31  1  0.250000  0.625000  0.375000  1
  O  O32  1  0.476822  0.374640  0.291082  1
  O  O33  1  0.522619  0.623353  0.707131  1
  O  O34  1  0.585468  0.184104  0.208089  1
  O  O35  1  0.914532  0.122620  0.598635  1
  O  O36  1  0.288267  0.463784  0.371125  1
  O  O37  1  0.314735  0.914024  0.292918  1
  O  O38  1  0.414960  0.815111  0.793772  1
  O  O39  1  0.085040  0.878813  0.400151  1
  O  O40  1  0.711133  0.524735  0.624793  1
  O  O41  1  0.687021  0.087495  0.709779  1
  O  O42  1  0.023178  0.314260  0.897818  1
  O  O43  1  0.211733  0.582858  0.175517  1
  O  O44  1  0.123337  0.022632  0.207475  1
  O  O45  1  0.977381  0.684512  0.100734  1
  O  O46  1  0.788867  0.413660  0.813602  1
  O  O47  1  0.875979  0.975956  0.790518  1
  O  O48  1  0.599599  0.912928  0.124397  1
  O  O49  1  0.185265  0.478183  0.599288  1
  O  O50  1  0.400393  0.086699  0.876802  1
  O  O51  1  0.812979  0.522758  0.400474  1
  O  O52  1  0.900401  0.024798  0.313330  1
  O  O53  1  0.376663  0.584138  0.899295  1
  O  O54  1  0.099607  0.976409  0.686305  1
  O  O55  1  0.624021  0.414538  0.099977  1
  O  O56  1  0.377716  0.290221  0.477242  1
  O  O57  1  0.583779  0.899266  0.376647  1
  O  O58  1  0.621105  0.707082  0.521817  1
  O  O59  1  0.416442  0.102182  0.625360  1
  O  O60  1  0.122284  0.599526  0.912505  1
  O  O61  1  0.021339  0.206228  0.121187  1
  O  O62  1  0.878895  0.400712  0.085976  1
  O  O63  1  0.976015  0.791911  0.877380  1
  O  O64  1  0.314561  0.900023  0.024044  1
  O  O65  1  0.916221  0.292869  0.315488  1
  O  O66  1  0.684843  0.100705  0.977368  1
  O  O67  1  0.083558  0.708918  0.685740  1
  O  O68  1  0.185439  0.209482  0.585462  1
  O  O69  1  0.478661  0.599849  0.184889  1
  O  O70  1  0.815157  0.792525  0.415862  1
  O  O71  1  0.523985  0.401365  0.815896  1
  O  O72  1  0.290104  0.313695  0.913301  1
  O  O73  1  0.711470  0.686670  0.087072  1
  O  O74  1  0.209896  0.123198  0.023591  1
  O  O75  1  0.788530  0.875603  0.975202  1
  O  O76  1  0.899942  0.375207  0.586340  1
  O  O77  1  0.092659  0.628875  0.417142  1
  O  O78  1  0.600058  0.186398  0.475265  1
  O  O79  1  0.407341  0.824483  0.536216  1
