# generated using pymatgen
data_Tb15Tm(InRh)4
_symmetry_space_group_name_H-M   'P 1'
_cell_length_a   9.69566820
_cell_length_b   9.69566832
_cell_length_c   9.68592400
_cell_angle_alpha   60.03324015
_cell_angle_beta   60.03323976
_cell_angle_gamma   59.95764065
_symmetry_Int_Tables_number   1
_chemical_formula_structural   Tb15Tm(InRh)4
_chemical_formula_sum   'Tb15 Tm1 In4 Rh4'
_cell_volume   643.96195099
_cell_formula_units_Z   1
loop_
 _symmetry_equiv_pos_site_id
 _symmetry_equiv_pos_as_xyz
  1  'x, y, z'
loop_
 _atom_site_type_symbol
 _atom_site_label
 _atom_site_symmetry_multiplicity
 _atom_site_fract_x
 _atom_site_fract_y
 _atom_site_fract_z
 _atom_site_occupancy
  Tb  Tb0  1  0.810930  0.189082  0.811185  1
  Tb  Tb1  1  0.189350  0.189350  0.810650  1
  Tb  Tb2  1  0.649332  0.049604  0.650532  1
  Tb  Tb3  1  0.062031  0.062031  0.437969  1
  Tb  Tb4  1  0.438003  0.438003  0.061997  1
  Tb  Tb5  1  0.650290  0.650290  0.650794  1
  Tb  Tb6  1  0.810930  0.189082  0.188802  1
  Tb  Tb7  1  0.189082  0.810930  0.811185  1
  Tb  Tb8  1  0.049604  0.649332  0.650532  1
  Tb  Tb9  1  0.438599  0.060941  0.062476  1
  Tb  Tb10  1  0.438599  0.060941  0.437983  1
  Tb  Tb11  1  0.060941  0.438599  0.062476  1
  Tb  Tb12  1  0.650290  0.650290  0.048626  1
  Tb  Tb13  1  0.189082  0.810930  0.188802  1
  Tb  Tb14  1  0.060941  0.438599  0.437983  1
  Tm  Tm15  1  0.810765  0.810765  0.189235  1
  In  In16  1  0.417549  0.417549  0.416744  1
  In  In17  1  0.417549  0.417549  0.748157  1
  In  In18  1  0.417968  0.747948  0.417041  1
  In  In19  1  0.747948  0.417968  0.417041  1
  Rh  Rh20  1  0.858101  0.427632  0.857134  1
  Rh  Rh21  1  0.857240  0.857240  0.859319  1
  Rh  Rh22  1  0.857240  0.857240  0.426202  1
  Rh  Rh23  1  0.427632  0.858101  0.857134  1
