# generated using pymatgen
data_Dy2Co5P6Ru2Rh3
_symmetry_space_group_name_H-M   'P 1'
_cell_length_a   3.77302600
_cell_length_b   10.55254200
_cell_length_c   12.08871900
_cell_angle_alpha   90.00000000
_cell_angle_beta   90.00000000
_cell_angle_gamma   90.00000000
_symmetry_Int_Tables_number   1
_chemical_formula_structural   Dy2Co5P6Ru2Rh3
_chemical_formula_sum   'Dy4 Co10 P12 Ru4 Rh6'
_cell_volume   481.31253233
_cell_formula_units_Z   2
loop_
 _symmetry_equiv_pos_site_id
 _symmetry_equiv_pos_as_xyz
  1  'x, y, z'
loop_
 _atom_site_type_symbol
 _atom_site_label
 _atom_site_symmetry_multiplicity
 _atom_site_fract_x
 _atom_site_fract_y
 _atom_site_fract_z
 _atom_site_occupancy
  Dy  Dy0  1  0.250000  0.588284  0.710724  1
  Dy  Dy1  1  0.250000  0.911716  0.210724  1
  Dy  Dy2  1  0.750000  0.418577  0.292078  1
  Dy  Dy3  1  0.750000  0.081423  0.792078  1
  Co  Co4  1  0.750000  0.775819  0.821852  1
  Co  Co5  1  0.750000  0.724181  0.321852  1
  Co  Co6  1  0.250000  0.880511  0.698067  1
  Co  Co7  1  0.250000  0.619489  0.198067  1
  Co  Co8  1  0.750000  0.109461  0.301190  1
  Co  Co9  1  0.750000  0.390539  0.801190  1
  Co  Co10  1  0.250000  0.463930  0.932622  1
  Co  Co11  1  0.250000  0.036070  0.432622  1
  Co  Co12  1  0.750000  0.537137  0.066459  1
  Co  Co13  1  0.750000  0.962863  0.566459  1
  P  P14  1  0.250000  0.430857  0.110737  1
  P  P15  1  0.250000  0.069143  0.610737  1
  P  P16  1  0.750000  0.579122  0.889085  1
  P  P17  1  0.750000  0.920878  0.389085  1
  P  P18  1  0.250000  0.273539  0.872438  1
  P  P19  1  0.250000  0.226461  0.372438  1
  P  P20  1  0.750000  0.724785  0.136843  1
  P  P21  1  0.750000  0.775215  0.636843  1
  P  P22  1  0.250000  0.607749  0.380258  1
  P  P23  1  0.250000  0.892251  0.880258  1
  P  P24  1  0.750000  0.402025  0.615947  1
  P  P25  1  0.750000  0.097975  0.115947  1
  Ru  Ru26  1  0.250000  0.708264  0.984043  1
  Ru  Ru27  1  0.250000  0.791736  0.484043  1
  Ru  Ru28  1  0.750000  0.284667  0.007264  1
  Ru  Ru29  1  0.750000  0.215333  0.507264  1
  Rh  Rh30  1  0.250000  0.411436  0.482951  1
  Rh  Rh31  1  0.250000  0.088564  0.982951  1
  Rh  Rh32  1  0.750000  0.598310  0.516695  1
  Rh  Rh33  1  0.750000  0.901690  0.016695  1
  Rh  Rh34  1  0.250000  0.226229  0.180747  1
  Rh  Rh35  1  0.250000  0.273771  0.680747  1
