# generated using pymatgen
data_NdDy15MgHg3Rh4
_symmetry_space_group_name_H-M   'P 1'
_cell_length_a   9.63311036
_cell_length_b   9.65154792
_cell_length_c   9.65154864
_cell_angle_alpha   59.90762197
_cell_angle_beta   59.94082314
_cell_angle_gamma   59.94082259
_symmetry_Int_Tables_number   1
_chemical_formula_structural   NdDy15MgHg3Rh4
_chemical_formula_sum   'Nd1 Dy15 Mg1 Hg3 Rh4'
_cell_volume   633.50915772
_cell_formula_units_Z   1
loop_
 _symmetry_equiv_pos_site_id
 _symmetry_equiv_pos_as_xyz
  1  'x, y, z'
loop_
 _atom_site_type_symbol
 _atom_site_label
 _atom_site_symmetry_multiplicity
 _atom_site_fract_x
 _atom_site_fract_y
 _atom_site_fract_z
 _atom_site_occupancy
  Nd  Nd0  1  0.062389  0.434870  0.434870  1
  Dy  Dy1  1  0.648307  0.048194  0.651485  1
  Dy  Dy2  1  0.812653  0.813137  0.187626  1
  Dy  Dy3  1  0.437285  0.063385  0.063385  1
  Dy  Dy4  1  0.439374  0.435495  0.061108  1
  Dy  Dy5  1  0.191243  0.189285  0.811325  1
  Dy  Dy6  1  0.814613  0.187886  0.187886  1
  Dy  Dy7  1  0.064413  0.437493  0.059525  1
  Dy  Dy8  1  0.439374  0.061108  0.435495  1
  Dy  Dy9  1  0.057487  0.646847  0.646847  1
  Dy  Dy10  1  0.191431  0.809660  0.809660  1
  Dy  Dy11  1  0.648307  0.651485  0.048194  1
  Dy  Dy12  1  0.191243  0.811325  0.189285  1
  Dy  Dy13  1  0.064413  0.059525  0.437493  1
  Dy  Dy14  1  0.812653  0.187626  0.813137  1
  Dy  Dy15  1  0.650139  0.652805  0.652805  1
  Mg  Mg16  1  0.715210  0.428590  0.428590  1
  Hg  Hg17  1  0.417447  0.412727  0.757239  1
  Hg  Hg18  1  0.421270  0.412700  0.412700  1
  Hg  Hg19  1  0.417447  0.757239  0.412727  1
  Rh  Rh20  1  0.857629  0.427609  0.858300  1
  Rh  Rh21  1  0.427222  0.856870  0.856870  1
  Rh  Rh22  1  0.857629  0.858300  0.427609  1
  Rh  Rh23  1  0.860821  0.855844  0.855844  1
