# generated using pymatgen
data_V3Ga(OF3)3
_symmetry_space_group_name_H-M   'P 1'
_cell_length_a   5.25446136
_cell_length_b   5.32563529
_cell_length_c   8.98496010
_cell_angle_alpha   74.57290812
_cell_angle_beta   89.94776447
_cell_angle_gamma   61.03989324
_symmetry_Int_Tables_number   1
_chemical_formula_structural   V3Ga(OF3)3
_chemical_formula_sum   'V3 Ga1 O3 F9'
_cell_volume   209.61140043
_cell_formula_units_Z   1
loop_
 _symmetry_equiv_pos_site_id
 _symmetry_equiv_pos_as_xyz
  1  'x, y, z'
loop_
 _atom_site_type_symbol
 _atom_site_label
 _atom_site_symmetry_multiplicity
 _atom_site_fract_x
 _atom_site_fract_y
 _atom_site_fract_z
 _atom_site_occupancy
  V  V0  1  0.497564  0.974923  0.489797  1
  V  V1  1  0.265126  0.519532  0.744816  1
  V  V2  1  0.001880  0.024372  0.011232  1
  Ga  Ga3  1  0.749510  0.501014  0.249943  1
  O  O4  1  0.954941  0.245477  0.123539  1
  O  O5  1  0.542608  0.759072  0.374114  1
  O  O6  1  0.408457  0.739580  0.668084  1
  F  F7  1  0.915252  0.750132  0.582807  1
  F  F8  1  0.931404  0.739946  0.169960  1
  F  F9  1  0.425387  0.750855  0.075558  1
  F  F10  1  0.570513  0.261590  0.331879  1
  F  F11  1  0.581197  0.237677  0.921375  1
  F  F12  1  0.458902  0.236926  0.624607  1
  F  F13  1  0.039722  0.751172  0.881353  1
  F  F14  1  0.083288  0.255506  0.828200  1
  F  F15  1  0.074249  0.252225  0.422737  1
