# generated using pymatgen
data_Y4TmPb3Se
_symmetry_space_group_name_H-M   'P 1'
_cell_length_a   9.15880412
_cell_length_b   9.15652031
_cell_length_c   6.73214000
_cell_angle_alpha   89.99490024
_cell_angle_beta   90.00932742
_cell_angle_gamma   120.00081589
_symmetry_Int_Tables_number   1
_chemical_formula_structural   Y4TmPb3Se
_chemical_formula_sum   'Y8 Tm2 Pb6 Se2'
_cell_volume   488.93308724
_cell_formula_units_Z   2
loop_
 _symmetry_equiv_pos_site_id
 _symmetry_equiv_pos_as_xyz
  1  'x, y, z'
loop_
 _atom_site_type_symbol
 _atom_site_label
 _atom_site_symmetry_multiplicity
 _atom_site_fract_x
 _atom_site_fract_y
 _atom_site_fract_z
 _atom_site_occupancy
  Y  Y0  1  0.748285  0.748306  0.751321  1
  Y  Y1  1  0.251748  0.000079  0.751129  1
  Y  Y2  1  0.999989  0.251688  0.751235  1
  Y  Y3  1  0.251715  0.251694  0.248679  1
  Y  Y4  1  0.748252  0.999921  0.248871  1
  Y  Y5  1  0.000011  0.748312  0.248765  1
  Y  Y6  1  0.333443  0.666682  0.499966  1
  Y  Y7  1  0.666557  0.333318  0.500034  1
  Tm  Tm8  1  0.666665  0.333299  0.000025  1
  Tm  Tm9  1  0.333335  0.666701  0.999975  1
  Pb  Pb10  1  0.396490  0.396536  0.756018  1
  Pb  Pb11  1  0.603491  0.999986  0.756056  1
  Pb  Pb12  1  0.000011  0.603521  0.756045  1
  Pb  Pb13  1  0.603510  0.603464  0.243982  1
  Pb  Pb14  1  0.396509  0.000014  0.243944  1
  Pb  Pb15  1  0.999989  0.396479  0.243955  1
  Se  Se16  1  0.000000  0.000000  0.000000  1
  Se  Se17  1  0.000000  0.000000  0.500000  1
