# generated using pymatgen
data_Ac2ZnGaIr2
_symmetry_space_group_name_H-M   'P 1'
_cell_length_a   4.32211600
_cell_length_b   7.40853300
_cell_length_c   8.54129620
_cell_angle_alpha   90.60331248
_cell_angle_beta   90.00000000
_cell_angle_gamma   90.00000000
_symmetry_Int_Tables_number   1
_chemical_formula_structural   Ac2ZnGaIr2
_chemical_formula_sum   'Ac4 Zn2 Ga2 Ir4'
_cell_volume   273.48174622
_cell_formula_units_Z   2
loop_
 _symmetry_equiv_pos_site_id
 _symmetry_equiv_pos_as_xyz
  1  'x, y, z'
loop_
 _atom_site_type_symbol
 _atom_site_label
 _atom_site_symmetry_multiplicity
 _atom_site_fract_x
 _atom_site_fract_y
 _atom_site_fract_z
 _atom_site_occupancy
  Ac  Ac0  1  0.250000  0.525792  0.192174  1
  Ac  Ac1  1  0.750000  0.474208  0.807826  1
  Ac  Ac2  1  0.750000  0.968282  0.687448  1
  Ac  Ac3  1  0.250000  0.031718  0.312552  1
  Zn  Zn4  1  0.250000  0.639997  0.559291  1
  Zn  Zn5  1  0.750000  0.360003  0.440709  1
  Ga  Ga6  1  0.750000  0.852337  0.065070  1
  Ga  Ga7  1  0.250000  0.147663  0.934930  1
  Ir  Ir8  1  0.250000  0.783195  0.903102  1
  Ir  Ir9  1  0.750000  0.216805  0.096898  1
  Ir  Ir10  1  0.750000  0.729796  0.380131  1
  Ir  Ir11  1  0.250000  0.270204  0.619869  1
