# generated using pymatgen
data_Dy5(SnSb)2
_symmetry_space_group_name_H-M   'P 1'
_cell_length_a   8.73397982
_cell_length_b   8.73398056
_cell_length_c   8.14475600
_cell_angle_alpha   90.00000000
_cell_angle_beta   90.00000000
_cell_angle_gamma   124.75764216
_symmetry_Int_Tables_number   1
_chemical_formula_structural   Dy5(SnSb)2
_chemical_formula_sum   'Dy10 Sn4 Sb4'
_cell_volume   510.44333081
_cell_formula_units_Z   2
loop_
 _symmetry_equiv_pos_site_id
 _symmetry_equiv_pos_as_xyz
  1  'x, y, z'
loop_
 _atom_site_type_symbol
 _atom_site_label
 _atom_site_symmetry_multiplicity
 _atom_site_fract_x
 _atom_site_fract_y
 _atom_site_fract_z
 _atom_site_occupancy
  Dy  Dy0  1  0.029960  0.301504  0.336010  1
  Dy  Dy1  1  0.970040  0.698496  0.663990  1
  Dy  Dy2  1  0.470040  0.198496  0.836010  1
  Dy  Dy3  1  0.801504  0.529960  0.163990  1
  Dy  Dy4  1  0.529960  0.801504  0.163990  1
  Dy  Dy5  1  0.198496  0.470040  0.836010  1
  Dy  Dy6  1  0.698496  0.970040  0.663990  1
  Dy  Dy7  1  0.301504  0.029960  0.336010  1
  Dy  Dy8  1  0.000000  0.000000  0.000000  1
  Dy  Dy9  1  0.500000  0.500000  0.500000  1
  Sn  Sn10  1  0.363595  0.363595  0.136006  1
  Sn  Sn11  1  0.636405  0.636405  0.863994  1
  Sn  Sn12  1  0.136405  0.136405  0.636006  1
  Sn  Sn13  1  0.863595  0.863595  0.363994  1
  Sb  Sb14  1  0.797442  0.202558  0.000000  1
  Sb  Sb15  1  0.202558  0.797442  0.000000  1
  Sb  Sb16  1  0.702558  0.297442  0.500000  1
  Sb  Sb17  1  0.297442  0.702558  0.500000  1
