# generated using pymatgen
data_LaTh(GaPt)4
_symmetry_space_group_name_H-M   'P 1'
_cell_length_a   4.35988600
_cell_length_b   4.35988600
_cell_length_c   10.39213400
_cell_angle_alpha   90.00000000
_cell_angle_beta   90.00000000
_cell_angle_gamma   90.00000000
_symmetry_Int_Tables_number   1
_chemical_formula_structural   LaTh(GaPt)4
_chemical_formula_sum   'La1 Th1 Ga4 Pt4'
_cell_volume   197.53998001
_cell_formula_units_Z   1
loop_
 _symmetry_equiv_pos_site_id
 _symmetry_equiv_pos_as_xyz
  1  'x, y, z'
loop_
 _atom_site_type_symbol
 _atom_site_label
 _atom_site_symmetry_multiplicity
 _atom_site_fract_x
 _atom_site_fract_y
 _atom_site_fract_z
 _atom_site_occupancy
  La  La0  1  0.000000  0.500000  0.252842  1
  Th  Th1  1  0.500000  0.000000  0.748625  1
  Ga  Ga2  1  0.000000  0.000000  0.502341  1
  Ga  Ga3  1  0.500000  0.500000  0.502341  1
  Ga  Ga4  1  0.000000  0.500000  0.871841  1
  Ga  Ga5  1  0.500000  0.000000  0.126945  1
  Pt  Pt6  1  0.000000  0.000000  0.995618  1
  Pt  Pt7  1  0.500000  0.500000  0.995618  1
  Pt  Pt8  1  0.000000  0.500000  0.635363  1
  Pt  Pt9  1  0.500000  0.000000  0.368466  1
