# generated using pymatgen
data_Tm4Lu4Re(B8Ru)3
_symmetry_space_group_name_H-M   'P 1'
_cell_length_a   3.60927400
_cell_length_b   9.04329745
_cell_length_c   11.41908802
_cell_angle_alpha   90.10940044
_cell_angle_beta   90.00000000
_cell_angle_gamma   90.00000000
_symmetry_Int_Tables_number   1
_chemical_formula_structural   Tm4Lu4Re(B8Ru)3
_chemical_formula_sum   'Tm4 Lu4 Re1 B24 Ru3'
_cell_volume   372.71536557
_cell_formula_units_Z   1
loop_
 _symmetry_equiv_pos_site_id
 _symmetry_equiv_pos_as_xyz
  1  'x, y, z'
loop_
 _atom_site_type_symbol
 _atom_site_label
 _atom_site_symmetry_multiplicity
 _atom_site_fract_x
 _atom_site_fract_y
 _atom_site_fract_z
 _atom_site_occupancy
  Tm  Tm0  1  0.000000  0.321923  0.415157  1
  Tm  Tm1  1  0.000000  0.680902  0.588042  1
  Tm  Tm2  1  0.000000  0.821912  0.083416  1
  Tm  Tm3  1  0.000000  0.176759  0.913367  1
  Lu  Lu4  1  0.000000  0.943595  0.371547  1
  Lu  Lu5  1  0.000000  0.055878  0.627556  1
  Lu  Lu6  1  0.000000  0.443108  0.128220  1
  Lu  Lu7  1  0.000000  0.555709  0.872649  1
  Re  Re8  1  0.000000  0.861886  0.820865  1
  B  B9  1  0.500000  0.554146  0.433745  1
  B  B10  1  0.500000  0.446065  0.566503  1
  B  B11  1  0.500000  0.053947  0.067038  1
  B  B12  1  0.500000  0.947049  0.933787  1
  B  B13  1  0.500000  0.749755  0.419840  1
  B  B14  1  0.500000  0.250519  0.579955  1
  B  B15  1  0.500000  0.249495  0.080334  1
  B  B16  1  0.500000  0.749787  0.919813  1
  B  B17  1  0.500000  0.791660  0.265292  1
  B  B18  1  0.500000  0.208143  0.733701  1
  B  B19  1  0.500000  0.292055  0.234730  1
  B  B20  1  0.500000  0.707082  0.765367  1
  B  B21  1  0.500000  0.630633  0.184451  1
  B  B22  1  0.500000  0.368764  0.815187  1
  B  B23  1  0.500000  0.131358  0.315661  1
  B  B24  1  0.500000  0.869191  0.684568  1
  B  B25  1  0.500000  0.982566  0.212735  1
  B  B26  1  0.500000  0.018817  0.787117  1
  B  B27  1  0.500000  0.482423  0.287737  1
  B  B28  1  0.500000  0.517407  0.712732  1
  B  B29  1  0.500000  0.603354  0.029324  1
  B  B30  1  0.500000  0.394638  0.971446  1
  B  B31  1  0.500000  0.105225  0.470562  1
  B  B32  1  0.500000  0.895605  0.528136  1
  Ru  Ru33  1  0.000000  0.638271  0.320723  1
  Ru  Ru34  1  0.000000  0.361827  0.678840  1
  Ru  Ru35  1  0.000000  0.138551  0.179855  1
