# generated using pymatgen
data_Dy6LuV(Co4P3)4
_symmetry_space_group_name_H-M   'P 1'
_cell_length_a   3.71008900
_cell_length_b   10.61945400
_cell_length_c   12.32548700
_cell_angle_alpha   90.00000000
_cell_angle_beta   90.00000000
_cell_angle_gamma   90.00000000
_symmetry_Int_Tables_number   1
_chemical_formula_structural   Dy6LuV(Co4P3)4
_chemical_formula_sum   'Dy6 Lu1 V1 Co16 P12'
_cell_volume   485.61333486
_cell_formula_units_Z   1
loop_
 _symmetry_equiv_pos_site_id
 _symmetry_equiv_pos_as_xyz
  1  'x, y, z'
loop_
 _atom_site_type_symbol
 _atom_site_label
 _atom_site_symmetry_multiplicity
 _atom_site_fract_x
 _atom_site_fract_y
 _atom_site_fract_z
 _atom_site_occupancy
  Dy  Dy0  1  0.000000  0.500000  0.531290  1
  Dy  Dy1  1  0.500000  0.000000  0.477346  1
  Dy  Dy2  1  0.500000  0.823248  0.205479  1
  Dy  Dy3  1  0.500000  0.176752  0.205479  1
  Dy  Dy4  1  0.000000  0.682207  0.795386  1
  Dy  Dy5  1  0.000000  0.317793  0.795386  1
  Lu  Lu6  1  0.500000  0.500000  0.155500  1
  V  V7  1  0.000000  0.000000  0.841582  1
  Co  Co8  1  0.500000  0.500000  0.702738  1
  Co  Co9  1  0.000000  0.000000  0.296791  1
  Co  Co10  1  0.000000  0.500000  0.982469  1
  Co  Co11  1  0.500000  0.000000  0.009713  1
  Co  Co12  1  0.500000  0.325602  0.987878  1
  Co  Co13  1  0.500000  0.674398  0.987878  1
  Co  Co14  1  0.000000  0.161786  0.000982  1
  Co  Co15  1  0.000000  0.838214  0.000982  1
  Co  Co16  1  0.500000  0.292977  0.435780  1
  Co  Co17  1  0.500000  0.707023  0.435780  1
  Co  Co18  1  0.000000  0.202333  0.570395  1
  Co  Co19  1  0.000000  0.797667  0.570395  1
  Co  Co20  1  0.500000  0.880163  0.706023  1
  Co  Co21  1  0.500000  0.119837  0.706023  1
  Co  Co22  1  0.000000  0.623282  0.301976  1
  Co  Co23  1  0.000000  0.376718  0.301976  1
  P  P24  1  0.500000  0.500000  0.882228  1
  P  P25  1  0.000000  0.000000  0.115423  1
  P  P26  1  0.500000  0.500000  0.363927  1
  P  P27  1  0.000000  0.000000  0.650946  1
  P  P28  1  0.500000  0.308348  0.617777  1
  P  P29  1  0.500000  0.691652  0.617777  1
  P  P30  1  0.000000  0.188284  0.386680  1
  P  P31  1  0.000000  0.811716  0.386680  1
  P  P32  1  0.500000  0.849058  0.886933  1
  P  P33  1  0.500000  0.150942  0.886933  1
  P  P34  1  0.000000  0.666265  0.099734  1
  P  P35  1  0.000000  0.333735  0.099734  1
