# generated using pymatgen
data_Zr10In2GaCu2Te3
_symmetry_space_group_name_H-M   'P 1'
_cell_length_a   8.61135185
_cell_length_b   8.61135203
_cell_length_c   5.83224100
_cell_angle_alpha   90.00000000
_cell_angle_beta   90.00000000
_cell_angle_gamma   119.92492856
_symmetry_Int_Tables_number   1
_chemical_formula_structural   Zr10In2GaCu2Te3
_chemical_formula_sum   'Zr10 In2 Ga1 Cu2 Te3'
_cell_volume   374.83212463
_cell_formula_units_Z   1
loop_
 _symmetry_equiv_pos_site_id
 _symmetry_equiv_pos_as_xyz
  1  'x, y, z'
loop_
 _atom_site_type_symbol
 _atom_site_label
 _atom_site_symmetry_multiplicity
 _atom_site_fract_x
 _atom_site_fract_y
 _atom_site_fract_z
 _atom_site_occupancy
  Zr  Zr0  1  0.741718  0.741718  0.250000  1
  Zr  Zr1  1  0.257622  0.000370  0.250000  1
  Zr  Zr2  1  0.000370  0.257622  0.250000  1
  Zr  Zr3  1  0.280386  0.280386  0.750000  1
  Zr  Zr4  1  0.722269  0.986279  0.750000  1
  Zr  Zr5  1  0.986279  0.722269  0.750000  1
  Zr  Zr6  1  0.665983  0.338778  0.505588  1
  Zr  Zr7  1  0.338778  0.665983  0.505588  1
  Zr  Zr8  1  0.338778  0.665983  0.994412  1
  Zr  Zr9  1  0.665983  0.338778  0.994412  1
  In  In10  1  0.374602  0.997430  0.750000  1
  In  In11  1  0.997430  0.374602  0.750000  1
  Ga  Ga12  1  0.618608  0.618608  0.750000  1
  Cu  Cu13  1  0.003841  0.003841  0.524795  1
  Cu  Cu14  1  0.003841  0.003841  0.975205  1
  Te  Te15  1  0.389786  0.389786  0.250000  1
  Te  Te16  1  0.611424  0.002301  0.250000  1
  Te  Te17  1  0.002301  0.611424  0.250000  1
