# generated using pymatgen
data_TbYSc2(ReB6)2
_symmetry_space_group_name_H-M   'P 1'
_cell_length_a   3.59037900
_cell_length_b   9.02005601
_cell_length_c   11.40971501
_cell_angle_alpha   89.99448632
_cell_angle_beta   90.00000000
_cell_angle_gamma   90.00000000
_symmetry_Int_Tables_number   1
_chemical_formula_structural   TbYSc2(ReB6)2
_chemical_formula_sum   'Tb2 Y2 Sc4 Re4 B24'
_cell_volume   369.50840741
_cell_formula_units_Z   2
loop_
 _symmetry_equiv_pos_site_id
 _symmetry_equiv_pos_as_xyz
  1  'x, y, z'
loop_
 _atom_site_type_symbol
 _atom_site_label
 _atom_site_symmetry_multiplicity
 _atom_site_fract_x
 _atom_site_fract_y
 _atom_site_fract_z
 _atom_site_occupancy
  Tb  Tb0  1  0.000000  0.321647  0.413930  1
  Tb  Tb1  1  0.000000  0.678353  0.586070  1
  Y  Y2  1  0.000000  0.821578  0.086018  1
  Y  Y3  1  0.000000  0.178422  0.913982  1
  Sc  Sc4  1  0.000000  0.944239  0.370222  1
  Sc  Sc5  1  0.000000  0.055761  0.629778  1
  Sc  Sc6  1  0.000000  0.444292  0.129654  1
  Sc  Sc7  1  0.000000  0.555708  0.870346  1
  Re  Re8  1  0.000000  0.640898  0.318394  1
  Re  Re9  1  0.000000  0.359102  0.681606  1
  Re  Re10  1  0.000000  0.140870  0.181588  1
  Re  Re11  1  0.000000  0.859130  0.818412  1
  B  B12  1  0.500000  0.554460  0.432399  1
  B  B13  1  0.500000  0.445540  0.567601  1
  B  B14  1  0.500000  0.054423  0.067536  1
  B  B15  1  0.500000  0.945577  0.932464  1
  B  B16  1  0.500000  0.754769  0.418338  1
  B  B17  1  0.500000  0.245231  0.581662  1
  B  B18  1  0.500000  0.254749  0.081625  1
  B  B19  1  0.500000  0.745251  0.918375  1
  B  B20  1  0.500000  0.795342  0.265006  1
  B  B21  1  0.500000  0.204658  0.734994  1
  B  B22  1  0.500000  0.295316  0.234935  1
  B  B23  1  0.500000  0.704684  0.765065  1
  B  B24  1  0.500000  0.629058  0.183186  1
  B  B25  1  0.500000  0.370942  0.816814  1
  B  B26  1  0.500000  0.129044  0.316753  1
  B  B27  1  0.500000  0.870956  0.683247  1
  B  B28  1  0.500000  0.981569  0.213839  1
  B  B29  1  0.500000  0.018431  0.786161  1
  B  B30  1  0.500000  0.481611  0.286107  1
  B  B31  1  0.500000  0.518389  0.713893  1
  B  B32  1  0.500000  0.595365  0.026081  1
  B  B33  1  0.500000  0.404635  0.973919  1
  B  B34  1  0.500000  0.095249  0.473962  1
  B  B35  1  0.500000  0.904751  0.526038  1
