# generated using pymatgen
data_LaFeNi(Sb6Os)2
_symmetry_space_group_name_H-M   'P 1'
_cell_length_a   8.06677519
_cell_length_b   8.10857317
_cell_length_c   8.10168118
_cell_angle_alpha   109.60226368
_cell_angle_beta   109.56112213
_cell_angle_gamma   109.39006291
_symmetry_Int_Tables_number   1
_chemical_formula_structural   LaFeNi(Sb6Os)2
_chemical_formula_sum   'La1 Fe1 Ni1 Sb12 Os2'
_cell_volume   407.23481771
_cell_formula_units_Z   1
loop_
 _symmetry_equiv_pos_site_id
 _symmetry_equiv_pos_as_xyz
  1  'x, y, z'
loop_
 _atom_site_type_symbol
 _atom_site_label
 _atom_site_symmetry_multiplicity
 _atom_site_fract_x
 _atom_site_fract_y
 _atom_site_fract_z
 _atom_site_occupancy
  La  La0  1  0.000000  0.000000  0.000000  1
  Fe  Fe1  1  0.000000  0.000000  0.500000  1
  Ni  Ni2  1  0.000000  0.500000  0.000000  1
  Sb  Sb3  1  0.845691  0.670342  0.502982  1
  Sb  Sb4  1  0.154309  0.329658  0.497018  1
  Sb  Sb5  1  0.154908  0.658150  0.818949  1
  Sb  Sb6  1  0.845092  0.341850  0.181051  1
  Sb  Sb7  1  0.664305  0.503933  0.845777  1
  Sb  Sb8  1  0.335695  0.496067  0.154223  1
  Sb  Sb9  1  0.670481  0.824779  0.166055  1
  Sb  Sb10  1  0.329519  0.175221  0.833945  1
  Sb  Sb11  1  0.501709  0.842747  0.658212  1
  Sb  Sb12  1  0.498291  0.157253  0.341788  1
  Sb  Sb13  1  0.173717  0.843410  0.338533  1
  Sb  Sb14  1  0.826283  0.156590  0.661467  1
  Os  Os15  1  0.500000  0.500000  0.500000  1
  Os  Os16  1  0.500000  0.000000  0.000000  1
