# generated using pymatgen
data_CaSmFeSbO6
_symmetry_space_group_name_H-M   'P 1'
_cell_length_a   5.83756000
_cell_length_b   5.53700959
_cell_length_c   9.68281829
_cell_angle_alpha   53.94212887
_cell_angle_beta   90.00000000
_cell_angle_gamma   90.00000000
_symmetry_Int_Tables_number   1
_chemical_formula_structural   CaSmFeSbO6
_chemical_formula_sum   'Ca2 Sm2 Fe2 Sb2 O12'
_cell_volume   253.01543683
_cell_formula_units_Z   2
loop_
 _symmetry_equiv_pos_site_id
 _symmetry_equiv_pos_as_xyz
  1  'x, y, z'
loop_
 _atom_site_type_symbol
 _atom_site_label
 _atom_site_symmetry_multiplicity
 _atom_site_fract_x
 _atom_site_fract_y
 _atom_site_fract_z
 _atom_site_occupancy
  Ca  Ca0  1  0.693535  0.266865  0.248565  1
  Ca  Ca1  1  0.306465  0.266865  0.748565  1
  Sm  Sm2  1  0.183055  0.730694  0.248262  1
  Sm  Sm3  1  0.816945  0.730694  0.748262  1
  Fe  Fe4  1  0.254746  0.000133  0.499205  1
  Fe  Fe5  1  0.745254  0.000133  0.999205  1
  Sb  Sb6  1  0.255162  0.500659  0.999511  1
  Sb  Sb7  1  0.744838  0.500659  0.499511  1
  O  O8  1  0.707525  0.138645  0.745037  1
  O  O9  1  0.433056  0.744189  0.054078  1
  O  O10  1  0.453484  0.382596  0.443121  1
  O  O11  1  0.967468  0.627412  0.058312  1
  O  O12  1  0.936334  0.257715  0.449922  1
  O  O13  1  0.208216  0.851094  0.753986  1
  O  O14  1  0.292475  0.138645  0.245037  1
  O  O15  1  0.566944  0.744189  0.554078  1
  O  O16  1  0.546516  0.382596  0.943121  1
  O  O17  1  0.032532  0.627412  0.558312  1
  O  O18  1  0.063666  0.257715  0.949922  1
  O  O19  1  0.791784  0.851094  0.253986  1
