# generated using pymatgen
data_Pr5DyV2(Co4P3)4
_symmetry_space_group_name_H-M   'P 1'
_cell_length_a   3.76691000
_cell_length_b   10.72273480
_cell_length_c   12.44828193
_cell_angle_alpha   90.04429288
_cell_angle_beta   90.00000000
_cell_angle_gamma   90.00000000
_symmetry_Int_Tables_number   1
_chemical_formula_structural   Pr5DyV2(Co4P3)4
_chemical_formula_sum   'Pr5 Dy1 V2 Co16 P12'
_cell_volume   502.80558722
_cell_formula_units_Z   1
loop_
 _symmetry_equiv_pos_site_id
 _symmetry_equiv_pos_as_xyz
  1  'x, y, z'
loop_
 _atom_site_type_symbol
 _atom_site_label
 _atom_site_symmetry_multiplicity
 _atom_site_fract_x
 _atom_site_fract_y
 _atom_site_fract_z
 _atom_site_occupancy
  Pr  Pr0  1  0.000000  0.499582  0.523152  1
  Pr  Pr1  1  0.500000  0.000179  0.477756  1
  Pr  Pr2  1  0.500000  0.818564  0.203753  1
  Pr  Pr3  1  0.500000  0.181762  0.205766  1
  Pr  Pr4  1  0.000000  0.680491  0.794926  1
  Dy  Dy5  1  0.000000  0.317446  0.796543  1
  V  V6  1  0.500000  0.499425  0.151329  1
  V  V7  1  0.000000  0.001339  0.847872  1
  Co  Co8  1  0.500000  0.495420  0.705510  1
  Co  Co9  1  0.000000  0.000787  0.295972  1
  Co  Co10  1  0.000000  0.497645  0.986519  1
  Co  Co11  1  0.500000  0.001882  0.010006  1
  Co  Co12  1  0.500000  0.331939  0.992073  1
  Co  Co13  1  0.500000  0.665665  0.993005  1
  Co  Co14  1  0.000000  0.168971  0.003887  1
  Co  Co15  1  0.000000  0.832913  0.004455  1
  Co  Co16  1  0.500000  0.295765  0.433533  1
  Co  Co17  1  0.500000  0.704076  0.430586  1
  Co  Co18  1  0.000000  0.205089  0.572793  1
  Co  Co19  1  0.000000  0.795440  0.569126  1
  Co  Co20  1  0.500000  0.882081  0.709094  1
  Co  Co21  1  0.500000  0.121268  0.711530  1
  Co  Co22  1  0.000000  0.618819  0.290039  1
  Co  Co23  1  0.000000  0.381642  0.291874  1
  P  P24  1  0.500000  0.496195  0.884802  1
  P  P25  1  0.000000  0.001035  0.111443  1
  P  P26  1  0.500000  0.500530  0.340900  1
  P  P27  1  0.000000  0.000249  0.659380  1
  P  P28  1  0.500000  0.306596  0.619210  1
  P  P29  1  0.500000  0.693834  0.613754  1
  P  P30  1  0.000000  0.195219  0.388241  1
  P  P31  1  0.000000  0.805924  0.385701  1
  P  P32  1  0.500000  0.848324  0.894312  1
  P  P33  1  0.500000  0.154852  0.892294  1
  P  P34  1  0.000000  0.650951  0.103455  1
  P  P35  1  0.000000  0.348104  0.105408  1
