# generated using pymatgen
data_Ta12Zn12CN
_symmetry_space_group_name_H-M   'P 1'
_cell_length_a   8.18048044
_cell_length_b   8.18048081
_cell_length_c   8.18048000
_cell_angle_alpha   60.00000327
_cell_angle_beta   60.00000177
_cell_angle_gamma   60.00000502
_symmetry_Int_Tables_number   1
_chemical_formula_structural   Ta12Zn12CN
_chemical_formula_sum   'Ta12 Zn12 C1 N1'
_cell_volume   387.09847729
_cell_formula_units_Z   1
loop_
 _symmetry_equiv_pos_site_id
 _symmetry_equiv_pos_as_xyz
  1  'x, y, z'
loop_
 _atom_site_type_symbol
 _atom_site_label
 _atom_site_symmetry_multiplicity
 _atom_site_fract_x
 _atom_site_fract_y
 _atom_site_fract_z
 _atom_site_occupancy
  Ta  Ta0  1  0.189217  0.810783  0.189217  1
  Ta  Ta1  1  0.438568  0.061432  0.438568  1
  Ta  Ta2  1  0.438568  0.061432  0.061432  1
  Ta  Ta3  1  0.438568  0.438568  0.061432  1
  Ta  Ta4  1  0.189217  0.810783  0.810783  1
  Ta  Ta5  1  0.061432  0.438568  0.061432  1
  Ta  Ta6  1  0.810783  0.810783  0.189217  1
  Ta  Ta7  1  0.061432  0.438568  0.438568  1
  Ta  Ta8  1  0.189217  0.189217  0.810783  1
  Ta  Ta9  1  0.810783  0.189217  0.189217  1
  Ta  Ta10  1  0.810783  0.189217  0.810783  1
  Ta  Ta11  1  0.061432  0.061432  0.438568  1
  Zn  Zn12  1  0.833412  0.499765  0.833412  1
  Zn  Zn13  1  0.416741  0.416741  0.749775  1
  Zn  Zn14  1  0.749775  0.416741  0.416741  1
  Zn  Zn15  1  0.416741  0.416741  0.416741  1
  Zn  Zn16  1  0.833412  0.833412  0.499765  1
  Zn  Zn17  1  0.416741  0.749775  0.416741  1
  Zn  Zn18  1  0.833412  0.833412  0.833412  1
  Zn  Zn19  1  0.499765  0.833412  0.833412  1
  Zn  Zn20  1  0.625037  0.124890  0.625037  1
  Zn  Zn21  1  0.625037  0.625037  0.124890  1
  Zn  Zn22  1  0.124890  0.625037  0.625037  1
  Zn  Zn23  1  0.625037  0.625037  0.625037  1
  C  C24  1  0.000000  0.000000  0.000000  1
  N  N25  1  0.250000  0.250000  0.250000  1
