# generated using pymatgen
data_Yb12HoEr7Sn16
_symmetry_space_group_name_H-M   'P 1'
_cell_length_a   7.81374301
_cell_length_b   8.39895901
_cell_length_c   15.98425902
_cell_angle_alpha   89.99589262
_cell_angle_beta   89.99543611
_cell_angle_gamma   89.99501686
_symmetry_Int_Tables_number   1
_chemical_formula_structural   Yb12HoEr7Sn16
_chemical_formula_sum   'Yb12 Ho1 Er7 Sn16'
_cell_volume   1049.00386906
_cell_formula_units_Z   1
loop_
 _symmetry_equiv_pos_site_id
 _symmetry_equiv_pos_as_xyz
  1  'x, y, z'
loop_
 _atom_site_type_symbol
 _atom_site_label
 _atom_site_symmetry_multiplicity
 _atom_site_fract_x
 _atom_site_fract_y
 _atom_site_fract_z
 _atom_site_occupancy
  Yb  Yb0  1  0.499395  0.686772  0.593291  1
  Yb  Yb1  1  0.999416  0.813211  0.906725  1
  Yb  Yb2  1  0.500600  0.313220  0.093285  1
  Yb  Yb3  1  0.000595  0.186788  0.406718  1
  Yb  Yb4  1  0.500582  0.313227  0.406703  1
  Yb  Yb5  1  0.000594  0.186781  0.093284  1
  Yb  Yb6  1  0.499403  0.686784  0.906719  1
  Yb  Yb7  1  0.999433  0.813206  0.593283  1
  Yb  Yb8  1  0.827802  0.511244  0.750014  1
  Yb  Yb9  1  0.327775  0.988768  0.750011  1
  Yb  Yb10  1  0.172216  0.488774  0.250004  1
  Yb  Yb11  1  0.672213  0.011217  0.249997  1
  Ho  Ho12  1  0.666913  0.167416  0.622080  1
  Er  Er13  1  0.166901  0.332691  0.877884  1
  Er  Er14  1  0.333114  0.832678  0.122115  1
  Er  Er15  1  0.833109  0.667319  0.377853  1
  Er  Er16  1  0.333085  0.832669  0.377863  1
  Er  Er17  1  0.833086  0.667304  0.122122  1
  Er  Er18  1  0.666889  0.167339  0.877878  1
  Er  Er19  1  0.166872  0.332701  0.622157  1
  Sn  Sn20  1  0.673846  0.964261  0.459990  1
  Sn  Sn21  1  0.173865  0.535614  0.039908  1
  Sn  Sn22  1  0.326141  0.035607  0.960090  1
  Sn  Sn23  1  0.826288  0.464498  0.539869  1
  Sn  Sn24  1  0.325964  0.035558  0.539869  1
  Sn  Sn25  1  0.826137  0.464364  0.960086  1
  Sn  Sn26  1  0.673864  0.964389  0.039907  1
  Sn  Sn27  1  0.173868  0.535635  0.460086  1
  Sn  Sn28  1  0.463591  0.373889  0.750049  1
  Sn  Sn29  1  0.963783  0.126193  0.750071  1
  Sn  Sn30  1  0.536295  0.626207  0.250005  1
  Sn  Sn31  1  0.036301  0.873784  0.250002  1
  Sn  Sn32  1  0.708693  0.874045  0.750061  1
  Sn  Sn33  1  0.208645  0.625870  0.750016  1
  Sn  Sn34  1  0.291368  0.125875  0.250003  1
  Sn  Sn35  1  0.791356  0.374103  0.250001  1
