# generated using pymatgen
data_Tb3Tm2(CoB3)2
_symmetry_space_group_name_H-M   'P 1'
_cell_length_a   5.39860546
_cell_length_b   5.39860599
_cell_length_c   8.32336517
_cell_angle_alpha   71.07657364
_cell_angle_beta   71.07657019
_cell_angle_gamma   59.99999010
_symmetry_Int_Tables_number   1
_chemical_formula_structural   Tb3Tm2(CoB3)2
_chemical_formula_sum   'Tb3 Tm2 Co2 B6'
_cell_volume   194.79762443
_cell_formula_units_Z   1
loop_
 _symmetry_equiv_pos_site_id
 _symmetry_equiv_pos_as_xyz
  1  'x, y, z'
loop_
 _atom_site_type_symbol
 _atom_site_label
 _atom_site_symmetry_multiplicity
 _atom_site_fract_x
 _atom_site_fract_y
 _atom_site_fract_z
 _atom_site_occupancy
  Tb  Tb0  1  0.000000  0.000000  0.000000  1
  Tb  Tb1  1  0.252837  0.252837  0.241490  1
  Tb  Tb2  1  0.747163  0.747163  0.758510  1
  Tm  Tm3  1  0.417625  0.417625  0.747124  1
  Tm  Tm4  1  0.582375  0.582375  0.252876  1
  Co  Co5  1  0.119778  0.119778  0.640665  1
  Co  Co6  1  0.880222  0.880222  0.359335  1
  B  B7  1  0.168879  0.831121  0.500000  1
  B  B8  1  0.831121  0.500000  0.500000  1
  B  B9  1  0.500000  0.168879  0.500000  1
  B  B10  1  0.168879  0.500000  0.500000  1
  B  B11  1  0.500000  0.831121  0.500000  1
  B  B12  1  0.831121  0.168879  0.500000  1
