# generated using pymatgen
data_La2TbY5(WO6)4
_symmetry_space_group_name_H-M   'P 1'
_cell_length_a   5.48325500
_cell_length_b   7.82215981
_cell_length_c   11.62422337
_cell_angle_alpha   75.75344382
_cell_angle_beta   90.00000000
_cell_angle_gamma   90.00000000
_symmetry_Int_Tables_number   1
_chemical_formula_structural   La2TbY5(WO6)4
_chemical_formula_sum   'La2 Tb1 Y5 W4 O24'
_cell_volume   483.24009273
_cell_formula_units_Z   1
loop_
 _symmetry_equiv_pos_site_id
 _symmetry_equiv_pos_as_xyz
  1  'x, y, z'
loop_
 _atom_site_type_symbol
 _atom_site_label
 _atom_site_symmetry_multiplicity
 _atom_site_fract_x
 _atom_site_fract_y
 _atom_site_fract_z
 _atom_site_occupancy
  La  La0  1  0.314010  0.500000  0.750000  1
  La  La1  1  0.686158  0.500000  0.250000  1
  Tb  Tb2  1  0.258134  0.000000  0.750000  1
  Y  Y3  1  0.187105  0.797532  0.076512  1
  Y  Y4  1  0.741840  0.000000  0.250000  1
  Y  Y5  1  0.187105  0.202468  0.423488  1
  Y  Y6  1  0.812707  0.202572  0.923696  1
  Y  Y7  1  0.812707  0.797428  0.576304  1
  W  W8  1  0.747427  0.729118  0.883762  1
  W  W9  1  0.252650  0.729291  0.383646  1
  W  W10  1  0.747427  0.270882  0.616238  1
  W  W11  1  0.252650  0.270709  0.116354  1
  O  O12  1  0.855912  0.356677  0.456300  1
  O  O13  1  0.468045  0.844980  0.930555  1
  O  O14  1  0.855912  0.643323  0.043700  1
  O  O15  1  0.013660  0.278942  0.730097  1
  O  O16  1  0.986483  0.278915  0.230241  1
  O  O17  1  0.144510  0.356207  0.956353  1
  O  O18  1  0.654048  0.495708  0.886967  1
  O  O19  1  0.531834  0.154589  0.069596  1
  O  O20  1  0.144510  0.643793  0.543647  1
  O  O21  1  0.013660  0.721058  0.769903  1
  O  O22  1  0.453247  0.204112  0.272276  1
  O  O23  1  0.042601  0.941653  0.395552  1
  O  O24  1  0.468045  0.155020  0.569445  1
  O  O25  1  0.986483  0.721085  0.269759  1
  O  O26  1  0.956772  0.058401  0.604059  1
  O  O27  1  0.547172  0.204505  0.772264  1
  O  O28  1  0.547172  0.795495  0.727736  1
  O  O29  1  0.042601  0.058347  0.104448  1
  O  O30  1  0.654048  0.504292  0.613033  1
  O  O31  1  0.345753  0.504092  0.113260  1
  O  O32  1  0.453247  0.795888  0.227724  1
  O  O33  1  0.345753  0.495908  0.386740  1
  O  O34  1  0.531834  0.845411  0.430404  1
  O  O35  1  0.956772  0.941599  0.895941  1
