# generated using pymatgen
data_MgAlNi20B6Sb
_symmetry_space_group_name_H-M   'P 1'
_cell_length_a   7.46731569
_cell_length_b   7.46731536
_cell_length_c   7.46731400
_cell_angle_alpha   59.99999715
_cell_angle_beta   59.99999864
_cell_angle_gamma   59.99999248
_symmetry_Int_Tables_number   1
_chemical_formula_structural   MgAlNi20B6Sb
_chemical_formula_sum   'Mg1 Al1 Ni20 B6 Sb1'
_cell_volume   294.42750743
_cell_formula_units_Z   1
loop_
 _symmetry_equiv_pos_site_id
 _symmetry_equiv_pos_as_xyz
  1  'x, y, z'
loop_
 _atom_site_type_symbol
 _atom_site_label
 _atom_site_symmetry_multiplicity
 _atom_site_fract_x
 _atom_site_fract_y
 _atom_site_fract_z
 _atom_site_occupancy
  Mg  Mg0  1  0.250000  0.250000  0.250000  1
  Al  Al1  1  0.000000  0.000000  0.000000  1
  Ni  Ni2  1  0.001535  0.001535  0.661895  1
  Ni  Ni3  1  0.616139  0.616139  0.151582  1
  Ni  Ni4  1  0.385724  0.842828  0.385724  1
  Ni  Ni5  1  0.661895  0.335035  0.001535  1
  Ni  Ni6  1  0.001535  0.335035  0.661895  1
  Ni  Ni7  1  0.661895  0.001535  0.001535  1
  Ni  Ni8  1  0.001535  0.001535  0.335035  1
  Ni  Ni9  1  0.001535  0.335035  0.001535  1
  Ni  Ni10  1  0.335035  0.001535  0.661895  1
  Ni  Ni11  1  0.661895  0.001535  0.335035  1
  Ni  Ni12  1  0.335035  0.001535  0.001535  1
  Ni  Ni13  1  0.001535  0.661895  0.001535  1
  Ni  Ni14  1  0.385724  0.385724  0.842828  1
  Ni  Ni15  1  0.001535  0.661895  0.335035  1
  Ni  Ni16  1  0.335035  0.661895  0.001535  1
  Ni  Ni17  1  0.616139  0.151582  0.616139  1
  Ni  Ni18  1  0.151582  0.616139  0.616139  1
  Ni  Ni19  1  0.385724  0.385724  0.385724  1
  Ni  Ni20  1  0.842828  0.385724  0.385724  1
  Ni  Ni21  1  0.616139  0.616139  0.616139  1
  B  B22  1  0.726881  0.726881  0.273119  1
  B  B23  1  0.726881  0.273119  0.726881  1
  B  B24  1  0.273119  0.726881  0.273119  1
  B  B25  1  0.726881  0.273119  0.273119  1
  B  B26  1  0.273119  0.726881  0.726881  1
  B  B27  1  0.273119  0.273119  0.726881  1
  Sb  Sb28  1  0.750000  0.750000  0.750000  1
