# generated using pymatgen
data_PtPbBr6
_symmetry_space_group_name_H-M   'P 1'
_cell_length_a   7.67591159
_cell_length_b   7.67591237
_cell_length_c   7.67591354
_cell_angle_alpha   56.91879832
_cell_angle_beta   56.91880049
_cell_angle_gamma   56.91879631
_symmetry_Int_Tables_number   1
_chemical_formula_structural   PtPbBr6
_chemical_formula_sum   'Pt1 Pb1 Br6'
_cell_volume   297.06823802
_cell_formula_units_Z   1
loop_
 _symmetry_equiv_pos_site_id
 _symmetry_equiv_pos_as_xyz
  1  'x, y, z'
loop_
 _atom_site_type_symbol
 _atom_site_label
 _atom_site_symmetry_multiplicity
 _atom_site_fract_x
 _atom_site_fract_y
 _atom_site_fract_z
 _atom_site_occupancy
  Pt  Pt0  1  0.666627  0.666627  0.666627  1
  Pb  Pb1  1  0.334243  0.334243  0.334243  1
  Br  Br2  1  0.017431  0.462891  0.750684  1
  Br  Br3  1  0.311359  0.866373  0.590392  1
  Br  Br4  1  0.462891  0.750684  0.017431  1
  Br  Br5  1  0.590392  0.311359  0.866373  1
  Br  Br6  1  0.750684  0.017431  0.462891  1
  Br  Br7  1  0.866373  0.590392  0.311359  1
