# generated using pymatgen
data_Er3Co(P3Ir4)2
_symmetry_space_group_name_H-M   'P 1'
_cell_length_a   3.91751100
_cell_length_b   11.08247700
_cell_length_c   12.75812800
_cell_angle_alpha   90.00000000
_cell_angle_beta   90.00000000
_cell_angle_gamma   90.00000000
_symmetry_Int_Tables_number   1
_chemical_formula_structural   Er3Co(P3Ir4)2
_chemical_formula_sum   'Er6 Co2 P12 Ir16'
_cell_volume   553.90338384
_cell_formula_units_Z   2
loop_
 _symmetry_equiv_pos_site_id
 _symmetry_equiv_pos_as_xyz
  1  'x, y, z'
loop_
 _atom_site_type_symbol
 _atom_site_label
 _atom_site_symmetry_multiplicity
 _atom_site_fract_x
 _atom_site_fract_y
 _atom_site_fract_z
 _atom_site_occupancy
  Er  Er0  1  0.000000  0.500000  0.522731  1
  Er  Er1  1  0.500000  0.000000  0.477269  1
  Er  Er2  1  0.500000  0.815768  0.200516  1
  Er  Er3  1  0.500000  0.184232  0.200516  1
  Er  Er4  1  0.000000  0.684232  0.799484  1
  Er  Er5  1  0.000000  0.315768  0.799484  1
  Co  Co6  1  0.000000  0.500000  0.976019  1
  Co  Co7  1  0.500000  0.000000  0.023981  1
  P  P8  1  0.500000  0.500000  0.879730  1
  P  P9  1  0.000000  0.000000  0.120270  1
  P  P10  1  0.500000  0.500000  0.358922  1
  P  P11  1  0.000000  0.000000  0.641078  1
  P  P12  1  0.500000  0.315991  0.619299  1
  P  P13  1  0.500000  0.684009  0.619299  1
  P  P14  1  0.000000  0.184009  0.380701  1
  P  P15  1  0.000000  0.815991  0.380701  1
  P  P16  1  0.500000  0.851747  0.896464  1
  P  P17  1  0.500000  0.148253  0.896464  1
  P  P18  1  0.000000  0.648253  0.103536  1
  P  P19  1  0.000000  0.351747  0.103536  1
  Ir  Ir20  1  0.500000  0.500000  0.178155  1
  Ir  Ir21  1  0.000000  0.000000  0.821845  1
  Ir  Ir22  1  0.500000  0.500000  0.702006  1
  Ir  Ir23  1  0.000000  0.000000  0.297994  1
  Ir  Ir24  1  0.500000  0.339051  0.997715  1
  Ir  Ir25  1  0.500000  0.660949  0.997715  1
  Ir  Ir26  1  0.000000  0.160949  0.002285  1
  Ir  Ir27  1  0.000000  0.839051  0.002285  1
  Ir  Ir28  1  0.500000  0.293195  0.429508  1
  Ir  Ir29  1  0.500000  0.706805  0.429508  1
  Ir  Ir30  1  0.000000  0.206805  0.570492  1
  Ir  Ir31  1  0.000000  0.793195  0.570492  1
  Ir  Ir32  1  0.500000  0.869348  0.714930  1
  Ir  Ir33  1  0.500000  0.130652  0.714930  1
  Ir  Ir34  1  0.000000  0.630652  0.285070  1
  Ir  Ir35  1  0.000000  0.369348  0.285070  1
