# generated using pymatgen
data_Sm3Tc(P3Rh4)2
_symmetry_space_group_name_H-M   'P 1'
_cell_length_a   3.95760800
_cell_length_b   11.20450400
_cell_length_c   12.89302000
_cell_angle_alpha   90.00000000
_cell_angle_beta   90.00000000
_cell_angle_gamma   90.00000000
_symmetry_Int_Tables_number   1
_chemical_formula_structural   Sm3Tc(P3Rh4)2
_chemical_formula_sum   'Sm6 Tc2 P12 Rh16'
_cell_volume   571.71563282
_cell_formula_units_Z   2
loop_
 _symmetry_equiv_pos_site_id
 _symmetry_equiv_pos_as_xyz
  1  'x, y, z'
loop_
 _atom_site_type_symbol
 _atom_site_label
 _atom_site_symmetry_multiplicity
 _atom_site_fract_x
 _atom_site_fract_y
 _atom_site_fract_z
 _atom_site_occupancy
  Sm  Sm0  1  0.000000  0.500000  0.519615  1
  Sm  Sm1  1  0.500000  0.000000  0.480385  1
  Sm  Sm2  1  0.500000  0.815476  0.204960  1
  Sm  Sm3  1  0.500000  0.184524  0.204960  1
  Sm  Sm4  1  0.000000  0.684524  0.795040  1
  Sm  Sm5  1  0.000000  0.315476  0.795040  1
  Tc  Tc6  1  0.500000  0.500000  0.159139  1
  Tc  Tc7  1  0.000000  0.000000  0.840861  1
  P  P8  1  0.500000  0.500000  0.879088  1
  P  P9  1  0.000000  0.000000  0.120912  1
  P  P10  1  0.500000  0.500000  0.343716  1
  P  P11  1  0.000000  0.000000  0.656284  1
  P  P12  1  0.500000  0.314160  0.617681  1
  P  P13  1  0.500000  0.685840  0.617681  1
  P  P14  1  0.000000  0.185840  0.382319  1
  P  P15  1  0.000000  0.814160  0.382319  1
  P  P16  1  0.500000  0.849230  0.889750  1
  P  P17  1  0.500000  0.150770  0.889750  1
  P  P18  1  0.000000  0.650770  0.110250  1
  P  P19  1  0.000000  0.349230  0.110250  1
  Rh  Rh20  1  0.500000  0.500000  0.701892  1
  Rh  Rh21  1  0.000000  0.000000  0.298108  1
  Rh  Rh22  1  0.000000  0.500000  0.988078  1
  Rh  Rh23  1  0.500000  0.000000  0.011922  1
  Rh  Rh24  1  0.500000  0.331570  0.986354  1
  Rh  Rh25  1  0.500000  0.668430  0.986354  1
  Rh  Rh26  1  0.000000  0.168430  0.013646  1
  Rh  Rh27  1  0.000000  0.831570  0.013646  1
  Rh  Rh28  1  0.500000  0.294095  0.431236  1
  Rh  Rh29  1  0.500000  0.705905  0.431236  1
  Rh  Rh30  1  0.000000  0.205905  0.568764  1
  Rh  Rh31  1  0.000000  0.794095  0.568764  1
  Rh  Rh32  1  0.500000  0.876383  0.710042  1
  Rh  Rh33  1  0.500000  0.123617  0.710042  1
  Rh  Rh34  1  0.000000  0.623617  0.289958  1
  Rh  Rh35  1  0.000000  0.376383  0.289958  1
