# generated using pymatgen
data_Gd2Ti2Ge4Mo
_symmetry_space_group_name_H-M   'P 1'
_cell_length_a   6.91770900
_cell_length_b   7.05273600
_cell_length_c   13.50821900
_cell_angle_alpha   90.00000000
_cell_angle_beta   90.00000000
_cell_angle_gamma   90.00000000
_symmetry_Int_Tables_number   1
_chemical_formula_structural   Gd2Ti2Ge4Mo
_chemical_formula_sum   'Gd8 Ti8 Ge16 Mo4'
_cell_volume   659.04946152
_cell_formula_units_Z   4
loop_
 _symmetry_equiv_pos_site_id
 _symmetry_equiv_pos_as_xyz
  1  'x, y, z'
loop_
 _atom_site_type_symbol
 _atom_site_label
 _atom_site_symmetry_multiplicity
 _atom_site_fract_x
 _atom_site_fract_y
 _atom_site_fract_z
 _atom_site_occupancy
  Gd  Gd0  1  0.495861  0.672862  0.095142  1
  Gd  Gd1  1  0.995861  0.827138  0.404858  1
  Gd  Gd2  1  0.504139  0.327138  0.595142  1
  Gd  Gd3  1  0.004139  0.172862  0.904858  1
  Gd  Gd4  1  0.504139  0.327138  0.904858  1
  Gd  Gd5  1  0.004139  0.172862  0.595142  1
  Gd  Gd6  1  0.495861  0.672862  0.404858  1
  Gd  Gd7  1  0.995861  0.827138  0.095142  1
  Ti  Ti8  1  0.660691  0.167898  0.128646  1
  Ti  Ti9  1  0.160691  0.332102  0.371354  1
  Ti  Ti10  1  0.339309  0.832102  0.628646  1
  Ti  Ti11  1  0.839309  0.667898  0.871354  1
  Ti  Ti12  1  0.339309  0.832102  0.871354  1
  Ti  Ti13  1  0.839309  0.667898  0.628646  1
  Ti  Ti14  1  0.660691  0.167898  0.371354  1
  Ti  Ti15  1  0.160691  0.332102  0.128646  1
  Ge  Ge16  1  0.693222  0.863335  0.250000  1
  Ge  Ge17  1  0.193222  0.636665  0.250000  1
  Ge  Ge18  1  0.306778  0.136665  0.750000  1
  Ge  Ge19  1  0.806778  0.363335  0.750000  1
  Ge  Ge20  1  0.669787  0.954367  0.955341  1
  Ge  Ge21  1  0.169787  0.545633  0.544659  1
  Ge  Ge22  1  0.330213  0.045633  0.455341  1
  Ge  Ge23  1  0.830213  0.454367  0.044659  1
  Ge  Ge24  1  0.330213  0.045633  0.044659  1
  Ge  Ge25  1  0.830213  0.454367  0.455341  1
  Ge  Ge26  1  0.669787  0.954367  0.544659  1
  Ge  Ge27  1  0.169787  0.545633  0.955341  1
  Ge  Ge28  1  0.463017  0.373675  0.250000  1
  Ge  Ge29  1  0.963017  0.126325  0.250000  1
  Ge  Ge30  1  0.536983  0.626325  0.750000  1
  Ge  Ge31  1  0.036983  0.873675  0.750000  1
  Mo  Mo32  1  0.335103  0.011765  0.250000  1
  Mo  Mo33  1  0.835103  0.488235  0.250000  1
  Mo  Mo34  1  0.664897  0.988235  0.750000  1
  Mo  Mo35  1  0.164897  0.511765  0.750000  1
