# generated using pymatgen
data_PrHo5Co17P12Ru
_symmetry_space_group_name_H-M   'P 1'
_cell_length_a   3.70515500
_cell_length_b   10.53267900
_cell_length_c   12.23479700
_cell_angle_alpha   90.00000000
_cell_angle_beta   90.00000000
_cell_angle_gamma   90.00000000
_symmetry_Int_Tables_number   1
_chemical_formula_structural   PrHo5Co17P12Ru
_chemical_formula_sum   'Pr1 Ho5 Co17 P12 Ru1'
_cell_volume   477.46550095
_cell_formula_units_Z   1
loop_
 _symmetry_equiv_pos_site_id
 _symmetry_equiv_pos_as_xyz
  1  'x, y, z'
loop_
 _atom_site_type_symbol
 _atom_site_label
 _atom_site_symmetry_multiplicity
 _atom_site_fract_x
 _atom_site_fract_y
 _atom_site_fract_z
 _atom_site_occupancy
  Pr  Pr0  1  0.500000  0.000000  0.477974  1
  Ho  Ho1  1  0.000000  0.500000  0.524171  1
  Ho  Ho2  1  0.500000  0.817176  0.205735  1
  Ho  Ho3  1  0.500000  0.182824  0.205735  1
  Ho  Ho4  1  0.000000  0.682383  0.794117  1
  Ho  Ho5  1  0.000000  0.317617  0.794117  1
  Co  Co6  1  0.000000  0.000000  0.843100  1
  Co  Co7  1  0.500000  0.500000  0.704357  1
  Co  Co8  1  0.000000  0.000000  0.292433  1
  Co  Co9  1  0.000000  0.500000  0.986843  1
  Co  Co10  1  0.500000  0.000000  0.013607  1
  Co  Co11  1  0.500000  0.332547  0.991315  1
  Co  Co12  1  0.500000  0.667453  0.991315  1
  Co  Co13  1  0.000000  0.166874  0.005489  1
  Co  Co14  1  0.000000  0.833126  0.005489  1
  Co  Co15  1  0.500000  0.300159  0.429379  1
  Co  Co16  1  0.500000  0.699841  0.429379  1
  Co  Co17  1  0.000000  0.207102  0.569920  1
  Co  Co18  1  0.000000  0.792898  0.569920  1
  Co  Co19  1  0.500000  0.878435  0.711817  1
  Co  Co20  1  0.500000  0.121565  0.711817  1
  Co  Co21  1  0.000000  0.619878  0.290056  1
  Co  Co22  1  0.000000  0.380122  0.290056  1
  P  P23  1  0.500000  0.500000  0.881832  1
  P  P24  1  0.000000  0.000000  0.115920  1
  P  P25  1  0.500000  0.500000  0.349618  1
  P  P26  1  0.000000  0.000000  0.661199  1
  P  P27  1  0.500000  0.311836  0.616751  1
  P  P28  1  0.500000  0.688164  0.616751  1
  P  P29  1  0.000000  0.192534  0.382185  1
  P  P30  1  0.000000  0.807466  0.382185  1
  P  P31  1  0.500000  0.847794  0.893073  1
  P  P32  1  0.500000  0.152206  0.893073  1
  P  P33  1  0.000000  0.655220  0.105228  1
  P  P34  1  0.000000  0.344780  0.105228  1
  Ru  Ru35  1  0.500000  0.500000  0.158809  1
