# generated using pymatgen
data_Ho3Mg2CdPtAu2
_symmetry_space_group_name_H-M   'P 1'
_cell_length_a   7.71718084
_cell_length_b   7.74353929
_cell_length_c   3.85220800
_cell_angle_alpha   90.00000000
_cell_angle_beta   90.00000000
_cell_angle_gamma   119.66592953
_symmetry_Int_Tables_number   1
_chemical_formula_structural   Ho3Mg2CdPtAu2
_chemical_formula_sum   'Ho3 Mg2 Cd1 Pt1 Au2'
_cell_volume   200.02795522
_cell_formula_units_Z   1
loop_
 _symmetry_equiv_pos_site_id
 _symmetry_equiv_pos_as_xyz
  1  'x, y, z'
loop_
 _atom_site_type_symbol
 _atom_site_label
 _atom_site_symmetry_multiplicity
 _atom_site_fract_x
 _atom_site_fract_y
 _atom_site_fract_z
 _atom_site_occupancy
  Ho  Ho0  1  0.584653  0.977447  0.000000  1
  Ho  Ho1  1  0.011336  0.603237  0.000000  1
  Ho  Ho2  1  0.404341  0.421654  0.000000  1
  Mg  Mg3  1  0.260297  0.004176  0.500000  1
  Mg  Mg4  1  0.997637  0.257131  0.500000  1
  Cd  Cd5  1  0.740453  0.735956  0.500000  1
  Pt  Pt6  1  0.322285  0.664123  0.500000  1
  Au  Au7  1  0.664353  0.321373  0.500000  1
  Au  Au8  1  0.014648  0.014900  0.000000  1
