# generated using pymatgen
data_Ce2Nd2Al17SiRh6
_symmetry_space_group_name_H-M   'P 1'
_cell_length_a   7.59197817
_cell_length_b   7.58811188
_cell_length_c   9.48431006
_cell_angle_alpha   89.96942824
_cell_angle_beta   89.95523929
_cell_angle_gamma   119.52456529
_symmetry_Int_Tables_number   1
_chemical_formula_structural   Ce2Nd2Al17SiRh6
_chemical_formula_sum   'Ce2 Nd2 Al17 Si1 Rh6'
_cell_volume   475.42872778
_cell_formula_units_Z   1
loop_
 _symmetry_equiv_pos_site_id
 _symmetry_equiv_pos_as_xyz
  1  'x, y, z'
loop_
 _atom_site_type_symbol
 _atom_site_label
 _atom_site_symmetry_multiplicity
 _atom_site_fract_x
 _atom_site_fract_y
 _atom_site_fract_z
 _atom_site_occupancy
  Ce  Ce0  1  0.677141  0.003613  0.246749  1
  Ce  Ce1  1  0.328318  0.004358  0.749903  1
  Nd  Nd2  1  0.994613  0.665650  0.247397  1
  Nd  Nd3  1  0.004445  0.328680  0.754372  1
  Al  Al4  1  0.996806  0.668274  0.922509  1
  Al  Al5  1  0.997784  0.664570  0.575249  1
  Al  Al6  1  0.335159  0.000706  0.425064  1
  Al  Al7  1  0.003705  0.336095  0.430706  1
  Al  Al8  1  0.663928  0.997961  0.574480  1
  Al  Al9  1  0.658870  0.992509  0.922357  1
  Al  Al10  1  0.334446  0.000841  0.074569  1
  Al  Al11  1  0.334959  0.334198  0.550021  1
  Al  Al12  1  0.666961  0.667698  0.450550  1
  Al  Al13  1  0.665697  0.666193  0.049913  1
  Al  Al14  1  0.336759  0.334064  0.950859  1
  Al  Al15  1  0.130610  0.131694  0.249924  1
  Al  Al16  1  0.870135  0.869895  0.749215  1
  Al  Al17  1  0.344366  0.550744  0.250355  1
  Al  Al18  1  0.657325  0.450225  0.750475  1
  Al  Al19  1  0.545295  0.340162  0.250228  1
  Al  Al20  1  0.450336  0.658075  0.749374  1
  Si  Si21  1  0.004592  0.335171  0.074681  1
  Rh  Rh22  1  0.678539  0.327755  0.002327  1
  Rh  Rh23  1  0.320631  0.663903  0.000263  1
  Rh  Rh24  1  0.328421  0.671402  0.499663  1
  Rh  Rh25  1  0.671549  0.328254  0.499077  1
  Rh  Rh26  1  0.998515  0.006359  0.000585  1
  Rh  Rh27  1  0.000095  0.000947  0.499136  1
