# generated using pymatgen
data_CeLuB6W
_symmetry_space_group_name_H-M   'P 1'
_cell_length_a   3.67811700
_cell_length_b   9.22828700
_cell_length_c   11.63493300
_cell_angle_alpha   90.00000000
_cell_angle_beta   90.00000000
_cell_angle_gamma   90.00000000
_symmetry_Int_Tables_number   1
_chemical_formula_structural   CeLuB6W
_chemical_formula_sum   'Ce4 Lu4 B24 W4'
_cell_volume   394.92126484
_cell_formula_units_Z   4
loop_
 _symmetry_equiv_pos_site_id
 _symmetry_equiv_pos_as_xyz
  1  'x, y, z'
loop_
 _atom_site_type_symbol
 _atom_site_label
 _atom_site_symmetry_multiplicity
 _atom_site_fract_x
 _atom_site_fract_y
 _atom_site_fract_z
 _atom_site_occupancy
  Ce  Ce0  1  0.000000  0.321556  0.414438  1
  Ce  Ce1  1  0.000000  0.678444  0.585562  1
  Ce  Ce2  1  0.000000  0.821556  0.085562  1
  Ce  Ce3  1  0.000000  0.178444  0.914438  1
  Lu  Lu4  1  0.000000  0.944516  0.371907  1
  Lu  Lu5  1  0.000000  0.055484  0.628093  1
  Lu  Lu6  1  0.000000  0.444516  0.128093  1
  Lu  Lu7  1  0.000000  0.555484  0.871907  1
  B  B8  1  0.500000  0.553681  0.432684  1
  B  B9  1  0.500000  0.446319  0.567316  1
  B  B10  1  0.500000  0.053681  0.067316  1
  B  B11  1  0.500000  0.946319  0.932684  1
  B  B12  1  0.500000  0.752807  0.418648  1
  B  B13  1  0.500000  0.247193  0.581352  1
  B  B14  1  0.500000  0.252807  0.081352  1
  B  B15  1  0.500000  0.747193  0.918648  1
  B  B16  1  0.500000  0.794666  0.264485  1
  B  B17  1  0.500000  0.205334  0.735515  1
  B  B18  1  0.500000  0.294666  0.235515  1
  B  B19  1  0.500000  0.705334  0.764485  1
  B  B20  1  0.500000  0.630520  0.183498  1
  B  B21  1  0.500000  0.369480  0.816502  1
  B  B22  1  0.500000  0.130520  0.316502  1
  B  B23  1  0.500000  0.869480  0.683498  1
  B  B24  1  0.500000  0.980976  0.213799  1
  B  B25  1  0.500000  0.019024  0.786201  1
  B  B26  1  0.500000  0.480976  0.286201  1
  B  B27  1  0.500000  0.519024  0.713799  1
  B  B28  1  0.500000  0.598853  0.027249  1
  B  B29  1  0.500000  0.401147  0.972751  1
  B  B30  1  0.500000  0.098853  0.472751  1
  B  B31  1  0.500000  0.901147  0.527249  1
  W  W32  1  0.000000  0.640074  0.319895  1
  W  W33  1  0.000000  0.359926  0.680105  1
  W  W34  1  0.000000  0.140074  0.180105  1
  W  W35  1  0.000000  0.859926  0.819895  1
