# generated using pymatgen
data_LiHo2(TmSn2)2
_symmetry_space_group_name_H-M   'P 1'
_cell_length_a   7.54402100
_cell_length_b   8.16682100
_cell_length_c   15.43076400
_cell_angle_alpha   90.00000000
_cell_angle_beta   90.00000000
_cell_angle_gamma   90.00000000
_symmetry_Int_Tables_number   1
_chemical_formula_structural   LiHo2(TmSn2)2
_chemical_formula_sum   'Li4 Ho8 Tm8 Sn16'
_cell_volume   950.69969518
_cell_formula_units_Z   4
loop_
 _symmetry_equiv_pos_site_id
 _symmetry_equiv_pos_as_xyz
  1  'x, y, z'
loop_
 _atom_site_type_symbol
 _atom_site_label
 _atom_site_symmetry_multiplicity
 _atom_site_fract_x
 _atom_site_fract_y
 _atom_site_fract_z
 _atom_site_occupancy
  Li  Li0  1  0.169442  0.486238  0.750000  1
  Li  Li1  1  0.669442  0.013762  0.750000  1
  Li  Li2  1  0.830558  0.513762  0.250000  1
  Li  Li3  1  0.330558  0.986238  0.250000  1
  Ho  Ho4  1  0.502485  0.315139  0.907332  1
  Ho  Ho5  1  0.002485  0.184861  0.592668  1
  Ho  Ho6  1  0.497515  0.684861  0.407332  1
  Ho  Ho7  1  0.997515  0.815139  0.092668  1
  Ho  Ho8  1  0.497515  0.684861  0.092668  1
  Ho  Ho9  1  0.997515  0.815139  0.407332  1
  Ho  Ho10  1  0.502485  0.315139  0.592668  1
  Ho  Ho11  1  0.002485  0.184861  0.907332  1
  Tm  Tm12  1  0.338112  0.831539  0.871469  1
  Tm  Tm13  1  0.838112  0.668461  0.628531  1
  Tm  Tm14  1  0.661888  0.168461  0.371469  1
  Tm  Tm15  1  0.161888  0.331539  0.128531  1
  Tm  Tm16  1  0.661888  0.168461  0.128531  1
  Tm  Tm17  1  0.161888  0.331539  0.371469  1
  Tm  Tm18  1  0.338112  0.831539  0.628531  1
  Tm  Tm19  1  0.838112  0.668461  0.871469  1
  Sn  Sn20  1  0.317497  0.038378  0.038911  1
  Sn  Sn21  1  0.817497  0.461622  0.461089  1
  Sn  Sn22  1  0.682503  0.961622  0.538911  1
  Sn  Sn23  1  0.182503  0.538378  0.961089  1
  Sn  Sn24  1  0.682503  0.961622  0.961089  1
  Sn  Sn25  1  0.182503  0.538378  0.538911  1
  Sn  Sn26  1  0.317497  0.038378  0.461089  1
  Sn  Sn27  1  0.817497  0.461622  0.038911  1
  Sn  Sn28  1  0.522440  0.593300  0.750000  1
  Sn  Sn29  1  0.022440  0.906700  0.750000  1
  Sn  Sn30  1  0.477560  0.406700  0.250000  1
  Sn  Sn31  1  0.977560  0.093300  0.250000  1
  Sn  Sn32  1  0.307530  0.148217  0.750000  1
  Sn  Sn33  1  0.807530  0.351783  0.750000  1
  Sn  Sn34  1  0.692470  0.851783  0.250000  1
  Sn  Sn35  1  0.192470  0.648217  0.250000  1
