# generated using pymatgen
data_CdAg10Sn2PbO12
_symmetry_space_group_name_H-M   'P 1'
_cell_length_a   8.73965908
_cell_length_b   8.73965909
_cell_length_c   5.94123445
_cell_angle_alpha   70.10235533
_cell_angle_beta   70.10235721
_cell_angle_gamma   71.72861426
_symmetry_Int_Tables_number   1
_chemical_formula_structural   CdAg10Sn2PbO12
_chemical_formula_sum   'Cd1 Ag10 Sn2 Pb1 O12'
_cell_volume   391.07907910
_cell_formula_units_Z   1
loop_
 _symmetry_equiv_pos_site_id
 _symmetry_equiv_pos_as_xyz
  1  'x, y, z'
loop_
 _atom_site_type_symbol
 _atom_site_label
 _atom_site_symmetry_multiplicity
 _atom_site_fract_x
 _atom_site_fract_y
 _atom_site_fract_z
 _atom_site_occupancy
  Cd  Cd0  1  0.420635  0.579365  0.000000  1
  Ag  Ag1  1  0.251053  0.250275  0.002230  1
  Ag  Ag2  1  0.748653  0.749476  0.496871  1
  Ag  Ag3  1  0.250524  0.251347  0.503129  1
  Ag  Ag4  1  0.749725  0.748947  0.997770  1
  Ag  Ag5  1  0.503134  0.004337  0.749084  1
  Ag  Ag6  1  0.995663  0.496866  0.250916  1
  Ag  Ag7  1  0.118801  0.609855  0.637932  1
  Ag  Ag8  1  0.610239  0.119255  0.131847  1
  Ag  Ag9  1  0.390145  0.881199  0.362068  1
  Ag  Ag10  1  0.880745  0.389761  0.868153  1
  Sn  Sn11  1  0.913636  0.086364  0.500000  1
  Sn  Sn12  1  0.583311  0.416689  0.500000  1
  Pb  Pb13  1  0.083736  0.916264  0.000000  1
  O  O14  1  0.664991  0.522682  0.692171  1
  O  O15  1  0.144403  0.040202  0.232153  1
  O  O16  1  0.543314  0.646024  0.234485  1
  O  O17  1  0.025202  0.157272  0.704765  1
  O  O18  1  0.341411  0.857895  0.778158  1
  O  O19  1  0.839583  0.334830  0.291998  1
  O  O20  1  0.353976  0.456686  0.765515  1
  O  O21  1  0.842728  0.974798  0.295235  1
  O  O22  1  0.477318  0.335009  0.307829  1
  O  O23  1  0.959798  0.855597  0.767847  1
  O  O24  1  0.665170  0.160417  0.708002  1
  O  O25  1  0.142105  0.658589  0.221842  1
