# generated using pymatgen
data_Cs3Ta2AsS11
_symmetry_space_group_name_H-M   'P 1'
_cell_length_a   10.25561334
_cell_length_b   10.25561332
_cell_length_c   10.10609818
_cell_angle_alpha   85.47524759
_cell_angle_beta   85.47525123
_cell_angle_gamma   86.05066569
_symmetry_Int_Tables_number   1
_chemical_formula_structural   Cs3Ta2AsS11
_chemical_formula_sum   'Cs6 Ta4 As2 S22'
_cell_volume   1054.21870241
_cell_formula_units_Z   2
loop_
 _symmetry_equiv_pos_site_id
 _symmetry_equiv_pos_as_xyz
  1  'x, y, z'
loop_
 _atom_site_type_symbol
 _atom_site_label
 _atom_site_symmetry_multiplicity
 _atom_site_fract_x
 _atom_site_fract_y
 _atom_site_fract_z
 _atom_site_occupancy
  Cs  Cs0  1  0.303811  0.461083  0.338618  1
  Cs  Cs1  1  0.461083  0.303811  0.838618  1
  Cs  Cs2  1  0.566262  0.699495  0.670103  1
  Cs  Cs3  1  0.699495  0.566262  0.170103  1
  Cs  Cs4  1  0.931534  0.095846  0.926603  1
  Cs  Cs5  1  0.095846  0.931534  0.426603  1
  Ta  Ta6  1  0.202675  0.664180  0.944338  1
  Ta  Ta7  1  0.664180  0.202675  0.444338  1
  Ta  Ta8  1  0.954902  0.537698  0.762135  1
  Ta  Ta9  1  0.537698  0.954902  0.262135  1
  As  As10  1  0.999240  0.328314  0.509747  1
  As  As11  1  0.328314  0.999240  0.009747  1
  S  S12  1  0.211973  0.634819  0.701721  1
  S  S13  1  0.634819  0.211973  0.201721  1
  S  S14  1  0.229101  0.826662  0.753604  1
  S  S15  1  0.826662  0.229101  0.253604  1
  S  S16  1  0.404238  0.588116  0.995836  1
  S  S17  1  0.588116  0.404238  0.495836  1
  S  S18  1  0.111284  0.344988  0.696462  1
  S  S19  1  0.344988  0.111284  0.196462  1
  S  S20  1  0.563795  0.056268  0.625180  1
  S  S21  1  0.056268  0.563795  0.125180  1
  S  S22  1  0.776019  0.437362  0.845435  1
  S  S23  1  0.437362  0.776019  0.345435  1
  S  S24  1  0.916018  0.537082  0.521223  1
  S  S25  1  0.537082  0.916018  0.021223  1
  S  S26  1  0.891746  0.771057  0.709539  1
  S  S27  1  0.771057  0.891746  0.209539  1
  S  S28  1  0.850895  0.180642  0.592222  1
  S  S29  1  0.180642  0.850895  0.092222  1
  S  S30  1  0.094399  0.448811  0.963235  1
  S  S31  1  0.448811  0.094399  0.463235  1
  S  S32  1  0.936350  0.723834  0.905351  1
  S  S33  1  0.723834  0.936350  0.405351  1
