# generated using pymatgen
data_Na8Hf3SbCl24
_symmetry_space_group_name_H-M   'P 1'
_cell_length_a   6.77393900
_cell_length_b   6.77393853
_cell_length_c   25.23440900
_cell_angle_alpha   90.00000000
_cell_angle_beta   90.00000000
_cell_angle_gamma   119.99999743
_symmetry_Int_Tables_number   1
_chemical_formula_structural   Na8Hf3SbCl24
_chemical_formula_sum   'Na8 Hf3 Sb1 Cl24'
_cell_volume   1002.78150042
_cell_formula_units_Z   1
loop_
 _symmetry_equiv_pos_site_id
 _symmetry_equiv_pos_as_xyz
  1  'x, y, z'
loop_
 _atom_site_type_symbol
 _atom_site_label
 _atom_site_symmetry_multiplicity
 _atom_site_fract_x
 _atom_site_fract_y
 _atom_site_fract_z
 _atom_site_occupancy
  Na  Na0  1  0.000000  0.000000  0.250140  1
  Na  Na1  1  0.000000  0.000000  0.749860  1
  Na  Na2  1  0.333333  0.666667  0.000369  1
  Na  Na3  1  0.333333  0.666667  0.499600  1
  Na  Na4  1  0.333333  0.666667  0.250105  1
  Na  Na5  1  0.666667  0.333333  0.749895  1
  Na  Na6  1  0.666667  0.333333  0.999631  1
  Na  Na7  1  0.666667  0.333333  0.500400  1
  Hf  Hf8  1  0.000000  0.000000  0.500000  1
  Hf  Hf9  1  0.333333  0.666667  0.749779  1
  Hf  Hf10  1  0.666667  0.333333  0.250221  1
  Sb  Sb11  1  0.000000  0.000000  0.000000  1
  Cl  Cl12  1  0.370689  0.036918  0.307038  1
  Cl  Cl13  1  0.333919  0.963131  0.806700  1
  Cl  Cl14  1  0.999410  0.305279  0.058615  1
  Cl  Cl15  1  0.000678  0.296510  0.556888  1
  Cl  Cl16  1  0.963082  0.333772  0.307038  1
  Cl  Cl17  1  0.036869  0.370787  0.806700  1
  Cl  Cl18  1  0.370787  0.333919  0.193300  1
  Cl  Cl19  1  0.333772  0.370689  0.692962  1
  Cl  Cl20  1  0.296510  0.295832  0.443112  1
  Cl  Cl21  1  0.305279  0.305869  0.941385  1
  Cl  Cl22  1  0.704168  0.000678  0.443112  1
  Cl  Cl23  1  0.305869  0.000590  0.058615  1
  Cl  Cl24  1  0.295832  0.999322  0.556888  1
  Cl  Cl25  1  0.694721  0.694131  0.058615  1
  Cl  Cl26  1  0.703490  0.704168  0.556888  1
  Cl  Cl27  1  0.666228  0.629311  0.307038  1
  Cl  Cl28  1  0.629213  0.666081  0.806700  1
  Cl  Cl29  1  0.963131  0.629213  0.193300  1
  Cl  Cl30  1  0.036918  0.666228  0.692962  1
  Cl  Cl31  1  0.999322  0.703490  0.443112  1
  Cl  Cl32  1  0.000590  0.694721  0.941385  1
  Cl  Cl33  1  0.694131  0.999410  0.941385  1
  Cl  Cl34  1  0.666081  0.036869  0.193300  1
  Cl  Cl35  1  0.629311  0.963082  0.692962  1
