# generated using pymatgen
data_HoEr5Co17P12Os
_symmetry_space_group_name_H-M   'P 1'
_cell_length_a   3.68590900
_cell_length_b   10.47743400
_cell_length_c   12.17265500
_cell_angle_alpha   90.00000000
_cell_angle_beta   90.00000000
_cell_angle_gamma   90.00000000
_symmetry_Int_Tables_number   1
_chemical_formula_structural   HoEr5Co17P12Os
_chemical_formula_sum   'Ho1 Er5 Co17 P12 Os1'
_cell_volume   470.09416003
_cell_formula_units_Z   1
loop_
 _symmetry_equiv_pos_site_id
 _symmetry_equiv_pos_as_xyz
  1  'x, y, z'
loop_
 _atom_site_type_symbol
 _atom_site_label
 _atom_site_symmetry_multiplicity
 _atom_site_fract_x
 _atom_site_fract_y
 _atom_site_fract_z
 _atom_site_occupancy
  Ho  Ho0  1  0.250000  0.750000  0.521972  1
  Er  Er1  1  0.750000  0.250000  0.475032  1
  Er  Er2  1  0.250000  0.932222  0.792829  1
  Er  Er3  1  0.250000  0.567778  0.792829  1
  Er  Er4  1  0.750000  0.067092  0.206083  1
  Er  Er5  1  0.750000  0.432908  0.206083  1
  Co  Co6  1  0.750000  0.750000  0.160316  1
  Co  Co7  1  0.250000  0.250000  0.296562  1
  Co  Co8  1  0.750000  0.750000  0.704715  1
  Co  Co9  1  0.750000  0.250000  0.011880  1
  Co  Co10  1  0.250000  0.750000  0.985554  1
  Co  Co11  1  0.250000  0.417482  0.009047  1
  Co  Co12  1  0.250000  0.082518  0.009047  1
  Co  Co13  1  0.750000  0.583111  0.994242  1
  Co  Co14  1  0.750000  0.916889  0.994242  1
  Co  Co15  1  0.250000  0.452322  0.569477  1
  Co  Co16  1  0.250000  0.047678  0.569477  1
  Co  Co17  1  0.750000  0.546943  0.431352  1
  Co  Co18  1  0.750000  0.953057  0.431352  1
  Co  Co19  1  0.250000  0.871410  0.290945  1
  Co  Co20  1  0.250000  0.628590  0.290945  1
  Co  Co21  1  0.750000  0.129202  0.708605  1
  Co  Co22  1  0.750000  0.370798  0.708605  1
  P  P23  1  0.250000  0.250000  0.119401  1
  P  P24  1  0.750000  0.750000  0.882590  1
  P  P25  1  0.250000  0.250000  0.648178  1
  P  P26  1  0.750000  0.750000  0.344952  1
  P  P27  1  0.250000  0.438051  0.383370  1
  P  P28  1  0.250000  0.061949  0.383370  1
  P  P29  1  0.750000  0.562362  0.616174  1
  P  P30  1  0.750000  0.937638  0.616174  1
  P  P31  1  0.250000  0.900943  0.108571  1
  P  P32  1  0.250000  0.599057  0.108571  1
  P  P33  1  0.750000  0.093866  0.893385  1
  P  P34  1  0.750000  0.406134  0.893385  1
  Os  Os35  1  0.250000  0.250000  0.840683  1
