# generated using pymatgen
data_SmPa3AgTe12
_symmetry_space_group_name_H-M   'P 1'
_cell_length_a   7.48155575
_cell_length_b   7.47813256
_cell_length_c   11.62654587
_cell_angle_alpha   71.99947165
_cell_angle_beta   71.88151308
_cell_angle_gamma   69.90724346
_symmetry_Int_Tables_number   1
_chemical_formula_structural   SmPa3AgTe12
_chemical_formula_sum   'Sm1 Pa3 Ag1 Te12'
_cell_volume   565.50936524
_cell_formula_units_Z   1
loop_
 _symmetry_equiv_pos_site_id
 _symmetry_equiv_pos_as_xyz
  1  'x, y, z'
loop_
 _atom_site_type_symbol
 _atom_site_label
 _atom_site_symmetry_multiplicity
 _atom_site_fract_x
 _atom_site_fract_y
 _atom_site_fract_z
 _atom_site_occupancy
  Sm  Sm0  1  0.195350  0.688484  0.160744  1
  Pa  Pa1  1  0.807575  0.807741  0.837886  1
  Pa  Pa2  1  0.310467  0.311050  0.842292  1
  Pa  Pa3  1  0.691049  0.196637  0.155450  1
  Ag  Ag4  1  0.816609  0.818011  0.533661  1
  Te  Te5  1  0.011099  0.024206  0.311131  1
  Te  Te6  1  0.514765  0.499530  0.320821  1
  Te  Te7  1  0.472539  0.988177  0.692428  1
  Te  Te8  1  0.990849  0.473659  0.688000  1
  Te  Te9  1  0.269335  0.254521  0.322609  1
  Te  Te10  1  0.751913  0.766146  0.316285  1
  Te  Te11  1  0.235646  0.736568  0.686357  1
  Te  Te12  1  0.737581  0.235754  0.683276  1
  Te  Te13  1  0.015733  0.025762  0.944668  1
  Te  Te14  1  0.526866  0.517667  0.940640  1
  Te  Te15  1  0.487927  0.984525  0.049214  1
  Te  Te16  1  0.975994  0.482861  0.048938  1
