# generated using pymatgen
data_YbTmSc2(Pt2O7)2
_symmetry_space_group_name_H-M   'P 1'
_cell_length_a   7.16692918
_cell_length_b   7.12797432
_cell_length_c   7.12797292
_cell_angle_alpha   59.70942329
_cell_angle_beta   60.08883787
_cell_angle_gamma   60.08883941
_symmetry_Int_Tables_number   1
_chemical_formula_structural   YbTmSc2(Pt2O7)2
_chemical_formula_sum   'Yb1 Tm1 Sc2 Pt4 O14'
_cell_volume   257.25676372
_cell_formula_units_Z   1
loop_
 _symmetry_equiv_pos_site_id
 _symmetry_equiv_pos_as_xyz
  1  'x, y, z'
loop_
 _atom_site_type_symbol
 _atom_site_label
 _atom_site_symmetry_multiplicity
 _atom_site_fract_x
 _atom_site_fract_y
 _atom_site_fract_z
 _atom_site_occupancy
  Yb  Yb0  1  0.125000  0.625000  0.625000  1
  Tm  Tm1  1  0.625000  0.625000  0.625000  1
  Sc  Sc2  1  0.625000  0.625000  0.125000  1
  Sc  Sc3  1  0.625000  0.125000  0.625000  1
  Pt  Pt4  1  0.125000  0.125000  0.125000  1
  Pt  Pt5  1  0.625000  0.125000  0.125000  1
  Pt  Pt6  1  0.125000  0.625000  0.125000  1
  Pt  Pt7  1  0.125000  0.125000  0.625000  1
  O  O8  1  0.026030  0.466918  0.466918  1
  O  O9  1  0.780101  0.781125  0.214961  1
  O  O10  1  0.781313  0.218306  0.218306  1
  O  O11  1  0.469899  0.035039  0.468875  1
  O  O12  1  0.021465  0.046313  0.465777  1
  O  O13  1  0.021465  0.465777  0.046313  1
  O  O14  1  0.731666  0.762498  0.762498  1
  O  O15  1  0.518334  0.487502  0.487502  1
  O  O16  1  0.780101  0.214961  0.781125  1
  O  O17  1  0.228535  0.784223  0.203687  1
  O  O18  1  0.228535  0.203687  0.784223  1
  O  O19  1  0.468687  0.031694  0.031694  1
  O  O20  1  0.469899  0.468875  0.035039  1
  O  O21  1  0.223970  0.783082  0.783082  1
