# generated using pymatgen
data_Sm2U(InIr)3
_symmetry_space_group_name_H-M   'P 1'
_cell_length_a   7.53616629
_cell_length_b   7.53616745
_cell_length_c   3.91257100
_cell_angle_alpha   90.00000000
_cell_angle_beta   90.00000000
_cell_angle_gamma   117.54793020
_symmetry_Int_Tables_number   1
_chemical_formula_structural   Sm2U(InIr)3
_chemical_formula_sum   'Sm2 U1 In3 Ir3'
_cell_volume   197.01661396
_cell_formula_units_Z   1
loop_
 _symmetry_equiv_pos_site_id
 _symmetry_equiv_pos_as_xyz
  1  'x, y, z'
loop_
 _atom_site_type_symbol
 _atom_site_label
 _atom_site_symmetry_multiplicity
 _atom_site_fract_x
 _atom_site_fract_y
 _atom_site_fract_z
 _atom_site_occupancy
  Sm  Sm0  1  0.405781  0.999207  0.000000  1
  Sm  Sm1  1  0.999207  0.405781  0.000000  1
  U  U2  1  0.584004  0.584004  0.000000  1
  In  In3  1  0.009647  0.742911  0.500000  1
  In  In4  1  0.241970  0.241970  0.500000  1
  In  In5  1  0.742911  0.009647  0.500000  1
  Ir  Ir6  1  0.984065  0.984065  0.000000  1
  Ir  Ir7  1  0.660946  0.371469  0.500000  1
  Ir  Ir8  1  0.371469  0.660946  0.500000  1
