# generated using pymatgen
data_Ho8Ga(Pd3Pt5)3
_symmetry_space_group_name_H-M   'P 1'
_cell_length_a   8.33738718
_cell_length_b   8.33738718
_cell_length_c   8.33738718
_cell_angle_alpha   90.01689299
_cell_angle_beta   90.01689299
_cell_angle_gamma   89.98310701
_symmetry_Int_Tables_number   1
_chemical_formula_structural   Ho8Ga(Pd3Pt5)3
_chemical_formula_sum   'Ho8 Ga1 Pd9 Pt15'
_cell_volume   579.54859069
_cell_formula_units_Z   1
loop_
 _symmetry_equiv_pos_site_id
 _symmetry_equiv_pos_as_xyz
  1  'x, y, z'
loop_
 _atom_site_type_symbol
 _atom_site_label
 _atom_site_symmetry_multiplicity
 _atom_site_fract_x
 _atom_site_fract_y
 _atom_site_fract_z
 _atom_site_occupancy
  Ho  Ho0  1  0.251753  0.251753  0.748247  1
  Ho  Ho1  1  0.251693  0.748295  0.251705  1
  Ho  Ho2  1  0.748295  0.251693  0.251705  1
  Ho  Ho3  1  0.748295  0.748295  0.748307  1
  Ho  Ho4  1  0.748397  0.748397  0.251603  1
  Ho  Ho5  1  0.748293  0.251775  0.748225  1
  Ho  Ho6  1  0.251775  0.748293  0.748225  1
  Ho  Ho7  1  0.251775  0.251775  0.251707  1
  Ga  Ga8  1  0.000033  0.000033  0.999967  1
  Pd  Pd9  1  0.499882  0.499882  0.253189  1
  Pd  Pd10  1  0.499882  0.746811  0.500118  1
  Pd  Pd11  1  0.746811  0.499882  0.500118  1
  Pd  Pd12  1  0.999938  0.999938  0.707750  1
  Pd  Pd13  1  0.999938  0.292250  0.000062  1
  Pd  Pd14  1  0.292250  0.999938  0.000062  1
  Pd  Pd15  1  0.999925  0.999925  0.292106  1
  Pd  Pd16  1  0.999925  0.707894  0.000075  1
  Pd  Pd17  1  0.707894  0.999925  0.000075  1
  Pt  Pt18  1  0.499812  0.499812  0.746848  1
  Pt  Pt19  1  0.499812  0.253152  0.500188  1
  Pt  Pt20  1  0.253152  0.499812  0.500188  1
  Pt  Pt21  1  0.000067  0.500054  0.740051  1
  Pt  Pt22  1  0.500054  0.259949  0.999933  1
  Pt  Pt23  1  0.259949  0.000067  0.499946  1
  Pt  Pt24  1  0.000067  0.259949  0.499946  1
  Pt  Pt25  1  0.500054  0.000067  0.740051  1
  Pt  Pt26  1  0.259949  0.500054  0.999933  1
  Pt  Pt27  1  0.000126  0.500043  0.260004  1
  Pt  Pt28  1  0.500043  0.739996  0.999874  1
  Pt  Pt29  1  0.000126  0.739996  0.499957  1
  Pt  Pt30  1  0.500043  0.000126  0.260004  1
  Pt  Pt31  1  0.739996  0.000126  0.499957  1
  Pt  Pt32  1  0.739996  0.500043  0.999874  1
