# generated using pymatgen
data_Li4Yb8Si11Sn
_symmetry_space_group_name_H-M   'P 1'
_cell_length_a   4.35963900
_cell_length_b   10.60910235
_cell_length_c   11.27280275
_cell_angle_alpha   89.67920587
_cell_angle_beta   90.00000000
_cell_angle_gamma   90.00000000
_symmetry_Int_Tables_number   1
_chemical_formula_structural   Li4Yb8Si11Sn
_chemical_formula_sum   'Li4 Yb8 Si11 Sn1'
_cell_volume   521.37988126
_cell_formula_units_Z   1
loop_
 _symmetry_equiv_pos_site_id
 _symmetry_equiv_pos_as_xyz
  1  'x, y, z'
loop_
 _atom_site_type_symbol
 _atom_site_label
 _atom_site_symmetry_multiplicity
 _atom_site_fract_x
 _atom_site_fract_y
 _atom_site_fract_z
 _atom_site_occupancy
  Li  Li0  1  0.500000  0.862526  0.295413  1
  Li  Li1  1  0.500000  0.140929  0.716717  1
  Li  Li2  1  0.000000  0.364106  0.217138  1
  Li  Li3  1  0.000000  0.635550  0.779393  1
  Yb  Yb4  1  0.500000  0.552040  0.349115  1
  Yb  Yb5  1  0.500000  0.448370  0.649957  1
  Yb  Yb6  1  0.000000  0.061863  0.154030  1
  Yb  Yb7  1  0.000000  0.950790  0.847770  1
  Yb  Yb8  1  0.500000  0.820487  0.574357  1
  Yb  Yb9  1  0.500000  0.178692  0.427126  1
  Yb  Yb10  1  0.000000  0.323132  0.926151  1
  Yb  Yb11  1  0.000000  0.666539  0.070738  1
  Si  Si12  1  0.500000  0.118608  0.957146  1
  Si  Si13  1  0.000000  0.392328  0.458817  1
  Si  Si14  1  0.000000  0.606356  0.540520  1
  Si  Si15  1  0.000000  0.965220  0.402137  1
  Si  Si16  1  0.000000  0.034990  0.598413  1
  Si  Si17  1  0.500000  0.467941  0.098572  1
  Si  Si18  1  0.500000  0.529742  0.898664  1
  Si  Si19  1  0.000000  0.254788  0.630277  1
  Si  Si20  1  0.000000  0.744333  0.369805  1
  Si  Si21  1  0.500000  0.747228  0.855367  1
  Si  Si22  1  0.500000  0.249069  0.131697  1
  Sn  Sn23  1  0.500000  0.884370  0.050675  1
