# generated using pymatgen
data_Ca3Y4HoCd8
_symmetry_space_group_name_H-M   'P 1'
_cell_length_a   7.52006801
_cell_length_b   7.51079400
_cell_length_c   7.49742800
_cell_angle_alpha   90.00000000
_cell_angle_beta   90.00217905
_cell_angle_gamma   90.00000000
_symmetry_Int_Tables_number   1
_chemical_formula_structural   Ca3Y4HoCd8
_chemical_formula_sum   'Ca3 Y4 Ho1 Cd8'
_cell_volume   423.46734122
_cell_formula_units_Z   1
loop_
 _symmetry_equiv_pos_site_id
 _symmetry_equiv_pos_as_xyz
  1  'x, y, z'
loop_
 _atom_site_type_symbol
 _atom_site_label
 _atom_site_symmetry_multiplicity
 _atom_site_fract_x
 _atom_site_fract_y
 _atom_site_fract_z
 _atom_site_occupancy
  Ca  Ca0  1  0.249823  0.750000  0.499727  1
  Ca  Ca1  1  0.749994  0.250000  0.500376  1
  Ca  Ca2  1  0.250245  0.750000  0.999667  1
  Y  Y3  1  0.251275  0.250000  0.999993  1
  Y  Y4  1  0.748770  0.750000  0.999989  1
  Y  Y5  1  0.751179  0.750000  0.500010  1
  Y  Y6  1  0.249093  0.250000  0.500063  1
  Ho  Ho7  1  0.749355  0.250000  0.000083  1
  Cd  Cd8  1  0.998657  0.498605  0.247874  1
  Cd  Cd9  1  0.998657  0.001397  0.247874  1
  Cd  Cd10  1  0.501664  0.001540  0.250447  1
  Cd  Cd11  1  0.501664  0.498460  0.250447  1
  Cd  Cd12  1  0.501412  0.498654  0.749575  1
  Cd  Cd13  1  0.501412  0.001348  0.749575  1
  Cd  Cd14  1  0.998399  0.001565  0.752151  1
  Cd  Cd15  1  0.998399  0.498435  0.752151  1
