# generated using pymatgen
data_TiCo2SiMoP
_symmetry_space_group_name_H-M   'P 1'
_cell_length_a   3.58898500
_cell_length_b   6.06153500
_cell_length_c   6.90250500
_cell_angle_alpha   90.00000000
_cell_angle_beta   90.00000000
_cell_angle_gamma   90.00000000
_symmetry_Int_Tables_number   1
_chemical_formula_structural   TiCo2SiMoP
_chemical_formula_sum   'Ti2 Co4 Si2 Mo2 P2'
_cell_volume   150.16232719
_cell_formula_units_Z   2
loop_
 _symmetry_equiv_pos_site_id
 _symmetry_equiv_pos_as_xyz
  1  'x, y, z'
loop_
 _atom_site_type_symbol
 _atom_site_label
 _atom_site_symmetry_multiplicity
 _atom_site_fract_x
 _atom_site_fract_y
 _atom_site_fract_z
 _atom_site_occupancy
  Ti  Ti0  1  0.750000  0.022538  0.678350  1
  Ti  Ti1  1  0.750000  0.522538  0.821650  1
  Co  Co2  1  0.250000  0.859459  0.929319  1
  Co  Co3  1  0.250000  0.359459  0.570681  1
  Co  Co4  1  0.750000  0.144038  0.052533  1
  Co  Co5  1  0.750000  0.644038  0.447467  1
  Si  Si6  1  0.750000  0.773089  0.125080  1
  Si  Si7  1  0.750000  0.273089  0.374920  1
  Mo  Mo8  1  0.250000  0.971421  0.329072  1
  Mo  Mo9  1  0.250000  0.471421  0.170928  1
  P  P10  1  0.250000  0.229455  0.880236  1
  P  P11  1  0.250000  0.729455  0.619764  1
