# generated using pymatgen
data_Y5Bi2As
_symmetry_space_group_name_H-M   'P 1'
_cell_length_a   12.14323100
_cell_length_b   9.16992100
_cell_length_c   8.08490300
_cell_angle_alpha   90.00000000
_cell_angle_beta   90.00000000
_cell_angle_gamma   90.00000000
_symmetry_Int_Tables_number   1
_chemical_formula_structural   Y5Bi2As
_chemical_formula_sum   'Y20 Bi8 As4'
_cell_volume   900.27391031
_cell_formula_units_Z   4
loop_
 _symmetry_equiv_pos_site_id
 _symmetry_equiv_pos_as_xyz
  1  'x, y, z'
loop_
 _atom_site_type_symbol
 _atom_site_label
 _atom_site_symmetry_multiplicity
 _atom_site_fract_x
 _atom_site_fract_y
 _atom_site_fract_z
 _atom_site_occupancy
  Y  Y0  1  0.563616  0.053729  0.316687  1
  Y  Y1  1  0.063616  0.446271  0.183313  1
  Y  Y2  1  0.436384  0.553729  0.683313  1
  Y  Y3  1  0.936384  0.946271  0.816687  1
  Y  Y4  1  0.436384  0.946271  0.683313  1
  Y  Y5  1  0.936384  0.553729  0.816687  1
  Y  Y6  1  0.563616  0.446271  0.316687  1
  Y  Y7  1  0.063616  0.053729  0.183313  1
  Y  Y8  1  0.711146  0.250000  0.657292  1
  Y  Y9  1  0.211146  0.250000  0.842708  1
  Y  Y10  1  0.288854  0.750000  0.342708  1
  Y  Y11  1  0.788854  0.750000  0.157292  1
  Y  Y12  1  0.500505  0.250000  0.963903  1
  Y  Y13  1  0.000505  0.250000  0.536097  1
  Y  Y14  1  0.499495  0.750000  0.036097  1
  Y  Y15  1  0.999495  0.750000  0.463903  1
  Y  Y16  1  0.794831  0.250000  0.135555  1
  Y  Y17  1  0.294831  0.250000  0.364445  1
  Y  Y18  1  0.205169  0.750000  0.864445  1
  Y  Y19  1  0.705169  0.750000  0.635555  1
  Bi  Bi20  1  0.826617  0.009940  0.427490  1
  Bi  Bi21  1  0.326617  0.490060  0.072510  1
  Bi  Bi22  1  0.173383  0.509940  0.572510  1
  Bi  Bi23  1  0.673383  0.990060  0.927490  1
  Bi  Bi24  1  0.173383  0.990060  0.572510  1
  Bi  Bi25  1  0.673383  0.509940  0.927490  1
  Bi  Bi26  1  0.826617  0.490060  0.427490  1
  Bi  Bi27  1  0.326617  0.009940  0.072510  1
  As  As28  1  0.980671  0.250000  0.914906  1
  As  As29  1  0.480671  0.250000  0.585094  1
  As  As30  1  0.019329  0.750000  0.085094  1
  As  As31  1  0.519329  0.750000  0.414906  1
