# generated using pymatgen
data_Er5Tm3Re2(B12Ru)2
_symmetry_space_group_name_H-M   'P 1'
_cell_length_a   3.63854600
_cell_length_b   9.09894645
_cell_length_c   11.47989900
_cell_angle_alpha   89.81077865
_cell_angle_beta   90.00000000
_cell_angle_gamma   90.00000000
_symmetry_Int_Tables_number   1
_chemical_formula_structural   Er5Tm3Re2(B12Ru)2
_chemical_formula_sum   'Er5 Tm3 Re2 B24 Ru2'
_cell_volume   380.06219994
_cell_formula_units_Z   1
loop_
 _symmetry_equiv_pos_site_id
 _symmetry_equiv_pos_as_xyz
  1  'x, y, z'
loop_
 _atom_site_type_symbol
 _atom_site_label
 _atom_site_symmetry_multiplicity
 _atom_site_fract_x
 _atom_site_fract_y
 _atom_site_fract_z
 _atom_site_occupancy
  Er  Er0  1  0.000000  0.324498  0.415498  1
  Er  Er1  1  0.000000  0.675478  0.584596  1
  Er  Er2  1  0.000000  0.820643  0.087603  1
  Er  Er3  1  0.000000  0.179340  0.912308  1
  Er  Er4  1  0.000000  0.943018  0.371083  1
  Tm  Tm5  1  0.000000  0.057056  0.629154  1
  Tm  Tm6  1  0.000000  0.442836  0.129103  1
  Tm  Tm7  1  0.000000  0.557150  0.870839  1
  Re  Re8  1  0.000000  0.638235  0.320026  1
  Re  Re9  1  0.000000  0.361461  0.679972  1
  B  B10  1  0.500000  0.552799  0.433357  1
  B  B11  1  0.500000  0.447077  0.566693  1
  B  B12  1  0.500000  0.053732  0.066677  1
  B  B13  1  0.500000  0.946297  0.933247  1
  B  B14  1  0.500000  0.749193  0.419383  1
  B  B15  1  0.500000  0.250501  0.580666  1
  B  B16  1  0.500000  0.249094  0.080705  1
  B  B17  1  0.500000  0.750958  0.919264  1
  B  B18  1  0.500000  0.792105  0.265012  1
  B  B19  1  0.500000  0.207604  0.734893  1
  B  B20  1  0.500000  0.291243  0.234115  1
  B  B21  1  0.500000  0.708867  0.765851  1
  B  B22  1  0.500000  0.630944  0.184515  1
  B  B23  1  0.500000  0.368970  0.815433  1
  B  B24  1  0.500000  0.131090  0.314293  1
  B  B25  1  0.500000  0.869204  0.685609  1
  B  B26  1  0.500000  0.982862  0.211889  1
  B  B27  1  0.500000  0.017280  0.787898  1
  B  B28  1  0.500000  0.481644  0.287182  1
  B  B29  1  0.500000  0.518307  0.712798  1
  B  B30  1  0.500000  0.603087  0.028354  1
  B  B31  1  0.500000  0.396899  0.971620  1
  B  B32  1  0.500000  0.103303  0.471578  1
  B  B33  1  0.500000  0.896994  0.528977  1
  Ru  Ru34  1  0.000000  0.138121  0.178403  1
  Ru  Ru35  1  0.000000  0.862106  0.821405  1
