# generated using pymatgen
data_YHo2Be2Co9B4
_symmetry_space_group_name_H-M   'P 1'
_cell_length_a   5.02753700
_cell_length_b   5.02621546
_cell_length_c   9.33753500
_cell_angle_alpha   90.00011477
_cell_angle_beta   90.00003419
_cell_angle_gamma   120.00266199
_symmetry_Int_Tables_number   1
_chemical_formula_structural   YHo2Be2Co9B4
_chemical_formula_sum   'Y1 Ho2 Be2 Co9 B4'
_cell_volume   204.33727668
_cell_formula_units_Z   1
loop_
 _symmetry_equiv_pos_site_id
 _symmetry_equiv_pos_as_xyz
  1  'x, y, z'
loop_
 _atom_site_type_symbol
 _atom_site_label
 _atom_site_symmetry_multiplicity
 _atom_site_fract_x
 _atom_site_fract_y
 _atom_site_fract_z
 _atom_site_occupancy
  Y  Y0  1  0.999990  0.999999  0.000119  1
  Ho  Ho1  1  0.999994  0.999998  0.337755  1
  Ho  Ho2  1  0.999998  0.999999  0.662178  1
  Be  Be3  1  0.333423  0.666654  0.000086  1
  Be  Be4  1  0.666560  0.333345  0.000086  1
  Co  Co5  1  0.499991  0.999991  0.499917  1
  Co  Co6  1  0.499984  0.500015  0.499871  1
  Co  Co7  1  0.000006  0.500003  0.499928  1
  Co  Co8  1  0.499995  0.000001  0.190347  1
  Co  Co9  1  0.499991  0.500000  0.190296  1
  Co  Co10  1  0.999996  0.499999  0.190369  1
  Co  Co11  1  0.500001  0.000001  0.809742  1
  Co  Co12  1  0.500001  0.500000  0.809725  1
  Co  Co13  1  0.999984  0.499995  0.809639  1
  B  B14  1  0.333400  0.666627  0.342140  1
  B  B15  1  0.666590  0.333374  0.342143  1
  B  B16  1  0.666629  0.333351  0.657828  1
  B  B17  1  0.333364  0.666649  0.657830  1
