# generated using pymatgen
data_Na2LiDy(CoH6)2
_symmetry_space_group_name_H-M   'P 1'
_cell_length_a   6.88732200
_cell_length_b   6.88732200
_cell_length_c   6.94451700
_cell_angle_alpha   90.00000000
_cell_angle_beta   90.00000000
_cell_angle_gamma   90.00000000
_symmetry_Int_Tables_number   1
_chemical_formula_structural   Na2LiDy(CoH6)2
_chemical_formula_sum   'Na4 Li2 Dy2 Co4 H24'
_cell_volume   329.41458288
_cell_formula_units_Z   2
loop_
 _symmetry_equiv_pos_site_id
 _symmetry_equiv_pos_as_xyz
  1  'x, y, z'
loop_
 _atom_site_type_symbol
 _atom_site_label
 _atom_site_symmetry_multiplicity
 _atom_site_fract_x
 _atom_site_fract_y
 _atom_site_fract_z
 _atom_site_occupancy
  Na  Na0  1  0.000000  0.000000  0.500000  1
  Na  Na1  1  0.000000  0.500000  0.000000  1
  Na  Na2  1  0.500000  0.000000  0.000000  1
  Na  Na3  1  0.000000  0.000000  0.000000  1
  Li  Li4  1  0.000000  0.500000  0.500000  1
  Li  Li5  1  0.500000  0.000000  0.500000  1
  Dy  Dy6  1  0.500000  0.500000  0.500000  1
  Dy  Dy7  1  0.500000  0.500000  0.000000  1
  Co  Co8  1  0.270995  0.729005  0.742955  1
  Co  Co9  1  0.729005  0.270995  0.742955  1
  Co  Co10  1  0.729005  0.729005  0.257045  1
  Co  Co11  1  0.270995  0.270995  0.257045  1
  H  H12  1  0.738180  0.738180  0.477774  1
  H  H13  1  0.261820  0.261820  0.477774  1
  H  H14  1  0.050396  0.735851  0.737331  1
  H  H15  1  0.264149  0.949604  0.737331  1
  H  H16  1  0.735851  0.050396  0.737331  1
  H  H17  1  0.949604  0.264149  0.737331  1
  H  H18  1  0.738215  0.497021  0.745955  1
  H  H19  1  0.497021  0.738215  0.745955  1
  H  H20  1  0.502979  0.261785  0.745955  1
  H  H21  1  0.261785  0.502979  0.745955  1
  H  H22  1  0.260443  0.739557  0.965744  1
  H  H23  1  0.739557  0.260443  0.965744  1
  H  H24  1  0.739557  0.739557  0.034256  1
  H  H25  1  0.260443  0.260443  0.034256  1
  H  H26  1  0.261785  0.497021  0.254045  1
  H  H27  1  0.502979  0.738215  0.254045  1
  H  H28  1  0.497021  0.261785  0.254045  1
  H  H29  1  0.738215  0.502979  0.254045  1
  H  H30  1  0.949604  0.735851  0.262669  1
  H  H31  1  0.735851  0.949604  0.262669  1
  H  H32  1  0.264149  0.050396  0.262669  1
  H  H33  1  0.050396  0.264149  0.262669  1
  H  H34  1  0.261820  0.738180  0.522226  1
  H  H35  1  0.738180  0.261820  0.522226  1
