# generated using pymatgen
data_ErCo(SiRh)2
_symmetry_space_group_name_H-M   'P 1'
_cell_length_a   6.44947047
_cell_length_b   6.58068386
_cell_length_c   6.44947072
_cell_angle_alpha   131.14763891
_cell_angle_beta   113.47143253
_cell_angle_gamma   86.08417032
_symmetry_Int_Tables_number   1
_chemical_formula_structural   ErCo(SiRh)2
_chemical_formula_sum   'Er2 Co2 Si4 Rh4'
_cell_volume   181.47334927
_cell_formula_units_Z   2
loop_
 _symmetry_equiv_pos_site_id
 _symmetry_equiv_pos_as_xyz
  1  'x, y, z'
loop_
 _atom_site_type_symbol
 _atom_site_label
 _atom_site_symmetry_multiplicity
 _atom_site_fract_x
 _atom_site_fract_y
 _atom_site_fract_z
 _atom_site_occupancy
  Er  Er0  1  0.754569  0.042183  0.287615  1
  Er  Er1  1  0.245431  0.957817  0.712385  1
  Co  Co2  1  0.218786  0.500000  0.718786  1
  Co  Co3  1  0.781214  0.500000  0.281214  1
  Si  Si4  1  0.575675  0.387558  0.811883  1
  Si  Si5  1  0.926136  0.715608  0.789472  1
  Si  Si6  1  0.424325  0.612442  0.188117  1
  Si  Si7  1  0.073864  0.284392  0.210528  1
  Rh  Rh8  1  0.500000  0.500000  0.500000  1
  Rh  Rh9  1  0.000000  0.500000  0.000000  1
  Rh  Rh10  1  0.716030  0.000000  0.716030  1
  Rh  Rh11  1  0.283970  0.000000  0.283970  1
