# generated using pymatgen
data_Gd4TmIrRh2
_symmetry_space_group_name_H-M   'P 1'
_cell_length_a   10.91993900
_cell_length_b   10.91993900
_cell_length_c   6.37827900
_cell_angle_alpha   90.00000000
_cell_angle_beta   90.00000000
_cell_angle_gamma   90.00000000
_symmetry_Int_Tables_number   1
_chemical_formula_structural   Gd4TmIrRh2
_chemical_formula_sum   'Gd16 Tm4 Ir4 Rh8'
_cell_volume   760.57831157
_cell_formula_units_Z   4
loop_
 _symmetry_equiv_pos_site_id
 _symmetry_equiv_pos_as_xyz
  1  'x, y, z'
loop_
 _atom_site_type_symbol
 _atom_site_label
 _atom_site_symmetry_multiplicity
 _atom_site_fract_x
 _atom_site_fract_y
 _atom_site_fract_z
 _atom_site_occupancy
  Gd  Gd0  1  0.290255  0.089636  0.379157  1
  Gd  Gd1  1  0.290255  0.910364  0.879157  1
  Gd  Gd2  1  0.709745  0.089636  0.879157  1
  Gd  Gd3  1  0.709745  0.910364  0.379157  1
  Gd  Gd4  1  0.587321  0.788593  0.879858  1
  Gd  Gd5  1  0.587321  0.211407  0.379858  1
  Gd  Gd6  1  0.412679  0.788593  0.379858  1
  Gd  Gd7  1  0.412679  0.211407  0.879858  1
  Gd  Gd8  1  0.211407  0.412679  0.620142  1
  Gd  Gd9  1  0.211407  0.587321  0.120142  1
  Gd  Gd10  1  0.788593  0.412679  0.120142  1
  Gd  Gd11  1  0.788593  0.587321  0.620142  1
  Gd  Gd12  1  0.910364  0.709745  0.120843  1
  Gd  Gd13  1  0.910364  0.290255  0.620843  1
  Gd  Gd14  1  0.089636  0.709745  0.620843  1
  Gd  Gd15  1  0.089636  0.290255  0.120843  1
  Tm  Tm16  1  0.000000  0.000000  0.500000  1
  Tm  Tm17  1  0.000000  0.000000  0.000000  1
  Tm  Tm18  1  0.500000  0.500000  0.000000  1
  Tm  Tm19  1  0.500000  0.500000  0.500000  1
  Ir  Ir20  1  0.652489  0.347511  0.750000  1
  Ir  Ir21  1  0.652489  0.652489  0.250000  1
  Ir  Ir22  1  0.347511  0.347511  0.250000  1
  Ir  Ir23  1  0.347511  0.652489  0.750000  1
  Rh  Rh24  1  0.849096  0.150904  0.250000  1
  Rh  Rh25  1  0.849096  0.849096  0.750000  1
  Rh  Rh26  1  0.150904  0.150904  0.750000  1
  Rh  Rh27  1  0.150904  0.849096  0.250000  1
  Rh  Rh28  1  0.500000  0.000000  0.125440  1
  Rh  Rh29  1  0.500000  0.000000  0.625440  1
  Rh  Rh30  1  0.000000  0.500000  0.874560  1
  Rh  Rh31  1  0.000000  0.500000  0.374560  1
