# generated using pymatgen
data_Tb3YGa17SiIr6
_symmetry_space_group_name_H-M   'P 1'
_cell_length_a   7.58479942
_cell_length_b   7.56574696
_cell_length_c   9.49038504
_cell_angle_alpha   90.06048187
_cell_angle_beta   89.80787537
_cell_angle_gamma   119.89144152
_symmetry_Int_Tables_number   1
_chemical_formula_structural   Tb3YGa17SiIr6
_chemical_formula_sum   'Tb3 Y1 Ga17 Si1 Ir6'
_cell_volume   472.15203429
_cell_formula_units_Z   1
loop_
 _symmetry_equiv_pos_site_id
 _symmetry_equiv_pos_as_xyz
  1  'x, y, z'
loop_
 _atom_site_type_symbol
 _atom_site_label
 _atom_site_symmetry_multiplicity
 _atom_site_fract_x
 _atom_site_fract_y
 _atom_site_fract_z
 _atom_site_occupancy
  Tb  Tb0  1  0.997000  0.664824  0.248155  1
  Tb  Tb1  1  0.002765  0.331136  0.751083  1
  Tb  Tb2  1  0.673828  0.002130  0.248178  1
  Y  Y3  1  0.330625  0.002646  0.749849  1
  Ga  Ga4  1  0.129903  0.129208  0.250913  1
  Ga  Ga5  1  0.872841  0.874162  0.750750  1
  Ga  Ga6  1  0.998926  0.671120  0.917760  1
  Ga  Ga7  1  0.000468  0.665933  0.579899  1
  Ga  Ga8  1  0.333884  0.998150  0.419768  1
  Ga  Ga9  1  0.999644  0.334597  0.420851  1
  Ga  Ga10  1  0.665223  0.000188  0.579982  1
  Ga  Ga11  1  0.658331  0.994240  0.917857  1
  Ga  Ga12  1  0.333613  0.997954  0.081252  1
  Ga  Ga13  1  0.332360  0.331655  0.564203  1
  Ga  Ga14  1  0.668547  0.668991  0.435285  1
  Ga  Ga15  1  0.667990  0.669139  0.066954  1
  Ga  Ga16  1  0.338589  0.332598  0.934089  1
  Ga  Ga17  1  0.341160  0.546174  0.251616  1
  Ga  Ga18  1  0.661296  0.452302  0.751166  1
  Ga  Ga19  1  0.547367  0.339621  0.250603  1
  Ga  Ga20  1  0.451796  0.659227  0.750447  1
  Si  Si21  1  0.999851  0.334400  0.072328  1
  Ir  Ir22  1  0.683950  0.329473  0.003451  1
  Ir  Ir23  1  0.313075  0.656070  0.001660  1
  Ir  Ir24  1  0.328157  0.671019  0.500478  1
  Ir  Ir25  1  0.671311  0.328590  0.500222  1
  Ir  Ir26  1  0.998134  0.014463  0.001425  1
  Ir  Ir27  1  0.999363  0.999990  0.499776  1
