# generated using pymatgen
data_PrNdLu3Pb4
_symmetry_space_group_name_H-M   'P 1'
_cell_length_a   8.24008300
_cell_length_b   8.33256200
_cell_length_c   15.66491800
_cell_angle_alpha   90.00000000
_cell_angle_beta   90.00000000
_cell_angle_gamma   90.00000000
_symmetry_Int_Tables_number   1
_chemical_formula_structural   PrNdLu3Pb4
_chemical_formula_sum   'Pr4 Nd4 Lu12 Pb16'
_cell_volume   1075.56897369
_cell_formula_units_Z   4
loop_
 _symmetry_equiv_pos_site_id
 _symmetry_equiv_pos_as_xyz
  1  'x, y, z'
loop_
 _atom_site_type_symbol
 _atom_site_label
 _atom_site_symmetry_multiplicity
 _atom_site_fract_x
 _atom_site_fract_y
 _atom_site_fract_z
 _atom_site_occupancy
  Pr  Pr0  1  0.472207  0.677514  0.597501  1
  Pr  Pr1  1  0.972207  0.822486  0.902499  1
  Pr  Pr2  1  0.527793  0.322486  0.097501  1
  Pr  Pr3  1  0.027793  0.177514  0.402499  1
  Nd  Nd4  1  0.527899  0.322429  0.402291  1
  Nd  Nd5  1  0.027899  0.177571  0.097709  1
  Nd  Nd6  1  0.472101  0.677571  0.902291  1
  Nd  Nd7  1  0.972101  0.822429  0.597709  1
  Lu  Lu8  1  0.632446  0.157943  0.622776  1
  Lu  Lu9  1  0.132446  0.342057  0.877224  1
  Lu  Lu10  1  0.367554  0.842057  0.122776  1
  Lu  Lu11  1  0.867554  0.657943  0.377224  1
  Lu  Lu12  1  0.367620  0.842021  0.377192  1
  Lu  Lu13  1  0.867620  0.657979  0.122808  1
  Lu  Lu14  1  0.632380  0.157979  0.877192  1
  Lu  Lu15  1  0.132380  0.342021  0.622808  1
  Lu  Lu16  1  0.799307  0.493276  0.750015  1
  Lu  Lu17  1  0.299307  0.006724  0.749985  1
  Lu  Lu18  1  0.200693  0.506724  0.250015  1
  Lu  Lu19  1  0.700693  0.993276  0.249985  1
  Pb  Pb20  1  0.706137  0.959025  0.456455  1
  Pb  Pb21  1  0.206137  0.540975  0.043545  1
  Pb  Pb22  1  0.293863  0.040975  0.956455  1
  Pb  Pb23  1  0.793863  0.459025  0.543545  1
  Pb  Pb24  1  0.293768  0.040921  0.543687  1
  Pb  Pb25  1  0.793768  0.459079  0.956313  1
  Pb  Pb26  1  0.706232  0.959079  0.043687  1
  Pb  Pb27  1  0.206232  0.540921  0.456313  1
  Pb  Pb28  1  0.436924  0.370291  0.750051  1
  Pb  Pb29  1  0.936924  0.129709  0.749949  1
  Pb  Pb30  1  0.563076  0.629709  0.250051  1
  Pb  Pb31  1  0.063076  0.870291  0.249949  1
  Pb  Pb32  1  0.661745  0.849350  0.750116  1
  Pb  Pb33  1  0.161745  0.650650  0.749884  1
  Pb  Pb34  1  0.338255  0.150650  0.250116  1
  Pb  Pb35  1  0.838255  0.349350  0.249884  1
