# generated using pymatgen
data_Tm4HfRh5
_symmetry_space_group_name_H-M   'P 1'
_cell_length_a   3.36805700
_cell_length_b   3.36805700
_cell_length_c   16.75008600
_cell_angle_alpha   90.00000000
_cell_angle_beta   90.00000000
_cell_angle_gamma   90.00000000
_symmetry_Int_Tables_number   1
_chemical_formula_structural   Tm4HfRh5
_chemical_formula_sum   'Tm4 Hf1 Rh5'
_cell_volume   190.00975882
_cell_formula_units_Z   1
loop_
 _symmetry_equiv_pos_site_id
 _symmetry_equiv_pos_as_xyz
  1  'x, y, z'
loop_
 _atom_site_type_symbol
 _atom_site_label
 _atom_site_symmetry_multiplicity
 _atom_site_fract_x
 _atom_site_fract_y
 _atom_site_fract_z
 _atom_site_occupancy
  Tm  Tm0  1  0.000000  0.000000  0.197562  1
  Tm  Tm1  1  0.000000  0.000000  0.399106  1
  Tm  Tm2  1  0.000000  0.000000  0.600894  1
  Tm  Tm3  1  0.000000  0.000000  0.802438  1
  Hf  Hf4  1  0.000000  0.000000  0.000000  1
  Rh  Rh5  1  0.500000  0.500000  0.090175  1
  Rh  Rh6  1  0.500000  0.500000  0.296452  1
  Rh  Rh7  1  0.500000  0.500000  0.500000  1
  Rh  Rh8  1  0.500000  0.500000  0.703548  1
  Rh  Rh9  1  0.500000  0.500000  0.909825  1
