# generated using pymatgen
data_Hf5ZnSnSb2
_symmetry_space_group_name_H-M   'P 1'
_cell_length_a   8.60308452
_cell_length_b   8.61193793
_cell_length_c   5.78039900
_cell_angle_alpha   90.00000000
_cell_angle_beta   90.00000000
_cell_angle_gamma   120.03404575
_symmetry_Int_Tables_number   1
_chemical_formula_structural   Hf5ZnSnSb2
_chemical_formula_sum   'Hf10 Zn2 Sn2 Sb4'
_cell_volume   370.76133287
_cell_formula_units_Z   2
loop_
 _symmetry_equiv_pos_site_id
 _symmetry_equiv_pos_as_xyz
  1  'x, y, z'
loop_
 _atom_site_type_symbol
 _atom_site_label
 _atom_site_symmetry_multiplicity
 _atom_site_fract_x
 _atom_site_fract_y
 _atom_site_fract_z
 _atom_site_occupancy
  Hf  Hf0  1  0.731127  0.730872  0.250000  1
  Hf  Hf1  1  0.731127  0.000256  0.750000  1
  Hf  Hf2  1  0.000005  0.269631  0.250000  1
  Hf  Hf3  1  0.000005  0.730374  0.750000  1
  Hf  Hf4  1  0.268893  0.269177  0.750000  1
  Hf  Hf5  1  0.268893  0.999716  0.250000  1
  Hf  Hf6  1  0.333128  0.666564  0.500000  1
  Hf  Hf7  1  0.667080  0.333540  0.000000  1
  Hf  Hf8  1  0.667080  0.333540  0.500000  1
  Hf  Hf9  1  0.333128  0.666564  0.000000  1
  Zn  Zn10  1  0.000822  0.000411  0.000000  1
  Zn  Zn11  1  0.000822  0.000411  0.500000  1
  Sn  Sn12  1  0.384829  0.000145  0.750000  1
  Sn  Sn13  1  0.384829  0.384684  0.250000  1
  Sb  Sb14  1  0.000254  0.614458  0.250000  1
  Sb  Sb15  1  0.000254  0.385795  0.750000  1
  Sb  Sb16  1  0.613863  0.613820  0.750000  1
  Sb  Sb17  1  0.613863  0.000042  0.250000  1
