# generated using pymatgen
data_Ho12Ru7
_symmetry_space_group_name_H-M   'P 1'
_cell_length_a   11.27815800
_cell_length_b   8.34159162
_cell_length_c   11.19428099
_cell_angle_alpha   56.51019379
_cell_angle_beta   90.00000000
_cell_angle_gamma   90.00000000
_symmetry_Int_Tables_number   1
_chemical_formula_structural   Ho12Ru7
_chemical_formula_sum   'Ho24 Ru14'
_cell_volume   878.29624265
_cell_formula_units_Z   2
loop_
 _symmetry_equiv_pos_site_id
 _symmetry_equiv_pos_as_xyz
  1  'x, y, z'
loop_
 _atom_site_type_symbol
 _atom_site_label
 _atom_site_symmetry_multiplicity
 _atom_site_fract_x
 _atom_site_fract_y
 _atom_site_fract_z
 _atom_site_occupancy
  Ho  Ho0  1  0.706140  0.240091  0.531871  1
  Ho  Ho1  1  0.206140  0.759909  0.968129  1
  Ho  Ho2  1  0.844680  0.506797  0.655322  1
  Ho  Ho3  1  0.344680  0.493203  0.844678  1
  Ho  Ho4  1  0.155320  0.493203  0.344678  1
  Ho  Ho5  1  0.655320  0.506797  0.155322  1
  Ho  Ho6  1  0.006328  0.852144  0.361670  1
  Ho  Ho7  1  0.506328  0.147856  0.138330  1
  Ho  Ho8  1  0.993672  0.147856  0.638330  1
  Ho  Ho9  1  0.493672  0.852144  0.861670  1
  Ho  Ho10  1  0.793860  0.240091  0.031871  1
  Ho  Ho11  1  0.293860  0.759909  0.468129  1
  Ho  Ho12  1  0.931163  0.776674  0.090075  1
  Ho  Ho13  1  0.431163  0.223326  0.409925  1
  Ho  Ho14  1  0.068837  0.223326  0.909925  1
  Ho  Ho15  1  0.568837  0.776674  0.590075  1
  Ho  Ho16  1  0.301619  0.243335  0.674686  1
  Ho  Ho17  1  0.801619  0.756665  0.825314  1
  Ho  Ho18  1  0.698381  0.756665  0.325314  1
  Ho  Ho19  1  0.198381  0.243335  0.174686  1
  Ho  Ho20  1  0.925565  0.279168  0.293810  1
  Ho  Ho21  1  0.425565  0.720832  0.206190  1
  Ho  Ho22  1  0.074435  0.720832  0.706190  1
  Ho  Ho23  1  0.574435  0.279168  0.793810  1
  Ru  Ru24  1  0.500000  0.500000  0.500000  1
  Ru  Ru25  1  0.000000  0.500000  0.000000  1
  Ru  Ru26  1  0.648585  0.923382  0.033650  1
  Ru  Ru27  1  0.148585  0.076618  0.466350  1
  Ru  Ru28  1  0.351415  0.076618  0.966350  1
  Ru  Ru29  1  0.851415  0.923382  0.533650  1
  Ru  Ru30  1  0.398219  0.485455  0.102909  1
  Ru  Ru31  1  0.898219  0.514545  0.397091  1
  Ru  Ru32  1  0.601781  0.514545  0.897091  1
  Ru  Ru33  1  0.101781  0.485455  0.602909  1
  Ru  Ru34  1  0.820612  0.098319  0.848509  1
  Ru  Ru35  1  0.320612  0.901681  0.651491  1
  Ru  Ru36  1  0.179388  0.901681  0.151491  1
  Ru  Ru37  1  0.679388  0.098319  0.348509  1
