# generated using pymatgen
data_PrY2Si5N9O
_symmetry_space_group_name_H-M   'P 1'
_cell_length_a   5.04096500
_cell_length_b   10.76782900
_cell_length_c   16.44433700
_cell_angle_alpha   90.00000000
_cell_angle_beta   90.00000000
_cell_angle_gamma   90.00000000
_symmetry_Int_Tables_number   1
_chemical_formula_structural   PrY2Si5N9O
_chemical_formula_sum   'Pr4 Y8 Si20 N36 O4'
_cell_volume   892.60270889
_cell_formula_units_Z   4
loop_
 _symmetry_equiv_pos_site_id
 _symmetry_equiv_pos_as_xyz
  1  'x, y, z'
loop_
 _atom_site_type_symbol
 _atom_site_label
 _atom_site_symmetry_multiplicity
 _atom_site_fract_x
 _atom_site_fract_y
 _atom_site_fract_z
 _atom_site_occupancy
  Pr  Pr0  1  0.700340  0.750000  0.796861  1
  Pr  Pr1  1  0.299660  0.250000  0.203139  1
  Pr  Pr2  1  0.299660  0.750000  0.296861  1
  Pr  Pr3  1  0.700340  0.250000  0.703139  1
  Y  Y4  1  0.663598  0.928223  0.598393  1
  Y  Y5  1  0.336402  0.071777  0.401607  1
  Y  Y6  1  0.336402  0.428223  0.401607  1
  Y  Y7  1  0.336402  0.571777  0.098393  1
  Y  Y8  1  0.663598  0.571777  0.598393  1
  Y  Y9  1  0.663598  0.428223  0.901607  1
  Y  Y10  1  0.663598  0.071777  0.901607  1
  Y  Y11  1  0.336402  0.928223  0.098393  1
  Si  Si12  1  0.248493  0.750000  0.666998  1
  Si  Si13  1  0.751507  0.250000  0.333002  1
  Si  Si14  1  0.751507  0.750000  0.166998  1
  Si  Si15  1  0.248493  0.250000  0.833002  1
  Si  Si16  1  0.895105  0.896915  0.424474  1
  Si  Si17  1  0.104895  0.103085  0.575526  1
  Si  Si18  1  0.104895  0.396915  0.575526  1
  Si  Si19  1  0.104895  0.603085  0.924474  1
  Si  Si20  1  0.895105  0.603085  0.424474  1
  Si  Si21  1  0.895105  0.396915  0.075526  1
  Si  Si22  1  0.895105  0.103085  0.075526  1
  Si  Si23  1  0.104895  0.896915  0.924474  1
  Si  Si24  1  0.610067  0.750000  0.973787  1
  Si  Si25  1  0.389933  0.250000  0.026213  1
  Si  Si26  1  0.389933  0.750000  0.473787  1
  Si  Si27  1  0.610067  0.250000  0.526213  1
  Si  Si28  1  0.180515  0.000000  0.750000  1
  Si  Si29  1  0.819485  0.000000  0.250000  1
  Si  Si30  1  0.819485  0.500000  0.250000  1
  Si  Si31  1  0.180515  0.500000  0.750000  1
  N  N32  1  0.980470  0.945776  0.830680  1
  N  N33  1  0.019530  0.054224  0.169320  1
  N  N34  1  0.019530  0.445776  0.169320  1
  N  N35  1  0.019530  0.554224  0.330680  1
  N  N36  1  0.980470  0.554224  0.830680  1
  N  N37  1  0.980470  0.445776  0.669320  1
  N  N38  1  0.980470  0.054224  0.669320  1
  N  N39  1  0.019530  0.945776  0.330680  1
  N  N40  1  0.942858  0.750000  0.939205  1
  N  N41  1  0.057142  0.250000  0.060795  1
  N  N42  1  0.057142  0.750000  0.439205  1
  N  N43  1  0.942858  0.250000  0.560795  1
  N  N44  1  0.408510  0.750000  0.575153  1
  N  N45  1  0.591490  0.250000  0.424847  1
  N  N46  1  0.591490  0.750000  0.075153  1
  N  N47  1  0.408510  0.250000  0.924847  1
  N  N48  1  0.447169  0.879970  0.933627  1
  N  N49  1  0.552831  0.120030  0.066373  1
  N  N50  1  0.552831  0.379970  0.066373  1
  N  N51  1  0.552831  0.620030  0.433627  1
  N  N52  1  0.447169  0.620030  0.933627  1
  N  N53  1  0.447169  0.379970  0.566373  1
  N  N54  1  0.447169  0.120030  0.566373  1
  N  N55  1  0.552831  0.879970  0.433627  1
  N  N56  1  0.000000  0.000000  0.000000  1
  N  N57  1  0.000000  0.500000  0.000000  1
  N  N58  1  0.000000  0.500000  0.500000  1
  N  N59  1  0.000000  0.000000  0.500000  1
  N  N60  1  0.381152  0.880118  0.714322  1
  N  N61  1  0.618848  0.119882  0.285678  1
  N  N62  1  0.618848  0.380118  0.285678  1
  N  N63  1  0.618848  0.619882  0.214322  1
  N  N64  1  0.381152  0.619882  0.714322  1
  N  N65  1  0.381152  0.380118  0.785678  1
  N  N66  1  0.381152  0.119882  0.785678  1
  N  N67  1  0.618848  0.880118  0.214322  1
  O  O68  1  0.917677  0.750000  0.661286  1
  O  O69  1  0.082323  0.250000  0.338714  1
  O  O70  1  0.082323  0.750000  0.161286  1
  O  O71  1  0.917677  0.250000  0.838714  1
