# generated using pymatgen
data_Y5Lu3Pt4
_symmetry_space_group_name_H-M   'P 1'
_cell_length_a   4.74259500
_cell_length_b   7.14698422
_cell_length_c   8.72420120
_cell_angle_alpha   89.87521731
_cell_angle_beta   90.00000000
_cell_angle_gamma   90.00000000
_symmetry_Int_Tables_number   1
_chemical_formula_structural   Y5Lu3Pt4
_chemical_formula_sum   'Y5 Lu3 Pt4'
_cell_volume   295.70829342
_cell_formula_units_Z   1
loop_
 _symmetry_equiv_pos_site_id
 _symmetry_equiv_pos_as_xyz
  1  'x, y, z'
loop_
 _atom_site_type_symbol
 _atom_site_label
 _atom_site_symmetry_multiplicity
 _atom_site_fract_x
 _atom_site_fract_y
 _atom_site_fract_z
 _atom_site_occupancy
  Y  Y0  1  0.750000  0.643900  0.420982  1
  Y  Y1  1  0.250000  0.991078  0.330574  1
  Y  Y2  1  0.250000  0.487589  0.167683  1
  Y  Y3  1  0.750000  0.012713  0.671947  1
  Y  Y4  1  0.750000  0.511202  0.830220  1
  Lu  Lu5  1  0.250000  0.857769  0.922506  1
  Lu  Lu6  1  0.250000  0.356159  0.578950  1
  Lu  Lu7  1  0.750000  0.142452  0.077508  1
  Pt  Pt8  1  0.250000  0.252270  0.905305  1
  Pt  Pt9  1  0.250000  0.754486  0.598182  1
  Pt  Pt10  1  0.750000  0.747893  0.090385  1
  Pt  Pt11  1  0.750000  0.242488  0.405758  1
