# generated using pymatgen
data_Hf5Zr(HgN)2
_symmetry_space_group_name_H-M   'P 1'
_cell_length_a   6.05794409
_cell_length_b   6.05794365
_cell_length_c   9.10812900
_cell_angle_alpha   90.00000000
_cell_angle_beta   90.00000000
_cell_angle_gamma   147.80881840
_symmetry_Int_Tables_number   1
_chemical_formula_structural   Hf5Zr(HgN)2
_chemical_formula_sum   'Hf5 Zr1 Hg2 N2'
_cell_volume   178.07374295
_cell_formula_units_Z   1
loop_
 _symmetry_equiv_pos_site_id
 _symmetry_equiv_pos_as_xyz
  1  'x, y, z'
loop_
 _atom_site_type_symbol
 _atom_site_label
 _atom_site_symmetry_multiplicity
 _atom_site_fract_x
 _atom_site_fract_y
 _atom_site_fract_z
 _atom_site_occupancy
  Hf  Hf0  1  0.876541  0.123459  0.038796  1
  Hf  Hf1  1  0.876541  0.123459  0.461204  1
  Hf  Hf2  1  0.122620  0.877380  0.541186  1
  Hf  Hf3  1  0.464048  0.535952  0.750000  1
  Hf  Hf4  1  0.122620  0.877380  0.958813  1
  Zr  Zr5  1  0.536188  0.463812  0.250000  1
  Hg  Hg6  1  0.249485  0.750515  0.250000  1
  Hg  Hg7  1  0.753604  0.246396  0.750000  1
  N  N8  1  0.499176  0.500824  0.996379  1
  N  N9  1  0.499176  0.500824  0.503621  1
