# generated using pymatgen
data_TbDy3ZnSb5Rh7
_symmetry_space_group_name_H-M   'P 1'
_cell_length_a   7.57001814
_cell_length_b   7.57076480
_cell_length_c   7.57076414
_cell_angle_alpha   108.90177099
_cell_angle_beta   109.77296443
_cell_angle_gamma   109.77296997
_symmetry_Int_Tables_number   1
_chemical_formula_structural   TbDy3ZnSb5Rh7
_chemical_formula_sum   'Tb1 Dy3 Zn1 Sb5 Rh7'
_cell_volume   333.84652553
_cell_formula_units_Z   1
loop_
 _symmetry_equiv_pos_site_id
 _symmetry_equiv_pos_as_xyz
  1  'x, y, z'
loop_
 _atom_site_type_symbol
 _atom_site_label
 _atom_site_symmetry_multiplicity
 _atom_site_fract_x
 _atom_site_fract_y
 _atom_site_fract_z
 _atom_site_occupancy
  Tb  Tb0  1  0.486021  0.496746  0.496746  1
  Dy  Dy1  1  0.514122  0.010837  0.010837  1
  Dy  Dy2  1  0.999988  0.496726  0.010838  1
  Dy  Dy3  1  0.999988  0.010838  0.496726  1
  Zn  Zn4  1  0.999785  0.317714  0.317714  1
  Sb  Sb5  1  0.685264  0.002449  0.687480  1
  Sb  Sb6  1  0.685264  0.687480  0.002449  1
  Sb  Sb7  1  0.000198  0.674792  0.674792  1
  Sb  Sb8  1  0.314737  0.001961  0.316940  1
  Sb  Sb9  1  0.314737  0.316940  0.001961  1
  Rh  Rh10  1  0.000007  0.994819  0.994819  1
  Rh  Rh11  1  0.499998  0.751712  0.251415  1
  Rh  Rh12  1  0.751383  0.496369  0.247543  1
  Rh  Rh13  1  0.248564  0.745240  0.496419  1
  Rh  Rh14  1  0.248564  0.496419  0.745240  1
  Rh  Rh15  1  0.499998  0.251415  0.751712  1
  Rh  Rh16  1  0.751383  0.247543  0.496369  1
