# generated using pymatgen
data_Ti7NbCrSiBi4
_symmetry_space_group_name_H-M   'P 1'
_cell_length_a   7.87572442
_cell_length_b   7.87865159
_cell_length_c   7.90448084
_cell_angle_alpha   95.78903866
_cell_angle_beta   95.83443508
_cell_angle_gamma   142.95517320
_symmetry_Int_Tables_number   1
_chemical_formula_structural   Ti7NbCrSiBi4
_chemical_formula_sum   'Ti7 Nb1 Cr1 Si1 Bi4'
_cell_volume   280.06787393
_cell_formula_units_Z   1
loop_
 _symmetry_equiv_pos_site_id
 _symmetry_equiv_pos_as_xyz
  1  'x, y, z'
loop_
 _atom_site_type_symbol
 _atom_site_label
 _atom_site_symmetry_multiplicity
 _atom_site_fract_x
 _atom_site_fract_y
 _atom_site_fract_z
 _atom_site_occupancy
  Ti  Ti0  1  0.914868  0.801531  0.724248  1
  Ti  Ti1  1  0.799895  0.076233  0.885060  1
  Ti  Ti2  1  0.418219  0.695942  0.115762  1
  Ti  Ti3  1  0.191803  0.914480  0.111179  1
  Ti  Ti4  1  0.586959  0.309804  0.885654  1
  Ti  Ti5  1  0.697343  0.584664  0.279366  1
  Ti  Ti6  1  0.307851  0.421033  0.720666  1
  Nb  Nb7  1  0.077614  0.191749  0.279001  1
  Cr  Cr8  1  0.752610  0.752722  0.000434  1
  Si  Si9  1  0.253838  0.253162  0.997253  1
  Bi  Bi10  1  0.140428  0.639205  0.779881  1
  Bi  Bi11  1  0.856423  0.359530  0.219822  1
  Bi  Bi12  1  0.361235  0.136369  0.500432  1
  Bi  Bi13  1  0.640916  0.863573  0.501241  1
