# generated using pymatgen
data_Ho12Cu3Si8Ni
_symmetry_space_group_name_H-M   'P 1'
_cell_length_a   4.13695400
_cell_length_b   11.26978022
_cell_length_c   11.24317102
_cell_angle_alpha   89.93660483
_cell_angle_beta   90.00000000
_cell_angle_gamma   90.00000000
_symmetry_Int_Tables_number   1
_chemical_formula_structural   Ho12Cu3Si8Ni
_chemical_formula_sum   'Ho12 Cu3 Si8 Ni1'
_cell_volume   524.18512082
_cell_formula_units_Z   1
loop_
 _symmetry_equiv_pos_site_id
 _symmetry_equiv_pos_as_xyz
  1  'x, y, z'
loop_
 _atom_site_type_symbol
 _atom_site_label
 _atom_site_symmetry_multiplicity
 _atom_site_fract_x
 _atom_site_fract_y
 _atom_site_fract_z
 _atom_site_occupancy
  Ho  Ho0  1  0.250000  0.058917  0.877691  1
  Ho  Ho1  1  0.250000  0.437176  0.377783  1
  Ho  Ho2  1  0.750000  0.935836  0.118226  1
  Ho  Ho3  1  0.750000  0.561521  0.621002  1
  Ho  Ho4  1  0.250000  0.120956  0.558227  1
  Ho  Ho5  1  0.250000  0.379701  0.058529  1
  Ho  Ho6  1  0.750000  0.878264  0.440912  1
  Ho  Ho7  1  0.750000  0.626169  0.940611  1
  Ho  Ho8  1  0.250000  0.804903  0.713339  1
  Ho  Ho9  1  0.250000  0.697004  0.209522  1
  Ho  Ho10  1  0.750000  0.196241  0.290090  1
  Ho  Ho11  1  0.750000  0.303063  0.791192  1
  Cu  Cu12  1  0.250000  0.364031  0.631329  1
  Cu  Cu13  1  0.250000  0.135072  0.130282  1
  Cu  Cu14  1  0.750000  0.635558  0.368966  1
  Si  Si15  1  0.250000  0.814825  0.974509  1
  Si  Si16  1  0.250000  0.685594  0.476749  1
  Si  Si17  1  0.750000  0.187132  0.024580  1
  Si  Si18  1  0.750000  0.313366  0.523999  1
  Si  Si19  1  0.250000  0.495417  0.806710  1
  Si  Si20  1  0.250000  0.004733  0.305754  1
  Si  Si21  1  0.750000  0.505188  0.194260  1
  Si  Si22  1  0.750000  0.992602  0.694879  1
  Ni  Ni23  1  0.750000  0.866731  0.870861  1
