# generated using pymatgen
data_NaNb8IrS16
_symmetry_space_group_name_H-M   'P 1'
_cell_length_a   6.71805401
_cell_length_b   6.71820940
_cell_length_c   13.51921401
_cell_angle_alpha   89.99722899
_cell_angle_beta   89.99682413
_cell_angle_gamma   119.99995740
_symmetry_Int_Tables_number   1
_chemical_formula_structural   NaNb8IrS16
_chemical_formula_sum   'Na1 Nb8 Ir1 S16'
_cell_volume   528.42004768
_cell_formula_units_Z   1
loop_
 _symmetry_equiv_pos_site_id
 _symmetry_equiv_pos_as_xyz
  1  'x, y, z'
loop_
 _atom_site_type_symbol
 _atom_site_label
 _atom_site_symmetry_multiplicity
 _atom_site_fract_x
 _atom_site_fract_y
 _atom_site_fract_z
 _atom_site_occupancy
  Na  Na0  1  0.000000  0.000000  0.500000  1
  Nb  Nb1  1  0.000044  0.000068  0.223661  1
  Nb  Nb2  1  0.999956  0.999932  0.776339  1
  Nb  Nb3  1  0.504670  0.009383  0.219385  1
  Nb  Nb4  1  0.990640  0.495308  0.219332  1
  Nb  Nb5  1  0.504635  0.495294  0.219352  1
  Nb  Nb6  1  0.495330  0.990617  0.780615  1
  Nb  Nb7  1  0.009360  0.504692  0.780668  1
  Nb  Nb8  1  0.495365  0.504706  0.780648  1
  Ir  Ir9  1  0.000000  0.000000  0.000000  1
  S  S10  1  0.333359  0.666693  0.897984  1
  S  S11  1  0.666641  0.333307  0.102016  1
  S  S12  1  0.666684  0.333377  0.338289  1
  S  S13  1  0.333316  0.666623  0.661711  1
  S  S14  1  0.167808  0.832071  0.336076  1
  S  S15  1  0.167833  0.335738  0.336068  1
  S  S16  1  0.664225  0.832088  0.336082  1
  S  S17  1  0.832192  0.167929  0.663924  1
  S  S18  1  0.832167  0.664262  0.663932  1
  S  S19  1  0.335775  0.167912  0.663918  1
  S  S20  1  0.834113  0.165828  0.894135  1
  S  S21  1  0.834085  0.668174  0.894193  1
  S  S22  1  0.331669  0.165805  0.894107  1
  S  S23  1  0.165887  0.834172  0.105865  1
  S  S24  1  0.165915  0.331826  0.105807  1
  S  S25  1  0.668331  0.834195  0.105893  1
