# generated using pymatgen
data_Yb2Dy2RuPt3O14
_symmetry_space_group_name_H-M   'P 1'
_cell_length_a   7.25547096
_cell_length_b   7.26854267
_cell_length_c   7.26854144
_cell_angle_alpha   59.67983015
_cell_angle_beta   59.75768009
_cell_angle_gamma   59.75768057
_symmetry_Int_Tables_number   1
_chemical_formula_structural   Yb2Dy2RuPt3O14
_chemical_formula_sum   'Yb2 Dy2 Ru1 Pt3 O14'
_cell_volume   269.39568980
_cell_formula_units_Z   1
loop_
 _symmetry_equiv_pos_site_id
 _symmetry_equiv_pos_as_xyz
  1  'x, y, z'
loop_
 _atom_site_type_symbol
 _atom_site_label
 _atom_site_symmetry_multiplicity
 _atom_site_fract_x
 _atom_site_fract_y
 _atom_site_fract_z
 _atom_site_occupancy
  Yb  Yb0  1  0.125000  0.125000  0.625000  1
  Yb  Yb1  1  0.125000  0.625000  0.125000  1
  Dy  Dy2  1  0.625000  0.125000  0.125000  1
  Dy  Dy3  1  0.125000  0.125000  0.125000  1
  Ru  Ru4  1  0.625000  0.625000  0.625000  1
  Pt  Pt5  1  0.625000  0.625000  0.125000  1
  Pt  Pt6  1  0.625000  0.125000  0.625000  1
  Pt  Pt7  1  0.125000  0.625000  0.625000  1
  O  O8  1  0.255417  0.246229  0.246229  1
  O  O9  1  0.994583  0.003771  0.003771  1
  O  O10  1  0.286285  0.714313  0.285844  1
  O  O11  1  0.552387  0.951182  0.540277  1
  O  O12  1  0.286285  0.285844  0.714313  1
  O  O13  1  0.711411  0.285834  0.285834  1
  O  O14  1  0.303873  0.700715  0.700715  1
  O  O15  1  0.697613  0.709723  0.298818  1
  O  O16  1  0.697613  0.298818  0.709723  1
  O  O17  1  0.946127  0.549285  0.549285  1
  O  O18  1  0.538589  0.964166  0.964166  1
  O  O19  1  0.963715  0.535687  0.964156  1
  O  O20  1  0.552387  0.540277  0.951182  1
  O  O21  1  0.963715  0.964156  0.535687  1
