# generated using pymatgen
data_ZrPa5(GaPt)6
_symmetry_space_group_name_H-M   'P 1'
_cell_length_a   7.04524205
_cell_length_b   7.02289638
_cell_length_c   8.28011600
_cell_angle_alpha   90.00000000
_cell_angle_beta   90.00000000
_cell_angle_gamma   120.09960401
_symmetry_Int_Tables_number   1
_chemical_formula_structural   ZrPa5(GaPt)6
_chemical_formula_sum   'Zr1 Pa5 Ga6 Pt6'
_cell_volume   354.43978609
_cell_formula_units_Z   1
loop_
 _symmetry_equiv_pos_site_id
 _symmetry_equiv_pos_as_xyz
  1  'x, y, z'
loop_
 _atom_site_type_symbol
 _atom_site_label
 _atom_site_symmetry_multiplicity
 _atom_site_fract_x
 _atom_site_fract_y
 _atom_site_fract_z
 _atom_site_occupancy
  Zr  Zr0  1  0.594825  0.000036  0.750000  1
  Pa  Pa1  1  0.420708  0.420515  0.750000  1
  Pa  Pa2  1  0.000271  0.579418  0.750000  1
  Pa  Pa3  1  0.572202  0.000119  0.250000  1
  Pa  Pa4  1  0.001423  0.582356  0.250000  1
  Pa  Pa5  1  0.418852  0.417516  0.250000  1
  Ga  Ga6  1  0.249538  0.000144  0.992192  1
  Ga  Ga7  1  0.753640  0.759454  0.999228  1
  Ga  Ga8  1  0.994452  0.240369  0.999249  1
  Ga  Ga9  1  0.753640  0.759454  0.500772  1
  Ga  Ga10  1  0.249538  0.000144  0.507808  1
  Ga  Ga11  1  0.994452  0.240369  0.500751  1
  Pt  Pt12  1  0.667820  0.336119  0.997384  1
  Pt  Pt13  1  0.998850  0.999824  0.750000  1
  Pt  Pt14  1  0.667820  0.336119  0.502616  1
  Pt  Pt15  1  0.331761  0.664176  0.502601  1
  Pt  Pt16  1  0.331761  0.664176  0.997399  1
  Pt  Pt17  1  0.998448  0.999688  0.250000  1
