# generated using pymatgen
data_KPr(NbBr3)6
_symmetry_space_group_name_H-M   'P 1'
_cell_length_a   10.87955683
_cell_length_b   10.87955646
_cell_length_c   10.87955679
_cell_angle_alpha   55.29921384
_cell_angle_beta   55.29921152
_cell_angle_gamma   55.29921536
_symmetry_Int_Tables_number   1
_chemical_formula_structural   KPr(NbBr3)6
_chemical_formula_sum   'K1 Pr1 Nb6 Br18'
_cell_volume   811.11167710
_cell_formula_units_Z   1
loop_
 _symmetry_equiv_pos_site_id
 _symmetry_equiv_pos_as_xyz
  1  'x, y, z'
loop_
 _atom_site_type_symbol
 _atom_site_label
 _atom_site_symmetry_multiplicity
 _atom_site_fract_x
 _atom_site_fract_y
 _atom_site_fract_z
 _atom_site_occupancy
  K  K0  1  0.221276  0.221276  0.221276  1
  Pr  Pr1  1  0.498316  0.498316  0.498316  1
  Nb  Nb2  1  0.808360  0.141504  0.918838  1
  Nb  Nb3  1  0.918838  0.808360  0.141504  1
  Nb  Nb4  1  0.141504  0.918838  0.808360  1
  Nb  Nb5  1  0.192604  0.858795  0.080580  1
  Nb  Nb6  1  0.080580  0.192604  0.858795  1
  Nb  Nb7  1  0.858795  0.080580  0.192604  1
  Br  Br8  1  0.862310  0.409350  0.729477  1
  Br  Br9  1  0.729477  0.862310  0.409350  1
  Br  Br10  1  0.409350  0.729477  0.862310  1
  Br  Br11  1  0.137367  0.590320  0.272411  1
  Br  Br12  1  0.272411  0.137367  0.590320  1
  Br  Br13  1  0.590320  0.272411  0.137367  1
  Br  Br14  1  0.529849  0.337538  0.816115  1
  Br  Br15  1  0.816115  0.529849  0.337538  1
  Br  Br16  1  0.337538  0.816115  0.529849  1
  Br  Br17  1  0.465410  0.663969  0.187276  1
  Br  Br18  1  0.187276  0.465410  0.663969  1
  Br  Br19  1  0.663969  0.187276  0.465410  1
  Br  Br20  1  0.665855  0.936766  0.072931  1
  Br  Br21  1  0.072931  0.665855  0.936766  1
  Br  Br22  1  0.936766  0.072931  0.665855  1
  Br  Br23  1  0.335837  0.062724  0.925361  1
  Br  Br24  1  0.925361  0.335837  0.062724  1
  Br  Br25  1  0.062724  0.925361  0.335837  1
