# generated using pymatgen
data_Tb3Dy(ZnGa)4
_symmetry_space_group_name_H-M   'P 1'
_cell_length_a   4.44373900
_cell_length_b   7.61193625
_cell_length_c   7.23153269
_cell_angle_alpha   89.99512377
_cell_angle_beta   90.00000000
_cell_angle_gamma   90.00000000
_symmetry_Int_Tables_number   1
_chemical_formula_structural   Tb3Dy(ZnGa)4
_chemical_formula_sum   'Tb3 Dy1 Zn4 Ga4'
_cell_volume   244.60990433
_cell_formula_units_Z   1
loop_
 _symmetry_equiv_pos_site_id
 _symmetry_equiv_pos_as_xyz
  1  'x, y, z'
loop_
 _atom_site_type_symbol
 _atom_site_label
 _atom_site_symmetry_multiplicity
 _atom_site_fract_x
 _atom_site_fract_y
 _atom_site_fract_z
 _atom_site_occupancy
  Tb  Tb0  1  0.250000  0.225107  0.499934  1
  Tb  Tb1  1  0.250000  0.274395  0.999995  1
  Tb  Tb2  1  0.750000  0.726037  0.000162  1
  Dy  Dy3  1  0.750000  0.774047  0.500216  1
  Zn  Zn4  1  0.250000  0.917081  0.791846  1
  Zn  Zn5  1  0.250000  0.583080  0.294345  1
  Zn  Zn6  1  0.750000  0.082579  0.212262  1
  Zn  Zn7  1  0.750000  0.417459  0.710256  1
  Ga  Ga8  1  0.250000  0.913199  0.219479  1
  Ga  Ga9  1  0.750000  0.414228  0.277619  1
  Ga  Ga10  1  0.250000  0.586812  0.717630  1
  Ga  Ga11  1  0.750000  0.085976  0.776257  1
