# generated using pymatgen
data_YbHoSbPtO7
_symmetry_space_group_name_H-M   'P 1'
_cell_length_a   7.37271515
_cell_length_b   7.30406690
_cell_length_c   7.30406424
_cell_angle_alpha   59.41933364
_cell_angle_beta   59.68859401
_cell_angle_gamma   59.68860354
_symmetry_Int_Tables_number   1
_chemical_formula_structural   YbHoSbPtO7
_chemical_formula_sum   'Yb2 Ho2 Sb2 Pt2 O14'
_cell_volume   275.58610330
_cell_formula_units_Z   2
loop_
 _symmetry_equiv_pos_site_id
 _symmetry_equiv_pos_as_xyz
  1  'x, y, z'
loop_
 _atom_site_type_symbol
 _atom_site_label
 _atom_site_symmetry_multiplicity
 _atom_site_fract_x
 _atom_site_fract_y
 _atom_site_fract_z
 _atom_site_occupancy
  Yb  Yb0  1  0.625000  0.625000  0.125000  1
  Yb  Yb1  1  0.625000  0.125000  0.625000  1
  Ho  Ho2  1  0.625000  0.625000  0.625000  1
  Ho  Ho3  1  0.125000  0.625000  0.625000  1
  Sb  Sb4  1  0.125000  0.125000  0.125000  1
  Sb  Sb5  1  0.625000  0.125000  0.125000  1
  Pt  Pt6  1  0.125000  0.625000  0.125000  1
  Pt  Pt7  1  0.125000  0.125000  0.625000  1
  O  O8  1  0.033985  0.466015  0.466015  1
  O  O9  1  0.790549  0.791484  0.211316  1
  O  O10  1  0.797108  0.202892  0.202892  1
  O  O11  1  0.459451  0.038684  0.458516  1
  O  O12  1  0.756758  0.743242  0.743242  1
  O  O13  1  0.043351  0.038684  0.458516  1
  O  O14  1  0.043351  0.458516  0.038684  1
  O  O15  1  0.790549  0.211316  0.791484  1
  O  O16  1  0.206649  0.791484  0.211316  1
  O  O17  1  0.206649  0.211316  0.791484  1
  O  O18  1  0.493242  0.506758  0.506758  1
  O  O19  1  0.452892  0.047108  0.047108  1
  O  O20  1  0.459451  0.458516  0.038684  1
  O  O21  1  0.216015  0.783985  0.783985  1
