# generated using pymatgen
data_TbPrTa3P7Rh9
_symmetry_space_group_name_H-M   'P 1'
_cell_length_a   3.95285700
_cell_length_b   9.69098584
_cell_length_c   9.69189101
_cell_angle_alpha   120.00198557
_cell_angle_beta   90.00023923
_cell_angle_gamma   89.99966534
_symmetry_Int_Tables_number   1
_chemical_formula_structural   TbPrTa3P7Rh9
_chemical_formula_sum   'Tb1 Pr1 Ta3 P7 Rh9'
_cell_volume   321.52113467
_cell_formula_units_Z   1
loop_
 _symmetry_equiv_pos_site_id
 _symmetry_equiv_pos_as_xyz
  1  'x, y, z'
loop_
 _atom_site_type_symbol
 _atom_site_label
 _atom_site_symmetry_multiplicity
 _atom_site_fract_x
 _atom_site_fract_y
 _atom_site_fract_z
 _atom_site_occupancy
  Tb  Tb0  1  0.761883  0.333401  0.666713  1
  Pr  Pr1  1  0.261838  0.666592  0.333292  1
  Ta  Ta2  1  0.761949  0.095754  0.875069  1
  Ta  Ta3  1  0.761947  0.124866  0.220513  1
  Ta  Ta4  1  0.761940  0.779421  0.904310  1
  P  P5  1  0.262028  0.999987  0.000020  1
  P  P6  1  0.761871  0.882026  0.593256  1
  P  P7  1  0.761881  0.406731  0.288813  1
  P  P8  1  0.761863  0.711291  0.118035  1
  P  P9  1  0.261873  0.116210  0.415979  1
  P  P10  1  0.261878  0.583945  0.700192  1
  P  P11  1  0.261892  0.299730  0.883700  1
  Rh  Rh12  1  0.261909  0.885107  0.160256  1
  Rh  Rh13  1  0.261921  0.839779  0.725036  1
  Rh  Rh14  1  0.261937  0.275023  0.114741  1
  Rh  Rh15  1  0.761906  0.610434  0.562105  1
  Rh  Rh16  1  0.761913  0.438050  0.048486  1
  Rh  Rh17  1  0.761894  0.951746  0.389629  1
  Rh  Rh18  1  0.261900  0.365902  0.437957  1
  Rh  Rh19  1  0.261892  0.561946  0.927872  1
  Rh  Rh20  1  0.261885  0.072061  0.634024  1
