# generated using pymatgen
data_ErHf5Ga7Cu16
_symmetry_space_group_name_H-M   'P 1'
_cell_length_a   8.44597533
_cell_length_b   8.42434295
_cell_length_c   8.42434385
_cell_angle_alpha   60.16995763
_cell_angle_beta   59.91501430
_cell_angle_gamma   59.91501430
_symmetry_Int_Tables_number   1
_chemical_formula_structural   ErHf5Ga7Cu16
_chemical_formula_sum   'Er1 Hf5 Ga7 Cu16'
_cell_volume   423.83922460
_cell_formula_units_Z   1
loop_
 _symmetry_equiv_pos_site_id
 _symmetry_equiv_pos_as_xyz
  1  'x, y, z'
loop_
 _atom_site_type_symbol
 _atom_site_label
 _atom_site_symmetry_multiplicity
 _atom_site_fract_x
 _atom_site_fract_y
 _atom_site_fract_z
 _atom_site_occupancy
  Er  Er0  1  0.296719  0.703281  0.703281  1
  Hf  Hf1  1  0.707069  0.703352  0.292931  1
  Hf  Hf2  1  0.296648  0.703352  0.292931  1
  Hf  Hf3  1  0.700154  0.299846  0.299846  1
  Hf  Hf4  1  0.296648  0.292931  0.703352  1
  Hf  Hf5  1  0.707069  0.292931  0.703352  1
  Ga  Ga6  1  0.001183  0.998817  0.998817  1
  Ga  Ga7  1  0.998245  0.001755  0.497256  1
  Ga  Ga8  1  0.502744  0.001755  0.497256  1
  Ga  Ga9  1  0.999789  0.500211  0.500211  1
  Ga  Ga10  1  0.502744  0.497256  0.001755  1
  Ga  Ga11  1  0.998245  0.497256  0.001755  1
  Ga  Ga12  1  0.499789  0.000211  0.000211  1
  Cu  Cu13  1  0.880977  0.881043  0.357004  1
  Cu  Cu14  1  0.880977  0.357004  0.881043  1
  Cu  Cu15  1  0.359693  0.882212  0.882212  1
  Cu  Cu16  1  0.875884  0.882212  0.882212  1
  Cu  Cu17  1  0.117788  0.124116  0.640307  1
  Cu  Cu18  1  0.117788  0.640307  0.124116  1
  Cu  Cu19  1  0.642996  0.119023  0.119023  1
  Cu  Cu20  1  0.118957  0.119023  0.119023  1
  Cu  Cu21  1  0.669049  0.669033  0.992867  1
  Cu  Cu22  1  0.669049  0.992867  0.669033  1
  Cu  Cu23  1  0.989820  0.669576  0.669576  1
  Cu  Cu24  1  0.671026  0.669576  0.669576  1
  Cu  Cu25  1  0.330424  0.328974  0.010180  1
  Cu  Cu26  1  0.330424  0.010180  0.328974  1
  Cu  Cu27  1  0.007133  0.330951  0.330951  1
  Cu  Cu28  1  0.330967  0.330951  0.330951  1
