# generated using pymatgen
data_ScGa5Fe6Sb
_symmetry_space_group_name_H-M   'P 1'
_cell_length_a   6.56759829
_cell_length_b   6.56759761
_cell_length_c   6.56759740
_cell_angle_alpha   134.88622217
_cell_angle_beta   99.95964449
_cell_angle_gamma   96.96969432
_symmetry_Int_Tables_number   1
_chemical_formula_structural   ScGa5Fe6Sb
_chemical_formula_sum   'Sc1 Ga5 Fe6 Sb1'
_cell_volume   185.26907311
_cell_formula_units_Z   1
loop_
 _symmetry_equiv_pos_site_id
 _symmetry_equiv_pos_as_xyz
  1  'x, y, z'
loop_
 _atom_site_type_symbol
 _atom_site_label
 _atom_site_symmetry_multiplicity
 _atom_site_fract_x
 _atom_site_fract_y
 _atom_site_fract_z
 _atom_site_occupancy
  Sc  Sc0  1  0.993254  0.000000  0.993254  1
  Ga  Ga1  1  0.337591  0.336018  0.001574  1
  Ga  Ga2  1  0.665556  0.663982  0.001574  1
  Ga  Ga3  1  0.830977  0.330788  0.500189  1
  Ga  Ga4  1  0.169401  0.669212  0.500189  1
  Ga  Ga5  1  0.666071  0.000000  0.666071  1
  Fe  Fe6  1  0.753418  0.500000  0.253418  1
  Fe  Fe7  1  0.995477  0.999892  0.503323  1
  Fe  Fe8  1  0.995477  0.492154  0.995585  1
  Fe  Fe9  1  0.503431  0.000108  0.995585  1
  Fe  Fe10  1  0.503431  0.507846  0.503323  1
  Fe  Fe11  1  0.244043  0.500000  0.744043  1
  Sb  Sb12  1  0.341874  0.000000  0.341874  1
