# generated using pymatgen
data_Tb8Tm12Si15As
_symmetry_space_group_name_H-M   'P 1'
_cell_length_a   7.43038154
_cell_length_b   7.60992168
_cell_length_c   14.49884013
_cell_angle_alpha   89.89327704
_cell_angle_beta   86.85790552
_cell_angle_gamma   90.01276331
_symmetry_Int_Tables_number   1
_chemical_formula_structural   Tb8Tm12Si15As
_chemical_formula_sum   'Tb8 Tm12 Si15 As1'
_cell_volume   818.59748775
_cell_formula_units_Z   1
loop_
 _symmetry_equiv_pos_site_id
 _symmetry_equiv_pos_as_xyz
  1  'x, y, z'
loop_
 _atom_site_type_symbol
 _atom_site_label
 _atom_site_symmetry_multiplicity
 _atom_site_fract_x
 _atom_site_fract_y
 _atom_site_fract_z
 _atom_site_occupancy
  Tb  Tb0  1  0.021759  0.182604  0.099292  1
  Tb  Tb1  1  0.978510  0.818637  0.899746  1
  Tb  Tb2  1  0.479468  0.681240  0.900402  1
  Tb  Tb3  1  0.999965  0.820561  0.598538  1
  Tb  Tb4  1  0.521067  0.319395  0.099445  1
  Tb  Tb5  1  0.997785  0.177959  0.401411  1
  Tb  Tb6  1  0.500430  0.316481  0.400860  1
  Tb  Tb7  1  0.505129  0.682102  0.599094  1
  Tm  Tm8  1  0.168887  0.505501  0.748754  1
  Tm  Tm9  1  0.830846  0.494606  0.254495  1
  Tm  Tm10  1  0.329594  0.006534  0.253869  1
  Tm  Tm11  1  0.670663  0.993895  0.746606  1
  Tm  Tm12  1  0.353522  0.164765  0.621948  1
  Tm  Tm13  1  0.647502  0.832882  0.378588  1
  Tm  Tm14  1  0.146390  0.667062  0.380409  1
  Tm  Tm15  1  0.671892  0.822095  0.122910  1
  Tm  Tm16  1  0.850979  0.332929  0.619965  1
  Tm  Tm17  1  0.327606  0.177558  0.876378  1
  Tm  Tm18  1  0.827752  0.321774  0.876509  1
  Tm  Tm19  1  0.171332  0.679071  0.122754  1
  Si  Si20  1  0.043152  0.110965  0.750660  1
  Si  Si21  1  0.956695  0.889592  0.248309  1
  Si  Si22  1  0.455650  0.611156  0.248736  1
  Si  Si23  1  0.542971  0.389508  0.750599  1
  Si  Si24  1  0.287812  0.870369  0.751887  1
  Si  Si25  1  0.713639  0.127826  0.247556  1
  Si  Si26  1  0.213078  0.373591  0.248382  1
  Si  Si27  1  0.788072  0.627581  0.751235  1
  Si  Si28  1  0.795708  0.535943  0.457055  1
  Si  Si29  1  0.302316  0.963007  0.458523  1
  Si  Si30  1  0.851248  0.530397  0.040266  1
  Si  Si31  1  0.697045  0.036659  0.542299  1
  Si  Si32  1  0.148105  0.470774  0.958820  1
  Si  Si33  1  0.647484  0.029723  0.958585  1
  Si  Si34  1  0.352284  0.971519  0.041223  1
  As  As35  1  0.203664  0.463738  0.543893  1
