# generated using pymatgen
data_Th3Ga3CoRh2
_symmetry_space_group_name_H-M   'P 1'
_cell_length_a   7.17448500
_cell_length_b   7.17448502
_cell_length_c   4.06033100
_cell_angle_alpha   90.00000000
_cell_angle_beta   90.00000000
_cell_angle_gamma   120.00000453
_symmetry_Int_Tables_number   1
_chemical_formula_structural   Th3Ga3CoRh2
_chemical_formula_sum   'Th3 Ga3 Co1 Rh2'
_cell_volume   180.99789149
_cell_formula_units_Z   1
loop_
 _symmetry_equiv_pos_site_id
 _symmetry_equiv_pos_as_xyz
  1  'x, y, z'
loop_
 _atom_site_type_symbol
 _atom_site_label
 _atom_site_symmetry_multiplicity
 _atom_site_fract_x
 _atom_site_fract_y
 _atom_site_fract_z
 _atom_site_occupancy
  Th  Th0  1  0.000000  0.405238  0.500000  1
  Th  Th1  1  0.594762  0.594762  0.500000  1
  Th  Th2  1  0.405238  0.000000  0.500000  1
  Ga  Ga3  1  0.000000  0.770732  0.000000  1
  Ga  Ga4  1  0.229268  0.229268  0.000000  1
  Ga  Ga5  1  0.770732  0.000000  0.000000  1
  Co  Co6  1  0.000000  0.000000  0.500000  1
  Rh  Rh7  1  0.333333  0.666667  0.000000  1
  Rh  Rh8  1  0.666667  0.333333  0.000000  1
