# generated using pymatgen
data_KBaNd2Br8
_symmetry_space_group_name_H-M   'P 1'
_cell_length_a   8.58969809
_cell_length_b   8.58969874
_cell_length_c   6.91421400
_cell_angle_alpha   72.89327798
_cell_angle_beta   72.89327665
_cell_angle_gamma   111.28405181
_symmetry_Int_Tables_number   1
_chemical_formula_structural   KBaNd2Br8
_chemical_formula_sum   'K1 Ba1 Nd2 Br8'
_cell_volume   405.68041429
_cell_formula_units_Z   1
loop_
 _symmetry_equiv_pos_site_id
 _symmetry_equiv_pos_as_xyz
  1  'x, y, z'
loop_
 _atom_site_type_symbol
 _atom_site_label
 _atom_site_symmetry_multiplicity
 _atom_site_fract_x
 _atom_site_fract_y
 _atom_site_fract_z
 _atom_site_occupancy
  K  K0  1  0.638260  0.361740  0.250000  1
  Ba  Ba1  1  0.365708  0.634292  0.750000  1
  Nd  Nd2  1  0.999847  0.000153  0.750000  1
  Nd  Nd3  1  0.000612  0.999388  0.250000  1
  Br  Br4  1  0.651310  0.781355  0.210270  1
  Br  Br5  1  0.218645  0.348690  0.289730  1
  Br  Br6  1  0.349436  0.225860  0.791206  1
  Br  Br7  1  0.774140  0.650564  0.708794  1
  Br  Br8  1  0.719523  0.052271  0.585595  1
  Br  Br9  1  0.947729  0.280477  0.914405  1
  Br  Br10  1  0.272978  0.938186  0.426058  1
  Br  Br11  1  0.061814  0.727022  0.073942  1
