# generated using pymatgen
data_TbSmY2(WO6)2
_symmetry_space_group_name_H-M   'P 1'
_cell_length_a   5.44308100
_cell_length_b   7.76513864
_cell_length_c   11.55168642
_cell_angle_alpha   75.59669544
_cell_angle_beta   90.00000000
_cell_angle_gamma   90.00000000
_symmetry_Int_Tables_number   1
_chemical_formula_structural   TbSmY2(WO6)2
_chemical_formula_sum   'Tb2 Sm2 Y4 W4 O24'
_cell_volume   472.90062198
_cell_formula_units_Z   2
loop_
 _symmetry_equiv_pos_site_id
 _symmetry_equiv_pos_as_xyz
  1  'x, y, z'
loop_
 _atom_site_type_symbol
 _atom_site_label
 _atom_site_symmetry_multiplicity
 _atom_site_fract_x
 _atom_site_fract_y
 _atom_site_fract_z
 _atom_site_occupancy
  Tb  Tb0  1  0.740152  0.000000  0.750000  1
  Tb  Tb1  1  0.259848  0.000000  0.250000  1
  Sm  Sm2  1  0.683907  0.500000  0.750000  1
  Sm  Sm3  1  0.316093  0.500000  0.250000  1
  Y  Y4  1  0.186551  0.795785  0.577450  1
  Y  Y5  1  0.813449  0.795785  0.077450  1
  Y  Y6  1  0.186551  0.204215  0.922550  1
  Y  Y7  1  0.813449  0.204215  0.422550  1
  W  W8  1  0.253734  0.725332  0.885055  1
  W  W9  1  0.746266  0.725332  0.385055  1
  W  W10  1  0.253734  0.274668  0.614945  1
  W  W11  1  0.746266  0.274668  0.114945  1
  O  O12  1  0.043505  0.939927  0.895692  1
  O  O13  1  0.530714  0.846996  0.930654  1
  O  O14  1  0.956495  0.939927  0.395692  1
  O  O15  1  0.455958  0.791385  0.728088  1
  O  O16  1  0.469286  0.846996  0.430654  1
  O  O17  1  0.983548  0.714026  0.771602  1
  O  O18  1  0.544042  0.791385  0.228088  1
  O  O19  1  0.851020  0.638647  0.546592  1
  O  O20  1  0.354931  0.492520  0.886885  1
  O  O21  1  0.016452  0.714026  0.271602  1
  O  O22  1  0.354931  0.507480  0.613115  1
  O  O23  1  0.851020  0.361353  0.953408  1
  O  O24  1  0.148980  0.638647  0.046592  1
  O  O25  1  0.645069  0.492520  0.386885  1
  O  O26  1  0.983548  0.285974  0.728398  1
  O  O27  1  0.645069  0.507480  0.113115  1
  O  O28  1  0.148980  0.361353  0.453408  1
  O  O29  1  0.455958  0.208615  0.771912  1
  O  O30  1  0.016452  0.285974  0.228398  1
  O  O31  1  0.530714  0.153004  0.569346  1
  O  O32  1  0.544042  0.208615  0.271912  1
  O  O33  1  0.043505  0.060073  0.604308  1
  O  O34  1  0.469286  0.153004  0.069346  1
  O  O35  1  0.956495  0.060073  0.104308  1
