# generated using pymatgen
data_Ba4CuAgO6
_symmetry_space_group_name_H-M   'P 1'
_cell_length_a   7.23638874
_cell_length_b   7.23638854
_cell_length_c   11.47758300
_cell_angle_alpha   90.00000000
_cell_angle_beta   90.00000000
_cell_angle_gamma   132.81724904
_symmetry_Int_Tables_number   1
_chemical_formula_structural   Ba4CuAgO6
_chemical_formula_sum   'Ba8 Cu2 Ag2 O12'
_cell_volume   440.86873035
_cell_formula_units_Z   2
loop_
 _symmetry_equiv_pos_site_id
 _symmetry_equiv_pos_as_xyz
  1  'x, y, z'
loop_
 _atom_site_type_symbol
 _atom_site_label
 _atom_site_symmetry_multiplicity
 _atom_site_fract_x
 _atom_site_fract_y
 _atom_site_fract_z
 _atom_site_occupancy
  Ba  Ba0  1  0.202277  0.915217  0.750000  1
  Ba  Ba1  1  0.647312  0.352688  0.500000  1
  Ba  Ba2  1  0.797723  0.084783  0.250000  1
  Ba  Ba3  1  0.915217  0.202277  0.750000  1
  Ba  Ba4  1  0.084783  0.797723  0.250000  1
  Ba  Ba5  1  0.352688  0.647312  0.000000  1
  Ba  Ba6  1  0.352688  0.647312  0.500000  1
  Ba  Ba7  1  0.647312  0.352688  0.000000  1
  Cu  Cu8  1  0.000000  0.000000  0.000000  1
  Cu  Cu9  1  0.000000  0.000000  0.500000  1
  Ag  Ag10  1  0.425260  0.425260  0.250000  1
  Ag  Ag11  1  0.574740  0.574740  0.750000  1
  O  O12  1  0.258306  0.578894  0.250000  1
  O  O13  1  0.145946  0.854054  0.500000  1
  O  O14  1  0.578894  0.258306  0.250000  1
  O  O15  1  0.748038  0.748038  0.398780  1
  O  O16  1  0.145946  0.854054  0.000000  1
  O  O17  1  0.854054  0.145946  0.000000  1
  O  O18  1  0.421106  0.741694  0.750000  1
  O  O19  1  0.741694  0.421106  0.750000  1
  O  O20  1  0.748038  0.748038  0.101220  1
  O  O21  1  0.854054  0.145946  0.500000  1
  O  O22  1  0.251962  0.251962  0.601220  1
  O  O23  1  0.251962  0.251962  0.898780  1
