# generated using pymatgen
data_Sm4Al5Ir9
_symmetry_space_group_name_H-M   'P 1'
_cell_length_a   12.16234043
_cell_length_b   12.16234012
_cell_length_c   12.16234048
_cell_angle_alpha   26.73068578
_cell_angle_beta   26.73068771
_cell_angle_gamma   26.73068474
_symmetry_Int_Tables_number   1
_chemical_formula_structural   Sm4Al5Ir9
_chemical_formula_sum   'Sm4 Al5 Ir9'
_cell_volume   320.93395990
_cell_formula_units_Z   1
loop_
 _symmetry_equiv_pos_site_id
 _symmetry_equiv_pos_as_xyz
  1  'x, y, z'
loop_
 _atom_site_type_symbol
 _atom_site_label
 _atom_site_symmetry_multiplicity
 _atom_site_fract_x
 _atom_site_fract_y
 _atom_site_fract_z
 _atom_site_occupancy
  Sm  Sm0  1  0.950890  0.950890  0.950890  1
  Sm  Sm1  1  0.049110  0.049110  0.049110  1
  Sm  Sm2  1  0.853340  0.853340  0.853340  1
  Sm  Sm3  1  0.146660  0.146660  0.146660  1
  Al  Al4  1  0.500000  0.500000  0.500000  1
  Al  Al5  1  0.721355  0.721355  0.721355  1
  Al  Al6  1  0.278645  0.278645  0.278645  1
  Al  Al7  1  0.611040  0.611040  0.611040  1
  Al  Al8  1  0.388960  0.388960  0.388960  1
  Ir  Ir9  1  0.500000  0.500000  0.000000  1
  Ir  Ir10  1  0.000000  0.500000  0.500000  1
  Ir  Ir11  1  0.500000  0.000000  0.500000  1
  Ir  Ir12  1  0.387420  0.895053  0.387420  1
  Ir  Ir13  1  0.387420  0.387420  0.895053  1
  Ir  Ir14  1  0.895053  0.387420  0.387420  1
  Ir  Ir15  1  0.612580  0.104947  0.612580  1
  Ir  Ir16  1  0.612580  0.612580  0.104947  1
  Ir  Ir17  1  0.104947  0.612580  0.612580  1
