# generated using pymatgen
data_Ta4Al6PdRh
_symmetry_space_group_name_H-M   'P 1'
_cell_length_a   5.19614100
_cell_length_b   5.19614116
_cell_length_c   8.01067400
_cell_angle_alpha   90.00000000
_cell_angle_beta   90.00000000
_cell_angle_gamma   120.00000537
_symmetry_Int_Tables_number   1
_chemical_formula_structural   Ta4Al6PdRh
_chemical_formula_sum   'Ta4 Al6 Pd1 Rh1'
_cell_volume   187.31024599
_cell_formula_units_Z   1
loop_
 _symmetry_equiv_pos_site_id
 _symmetry_equiv_pos_as_xyz
  1  'x, y, z'
loop_
 _atom_site_type_symbol
 _atom_site_label
 _atom_site_symmetry_multiplicity
 _atom_site_fract_x
 _atom_site_fract_y
 _atom_site_fract_z
 _atom_site_occupancy
  Ta  Ta0  1  0.666668  0.333334  0.071172  1
  Ta  Ta1  1  0.666668  0.333334  0.429142  1
  Ta  Ta2  1  0.333334  0.666667  0.570857  1
  Ta  Ta3  1  0.333334  0.666667  0.928828  1
  Al  Al4  1  0.170656  0.341311  0.247665  1
  Al  Al5  1  0.170657  0.829344  0.247665  1
  Al  Al6  1  0.658688  0.829344  0.247665  1
  Al  Al7  1  0.341310  0.170655  0.752335  1
  Al  Al8  1  0.829344  0.170655  0.752335  1
  Al  Al9  1  0.829345  0.658690  0.752335  1
  Pd  Pd10  1  0.000000  0.000000  0.500000  1
  Rh  Rh11  1  0.000000  0.000000  0.000000  1
