# generated using pymatgen
data_TbYbY(MnC3)2
_symmetry_space_group_name_H-M   'P 1'
_cell_length_a   8.10639239
_cell_length_b   8.07009786
_cell_length_c   4.99280800
_cell_angle_alpha   90.00000000
_cell_angle_beta   90.00000000
_cell_angle_gamma   120.08939735
_symmetry_Int_Tables_number   1
_chemical_formula_structural   TbYbY(MnC3)2
_chemical_formula_sum   'Tb2 Yb2 Y2 Mn4 C12'
_cell_volume   282.61160440
_cell_formula_units_Z   2
loop_
 _symmetry_equiv_pos_site_id
 _symmetry_equiv_pos_as_xyz
  1  'x, y, z'
loop_
 _atom_site_type_symbol
 _atom_site_label
 _atom_site_symmetry_multiplicity
 _atom_site_fract_x
 _atom_site_fract_y
 _atom_site_fract_z
 _atom_site_occupancy
  Tb  Tb0  1  0.067021  0.383402  0.750000  1
  Tb  Tb1  1  0.381343  0.315250  0.250000  1
  Yb  Yb2  1  0.613426  0.683424  0.750000  1
  Yb  Yb3  1  0.928274  0.614378  0.250000  1
  Y  Y4  1  0.685950  0.068281  0.250000  1
  Y  Y5  1  0.310010  0.931186  0.750000  1
  Mn  Mn6  1  0.996911  0.996353  0.500298  1
  Mn  Mn7  1  0.996911  0.996353  0.999702  1
  Mn  Mn8  1  0.666778  0.329215  0.750000  1
  Mn  Mn9  1  0.337322  0.668914  0.250000  1
  C  C10  1  0.957221  0.771139  0.750000  1
  C  C11  1  0.188694  0.961051  0.250000  1
  C  C12  1  0.777002  0.819789  0.250000  1
  C  C13  1  0.230124  0.194381  0.750000  1
  C  C14  1  0.818656  0.039733  0.750000  1
  C  C15  1  0.035951  0.229600  0.250000  1
  C  C16  1  0.857287  0.576971  0.750000  1
  C  C17  1  0.282250  0.860637  0.250000  1
  C  C18  1  0.583507  0.719911  0.250000  1
  C  C19  1  0.424257  0.282084  0.750000  1
  C  C20  1  0.143093  0.424792  0.250000  1
  C  C21  1  0.718011  0.133156  0.750000  1
