# generated using pymatgen
data_Y12Tl7Si
_symmetry_space_group_name_H-M   'P 1'
_cell_length_a   11.52358144
_cell_length_b   11.52358081
_cell_length_c   11.52358100
_cell_angle_alpha   117.25707470
_cell_angle_beta   117.25707308
_cell_angle_gamma   94.82040102
_symmetry_Int_Tables_number   1
_chemical_formula_structural   Y12Tl7Si
_chemical_formula_sum   'Y24 Tl14 Si2'
_cell_volume   1122.61217871
_cell_formula_units_Z   2
loop_
 _symmetry_equiv_pos_site_id
 _symmetry_equiv_pos_as_xyz
  1  'x, y, z'
loop_
 _atom_site_type_symbol
 _atom_site_label
 _atom_site_symmetry_multiplicity
 _atom_site_fract_x
 _atom_site_fract_y
 _atom_site_fract_z
 _atom_site_occupancy
  Y  Y0  1  0.144163  0.644163  0.500000  1
  Y  Y1  1  0.855837  0.355837  0.500000  1
  Y  Y2  1  0.644163  0.144163  0.500000  1
  Y  Y3  1  0.355837  0.855837  0.500000  1
  Y  Y4  1  0.838153  0.705084  0.264771  1
  Y  Y5  1  0.161847  0.294916  0.735229  1
  Y  Y6  1  0.440314  0.573382  0.735229  1
  Y  Y7  1  0.705084  0.440314  0.866932  1
  Y  Y8  1  0.059686  0.794916  0.133068  1
  Y  Y9  1  0.559686  0.426618  0.264771  1
  Y  Y10  1  0.294916  0.559686  0.133068  1
  Y  Y11  1  0.940314  0.205084  0.866932  1
  Y  Y12  1  0.573382  0.838153  0.133068  1
  Y  Y13  1  0.661847  0.926618  0.866932  1
  Y  Y14  1  0.426618  0.161847  0.866932  1
  Y  Y15  1  0.338153  0.073382  0.133068  1
  Y  Y16  1  0.926618  0.059686  0.264771  1
  Y  Y17  1  0.073382  0.940314  0.735229  1
  Y  Y18  1  0.794916  0.661847  0.735229  1
  Y  Y19  1  0.205084  0.338153  0.264771  1
  Y  Y20  1  0.171985  0.671985  0.843971  1
  Y  Y21  1  0.828015  0.328015  0.156029  1
  Y  Y22  1  0.671985  0.828015  0.500000  1
  Y  Y23  1  0.328015  0.171985  0.500000  1
  Tl  Tl24  1  0.623239  0.123239  0.746478  1
  Tl  Tl25  1  0.376761  0.876761  0.253522  1
  Tl  Tl26  1  0.123239  0.376761  0.500000  1
  Tl  Tl27  1  0.876761  0.623239  0.500000  1
  Tl  Tl28  1  0.500000  0.500000  0.000000  1
  Tl  Tl29  1  0.000000  0.000000  0.000000  1
  Tl  Tl30  1  0.371803  0.871803  0.844147  1
  Tl  Tl31  1  0.628197  0.128197  0.155853  1
  Tl  Tl32  1  0.027655  0.527655  0.155853  1
  Tl  Tl33  1  0.871803  0.027655  0.500000  1
  Tl  Tl34  1  0.472345  0.628197  0.500000  1
  Tl  Tl35  1  0.972345  0.472345  0.844147  1
  Tl  Tl36  1  0.128197  0.972345  0.500000  1
  Tl  Tl37  1  0.527655  0.371803  0.500000  1
  Si  Si38  1  0.750000  0.750000  0.000000  1
  Si  Si39  1  0.250000  0.250000  0.000000  1
