# generated using pymatgen
data_La10Nd6MgCd(HgIr2)2
_symmetry_space_group_name_H-M   'P 1'
_cell_length_a   10.07830745
_cell_length_b   10.07830783
_cell_length_c   10.07830800
_cell_angle_alpha   60.12568345
_cell_angle_beta   60.12568220
_cell_angle_gamma   60.12568818
_symmetry_Int_Tables_number   1
_chemical_formula_structural   La10Nd6MgCd(HgIr2)2
_chemical_formula_sum   'La10 Nd6 Mg1 Cd1 Hg2 Ir4'
_cell_volume   725.90981504
_cell_formula_units_Z   1
loop_
 _symmetry_equiv_pos_site_id
 _symmetry_equiv_pos_as_xyz
  1  'x, y, z'
loop_
 _atom_site_type_symbol
 _atom_site_label
 _atom_site_symmetry_multiplicity
 _atom_site_fract_x
 _atom_site_fract_y
 _atom_site_fract_z
 _atom_site_occupancy
  La  La0  1  0.347790  0.347510  0.347510  1
  La  La1  1  0.347053  0.347107  0.958678  1
  La  La2  1  0.347053  0.958678  0.347107  1
  La  La3  1  0.957709  0.347248  0.347248  1
  La  La4  1  0.806899  0.193193  0.193193  1
  La  La5  1  0.189601  0.809125  0.809125  1
  La  La6  1  0.192130  0.807887  0.192324  1
  La  La7  1  0.808362  0.190596  0.808470  1
  La  La8  1  0.192130  0.192324  0.807887  1
  La  La9  1  0.808362  0.808470  0.190596  1
  Nd  Nd10  1  0.936619  0.565238  0.565238  1
  Nd  Nd11  1  0.563094  0.936970  0.936970  1
  Nd  Nd12  1  0.564728  0.937944  0.564955  1
  Nd  Nd13  1  0.935719  0.563470  0.937434  1
  Nd  Nd14  1  0.564728  0.564955  0.937944  1
  Nd  Nd15  1  0.935719  0.937434  0.563470  1
  Mg  Mg16  1  0.574804  0.573506  0.573506  1
  Cd  Cd17  1  0.255901  0.581827  0.581827  1
  Hg  Hg18  1  0.584490  0.586499  0.247853  1
  Hg  Hg19  1  0.584490  0.247853  0.586499  1
  Ir  Ir20  1  0.141078  0.141079  0.141079  1
  Ir  Ir21  1  0.141615  0.141410  0.578188  1
  Ir  Ir22  1  0.141615  0.578188  0.141410  1
  Ir  Ir23  1  0.578307  0.141483  0.141483  1
