# generated using pymatgen
data_Sc11Pa8Si16Tc
_symmetry_space_group_name_H-M   'P 1'
_cell_length_a   6.98660900
_cell_length_b   7.31807126
_cell_length_c   13.82905000
_cell_angle_alpha   90.00000000
_cell_angle_beta   90.00000000
_cell_angle_gamma   90.19470861
_symmetry_Int_Tables_number   1
_chemical_formula_structural   Sc11Pa8Si16Tc
_chemical_formula_sum   'Sc11 Pa8 Si16 Tc1'
_cell_volume   707.05453480
_cell_formula_units_Z   1
loop_
 _symmetry_equiv_pos_site_id
 _symmetry_equiv_pos_as_xyz
  1  'x, y, z'
loop_
 _atom_site_type_symbol
 _atom_site_label
 _atom_site_symmetry_multiplicity
 _atom_site_fract_x
 _atom_site_fract_y
 _atom_site_fract_z
 _atom_site_occupancy
  Sc  Sc0  1  0.836959  0.489132  0.250000  1
  Sc  Sc1  1  0.337226  0.011369  0.250000  1
  Sc  Sc2  1  0.664570  0.987055  0.750000  1
  Sc  Sc3  1  0.329892  0.175866  0.625017  1
  Sc  Sc4  1  0.667197  0.825876  0.376380  1
  Sc  Sc5  1  0.166644  0.673723  0.378414  1
  Sc  Sc6  1  0.667197  0.825876  0.123620  1
  Sc  Sc7  1  0.834385  0.327859  0.626288  1
  Sc  Sc8  1  0.329892  0.175866  0.874983  1
  Sc  Sc9  1  0.834385  0.327859  0.873712  1
  Sc  Sc10  1  0.166644  0.673723  0.121586  1
  Pa  Pa11  1  0.007903  0.174672  0.092693  1
  Pa  Pa12  1  0.996272  0.824586  0.902314  1
  Pa  Pa13  1  0.495660  0.670155  0.903469  1
  Pa  Pa14  1  0.996272  0.824586  0.597686  1
  Pa  Pa15  1  0.503976  0.326230  0.093634  1
  Pa  Pa16  1  0.007903  0.174672  0.407307  1
  Pa  Pa17  1  0.503976  0.326230  0.406366  1
  Pa  Pa18  1  0.495660  0.670155  0.596531  1
  Si  Si19  1  0.034994  0.117269  0.750000  1
  Si  Si20  1  0.965468  0.888147  0.250000  1
  Si  Si21  1  0.463784  0.611999  0.250000  1
  Si  Si22  1  0.523671  0.392528  0.750000  1
  Si  Si23  1  0.292270  0.861293  0.750000  1
  Si  Si24  1  0.710648  0.132935  0.250000  1
  Si  Si25  1  0.209976  0.367582  0.250000  1
  Si  Si26  1  0.797842  0.629580  0.750000  1
  Si  Si27  1  0.165870  0.464085  0.544812  1
  Si  Si28  1  0.830856  0.538077  0.464690  1
  Si  Si29  1  0.333169  0.960889  0.463591  1
  Si  Si30  1  0.830856  0.538077  0.035310  1
  Si  Si31  1  0.668114  0.036851  0.539522  1
  Si  Si32  1  0.165870  0.464085  0.955188  1
  Si  Si33  1  0.668114  0.036851  0.960478  1
  Si  Si34  1  0.333169  0.960889  0.036409  1
  Tc  Tc35  1  0.162713  0.513372  0.750000  1
