# generated using pymatgen
data_Y4Al18TcPd5
_symmetry_space_group_name_H-M   'P 1'
_cell_length_a   7.64249335
_cell_length_b   7.64249340
_cell_length_c   9.51789100
_cell_angle_alpha   89.86142530
_cell_angle_beta   89.86142530
_cell_angle_gamma   119.47742153
_symmetry_Int_Tables_number   1
_chemical_formula_structural   Y4Al18TcPd5
_chemical_formula_sum   'Y4 Al18 Tc1 Pd5'
_cell_volume   483.94880982
_cell_formula_units_Z   1
loop_
 _symmetry_equiv_pos_site_id
 _symmetry_equiv_pos_as_xyz
  1  'x, y, z'
loop_
 _atom_site_type_symbol
 _atom_site_label
 _atom_site_symmetry_multiplicity
 _atom_site_fract_x
 _atom_site_fract_y
 _atom_site_fract_z
 _atom_site_occupancy
  Y  Y0  1  0.995623  0.671318  0.248919  1
  Y  Y1  1  0.004377  0.328682  0.751081  1
  Y  Y2  1  0.671318  0.995623  0.248919  1
  Y  Y3  1  0.328682  0.004377  0.751081  1
  Al  Al4  1  0.129434  0.129434  0.246545  1
  Al  Al5  1  0.870566  0.870566  0.753455  1
  Al  Al6  1  0.999977  0.329415  0.073378  1
  Al  Al7  1  0.000023  0.670585  0.926622  1
  Al  Al8  1  0.998097  0.663748  0.577966  1
  Al  Al9  1  0.336252  0.001903  0.422034  1
  Al  Al10  1  0.001903  0.336252  0.422034  1
  Al  Al11  1  0.663748  0.998097  0.577966  1
  Al  Al12  1  0.670585  0.000023  0.926622  1
  Al  Al13  1  0.329415  0.999977  0.073378  1
  Al  Al14  1  0.334009  0.334009  0.556402  1
  Al  Al15  1  0.665991  0.665991  0.443598  1
  Al  Al16  1  0.670889  0.670889  0.052715  1
  Al  Al17  1  0.329111  0.329111  0.947285  1
  Al  Al18  1  0.341431  0.547641  0.248724  1
  Al  Al19  1  0.658569  0.452359  0.751276  1
  Al  Al20  1  0.547641  0.341431  0.248724  1
  Al  Al21  1  0.452359  0.658569  0.751276  1
  Tc  Tc22  1  0.000000  0.000000  0.000000  1
  Pd  Pd23  1  0.672094  0.327906  0.000000  1
  Pd  Pd24  1  0.327906  0.672094  0.000000  1
  Pd  Pd25  1  0.327801  0.672199  0.500000  1
  Pd  Pd26  1  0.672199  0.327801  0.500000  1
  Pd  Pd27  1  0.000000  0.000000  0.500000  1
