# generated using pymatgen
data_Er3TmV6O16
_symmetry_space_group_name_H-M   'P 1'
_cell_length_a   5.08276856
_cell_length_b   6.15282111
_cell_length_c   10.31175560
_cell_angle_alpha   89.88224215
_cell_angle_beta   83.67147227
_cell_angle_gamma   90.00920378
_symmetry_Int_Tables_number   1
_chemical_formula_structural   Er3TmV6O16
_chemical_formula_sum   'Er3 Tm1 V6 O16'
_cell_volume   320.51745226
_cell_formula_units_Z   1
loop_
 _symmetry_equiv_pos_site_id
 _symmetry_equiv_pos_as_xyz
  1  'x, y, z'
loop_
 _atom_site_type_symbol
 _atom_site_label
 _atom_site_symmetry_multiplicity
 _atom_site_fract_x
 _atom_site_fract_y
 _atom_site_fract_z
 _atom_site_occupancy
  Er  Er0  1  0.440151  0.501434  0.223383  1
  Er  Er1  1  0.939386  0.001287  0.723563  1
  Er  Er2  1  0.060348  0.002057  0.275319  1
  Tm  Tm3  1  0.560078  0.501239  0.775118  1
  V  V4  1  0.000913  0.502816  0.500282  1
  V  V5  1  0.500446  0.234555  0.499423  1
  V  V6  1  0.498917  0.753930  0.500715  1
  V  V7  1  0.501981  0.002720  0.000141  1
  V  V8  1  0.000828  0.734700  0.998093  1
  V  V9  1  0.997679  0.255696  0.001476  1
  O  O10  1  0.677167  0.011001  0.397393  1
  O  O11  1  0.177929  0.512806  0.895758  1
  O  O12  1  0.827903  0.504195  0.102691  1
  O  O13  1  0.324819  0.005772  0.602473  1
  O  O14  1  0.686365  0.497134  0.395261  1
  O  O15  1  0.183813  0.999396  0.896569  1
  O  O16  1  0.810002  0.989006  0.106774  1
  O  O17  1  0.311529  0.492761  0.606590  1
  O  O18  1  0.287459  0.225459  0.119885  1
  O  O19  1  0.787290  0.723561  0.620309  1
  O  O20  1  0.277614  0.777103  0.112418  1
  O  O21  1  0.775384  0.277049  0.613654  1
  O  O22  1  0.211537  0.722693  0.380181  1
  O  O23  1  0.710030  0.222692  0.880773  1
  O  O24  1  0.225338  0.275980  0.386560  1
  O  O25  1  0.725094  0.772957  0.885199  1
