# generated using pymatgen
data_Y2Sc3Ge4
_symmetry_space_group_name_H-M   'P 1'
_cell_length_a   7.24023300
_cell_length_b   7.48755600
_cell_length_c   14.10308800
_cell_angle_alpha   90.00000000
_cell_angle_beta   90.00000000
_cell_angle_gamma   90.00000000
_symmetry_Int_Tables_number   1
_chemical_formula_structural   Y2Sc3Ge4
_chemical_formula_sum   'Y8 Sc12 Ge16'
_cell_volume   764.55167115
_cell_formula_units_Z   4
loop_
 _symmetry_equiv_pos_site_id
 _symmetry_equiv_pos_as_xyz
  1  'x, y, z'
loop_
 _atom_site_type_symbol
 _atom_site_label
 _atom_site_symmetry_multiplicity
 _atom_site_fract_x
 _atom_site_fract_y
 _atom_site_fract_z
 _atom_site_occupancy
  Y  Y0  1  0.500105  0.324376  0.096509  1
  Y  Y1  1  0.000105  0.175624  0.403491  1
  Y  Y2  1  0.499895  0.675624  0.596509  1
  Y  Y3  1  0.999895  0.824376  0.903491  1
  Y  Y4  1  0.499895  0.675624  0.903491  1
  Y  Y5  1  0.999895  0.824376  0.596509  1
  Y  Y6  1  0.500105  0.324376  0.403491  1
  Y  Y7  1  0.000105  0.175624  0.096509  1
  Sc  Sc8  1  0.670956  0.002158  0.750000  1
  Sc  Sc9  1  0.170956  0.497842  0.750000  1
  Sc  Sc10  1  0.329044  0.997842  0.250000  1
  Sc  Sc11  1  0.829044  0.502158  0.250000  1
  Sc  Sc12  1  0.839966  0.329963  0.625107  1
  Sc  Sc13  1  0.339966  0.170037  0.874893  1
  Sc  Sc14  1  0.160034  0.670037  0.125107  1
  Sc  Sc15  1  0.660034  0.829963  0.374893  1
  Sc  Sc16  1  0.160034  0.670037  0.374893  1
  Sc  Sc17  1  0.660034  0.829963  0.125107  1
  Sc  Sc18  1  0.839966  0.329963  0.874893  1
  Sc  Sc19  1  0.339966  0.170037  0.625107  1
  Ge  Ge20  1  0.805213  0.639530  0.750000  1
  Ge  Ge21  1  0.305213  0.860470  0.750000  1
  Ge  Ge22  1  0.194787  0.360470  0.250000  1
  Ge  Ge23  1  0.694787  0.139530  0.250000  1
  Ge  Ge24  1  0.537648  0.376177  0.750000  1
  Ge  Ge25  1  0.037648  0.123823  0.750000  1
  Ge  Ge26  1  0.462352  0.623823  0.250000  1
  Ge  Ge27  1  0.962352  0.876177  0.250000  1
  Ge  Ge28  1  0.675550  0.040048  0.541659  1
  Ge  Ge29  1  0.175550  0.459952  0.958341  1
  Ge  Ge30  1  0.324450  0.959952  0.041659  1
  Ge  Ge31  1  0.824450  0.540048  0.458341  1
  Ge  Ge32  1  0.324450  0.959952  0.458341  1
  Ge  Ge33  1  0.824450  0.540048  0.041659  1
  Ge  Ge34  1  0.675550  0.040048  0.958341  1
  Ge  Ge35  1  0.175550  0.459952  0.541659  1
