# generated using pymatgen
data_YbDy2Sc5(B6Os)4
_symmetry_space_group_name_H-M   'P 1'
_cell_length_a   3.54686400
_cell_length_b   8.94684291
_cell_length_c   11.31837924
_cell_angle_alpha   90.03513183
_cell_angle_beta   90.00000000
_cell_angle_gamma   90.00000000
_symmetry_Int_Tables_number   1
_chemical_formula_structural   YbDy2Sc5(B6Os)4
_chemical_formula_sum   'Yb1 Dy2 Sc5 B24 Os4'
_cell_volume   359.16872108
_cell_formula_units_Z   1
loop_
 _symmetry_equiv_pos_site_id
 _symmetry_equiv_pos_as_xyz
  1  'x, y, z'
loop_
 _atom_site_type_symbol
 _atom_site_label
 _atom_site_symmetry_multiplicity
 _atom_site_fract_x
 _atom_site_fract_y
 _atom_site_fract_z
 _atom_site_occupancy
  Yb  Yb0  1  0.000000  0.821270  0.085762  1
  Dy  Dy1  1  0.000000  0.319834  0.413491  1
  Dy  Dy2  1  0.000000  0.680625  0.586150  1
  Sc  Sc3  1  0.000000  0.179163  0.915103  1
  Sc  Sc4  1  0.000000  0.944863  0.372018  1
  Sc  Sc5  1  0.000000  0.054871  0.627407  1
  Sc  Sc6  1  0.000000  0.444467  0.126038  1
  Sc  Sc7  1  0.000000  0.555831  0.874030  1
  B  B8  1  0.500000  0.553929  0.433103  1
  B  B9  1  0.500000  0.444952  0.568236  1
  B  B10  1  0.500000  0.054595  0.065138  1
  B  B11  1  0.500000  0.947094  0.933548  1
  B  B12  1  0.500000  0.752618  0.418419  1
  B  B13  1  0.500000  0.246660  0.581871  1
  B  B14  1  0.500000  0.251780  0.078383  1
  B  B15  1  0.500000  0.748553  0.919490  1
  B  B16  1  0.500000  0.793302  0.264496  1
  B  B17  1  0.500000  0.205620  0.736889  1
  B  B18  1  0.500000  0.293753  0.233037  1
  B  B19  1  0.500000  0.707407  0.766133  1
  B  B20  1  0.500000  0.628967  0.182522  1
  B  B21  1  0.500000  0.369213  0.818979  1
  B  B22  1  0.500000  0.128994  0.315728  1
  B  B23  1  0.500000  0.872112  0.683251  1
  B  B24  1  0.500000  0.981379  0.212865  1
  B  B25  1  0.500000  0.020413  0.787669  1
  B  B26  1  0.500000  0.481092  0.285366  1
  B  B27  1  0.500000  0.518194  0.715831  1
  B  B28  1  0.500000  0.598002  0.026577  1
  B  B29  1  0.500000  0.398663  0.972384  1
  B  B30  1  0.500000  0.099842  0.472693  1
  B  B31  1  0.500000  0.900845  0.526934  1
  Os  Os32  1  0.000000  0.639005  0.318729  1
  Os  Os33  1  0.000000  0.359249  0.683448  1
  Os  Os34  1  0.000000  0.140431  0.179030  1
  Os  Os35  1  0.000000  0.862412  0.819252  1
