# generated using pymatgen
data_YbCd(CuNi)2
_symmetry_space_group_name_H-M   'P 1'
_cell_length_a   5.02755222
_cell_length_b   4.98335673
_cell_length_c   4.98335713
_cell_angle_alpha   59.69292998
_cell_angle_beta   59.70620077
_cell_angle_gamma   59.70620045
_symmetry_Int_Tables_number   1
_chemical_formula_structural   YbCd(CuNi)2
_chemical_formula_sum   'Yb1 Cd1 Cu2 Ni2'
_cell_volume   87.68668106
_cell_formula_units_Z   1
loop_
 _symmetry_equiv_pos_site_id
 _symmetry_equiv_pos_as_xyz
  1  'x, y, z'
loop_
 _atom_site_type_symbol
 _atom_site_label
 _atom_site_symmetry_multiplicity
 _atom_site_fract_x
 _atom_site_fract_y
 _atom_site_fract_z
 _atom_site_occupancy
  Yb  Yb0  1  0.248538  0.251462  0.251462  1
  Cd  Cd1  1  0.001711  0.998289  0.998289  1
  Cu  Cu2  1  0.625243  0.624939  0.124575  1
  Cu  Cu3  1  0.625243  0.124575  0.624939  1
  Ni  Ni4  1  0.123833  0.625368  0.625368  1
  Ni  Ni5  1  0.625433  0.625368  0.625368  1
