# generated using pymatgen
data_Dy13Y7(Cd3Ir)2
_symmetry_space_group_name_H-M   'P 1'
_cell_length_a   9.65097300
_cell_length_b   9.65097343
_cell_length_c   9.85390200
_cell_angle_alpha   90.00000000
_cell_angle_beta   90.00000000
_cell_angle_gamma   120.00000195
_symmetry_Int_Tables_number   1
_chemical_formula_structural   Dy13Y7(Cd3Ir)2
_chemical_formula_sum   'Dy13 Y7 Cd6 Ir2'
_cell_volume   794.84250366
_cell_formula_units_Z   1
loop_
 _symmetry_equiv_pos_site_id
 _symmetry_equiv_pos_as_xyz
  1  'x, y, z'
loop_
 _atom_site_type_symbol
 _atom_site_label
 _atom_site_symmetry_multiplicity
 _atom_site_fract_x
 _atom_site_fract_y
 _atom_site_fract_z
 _atom_site_occupancy
  Dy  Dy0  1  0.000000  0.000000  0.500000  1
  Dy  Dy1  1  0.209622  0.790378  0.440349  1
  Dy  Dy2  1  0.209622  0.419244  0.440349  1
  Dy  Dy3  1  0.580756  0.790378  0.440349  1
  Dy  Dy4  1  0.790378  0.209622  0.559651  1
  Dy  Dy5  1  0.790378  0.580756  0.559651  1
  Dy  Dy6  1  0.419244  0.209622  0.559651  1
  Dy  Dy7  1  0.790369  0.209631  0.940285  1
  Dy  Dy8  1  0.790369  0.580737  0.940285  1
  Dy  Dy9  1  0.419263  0.209631  0.940285  1
  Dy  Dy10  1  0.209631  0.790369  0.059715  1
  Dy  Dy11  1  0.209631  0.419263  0.059715  1
  Dy  Dy12  1  0.580737  0.790369  0.059715  1
  Y  Y13  1  0.000000  0.000000  0.000000  1
  Y  Y14  1  0.541429  0.458571  0.249992  1
  Y  Y15  1  0.541429  0.082858  0.249992  1
  Y  Y16  1  0.917142  0.458571  0.249992  1
  Y  Y17  1  0.458571  0.541429  0.750008  1
  Y  Y18  1  0.458571  0.917142  0.750008  1
  Y  Y19  1  0.082858  0.541429  0.750008  1
  Cd  Cd20  1  0.885356  0.114644  0.250022  1
  Cd  Cd21  1  0.885356  0.770712  0.250022  1
  Cd  Cd22  1  0.229288  0.114644  0.250022  1
  Cd  Cd23  1  0.114644  0.885356  0.749978  1
  Cd  Cd24  1  0.114644  0.229288  0.749978  1
  Cd  Cd25  1  0.770712  0.885356  0.749978  1
  Ir  Ir26  1  0.333333  0.666667  0.249945  1
  Ir  Ir27  1  0.666667  0.333333  0.750055  1
