# generated using pymatgen
data_Ce3DyNb2(B2Ru5)2
_symmetry_space_group_name_H-M   'P 1'
_cell_length_a   9.75163799
_cell_length_b   9.75163799
_cell_length_c   3.14307100
_cell_angle_alpha   90.00000000
_cell_angle_beta   90.00000000
_cell_angle_gamma   89.94838958
_symmetry_Int_Tables_number   1
_chemical_formula_structural   Ce3DyNb2(B2Ru5)2
_chemical_formula_sum   'Ce3 Dy1 Nb2 B4 Ru10'
_cell_volume   298.88846627
_cell_formula_units_Z   1
loop_
 _symmetry_equiv_pos_site_id
 _symmetry_equiv_pos_as_xyz
  1  'x, y, z'
loop_
 _atom_site_type_symbol
 _atom_site_label
 _atom_site_symmetry_multiplicity
 _atom_site_fract_x
 _atom_site_fract_y
 _atom_site_fract_z
 _atom_site_occupancy
  Ce  Ce0  1  0.174608  0.325392  0.000000  1
  Ce  Ce1  1  0.324524  0.824113  0.000000  1
  Ce  Ce2  1  0.675887  0.175476  0.000000  1
  Dy  Dy3  1  0.824420  0.675580  0.000000  1
  Nb  Nb4  1  0.503522  0.501982  0.000000  1
  Nb  Nb5  1  0.998018  0.996478  0.000000  1
  B  B6  1  0.623049  0.876951  0.000000  1
  B  B7  1  0.379059  0.120941  0.000000  1
  B  B8  1  0.118824  0.620830  0.000000  1
  B  B9  1  0.879170  0.381176  0.000000  1
  Ru  Ru10  1  0.568643  0.719928  0.500000  1
  Ru  Ru11  1  0.428722  0.281221  0.500000  1
  Ru  Ru12  1  0.071882  0.780413  0.500000  1
  Ru  Ru13  1  0.929658  0.218900  0.500000  1
  Ru  Ru14  1  0.281100  0.570342  0.500000  1
  Ru  Ru15  1  0.719587  0.428118  0.500000  1
  Ru  Ru16  1  0.218779  0.071278  0.500000  1
  Ru  Ru17  1  0.780072  0.931357  0.500000  1
  Ru  Ru18  1  0.499604  0.000396  0.500000  1
  Ru  Ru19  1  0.000872  0.499128  0.500000  1
