# generated using pymatgen
data_TbLu2Pa(InNi2)2
_symmetry_space_group_name_H-M   'P 1'
_cell_length_a   7.40116443
_cell_length_b   7.40116484
_cell_length_c   3.55621800
_cell_angle_alpha   90.00000000
_cell_angle_beta   90.00000000
_cell_angle_gamma   92.24667898
_symmetry_Int_Tables_number   1
_chemical_formula_structural   TbLu2Pa(InNi2)2
_chemical_formula_sum   'Tb1 Lu2 Pa1 In2 Ni4'
_cell_volume   194.65005908
_cell_formula_units_Z   1
loop_
 _symmetry_equiv_pos_site_id
 _symmetry_equiv_pos_as_xyz
  1  'x, y, z'
loop_
 _atom_site_type_symbol
 _atom_site_label
 _atom_site_symmetry_multiplicity
 _atom_site_fract_x
 _atom_site_fract_y
 _atom_site_fract_z
 _atom_site_occupancy
  Tb  Tb0  1  0.323434  0.823434  0.500000  1
  Lu  Lu1  1  0.173496  0.330245  0.500000  1
  Lu  Lu2  1  0.830245  0.673496  0.500000  1
  Pa  Pa3  1  0.671370  0.171370  0.500000  1
  In  In4  1  0.499004  0.505618  0.000000  1
  In  In5  1  0.005618  0.999004  0.000000  1
  Ni  Ni6  1  0.109190  0.609190  0.000000  1
  Ni  Ni7  1  0.861119  0.361119  0.000000  1
  Ni  Ni8  1  0.632296  0.894227  0.000000  1
  Ni  Ni9  1  0.394227  0.132296  0.000000  1
