# generated using pymatgen
data_Sr(ZrSe2)3
_symmetry_space_group_name_H-M   'P 1'
_cell_length_a   6.57728821
_cell_length_b   6.57728962
_cell_length_c   7.82444083
_cell_angle_alpha   98.07034971
_cell_angle_beta   98.07035296
_cell_angle_gamma   119.94069334
_symmetry_Int_Tables_number   1
_chemical_formula_structural   Sr(ZrSe2)3
_chemical_formula_sum   'Sr1 Zr3 Se6'
_cell_volume   281.53909623
_cell_formula_units_Z   1
loop_
 _symmetry_equiv_pos_site_id
 _symmetry_equiv_pos_as_xyz
  1  'x, y, z'
loop_
 _atom_site_type_symbol
 _atom_site_label
 _atom_site_symmetry_multiplicity
 _atom_site_fract_x
 _atom_site_fract_y
 _atom_site_fract_z
 _atom_site_occupancy
  Sr  Sr0  1  0.000000  0.000000  0.500000  1
  Zr  Zr1  1  0.833715  0.166285  0.000000  1
  Zr  Zr2  1  0.500000  0.500000  0.000000  1
  Zr  Zr3  1  0.166285  0.833715  0.000000  1
  Se  Se4  1  0.243869  0.243869  0.217752  1
  Se  Se5  1  0.905921  0.568064  0.217797  1
  Se  Se6  1  0.568064  0.905921  0.217797  1
  Se  Se7  1  0.431936  0.094079  0.782204  1
  Se  Se8  1  0.094079  0.431936  0.782204  1
  Se  Se9  1  0.756133  0.756133  0.782249  1
