# generated using pymatgen
data_K4V2CoNiSe8
_symmetry_space_group_name_H-M   'P 1'
_cell_length_a   13.70928907
_cell_length_b   12.31240172
_cell_length_c   7.21686914
_cell_angle_alpha   84.92069979
_cell_angle_beta   63.45449379
_cell_angle_gamma   31.62480333
_symmetry_Int_Tables_number   1
_chemical_formula_structural   K4V2CoNiSe8
_chemical_formula_sum   'K4 V2 Co1 Ni1 Se8'
_cell_volume   447.19218130
_cell_formula_units_Z   1
loop_
 _symmetry_equiv_pos_site_id
 _symmetry_equiv_pos_as_xyz
  1  'x, y, z'
loop_
 _atom_site_type_symbol
 _atom_site_label
 _atom_site_symmetry_multiplicity
 _atom_site_fract_x
 _atom_site_fract_y
 _atom_site_fract_z
 _atom_site_occupancy
  K  K0  1  0.680260  0.680260  0.319740  1
  K  K1  1  0.928243  0.928243  0.571757  1
  K  K2  1  0.319740  0.319740  0.680260  1
  K  K3  1  0.571757  0.571757  0.928243  1
  V  V4  1  0.750000  0.750000  0.750000  1
  V  V5  1  0.500000  0.500000  0.500000  1
  Co  Co6  1  0.000000  0.000000  0.000000  1
  Ni  Ni7  1  0.250000  0.250000  0.250000  1
  Se  Se8  1  0.036379  0.351679  0.661320  1
  Se  Se9  1  0.210373  0.900125  0.591289  1
  Se  Se10  1  0.900125  0.210373  0.298214  1
  Se  Se11  1  0.591289  0.298214  0.210373  1
  Se  Se12  1  0.950622  0.661320  0.351679  1
  Se  Se13  1  0.661320  0.950622  0.036379  1
  Se  Se14  1  0.351679  0.036379  0.950622  1
  Se  Se15  1  0.298214  0.591289  0.900125  1
