# generated using pymatgen
data_La3Th(Ga5Ir3)2
_symmetry_space_group_name_H-M   'P 1'
_cell_length_a   8.70343580
_cell_length_b   8.68692525
_cell_length_c   8.68693072
_cell_angle_alpha   140.50561955
_cell_angle_beta   107.86883001
_cell_angle_gamma   85.47135040
_symmetry_Int_Tables_number   1
_chemical_formula_structural   La3Th(Ga5Ir3)2
_chemical_formula_sum   'La3 Th1 Ga10 Ir6'
_cell_volume   383.81565419
_cell_formula_units_Z   1
loop_
 _symmetry_equiv_pos_site_id
 _symmetry_equiv_pos_as_xyz
  1  'x, y, z'
loop_
 _atom_site_type_symbol
 _atom_site_label
 _atom_site_symmetry_multiplicity
 _atom_site_fract_x
 _atom_site_fract_y
 _atom_site_fract_z
 _atom_site_occupancy
  La  La0  1  0.635187  0.364851  0.270337  1
  La  La1  1  0.904994  0.134655  0.770342  1
  La  La2  1  0.364643  0.635113  0.729527  1
  Th  Th3  1  0.091810  0.863605  0.228206  1
  Ga  Ga4  1  0.289791  0.040171  0.750826  1
  Ga  Ga5  1  0.289790  0.538965  0.249620  1
  Ga  Ga6  1  0.000179  0.251261  0.250511  1
  Ga  Ga7  1  0.242371  0.407065  0.835305  1
  Ga  Ga8  1  0.757981  0.593150  0.164831  1
  Ga  Ga9  1  0.709836  0.459916  0.749872  1
  Ga  Ga10  1  0.572703  0.906719  0.665982  1
  Ga  Ga11  1  0.709838  0.959965  0.249917  1
  Ga  Ga12  1  0.427985  0.093696  0.334289  1
  Ga  Ga13  1  0.000179  0.749673  0.748919  1
  Ir  Ir14  1  0.047183  0.648825  0.398358  1
  Ir  Ir15  1  0.756881  0.854127  0.902757  1
  Ir  Ir16  1  0.956435  0.353414  0.603019  1
  Ir  Ir17  1  0.245763  0.146069  0.099694  1
  Ir  Ir18  1  0.498226  0.749917  0.249380  1
  Ir  Ir19  1  0.498225  0.248845  0.748309  1
