# generated using pymatgen
data_GaCu2Pd5
_symmetry_space_group_name_H-M   'P 1'
_cell_length_a   4.11200300
_cell_length_b   5.37484800
_cell_length_c   10.44009900
_cell_angle_alpha   90.00000000
_cell_angle_beta   90.00000000
_cell_angle_gamma   90.00000000
_symmetry_Int_Tables_number   1
_chemical_formula_structural   GaCu2Pd5
_chemical_formula_sum   'Ga2 Cu4 Pd10'
_cell_volume   230.74071113
_cell_formula_units_Z   2
loop_
 _symmetry_equiv_pos_site_id
 _symmetry_equiv_pos_as_xyz
  1  'x, y, z'
loop_
 _atom_site_type_symbol
 _atom_site_label
 _atom_site_symmetry_multiplicity
 _atom_site_fract_x
 _atom_site_fract_y
 _atom_site_fract_z
 _atom_site_occupancy
  Ga  Ga0  1  0.500000  0.500000  0.500000  1
  Ga  Ga1  1  0.500000  0.000000  0.000000  1
  Cu  Cu2  1  0.000000  0.825485  0.636420  1
  Cu  Cu3  1  0.000000  0.325485  0.863580  1
  Cu  Cu4  1  0.000000  0.174515  0.363580  1
  Cu  Cu5  1  0.000000  0.674515  0.136420  1
  Pd  Pd6  1  0.000000  0.816142  0.890289  1
  Pd  Pd7  1  0.000000  0.683858  0.390289  1
  Pd  Pd8  1  0.000000  0.316142  0.609711  1
  Pd  Pd9  1  0.500000  0.909817  0.239364  1
  Pd  Pd10  1  0.500000  0.409817  0.260636  1
  Pd  Pd11  1  0.500000  0.590183  0.739364  1
  Pd  Pd12  1  0.500000  0.090183  0.760636  1
  Pd  Pd13  1  0.500000  0.500000  0.000000  1
  Pd  Pd14  1  0.500000  0.000000  0.500000  1
  Pd  Pd15  1  0.000000  0.183858  0.109711  1
