# generated using pymatgen
data_Ca3NdFe2(RuO6)2
_symmetry_space_group_name_H-M   'P 1'
_cell_length_a   5.45725956
_cell_length_b   5.61229848
_cell_length_c   7.79189814
_cell_angle_alpha   90.02660585
_cell_angle_beta   89.91001596
_cell_angle_gamma   89.96596896
_symmetry_Int_Tables_number   1
_chemical_formula_structural   Ca3NdFe2(RuO6)2
_chemical_formula_sum   'Ca3 Nd1 Fe2 Ru2 O12'
_cell_volume   238.64809827
_cell_formula_units_Z   1
loop_
 _symmetry_equiv_pos_site_id
 _symmetry_equiv_pos_as_xyz
  1  'x, y, z'
loop_
 _atom_site_type_symbol
 _atom_site_label
 _atom_site_symmetry_multiplicity
 _atom_site_fract_x
 _atom_site_fract_y
 _atom_site_fract_z
 _atom_site_occupancy
  Ca  Ca0  1  0.488471  0.446404  0.250629  1
  Ca  Ca1  1  0.986705  0.053234  0.750726  1
  Ca  Ca2  1  0.012868  0.947942  0.249262  1
  Nd  Nd3  1  0.512509  0.555433  0.749295  1
  Fe  Fe4  1  0.001101  0.498854  0.004336  1
  Fe  Fe5  1  0.499085  0.002506  0.496042  1
  Ru  Ru6  1  0.001008  0.499440  0.497423  1
  Ru  Ru7  1  0.499231  0.001410  0.002342  1
  O  O8  1  0.409969  0.979948  0.751074  1
  O  O9  1  0.911406  0.530516  0.252548  1
  O  O10  1  0.086206  0.472601  0.749130  1
  O  O11  1  0.591008  0.024401  0.247523  1
  O  O12  1  0.205499  0.202843  0.047557  1
  O  O13  1  0.199865  0.208001  0.450979  1
  O  O14  1  0.700214  0.293650  0.954585  1
  O  O15  1  0.796013  0.789149  0.551732  1
  O  O16  1  0.299693  0.699306  0.458525  1
  O  O17  1  0.791077  0.793465  0.949033  1
  O  O18  1  0.704226  0.296997  0.544235  1
  O  O19  1  0.303844  0.703900  0.043018  1
