# generated using pymatgen
data_Tb4EuHo2PtI12
_symmetry_space_group_name_H-M   'P 1'
_cell_length_a   9.81963941
_cell_length_b   9.81714162
_cell_length_c   9.82425987
_cell_angle_alpha   106.56024499
_cell_angle_beta   106.61693435
_cell_angle_gamma   106.54562618
_symmetry_Int_Tables_number   1
_chemical_formula_structural   Tb4EuHo2PtI12
_chemical_formula_sum   'Tb4 Eu1 Ho2 Pt1 I12'
_cell_volume   797.70833746
_cell_formula_units_Z   1
loop_
 _symmetry_equiv_pos_site_id
 _symmetry_equiv_pos_as_xyz
  1  'x, y, z'
loop_
 _atom_site_type_symbol
 _atom_site_label
 _atom_site_symmetry_multiplicity
 _atom_site_fract_x
 _atom_site_fract_y
 _atom_site_fract_z
 _atom_site_occupancy
  Tb  Tb0  1  0.403489  0.476492  0.199499  1
  Tb  Tb1  1  0.199341  0.403621  0.476059  1
  Tb  Tb2  1  0.476288  0.199212  0.402977  1
  Tb  Tb3  1  0.597569  0.524368  0.800908  1
  Eu  Eu4  1  0.000017  0.000009  0.999957  1
  Ho  Ho5  1  0.798403  0.596749  0.524363  1
  Ho  Ho6  1  0.524389  0.798507  0.596373  1
  Pt  Pt7  1  0.500368  0.500367  0.500234  1
  I  I8  1  0.045551  0.358659  0.124877  1
  I  I9  1  0.124946  0.045608  0.358534  1
  I  I10  1  0.358538  0.124847  0.045475  1
  I  I11  1  0.954628  0.641412  0.873402  1
  I  I12  1  0.873608  0.952450  0.640653  1
  I  I13  1  0.640704  0.875341  0.952481  1
  I  I14  1  0.724975  0.574644  0.178575  1
  I  I15  1  0.176998  0.724340  0.574261  1
  I  I16  1  0.573924  0.175232  0.723205  1
  I  I17  1  0.276301  0.425808  0.822999  1
  I  I18  1  0.823462  0.278713  0.426528  1
  I  I19  1  0.426501  0.823622  0.278638  1
