# generated using pymatgen
data_Dy11Y4Er5Bi12
_symmetry_space_group_name_H-M   'P 1'
_cell_length_a   8.25184828
_cell_length_b   9.51906604
_cell_length_c   12.07034302
_cell_angle_alpha   89.99709142
_cell_angle_beta   90.03024150
_cell_angle_gamma   89.99738237
_symmetry_Int_Tables_number   1
_chemical_formula_structural   Dy11Y4Er5Bi12
_chemical_formula_sum   'Dy11 Y4 Er5 Bi12'
_cell_volume   948.12396648
_cell_formula_units_Z   1
loop_
 _symmetry_equiv_pos_site_id
 _symmetry_equiv_pos_as_xyz
  1  'x, y, z'
loop_
 _atom_site_type_symbol
 _atom_site_label
 _atom_site_symmetry_multiplicity
 _atom_site_fract_x
 _atom_site_fract_y
 _atom_site_fract_z
 _atom_site_occupancy
  Dy  Dy0  1  0.186350  0.750033  0.718760  1
  Dy  Dy1  1  0.686428  0.750019  0.781307  1
  Dy  Dy2  1  0.813657  0.250058  0.281191  1
  Dy  Dy3  1  0.313631  0.250195  0.218636  1
  Dy  Dy4  1  0.806546  0.063447  0.559907  1
  Dy  Dy5  1  0.693256  0.936554  0.059732  1
  Dy  Dy6  1  0.193600  0.563376  0.440133  1
  Dy  Dy7  1  0.693694  0.563357  0.059881  1
  Dy  Dy8  1  0.193539  0.936615  0.440137  1
  Dy  Dy9  1  0.306450  0.063357  0.940229  1
  Dy  Dy10  1  0.806474  0.436613  0.559872  1
  Y  Y11  1  0.354433  0.750176  0.215361  1
  Y  Y12  1  0.854307  0.750051  0.284632  1
  Y  Y13  1  0.645538  0.250331  0.784781  1
  Y  Y14  1  0.146056  0.250337  0.715489  1
  Er  Er15  1  0.026032  0.750043  0.988665  1
  Er  Er16  1  0.525942  0.750131  0.511373  1
  Er  Er17  1  0.974334  0.250198  0.011283  1
  Er  Er18  1  0.474131  0.250039  0.488651  1
  Er  Er19  1  0.306354  0.435382  0.940180  1
  Bi  Bi20  1  0.433630  0.003713  0.673009  1
  Bi  Bi21  1  0.934017  0.496480  0.827237  1
  Bi  Bi22  1  0.566232  0.503701  0.326937  1
  Bi  Bi23  1  0.066372  0.996441  0.172899  1
  Bi  Bi24  1  0.566325  0.996470  0.327007  1
  Bi  Bi25  1  0.066368  0.503804  0.172722  1
  Bi  Bi26  1  0.433464  0.496451  0.673139  1
  Bi  Bi27  1  0.933678  0.003797  0.827175  1
  Bi  Bi28  1  0.407886  0.748458  0.957574  1
  Bi  Bi29  1  0.908522  0.750005  0.542170  1
  Bi  Bi30  1  0.591218  0.250384  0.041987  1
  Bi  Bi31  1  0.091532  0.249983  0.457942  1
