# generated using pymatgen
data_Li10Ir3
_symmetry_space_group_name_H-M   'P 1'
_cell_length_a   2.47655314
_cell_length_b   5.07917838
_cell_length_c   17.54889821
_cell_angle_alpha   99.29850855
_cell_angle_beta   84.45312278
_cell_angle_gamma   119.11362304
_symmetry_Int_Tables_number   1
_chemical_formula_structural   Li10Ir3
_chemical_formula_sum   'Li10 Ir3'
_cell_volume   190.27953533
_cell_formula_units_Z   1
loop_
 _symmetry_equiv_pos_site_id
 _symmetry_equiv_pos_as_xyz
  1  'x, y, z'
loop_
 _atom_site_type_symbol
 _atom_site_label
 _atom_site_symmetry_multiplicity
 _atom_site_fract_x
 _atom_site_fract_y
 _atom_site_fract_z
 _atom_site_occupancy
  Li  Li0  1  0.691607  0.830606  0.151476  1
  Li  Li1  1  0.812854  0.088390  0.617765  1
  Li  Li2  1  0.219945  0.223960  0.939819  1
  Li  Li3  1  0.362279  0.553095  0.549736  1
  Li  Li4  1  0.306325  0.681200  0.834841  1
  Li  Li5  1  0.016190  0.370184  0.225067  1
  Li  Li6  1  0.876746  0.926918  0.332003  1
  Li  Li7  1  0.581387  0.759040  0.014175  1
  Li  Li8  1  0.277521  0.469671  0.409115  1
  Li  Li9  1  0.843727  0.148834  0.758292  1
  Ir  Ir10  1  0.626935  0.293719  0.082043  1
  Ir  Ir11  1  0.323236  0.005382  0.471887  1
  Ir  Ir12  1  0.837230  0.622623  0.695845  1
