# generated using pymatgen
data_Eu3Ni6B2Pd
_symmetry_space_group_name_H-M   'P 1'
_cell_length_a   7.91172704
_cell_length_b   7.91172760
_cell_length_c   7.91172763
_cell_angle_alpha   38.43288955
_cell_angle_beta   38.43288317
_cell_angle_gamma   38.43289162
_symmetry_Int_Tables_number   1
_chemical_formula_structural   Eu3Ni6B2Pd
_chemical_formula_sum   'Eu3 Ni6 B2 Pd1'
_cell_volume   171.90339358
_cell_formula_units_Z   1
loop_
 _symmetry_equiv_pos_site_id
 _symmetry_equiv_pos_as_xyz
  1  'x, y, z'
loop_
 _atom_site_type_symbol
 _atom_site_label
 _atom_site_symmetry_multiplicity
 _atom_site_fract_x
 _atom_site_fract_y
 _atom_site_fract_z
 _atom_site_occupancy
  Eu  Eu0  1  0.856693  0.856693  0.856693  1
  Eu  Eu1  1  0.143307  0.143307  0.143307  1
  Eu  Eu2  1  0.000000  0.000000  0.000000  1
  Ni  Ni3  1  0.439515  0.933593  0.439515  1
  Ni  Ni4  1  0.439515  0.439515  0.933593  1
  Ni  Ni5  1  0.933593  0.439515  0.439515  1
  Ni  Ni6  1  0.560485  0.066407  0.560485  1
  Ni  Ni7  1  0.560485  0.560485  0.066407  1
  Ni  Ni8  1  0.066407  0.560485  0.560485  1
  B  B9  1  0.668514  0.668514  0.668514  1
  B  B10  1  0.331486  0.331486  0.331486  1
  Pd  Pd11  1  0.500000  0.500000  0.500000  1
