# generated using pymatgen
data_LuU(PO3)8
_symmetry_space_group_name_H-M   'P 1'
_cell_length_a   8.28742251
_cell_length_b   8.22380207
_cell_length_c   8.64411782
_cell_angle_alpha   117.59363406
_cell_angle_beta   117.60478100
_cell_angle_gamma   90.15913825
_symmetry_Int_Tables_number   1
_chemical_formula_structural   LuU(PO3)8
_chemical_formula_sum   'Lu1 U1 P8 O24'
_cell_volume   444.60414425
_cell_formula_units_Z   1
loop_
 _symmetry_equiv_pos_site_id
 _symmetry_equiv_pos_as_xyz
  1  'x, y, z'
loop_
 _atom_site_type_symbol
 _atom_site_label
 _atom_site_symmetry_multiplicity
 _atom_site_fract_x
 _atom_site_fract_y
 _atom_site_fract_z
 _atom_site_occupancy
  Lu  Lu0  1  0.719862  0.715117  0.932662  1
  U  U1  1  0.279385  0.283865  0.066494  1
  P  P2  1  0.233809  0.768403  0.283722  1
  P  P3  1  0.530976  0.990534  0.265216  1
  P  P4  1  0.763622  0.531306  0.267398  1
  P  P5  1  0.764174  0.236221  0.715446  1
  P  P6  1  0.000665  0.770501  0.722101  1
  P  P7  1  0.993679  0.224917  0.277819  1
  P  P8  1  0.471724  0.005842  0.733932  1
  P  P9  1  0.240411  0.470705  0.731003  1
  O  O10  1  0.721074  0.083671  0.487970  1
  O  O11  1  0.453734  0.151869  0.244461  1
  O  O12  1  0.278561  0.915735  0.511725  1
  O  O13  1  0.089318  0.284336  0.513203  1
  O  O14  1  0.042397  0.754915  0.133215  1
  O  O15  1  0.135847  0.968294  0.852108  1
  O  O16  1  0.130409  0.630276  0.740340  1
  O  O17  1  0.567067  0.854339  0.107120  1
  O  O18  1  0.865847  0.030403  0.150045  1
  O  O19  1  0.543625  0.848893  0.756341  1
  O  O20  1  0.911594  0.716406  0.489079  1
  O  O21  1  0.850632  0.743822  0.761891  1
  O  O22  1  0.958359  0.239733  0.863101  1
  O  O23  1  0.871875  0.372015  0.265589  1
  O  O24  1  0.586114  0.476260  0.263300  1
  O  O25  1  0.608668  0.133396  0.725126  1
  O  O26  1  0.145795  0.260588  0.237583  1
  O  O27  1  0.732529  0.419258  0.731209  1
  O  O28  1  0.394286  0.872586  0.282355  1
  O  O29  1  0.253267  0.429268  0.889749  1
  O  O30  1  0.274092  0.581607  0.266655  1
  O  O31  1  0.744909  0.570055  0.109867  1
  O  O32  1  0.426653  0.146448  0.887639  1
  O  O33  1  0.415043  0.518416  0.734535  1
