# generated using pymatgen
data_Ho8AlHgPd23
_symmetry_space_group_name_H-M   'P 1'
_cell_length_a   8.30463600
_cell_length_b   8.38439500
_cell_length_c   8.38439500
_cell_angle_alpha   90.00000000
_cell_angle_beta   90.00000000
_cell_angle_gamma   90.00000000
_symmetry_Int_Tables_number   1
_chemical_formula_structural   Ho8AlHgPd23
_chemical_formula_sum   'Ho8 Al1 Hg1 Pd23'
_cell_volume   583.79996188
_cell_formula_units_Z   1
loop_
 _symmetry_equiv_pos_site_id
 _symmetry_equiv_pos_as_xyz
  1  'x, y, z'
loop_
 _atom_site_type_symbol
 _atom_site_label
 _atom_site_symmetry_multiplicity
 _atom_site_fract_x
 _atom_site_fract_y
 _atom_site_fract_z
 _atom_site_occupancy
  Ho  Ho0  1  0.252130  0.243149  0.243149  1
  Ho  Ho1  1  0.747466  0.747890  0.747890  1
  Ho  Ho2  1  0.747466  0.747890  0.252110  1
  Ho  Ho3  1  0.747466  0.252110  0.747890  1
  Ho  Ho4  1  0.252130  0.243149  0.756851  1
  Ho  Ho5  1  0.252130  0.756851  0.243149  1
  Ho  Ho6  1  0.252130  0.756851  0.756851  1
  Ho  Ho7  1  0.747466  0.252110  0.252110  1
  Al  Al8  1  0.998923  0.000000  0.000000  1
  Hg  Hg9  1  0.254793  0.500000  0.500000  1
  Pd  Pd10  1  0.258983  0.500000  0.000000  1
  Pd  Pd11  1  0.740919  0.500000  0.000000  1
  Pd  Pd12  1  0.001053  0.257385  0.500000  1
  Pd  Pd13  1  0.500995  0.260511  0.000000  1
  Pd  Pd14  1  0.001053  0.742615  0.500000  1
  Pd  Pd15  1  0.500995  0.739489  0.000000  1
  Pd  Pd16  1  0.500995  0.000000  0.260511  1
  Pd  Pd17  1  0.258983  0.000000  0.500000  1
  Pd  Pd18  1  0.500995  0.000000  0.739489  1
  Pd  Pd19  1  0.740919  0.000000  0.500000  1
  Pd  Pd20  1  0.001053  0.500000  0.257385  1
  Pd  Pd21  1  0.001053  0.500000  0.742615  1
  Pd  Pd22  1  0.747250  0.500000  0.500000  1
  Pd  Pd23  1  0.499000  0.250610  0.500000  1
  Pd  Pd24  1  0.499000  0.749390  0.500000  1
  Pd  Pd25  1  0.499000  0.500000  0.250610  1
  Pd  Pd26  1  0.499000  0.500000  0.749390  1
  Pd  Pd27  1  0.290732  0.000000  0.000000  1
  Pd  Pd28  1  0.709761  0.000000  0.000000  1
  Pd  Pd29  1  0.999041  0.287800  0.000000  1
  Pd  Pd30  1  0.999041  0.712200  0.000000  1
  Pd  Pd31  1  0.999041  0.000000  0.287800  1
  Pd  Pd32  1  0.999041  0.000000  0.712200  1
