# generated using pymatgen
data_SmHoBe2(Co3B)2
_symmetry_space_group_name_H-M   'P 1'
_cell_length_a   5.04857700
_cell_length_b   5.04857644
_cell_length_c   6.41500000
_cell_angle_alpha   90.00000000
_cell_angle_beta   90.00000000
_cell_angle_gamma   120.00001022
_symmetry_Int_Tables_number   1
_chemical_formula_structural   SmHoBe2(Co3B)2
_chemical_formula_sum   'Sm1 Ho1 Be2 Co6 B2'
_cell_volume   141.60062439
_cell_formula_units_Z   1
loop_
 _symmetry_equiv_pos_site_id
 _symmetry_equiv_pos_as_xyz
  1  'x, y, z'
loop_
 _atom_site_type_symbol
 _atom_site_label
 _atom_site_symmetry_multiplicity
 _atom_site_fract_x
 _atom_site_fract_y
 _atom_site_fract_z
 _atom_site_occupancy
  Sm  Sm0  1  0.000000  0.000000  0.500000  1
  Ho  Ho1  1  0.000000  0.000000  0.000000  1
  Be  Be2  1  0.666667  0.333333  0.500000  1
  Be  Be3  1  0.333333  0.666667  0.500000  1
  Co  Co4  1  0.500000  0.500000  0.777551  1
  Co  Co5  1  0.500000  0.000000  0.777551  1
  Co  Co6  1  0.000000  0.500000  0.777551  1
  Co  Co7  1  0.500000  0.500000  0.222449  1
  Co  Co8  1  0.500000  0.000000  0.222449  1
  Co  Co9  1  0.000000  0.500000  0.222449  1
  B  B10  1  0.666667  0.333333  0.000000  1
  B  B11  1  0.333333  0.666667  0.000000  1
