# generated using pymatgen
data_Lu4Al3Ga14SiIr6
_symmetry_space_group_name_H-M   'P 1'
_cell_length_a   7.55739249
_cell_length_b   7.55739272
_cell_length_c   9.35775163
_cell_angle_alpha   89.95706486
_cell_angle_beta   89.95706320
_cell_angle_gamma   119.94136841
_symmetry_Int_Tables_number   1
_chemical_formula_structural   Lu4Al3Ga14SiIr6
_chemical_formula_sum   'Lu4 Al3 Ga14 Si1 Ir6'
_cell_volume   463.12892986
_cell_formula_units_Z   1
loop_
 _symmetry_equiv_pos_site_id
 _symmetry_equiv_pos_as_xyz
  1  'x, y, z'
loop_
 _atom_site_type_symbol
 _atom_site_label
 _atom_site_symmetry_multiplicity
 _atom_site_fract_x
 _atom_site_fract_y
 _atom_site_fract_z
 _atom_site_occupancy
  Lu  Lu0  1  0.998211  0.676542  0.250163  1
  Lu  Lu1  1  0.998817  0.335263  0.749324  1
  Lu  Lu2  1  0.676542  0.998211  0.250163  1
  Lu  Lu3  1  0.335263  0.998817  0.749324  1
  Al  Al4  1  0.659407  0.659407  0.447489  1
  Al  Al5  1  0.663932  0.663932  0.053033  1
  Al  Al6  1  0.327800  0.327800  0.942573  1
  Ga  Ga7  1  0.885839  0.885839  0.749201  1
  Ga  Ga8  1  0.997509  0.338347  0.084848  1
  Ga  Ga9  1  0.000672  0.667445  0.918753  1
  Ga  Ga10  1  0.000363  0.667462  0.580946  1
  Ga  Ga11  1  0.338810  0.999575  0.413515  1
  Ga  Ga12  1  0.999575  0.338810  0.413515  1
  Ga  Ga13  1  0.667462  0.000363  0.580946  1
  Ga  Ga14  1  0.667445  0.000672  0.918753  1
  Ga  Ga15  1  0.338347  0.997509  0.084848  1
  Ga  Ga16  1  0.322684  0.322684  0.571422  1
  Ga  Ga17  1  0.346862  0.553141  0.250005  1
  Ga  Ga18  1  0.657223  0.453410  0.749866  1
  Ga  Ga19  1  0.553141  0.346862  0.250005  1
  Ga  Ga20  1  0.453410  0.657223  0.749866  1
  Si  Si21  1  0.126246  0.126246  0.248980  1
  Ir  Ir22  1  0.667034  0.327104  0.998621  1
  Ir  Ir23  1  0.327104  0.667034  0.998621  1
  Ir  Ir24  1  0.327127  0.670245  0.499746  1
  Ir  Ir25  1  0.670245  0.327127  0.499746  1
  Ir  Ir26  1  0.998979  0.998979  0.012066  1
  Ir  Ir27  1  0.993956  0.993956  0.483660  1
