# generated using pymatgen
data_In9Hg3Ir3Ru
_symmetry_space_group_name_H-M   'P 1'
_cell_length_a   7.21849229
_cell_length_b   7.18176613
_cell_length_c   7.19021500
_cell_angle_alpha   90.00000000
_cell_angle_beta   90.00000000
_cell_angle_gamma   90.61723807
_symmetry_Int_Tables_number   1
_chemical_formula_structural   In9Hg3Ir3Ru
_chemical_formula_sum   'In9 Hg3 Ir3 Ru1'
_cell_volume   372.73007013
_cell_formula_units_Z   1
loop_
 _symmetry_equiv_pos_site_id
 _symmetry_equiv_pos_as_xyz
  1  'x, y, z'
loop_
 _atom_site_type_symbol
 _atom_site_label
 _atom_site_symmetry_multiplicity
 _atom_site_fract_x
 _atom_site_fract_y
 _atom_site_fract_z
 _atom_site_occupancy
  In  In0  1  0.340026  0.345245  0.263624  1
  In  In1  1  0.155497  0.841154  0.765240  1
  In  In2  1  0.155497  0.841154  0.234760  1
  In  In3  1  0.842771  0.159971  0.237166  1
  In  In4  1  0.842771  0.159971  0.762834  1
  In  In5  1  0.663461  0.651059  0.263608  1
  In  In6  1  0.663461  0.651059  0.736392  1
  In  In7  1  0.340026  0.345245  0.736376  1
  In  In8  1  0.501901  0.001990  0.500000  1
  Hg  Hg9  1  0.001111  0.499656  0.000000  1
  Hg  Hg10  1  0.500159  0.998754  0.000000  1
  Hg  Hg11  1  0.998180  0.499347  0.500000  1
  Ir  Ir12  1  0.151980  0.153296  0.000000  1
  Ir  Ir13  1  0.350627  0.663210  0.500000  1
  Ir  Ir14  1  0.847286  0.846905  0.000000  1
  Ru  Ru15  1  0.645246  0.341984  0.500000  1
