# generated using pymatgen
data_Ba2Sr4B(PO4)5
_symmetry_space_group_name_H-M   'P 1'
_cell_length_a   12.16575611
_cell_length_b   12.16575668
_cell_length_c   12.16575582
_cell_angle_alpha   131.78971346
_cell_angle_beta   131.78971108
_cell_angle_gamma   70.56135732
_symmetry_Int_Tables_number   1
_chemical_formula_structural   Ba2Sr4B(PO4)5
_chemical_formula_sum   'Ba4 Sr8 B2 P10 O40'
_cell_volume   980.71364766
_cell_formula_units_Z   2
loop_
 _symmetry_equiv_pos_site_id
 _symmetry_equiv_pos_as_xyz
  1  'x, y, z'
loop_
 _atom_site_type_symbol
 _atom_site_label
 _atom_site_symmetry_multiplicity
 _atom_site_fract_x
 _atom_site_fract_y
 _atom_site_fract_z
 _atom_site_occupancy
  Ba  Ba0  1  0.717266  0.217266  0.934533  1
  Ba  Ba1  1  0.217266  0.282734  0.500000  1
  Ba  Ba2  1  0.282734  0.782734  0.065467  1
  Ba  Ba3  1  0.782734  0.717266  0.500000  1
  Sr  Sr4  1  0.332613  0.533977  0.195974  1
  Sr  Sr5  1  0.338003  0.136640  0.804026  1
  Sr  Sr6  1  0.838003  0.033977  0.201363  1
  Sr  Sr7  1  0.466023  0.661997  0.798637  1
  Sr  Sr8  1  0.863360  0.667387  0.201363  1
  Sr  Sr9  1  0.966023  0.167387  0.804026  1
  Sr  Sr10  1  0.363360  0.161997  0.195974  1
  Sr  Sr11  1  0.832613  0.636640  0.798637  1
  B  B12  1  0.750000  0.250000  0.500000  1
  B  B13  1  0.250000  0.750000  0.500000  1
  P  P14  1  0.132154  0.451898  0.273985  1
  P  P15  1  0.177913  0.858169  0.726015  1
  P  P16  1  0.677913  0.951898  0.319745  1
  P  P17  1  0.548102  0.822087  0.680255  1
  P  P18  1  0.141831  0.867846  0.319745  1
  P  P19  1  0.048102  0.367846  0.726015  1
  P  P20  1  0.641831  0.322087  0.273985  1
  P  P21  1  0.632154  0.358169  0.680255  1
  P  P22  1  0.500000  0.500000  0.000000  1
  P  P23  1  0.000000  0.000000  0.000000  1
  O  O24  1  0.970203  0.797893  0.157013  1
  O  O25  1  0.521115  0.979351  0.742763  1
  O  O26  1  0.236588  0.778352  0.257237  1
  O  O27  1  0.021115  0.278352  0.541763  1
  O  O28  1  0.736588  0.479351  0.458237  1
  O  O29  1  0.721648  0.263412  0.742763  1
  O  O30  1  0.963865  0.388527  0.132222  1
  O  O31  1  0.256305  0.831643  0.867778  1
  O  O32  1  0.756305  0.888527  0.424662  1
  O  O33  1  0.611473  0.743695  0.575338  1
  O  O34  1  0.168357  0.036135  0.424662  1
  O  O35  1  0.111473  0.536135  0.867778  1
  O  O36  1  0.668357  0.243695  0.132222  1
  O  O37  1  0.470203  0.313189  0.172310  1
  O  O38  1  0.202107  0.359121  0.172310  1
  O  O39  1  0.186811  0.029797  0.827690  1
  O  O40  1  0.686811  0.859121  0.157013  1
  O  O41  1  0.640879  0.813189  0.842987  1
  O  O42  1  0.520649  0.978885  0.257237  1
  O  O43  1  0.140879  0.297893  0.827690  1
  O  O44  1  0.221648  0.478885  0.458237  1
  O  O45  1  0.020649  0.763412  0.541763  1
  O  O46  1  0.632285  0.309122  0.519271  1
  O  O47  1  0.690878  0.210148  0.323162  1
  O  O48  1  0.886986  0.367715  0.676838  1
  O  O49  1  0.190878  0.867715  0.480729  1
  O  O50  1  0.386986  0.710148  0.519271  1
  O  O51  1  0.789852  0.113014  0.480729  1
  O  O52  1  0.289852  0.809122  0.676838  1
  O  O53  1  0.132285  0.613014  0.323162  1
  O  O54  1  0.978385  0.827572  0.893927  1
  O  O55  1  0.172428  0.066355  0.150813  1
  O  O56  1  0.915542  0.021615  0.849187  1
  O  O57  1  0.672428  0.521615  0.106073  1
  O  O58  1  0.415542  0.566355  0.893927  1
  O  O59  1  0.933645  0.084458  0.106073  1
  O  O60  1  0.433645  0.327572  0.849187  1
  O  O61  1  0.478385  0.584458  0.150813  1
  O  O62  1  0.702107  0.529797  0.842987  1
  O  O63  1  0.463865  0.331643  0.575338  1
