# generated using pymatgen
data_K5Rb12Tl(GaBi4)2
_symmetry_space_group_name_H-M   'P 1'
_cell_length_a   11.12381200
_cell_length_b   11.09180408
_cell_length_c   11.52714900
_cell_angle_alpha   90.00000000
_cell_angle_beta   90.00000000
_cell_angle_gamma   120.09549912
_symmetry_Int_Tables_number   1
_chemical_formula_structural   K5Rb12Tl(GaBi4)2
_chemical_formula_sum   'K5 Rb12 Tl1 Ga2 Bi8'
_cell_volume   1230.52272003
_cell_formula_units_Z   1
loop_
 _symmetry_equiv_pos_site_id
 _symmetry_equiv_pos_as_xyz
  1  'x, y, z'
loop_
 _atom_site_type_symbol
 _atom_site_label
 _atom_site_symmetry_multiplicity
 _atom_site_fract_x
 _atom_site_fract_y
 _atom_site_fract_z
 _atom_site_occupancy
  K  K0  1  0.880648  0.120933  0.750000  1
  K  K1  1  0.240284  0.120933  0.750000  1
  K  K2  1  0.766813  0.887409  0.250000  1
  K  K3  1  0.120597  0.887409  0.250000  1
  K  K4  1  0.880395  0.760791  0.750000  1
  Rb  Rb5  1  0.207018  0.414034  0.535064  1
  Rb  Rb6  1  0.795285  0.209449  0.044049  1
  Rb  Rb7  1  0.414163  0.209449  0.044049  1
  Rb  Rb8  1  0.581560  0.790999  0.541281  1
  Rb  Rb9  1  0.209442  0.790999  0.541281  1
  Rb  Rb10  1  0.790373  0.580748  0.459806  1
  Rb  Rb11  1  0.795285  0.209449  0.455951  1
  Rb  Rb12  1  0.790373  0.580748  0.040194  1
  Rb  Rb13  1  0.414163  0.209449  0.455951  1
  Rb  Rb14  1  0.581560  0.790999  0.958719  1
  Rb  Rb15  1  0.207018  0.414034  0.964936  1
  Rb  Rb16  1  0.209442  0.790999  0.958719  1
  Tl  Tl17  1  0.117346  0.234692  0.250000  1
  Ga  Ga18  1  0.333570  0.667141  0.250000  1
  Ga  Ga19  1  0.666638  0.333275  0.750000  1
  Bi  Bi20  1  0.472040  0.516505  0.250000  1
  Bi  Bi21  1  0.956968  0.478913  0.750000  1
  Bi  Bi22  1  0.521253  0.042508  0.750000  1
  Bi  Bi23  1  0.478163  0.956323  0.250000  1
  Bi  Bi24  1  0.044467  0.516505  0.250000  1
  Bi  Bi25  1  0.521943  0.478913  0.750000  1
  Bi  Bi26  1  0.001597  0.003195  0.002332  1
  Bi  Bi27  1  0.001597  0.003195  0.497668  1
