# generated using pymatgen
data_Pa2Fe(Co10B3)2
_symmetry_space_group_name_H-M   'P 1'
_cell_length_a   7.53546614
_cell_length_b   7.53349671
_cell_length_c   7.53553701
_cell_angle_alpha   59.99994259
_cell_angle_beta   60.00389149
_cell_angle_gamma   59.99529678
_symmetry_Int_Tables_number   1
_chemical_formula_structural   Pa2Fe(Co10B3)2
_chemical_formula_sum   'Pa2 Fe1 Co20 B6'
_cell_volume   302.48446667
_cell_formula_units_Z   1
loop_
 _symmetry_equiv_pos_site_id
 _symmetry_equiv_pos_as_xyz
  1  'x, y, z'
loop_
 _atom_site_type_symbol
 _atom_site_label
 _atom_site_symmetry_multiplicity
 _atom_site_fract_x
 _atom_site_fract_y
 _atom_site_fract_z
 _atom_site_occupancy
  Pa  Pa0  1  0.750200  0.749824  0.749970  1
  Pa  Pa1  1  0.249784  0.250084  0.250147  1
  Fe  Fe2  1  0.999978  0.999999  0.999998  1
  Co  Co3  1  0.615036  0.615092  0.154814  1
  Co  Co4  1  0.615104  0.154724  0.615056  1
  Co  Co5  1  0.154838  0.615102  0.614998  1
  Co  Co6  1  0.615073  0.615131  0.615037  1
  Co  Co7  1  0.384972  0.384914  0.845196  1
  Co  Co8  1  0.384916  0.845291  0.384922  1
  Co  Co9  1  0.845185  0.384917  0.384972  1
  Co  Co10  1  0.384932  0.384882  0.384931  1
  Co  Co11  1  0.999996  0.999993  0.335969  1
  Co  Co12  1  0.664011  0.000004  0.335975  1
  Co  Co13  1  0.000014  0.663995  0.335981  1
  Co  Co14  1  0.664030  0.335981  0.999988  1
  Co  Co15  1  0.999973  0.335994  0.999991  1
  Co  Co16  1  0.999979  0.335998  0.664022  1
  Co  Co17  1  0.335971  0.664032  0.000005  1
  Co  Co18  1  0.335984  0.999985  0.664038  1
  Co  Co19  1  0.335993  0.999972  0.999991  1
  Co  Co20  1  0.999988  0.000008  0.664048  1
  Co  Co21  1  0.000000  0.664021  0.000016  1
  Co  Co22  1  0.664022  0.000007  0.000000  1
  B  B23  1  0.726913  0.726925  0.273113  1
  B  B24  1  0.273045  0.726927  0.273140  1
  B  B25  1  0.726938  0.273055  0.273109  1
  B  B26  1  0.273059  0.273067  0.726875  1
  B  B27  1  0.727004  0.273063  0.726857  1
  B  B28  1  0.273063  0.727015  0.726839  1
