# generated using pymatgen
data_KSnPRh2
_symmetry_space_group_name_H-M   'P 1'
_cell_length_a   7.84652218
_cell_length_b   7.84652224
_cell_length_c   7.84652235
_cell_angle_alpha   150.10768056
_cell_angle_beta   150.10768485
_cell_angle_gamma   42.78335868
_symmetry_Int_Tables_number   1
_chemical_formula_structural   KSnPRh2
_chemical_formula_sum   'K1 Sn1 P1 Rh2'
_cell_volume   119.68303623
_cell_formula_units_Z   1
loop_
 _symmetry_equiv_pos_site_id
 _symmetry_equiv_pos_as_xyz
  1  'x, y, z'
loop_
 _atom_site_type_symbol
 _atom_site_label
 _atom_site_symmetry_multiplicity
 _atom_site_fract_x
 _atom_site_fract_y
 _atom_site_fract_z
 _atom_site_occupancy
  K  K0  1  0.977201  0.977201  0.000000  1
  Sn  Sn1  1  0.647252  0.647252  0.000000  1
  P  P2  1  0.341859  0.341859  0.000000  1
  Rh  Rh3  1  0.266844  0.766844  0.500000  1
  Rh  Rh4  1  0.766844  0.266844  0.500000  1
