# generated using pymatgen
data_Zr6Mn3Fe12Si7Ru
_symmetry_space_group_name_H-M   'P 1'
_cell_length_a   8.13726730
_cell_length_b   8.13726790
_cell_length_c   8.17204260
_cell_angle_alpha   60.14066521
_cell_angle_beta   60.14066281
_cell_angle_gamma   59.99999941
_symmetry_Int_Tables_number   1
_chemical_formula_structural   Zr6Mn3Fe12Si7Ru
_chemical_formula_sum   'Zr6 Mn3 Fe12 Si7 Ru1'
_cell_volume   383.43603360
_cell_formula_units_Z   1
loop_
 _symmetry_equiv_pos_site_id
 _symmetry_equiv_pos_as_xyz
  1  'x, y, z'
loop_
 _atom_site_type_symbol
 _atom_site_label
 _atom_site_symmetry_multiplicity
 _atom_site_fract_x
 _atom_site_fract_y
 _atom_site_fract_z
 _atom_site_occupancy
  Zr  Zr0  1  0.703033  0.703033  0.297365  1
  Zr  Zr1  1  0.296570  0.703033  0.297365  1
  Zr  Zr2  1  0.703033  0.296570  0.297365  1
  Zr  Zr3  1  0.296601  0.296601  0.703389  1
  Zr  Zr4  1  0.703410  0.296601  0.703389  1
  Zr  Zr5  1  0.296601  0.703410  0.703389  1
  Mn  Mn6  1  0.877012  0.367435  0.878542  1
  Mn  Mn7  1  0.367435  0.877012  0.878542  1
  Mn  Mn8  1  0.877012  0.877012  0.878542  1
  Fe  Fe9  1  0.121950  0.121950  0.634148  1
  Fe  Fe10  1  0.124915  0.634277  0.115894  1
  Fe  Fe11  1  0.634277  0.124915  0.115894  1
  Fe  Fe12  1  0.124915  0.124915  0.115894  1
  Fe  Fe13  1  0.675272  0.675272  0.974183  1
  Fe  Fe14  1  0.673320  0.972859  0.680501  1
  Fe  Fe15  1  0.972859  0.673320  0.680501  1
  Fe  Fe16  1  0.673320  0.673320  0.680501  1
  Fe  Fe17  1  0.323085  0.323085  0.030744  1
  Fe  Fe18  1  0.323769  0.029013  0.323448  1
  Fe  Fe19  1  0.029013  0.323769  0.323448  1
  Fe  Fe20  1  0.323769  0.323769  0.323448  1
  Si  Si21  1  0.002141  0.002141  0.993578  1
  Si  Si22  1  0.001351  0.001351  0.500553  1
  Si  Si23  1  0.496746  0.001351  0.500553  1
  Si  Si24  1  0.001351  0.496746  0.500553  1
  Si  Si25  1  0.498160  0.498160  0.002951  1
  Si  Si26  1  0.000728  0.498160  0.002951  1
  Si  Si27  1  0.498160  0.000728  0.002951  1
  Ru  Ru28  1  0.880194  0.880194  0.359418  1
