# generated using pymatgen
data_CaEr7(B6Os)4
_symmetry_space_group_name_H-M   'P 1'
_cell_length_a   3.63295700
_cell_length_b   9.11858702
_cell_length_c   11.50513001
_cell_angle_alpha   89.89668233
_cell_angle_beta   90.00000000
_cell_angle_gamma   90.00000000
_symmetry_Int_Tables_number   1
_chemical_formula_structural   CaEr7(B6Os)4
_chemical_formula_sum   'Ca1 Er7 B24 Os4'
_cell_volume   381.13482166
_cell_formula_units_Z   1
loop_
 _symmetry_equiv_pos_site_id
 _symmetry_equiv_pos_as_xyz
  1  'x, y, z'
loop_
 _atom_site_type_symbol
 _atom_site_label
 _atom_site_symmetry_multiplicity
 _atom_site_fract_x
 _atom_site_fract_y
 _atom_site_fract_z
 _atom_site_occupancy
  Ca  Ca0  1  0.000000  0.322113  0.413730  1
  Er  Er1  1  0.000000  0.676435  0.585174  1
  Er  Er2  1  0.000000  0.822164  0.086348  1
  Er  Er3  1  0.000000  0.178406  0.914527  1
  Er  Er4  1  0.000000  0.944223  0.371819  1
  Er  Er5  1  0.000000  0.057298  0.627578  1
  Er  Er6  1  0.000000  0.443465  0.128488  1
  Er  Er7  1  0.000000  0.555917  0.873054  1
  B  B8  1  0.500000  0.554595  0.432917  1
  B  B9  1  0.500000  0.446564  0.567735  1
  B  B10  1  0.500000  0.052960  0.066029  1
  B  B11  1  0.500000  0.946042  0.932850  1
  B  B12  1  0.500000  0.748926  0.419432  1
  B  B13  1  0.500000  0.251692  0.581593  1
  B  B14  1  0.500000  0.247924  0.080018  1
  B  B15  1  0.500000  0.751426  0.919801  1
  B  B16  1  0.500000  0.792248  0.265876  1
  B  B17  1  0.500000  0.208887  0.734607  1
  B  B18  1  0.500000  0.290327  0.232967  1
  B  B19  1  0.500000  0.708674  0.766325  1
  B  B20  1  0.500000  0.632312  0.185467  1
  B  B21  1  0.500000  0.368444  0.815547  1
  B  B22  1  0.500000  0.130759  0.313583  1
  B  B23  1  0.500000  0.868333  0.685105  1
  B  B24  1  0.500000  0.982607  0.211836  1
  B  B25  1  0.500000  0.016996  0.787154  1
  B  B26  1  0.500000  0.483982  0.287067  1
  B  B27  1  0.500000  0.517076  0.713272  1
  B  B28  1  0.500000  0.607698  0.029922  1
  B  B29  1  0.500000  0.392649  0.970664  1
  B  B30  1  0.500000  0.103108  0.471373  1
  B  B31  1  0.500000  0.894893  0.529087  1
  Os  Os32  1  0.000000  0.640177  0.320322  1
  Os  Os33  1  0.000000  0.362223  0.680723  1
  Os  Os34  1  0.000000  0.136041  0.176637  1
  Os  Os35  1  0.000000  0.862416  0.821374  1
