# generated using pymatgen
data_SmDy7(TcBr4)2
_symmetry_space_group_name_H-M   'P 1'
_cell_length_a   9.02309118
_cell_length_b   9.00956146
_cell_length_c   6.56277800
_cell_angle_alpha   89.45721354
_cell_angle_beta   89.49305500
_cell_angle_gamma   89.21649644
_symmetry_Int_Tables_number   1
_chemical_formula_structural   SmDy7(TcBr4)2
_chemical_formula_sum   'Sm1 Dy7 Tc2 Br8'
_cell_volume   533.42099645
_cell_formula_units_Z   1
loop_
 _symmetry_equiv_pos_site_id
 _symmetry_equiv_pos_as_xyz
  1  'x, y, z'
loop_
 _atom_site_type_symbol
 _atom_site_label
 _atom_site_symmetry_multiplicity
 _atom_site_fract_x
 _atom_site_fract_y
 _atom_site_fract_z
 _atom_site_occupancy
  Sm  Sm0  1  0.901659  0.749497  0.004299  1
  Dy  Dy1  1  0.248934  0.902142  0.012063  1
  Dy  Dy2  1  0.752124  0.100223  0.988566  1
  Dy  Dy3  1  0.099424  0.753667  0.488449  1
  Dy  Dy4  1  0.901657  0.247984  0.510603  1
  Dy  Dy5  1  0.752841  0.904371  0.505789  1
  Dy  Dy6  1  0.247484  0.097690  0.493695  1
  Dy  Dy7  1  0.097052  0.246479  0.993760  1
  Tc  Tc8  1  0.994909  0.005692  0.250280  1
  Tc  Tc9  1  0.005503  0.995786  0.749575  1
  Br  Br10  1  0.417719  0.816366  0.417250  1
  Br  Br11  1  0.581974  0.183129  0.583725  1
  Br  Br12  1  0.186784  0.580956  0.084764  1
  Br  Br13  1  0.815966  0.415441  0.914581  1
  Br  Br14  1  0.413527  0.187675  0.086986  1
  Br  Br15  1  0.583104  0.813604  0.912327  1
  Br  Br16  1  0.811495  0.585803  0.416040  1
  Br  Br17  1  0.187844  0.413493  0.587246  1
