# generated using pymatgen
data_CsLu(SeO3)2
_symmetry_space_group_name_H-M   'P 1'
_cell_length_a   5.71313200
_cell_length_b   7.25171400
_cell_length_c   17.77480600
_cell_angle_alpha   90.00000000
_cell_angle_beta   90.00000000
_cell_angle_gamma   90.00000000
_symmetry_Int_Tables_number   1
_chemical_formula_structural   CsLu(SeO3)2
_chemical_formula_sum   'Cs4 Lu4 Se8 O24'
_cell_volume   736.41020028
_cell_formula_units_Z   4
loop_
 _symmetry_equiv_pos_site_id
 _symmetry_equiv_pos_as_xyz
  1  'x, y, z'
loop_
 _atom_site_type_symbol
 _atom_site_label
 _atom_site_symmetry_multiplicity
 _atom_site_fract_x
 _atom_site_fract_y
 _atom_site_fract_z
 _atom_site_occupancy
  Cs  Cs0  1  0.750000  0.130721  0.102543  1
  Cs  Cs1  1  0.750000  0.369279  0.602543  1
  Cs  Cs2  1  0.250000  0.869279  0.897457  1
  Cs  Cs3  1  0.250000  0.630721  0.397457  1
  Lu  Lu4  1  0.750000  0.351038  0.869855  1
  Lu  Lu5  1  0.750000  0.148962  0.369855  1
  Lu  Lu6  1  0.250000  0.648962  0.130145  1
  Lu  Lu7  1  0.250000  0.851038  0.630145  1
  Se  Se8  1  0.250000  0.412937  0.747189  1
  Se  Se9  1  0.250000  0.087063  0.247189  1
  Se  Se10  1  0.750000  0.587063  0.252811  1
  Se  Se11  1  0.750000  0.912937  0.752811  1
  Se  Se12  1  0.250000  0.383410  0.970189  1
  Se  Se13  1  0.250000  0.116590  0.470189  1
  Se  Se14  1  0.750000  0.616590  0.029811  1
  Se  Se15  1  0.750000  0.883410  0.529811  1
  O  O16  1  0.250000  0.583040  0.680388  1
  O  O17  1  0.250000  0.916960  0.180388  1
  O  O18  1  0.750000  0.416960  0.319612  1
  O  O19  1  0.750000  0.083040  0.819612  1
  O  O20  1  0.481794  0.480618  0.801988  1
  O  O21  1  0.018206  0.019382  0.301988  1
  O  O22  1  0.981794  0.519382  0.198012  1
  O  O23  1  0.518206  0.980618  0.698012  1
  O  O24  1  0.518206  0.519382  0.198012  1
  O  O25  1  0.981794  0.980618  0.698012  1
  O  O26  1  0.018206  0.480618  0.801988  1
  O  O27  1  0.481794  0.019382  0.301988  1
  O  O28  1  0.250000  0.381822  0.067008  1
  O  O29  1  0.250000  0.118178  0.567008  1
  O  O30  1  0.750000  0.618178  0.932992  1
  O  O31  1  0.750000  0.881822  0.432992  1
  O  O32  1  0.484363  0.241791  0.950191  1
  O  O33  1  0.015637  0.258209  0.450191  1
  O  O34  1  0.984363  0.758209  0.049809  1
  O  O35  1  0.515637  0.741791  0.549809  1
  O  O36  1  0.515637  0.758209  0.049809  1
  O  O37  1  0.984363  0.741791  0.549809  1
  O  O38  1  0.015637  0.241791  0.950191  1
  O  O39  1  0.484363  0.258209  0.450191  1
