# generated using pymatgen
data_DyEr2Sc3FeBi2
_symmetry_space_group_name_H-M   'P 1'
_cell_length_a   7.95412500
_cell_length_b   7.95202915
_cell_length_c   4.16658300
_cell_angle_alpha   90.00000000
_cell_angle_beta   90.00000000
_cell_angle_gamma   120.00870644
_symmetry_Int_Tables_number   1
_chemical_formula_structural   DyEr2Sc3FeBi2
_chemical_formula_sum   'Dy1 Er2 Sc3 Fe1 Bi2'
_cell_volume   228.21434331
_cell_formula_units_Z   1
loop_
 _symmetry_equiv_pos_site_id
 _symmetry_equiv_pos_as_xyz
  1  'x, y, z'
loop_
 _atom_site_type_symbol
 _atom_site_label
 _atom_site_symmetry_multiplicity
 _atom_site_fract_x
 _atom_site_fract_y
 _atom_site_fract_z
 _atom_site_occupancy
  Dy  Dy0  1  0.613844  0.000000  0.000000  1
  Er  Er1  1  0.999851  0.614314  0.000000  1
  Er  Er2  1  0.385537  0.385686  0.000000  1
  Sc  Sc3  1  0.221669  0.000000  0.500000  1
  Sc  Sc4  1  0.000382  0.221904  0.500000  1
  Sc  Sc5  1  0.778478  0.778096  0.500000  1
  Fe  Fe6  1  0.000646  0.000000  0.000000  1
  Bi  Bi7  1  0.332856  0.666119  0.500000  1
  Bi  Bi8  1  0.666737  0.333881  0.500000  1
