# generated using pymatgen
data_CaTb3MgAl17Pd6
_symmetry_space_group_name_H-M   'P 1'
_cell_length_a   7.66899699
_cell_length_b   7.67684915
_cell_length_c   9.52439112
_cell_angle_alpha   90.23476855
_cell_angle_beta   89.79387588
_cell_angle_gamma   119.45582770
_symmetry_Int_Tables_number   1
_chemical_formula_structural   CaTb3MgAl17Pd6
_chemical_formula_sum   'Ca1 Tb3 Mg1 Al17 Pd6'
_cell_volume   488.24799688
_cell_formula_units_Z   1
loop_
 _symmetry_equiv_pos_site_id
 _symmetry_equiv_pos_as_xyz
  1  'x, y, z'
loop_
 _atom_site_type_symbol
 _atom_site_label
 _atom_site_symmetry_multiplicity
 _atom_site_fract_x
 _atom_site_fract_y
 _atom_site_fract_z
 _atom_site_occupancy
  Ca  Ca0  1  0.996493  0.675946  0.251197  1
  Tb  Tb1  1  0.005032  0.332143  0.747949  1
  Tb  Tb2  1  0.664984  0.988461  0.251985  1
  Tb  Tb3  1  0.330274  0.004676  0.749735  1
  Mg  Mg4  1  0.996071  0.336124  0.079121  1
  Al  Al5  1  0.131075  0.132189  0.250889  1
  Al  Al6  1  0.869972  0.870042  0.751230  1
  Al  Al7  1  0.999382  0.663952  0.923790  1
  Al  Al8  1  0.998860  0.665061  0.576346  1
  Al  Al9  1  0.335223  0.001475  0.425624  1
  Al  Al10  1  0.000869  0.334468  0.420782  1
  Al  Al11  1  0.665697  0.999190  0.576087  1
  Al  Al12  1  0.667884  0.001877  0.925299  1
  Al  Al13  1  0.334793  0.000990  0.074013  1
  Al  Al14  1  0.332910  0.332983  0.556937  1
  Al  Al15  1  0.666328  0.665540  0.445134  1
  Al  Al16  1  0.666595  0.665786  0.053322  1
  Al  Al17  1  0.329969  0.332972  0.942588  1
  Al  Al18  1  0.346342  0.547729  0.250499  1
  Al  Al19  1  0.659550  0.453369  0.749076  1
  Al  Al20  1  0.548316  0.334125  0.249061  1
  Al  Al21  1  0.454907  0.662371  0.750760  1
  Pd  Pd22  1  0.660792  0.326105  0.995048  1
  Pd  Pd23  1  0.335158  0.678691  0.998929  1
  Pd  Pd24  1  0.328778  0.672095  0.502024  1
  Pd  Pd25  1  0.671552  0.327571  0.501037  1
  Pd  Pd26  1  0.001449  0.994540  0.999110  1
  Pd  Pd27  1  0.000745  0.999530  0.502428  1
