# generated using pymatgen
data_Y3Ga4Co(Ni4B)2
_symmetry_space_group_name_H-M   'P 1'
_cell_length_a   5.17124700
_cell_length_b   5.18600638
_cell_length_c   10.64298400
_cell_angle_alpha   90.00000000
_cell_angle_beta   90.00000000
_cell_angle_gamma   119.90591871
_symmetry_Int_Tables_number   1
_chemical_formula_structural   Y3Ga4Co(Ni4B)2
_chemical_formula_sum   'Y3 Ga4 Co1 Ni8 B2'
_cell_volume   247.41915081
_cell_formula_units_Z   1
loop_
 _symmetry_equiv_pos_site_id
 _symmetry_equiv_pos_as_xyz
  1  'x, y, z'
loop_
 _atom_site_type_symbol
 _atom_site_label
 _atom_site_symmetry_multiplicity
 _atom_site_fract_x
 _atom_site_fract_y
 _atom_site_fract_z
 _atom_site_occupancy
  Y  Y0  1  0.000000  0.000000  0.669685  1
  Y  Y1  1  0.000000  0.000000  0.337353  1
  Y  Y2  1  0.000000  0.000000  0.999419  1
  Ga  Ga3  1  0.664869  0.329736  0.684055  1
  Ga  Ga4  1  0.335131  0.670264  0.684055  1
  Ga  Ga5  1  0.332744  0.665490  0.315363  1
  Ga  Ga6  1  0.667256  0.334510  0.315363  1
  Co  Co7  1  0.500000  0.000000  0.871895  1
  Ni  Ni8  1  0.500000  0.500000  0.870753  1
  Ni  Ni9  1  0.000000  0.500000  0.870753  1
  Ni  Ni10  1  0.500000  0.500000  0.127762  1
  Ni  Ni11  1  0.500000  0.000000  0.128909  1
  Ni  Ni12  1  0.000000  0.500000  0.127762  1
  Ni  Ni13  1  0.500000  0.500000  0.500493  1
  Ni  Ni14  1  0.500000  0.000000  0.498649  1
  Ni  Ni15  1  0.000000  0.500000  0.500493  1
  B  B16  1  0.663694  0.327387  0.998619  1
  B  B17  1  0.336306  0.672613  0.998619  1
