# generated using pymatgen
data_YTm5Al19Si5Os8
_symmetry_space_group_name_H-M   'P 1'
_cell_length_a   8.67983400
_cell_length_b   8.66335812
_cell_length_c   9.56031300
_cell_angle_alpha   90.00000000
_cell_angle_beta   90.00000000
_cell_angle_gamma   120.06293065
_symmetry_Int_Tables_number   1
_chemical_formula_structural   YTm5Al19Si5Os8
_chemical_formula_sum   'Y1 Tm5 Al19 Si5 Os8'
_cell_volume   622.19236919
_cell_formula_units_Z   1
loop_
 _symmetry_equiv_pos_site_id
 _symmetry_equiv_pos_as_xyz
  1  'x, y, z'
loop_
 _atom_site_type_symbol
 _atom_site_label
 _atom_site_symmetry_multiplicity
 _atom_site_fract_x
 _atom_site_fract_y
 _atom_site_fract_z
 _atom_site_occupancy
  Y  Y0  1  0.806337  0.612673  0.750000  1
  Tm  Tm1  1  0.195590  0.391180  0.250000  1
  Tm  Tm2  1  0.606034  0.805496  0.250000  1
  Tm  Tm3  1  0.391262  0.195956  0.750000  1
  Tm  Tm4  1  0.199462  0.805496  0.250000  1
  Tm  Tm5  1  0.804694  0.195956  0.750000  1
  Al  Al6  1  0.164550  0.329100  0.578433  1
  Al  Al7  1  0.834711  0.669423  0.420944  1
  Al  Al8  1  0.669557  0.835586  0.576685  1
  Al  Al9  1  0.834711  0.669423  0.079056  1
  Al  Al10  1  0.328888  0.165366  0.421691  1
  Al  Al11  1  0.164550  0.329100  0.921567  1
  Al  Al12  1  0.166029  0.835586  0.576685  1
  Al  Al13  1  0.328888  0.165366  0.078309  1
  Al  Al14  1  0.836478  0.165366  0.421691  1
  Al  Al15  1  0.669557  0.835586  0.923315  1
  Al  Al16  1  0.836478  0.165366  0.078309  1
  Al  Al17  1  0.166029  0.835586  0.923315  1
  Al  Al18  1  0.437584  0.875169  0.750000  1
  Al  Al19  1  0.873338  0.433712  0.250000  1
  Al  Al20  1  0.127898  0.564101  0.750000  1
  Al  Al21  1  0.560375  0.433712  0.250000  1
  Al  Al22  1  0.436202  0.564101  0.750000  1
  Al  Al23  1  0.999718  0.999436  0.250000  1
  Al  Al24  1  0.001596  0.003191  0.750000  1
  Si  Si25  1  0.332398  0.664797  0.039416  1
  Si  Si26  1  0.666847  0.333693  0.960471  1
  Si  Si27  1  0.666847  0.333693  0.539529  1
  Si  Si28  1  0.332398  0.664797  0.460584  1
  Si  Si29  1  0.563488  0.126977  0.250000  1
  Os  Os30  1  0.500520  0.001039  0.006599  1
  Os  Os31  1  0.999392  0.498740  0.001010  1
  Os  Os32  1  0.500520  0.001039  0.493401  1
  Os  Os33  1  0.499348  0.498740  0.001010  1
  Os  Os34  1  0.999392  0.498740  0.498990  1
  Os  Os35  1  0.499348  0.498740  0.498990  1
  Os  Os36  1  0.999493  0.998985  0.000028  1
  Os  Os37  1  0.999493  0.998985  0.499972  1
