# generated using pymatgen
data_Sm6HoFeI12
_symmetry_space_group_name_H-M   'P 1'
_cell_length_a   9.90259386
_cell_length_b   9.80663598
_cell_length_c   9.90123983
_cell_angle_alpha   106.80353818
_cell_angle_beta   106.80014918
_cell_angle_gamma   106.87601313
_symmetry_Int_Tables_number   1
_chemical_formula_structural   Sm6HoFeI12
_chemical_formula_sum   'Sm6 Ho1 Fe1 I12'
_cell_volume   804.52162453
_cell_formula_units_Z   1
loop_
 _symmetry_equiv_pos_site_id
 _symmetry_equiv_pos_as_xyz
  1  'x, y, z'
loop_
 _atom_site_type_symbol
 _atom_site_label
 _atom_site_symmetry_multiplicity
 _atom_site_fract_x
 _atom_site_fract_y
 _atom_site_fract_z
 _atom_site_occupancy
  Sm  Sm0  1  0.797421  0.521470  0.595153  1
  Sm  Sm1  1  0.408920  0.218029  0.478365  1
  Sm  Sm2  1  0.478768  0.405635  0.204411  1
  Sm  Sm3  1  0.588801  0.781797  0.521040  1
  Sm  Sm4  1  0.999086  0.000452  0.999854  1
  Sm  Sm5  1  0.521319  0.594346  0.795542  1
  Ho  Ho6  1  0.211717  0.478911  0.407417  1
  Fe  Fe7  1  0.500454  0.499744  0.500100  1
  I  I8  1  0.658680  0.964015  0.883696  1
  I  I9  1  0.723333  0.178338  0.571062  1
  I  I10  1  0.884538  0.657862  0.963775  1
  I  I11  1  0.270993  0.813751  0.426993  1
  I  I12  1  0.177504  0.569802  0.719691  1
  I  I13  1  0.039121  0.120731  0.342082  1
  I  I14  1  0.572631  0.728356  0.181087  1
  I  I15  1  0.115744  0.345190  0.042410  1
  I  I16  1  0.824182  0.428822  0.274238  1
  I  I17  1  0.426254  0.271408  0.818622  1
  I  I18  1  0.960989  0.885648  0.658384  1
  I  I19  1  0.339545  0.035695  0.116079  1
