# generated using pymatgen
data_CePr5(SiPt5)2
_symmetry_space_group_name_H-M   'P 1'
_cell_length_a   8.41987517
_cell_length_b   8.42249857
_cell_length_c   8.42249864
_cell_angle_alpha   127.11264752
_cell_angle_beta   126.39173403
_cell_angle_gamma   78.66394169
_symmetry_Int_Tables_number   1
_chemical_formula_structural   CePr5(SiPt5)2
_chemical_formula_sum   'Ce1 Pr5 Si2 Pt10'
_cell_volume   371.10010446
_cell_formula_units_Z   1
loop_
 _symmetry_equiv_pos_site_id
 _symmetry_equiv_pos_as_xyz
  1  'x, y, z'
loop_
 _atom_site_type_symbol
 _atom_site_label
 _atom_site_symmetry_multiplicity
 _atom_site_fract_x
 _atom_site_fract_y
 _atom_site_fract_z
 _atom_site_occupancy
  Ce  Ce0  1  0.778987  0.050032  0.728955  1
  Pr  Pr1  1  0.827980  0.549940  0.278039  1
  Pr  Pr2  1  0.613609  0.250323  0.363286  1
  Pr  Pr3  1  0.172588  0.449903  0.722685  1
  Pr  Pr4  1  0.385803  0.749395  0.636408  1
  Pr  Pr5  1  0.228824  0.949476  0.279348  1
  Si  Si6  1  0.213585  0.251056  0.962529  1
  Si  Si7  1  0.788630  0.750200  0.038430  1
  Pt  Pt8  1  0.167310  0.908262  0.861919  1
  Pt  Pt9  1  0.828075  0.090508  0.129687  1
  Pt  Pt10  1  0.456500  0.191837  0.861422  1
  Pt  Pt11  1  0.547643  0.404600  0.737903  1
  Pt  Pt12  1  0.828075  0.698388  0.737567  1
  Pt  Pt13  1  0.456500  0.595079  0.264663  1
  Pt  Pt14  1  0.547643  0.809740  0.143043  1
  Pt  Pt15  1  0.167310  0.305391  0.259048  1
  Pt  Pt16  1  0.995469  0.000843  0.500442  1
  Pt  Pt17  1  0.995469  0.495027  0.994626  1
