# generated using pymatgen
data_MnNb12CoSi6(OsC)4
_symmetry_space_group_name_H-M   'P 1'
_cell_length_a   8.19360217
_cell_length_b   8.19356169
_cell_length_c   8.19353200
_cell_angle_alpha   60.28893953
_cell_angle_beta   60.28907693
_cell_angle_gamma   60.28912054
_symmetry_Int_Tables_number   1
_chemical_formula_structural   MnNb12CoSi6(OsC)4
_chemical_formula_sum   'Mn1 Nb12 Co1 Si6 Os4 C4'
_cell_volume   391.50325227
_cell_formula_units_Z   1
loop_
 _symmetry_equiv_pos_site_id
 _symmetry_equiv_pos_as_xyz
  1  'x, y, z'
loop_
 _atom_site_type_symbol
 _atom_site_label
 _atom_site_symmetry_multiplicity
 _atom_site_fract_x
 _atom_site_fract_y
 _atom_site_fract_z
 _atom_site_occupancy
  Mn  Mn0  1  0.334623  0.334693  0.334825  1
  Nb  Nb1  1  0.694387  0.304106  0.694386  1
  Nb  Nb2  1  0.941342  0.560130  0.560109  1
  Nb  Nb3  1  0.555265  0.943720  0.943722  1
  Nb  Nb4  1  0.943732  0.555250  0.943735  1
  Nb  Nb5  1  0.560092  0.560084  0.941375  1
  Nb  Nb6  1  0.943745  0.943745  0.555234  1
  Nb  Nb7  1  0.694394  0.694395  0.304098  1
  Nb  Nb8  1  0.304107  0.694389  0.694386  1
  Nb  Nb9  1  0.687785  0.309510  0.309507  1
  Nb  Nb10  1  0.309507  0.309509  0.687790  1
  Nb  Nb11  1  0.560124  0.941352  0.560095  1
  Nb  Nb12  1  0.309511  0.687791  0.309510  1
  Co  Co13  1  0.911614  0.911619  0.911618  1
  Si  Si14  1  0.251028  0.913875  0.913862  1
  Si  Si15  1  0.913881  0.251019  0.913862  1
  Si  Si16  1  0.913881  0.913876  0.250997  1
  Si  Si17  1  0.336295  0.996039  0.336273  1
  Si  Si18  1  0.336284  0.336274  0.996036  1
  Si  Si19  1  0.996036  0.336289  0.336278  1
  Os  Os20  1  0.124563  0.124559  0.124562  1
  Os  Os21  1  0.623343  0.126653  0.126631  1
  Os  Os22  1  0.126660  0.623332  0.126638  1
  Os  Os23  1  0.126655  0.126651  0.623324  1
  C  C24  1  0.624573  0.624576  0.624588  1
  C  C25  1  0.123873  0.626350  0.626346  1
  C  C26  1  0.626353  0.123874  0.626339  1
  C  C27  1  0.626348  0.626342  0.123872  1
