# generated using pymatgen
data_Be10RuAu
_symmetry_space_group_name_H-M   'P 1'
_cell_length_a   4.25083600
_cell_length_b   4.25083603
_cell_length_c   7.02147500
_cell_angle_alpha   90.00000000
_cell_angle_beta   90.00000000
_cell_angle_gamma   119.99999975
_symmetry_Int_Tables_number   1
_chemical_formula_structural   Be10RuAu
_chemical_formula_sum   'Be10 Ru1 Au1'
_cell_volume   109.87722682
_cell_formula_units_Z   1
loop_
 _symmetry_equiv_pos_site_id
 _symmetry_equiv_pos_as_xyz
  1  'x, y, z'
loop_
 _atom_site_type_symbol
 _atom_site_label
 _atom_site_symmetry_multiplicity
 _atom_site_fract_x
 _atom_site_fract_y
 _atom_site_fract_z
 _atom_site_occupancy
  Be  Be0  1  0.336086  0.168044  0.042460  1
  Be  Be1  1  0.831958  0.168044  0.042460  1
  Be  Be2  1  0.831957  0.663914  0.042460  1
  Be  Be3  1  0.000000  0.000000  0.296893  1
  Be  Be4  1  0.666667  0.333333  0.393590  1
  Be  Be5  1  0.165963  0.331924  0.558380  1
  Be  Be6  1  0.165962  0.834039  0.558380  1
  Be  Be7  1  0.668078  0.834039  0.558380  1
  Be  Be8  1  0.000000  0.000000  0.798669  1
  Be  Be9  1  0.333333  0.666666  0.843644  1
  Ru  Ru10  1  0.666667  0.333333  0.746944  1
  Au  Au11  1  0.333333  0.666666  0.245878  1
