# generated using pymatgen
data_CeHo6Er5(Si3Ir)4
_symmetry_space_group_name_H-M   'P 1'
_cell_length_a   4.19459900
_cell_length_b   10.59042597
_cell_length_c   12.16999400
_cell_angle_alpha   89.85702585
_cell_angle_beta   90.00000000
_cell_angle_gamma   90.00000000
_symmetry_Int_Tables_number   1
_chemical_formula_structural   CeHo6Er5(Si3Ir)4
_chemical_formula_sum   'Ce1 Ho6 Er5 Si12 Ir4'
_cell_volume   540.62097294
_cell_formula_units_Z   1
loop_
 _symmetry_equiv_pos_site_id
 _symmetry_equiv_pos_as_xyz
  1  'x, y, z'
loop_
 _atom_site_type_symbol
 _atom_site_label
 _atom_site_symmetry_multiplicity
 _atom_site_fract_x
 _atom_site_fract_y
 _atom_site_fract_z
 _atom_site_occupancy
  Ce  Ce0  1  0.750000  0.159259  0.697773  1
  Ho  Ho1  1  0.250000  0.919685  0.602912  1
  Ho  Ho2  1  0.250000  0.580885  0.103513  1
  Ho  Ho3  1  0.750000  0.419640  0.897339  1
  Ho  Ho4  1  0.250000  0.659663  0.801499  1
  Ho  Ho5  1  0.250000  0.840930  0.301264  1
  Ho  Ho6  1  0.750000  0.342541  0.199158  1
  Er  Er7  1  0.250000  0.880049  0.021250  1
  Er  Er8  1  0.250000  0.620126  0.521096  1
  Er  Er9  1  0.750000  0.120112  0.979881  1
  Er  Er10  1  0.750000  0.380626  0.478669  1
  Er  Er11  1  0.750000  0.081336  0.396222  1
  Si  Si12  1  0.250000  0.009434  0.820818  1
  Si  Si13  1  0.250000  0.489017  0.322383  1
  Si  Si14  1  0.750000  0.988863  0.178089  1
  Si  Si15  1  0.750000  0.510501  0.678491  1
  Si  Si16  1  0.250000  0.246069  0.843360  1
  Si  Si17  1  0.250000  0.253517  0.339119  1
  Si  Si18  1  0.750000  0.753804  0.159322  1
  Si  Si19  1  0.750000  0.746982  0.658811  1
  Si  Si20  1  0.250000  0.201674  0.538884  1
  Si  Si21  1  0.250000  0.299207  0.044921  1
  Si  Si22  1  0.750000  0.799374  0.456158  1
  Si  Si23  1  0.750000  0.700310  0.957480  1
  Ir  Ir24  1  0.250000  0.387519  0.680825  1
  Ir  Ir25  1  0.250000  0.110252  0.179955  1
  Ir  Ir26  1  0.750000  0.610159  0.319796  1
  Ir  Ir27  1  0.750000  0.888464  0.821010  1
