# generated using pymatgen
data_Nd4ZnGe2Pd27
_symmetry_space_group_name_H-M   'P 1'
_cell_length_a   8.99090467
_cell_length_b   8.99090467
_cell_length_c   7.20180770
_cell_angle_alpha   90.14889314
_cell_angle_beta   90.14889314
_cell_angle_gamma   88.90296339
_symmetry_Int_Tables_number   1
_chemical_formula_structural   Nd4ZnGe2Pd27
_chemical_formula_sum   'Nd4 Zn1 Ge2 Pd27'
_cell_volume   582.05740312
_cell_formula_units_Z   1
loop_
 _symmetry_equiv_pos_site_id
 _symmetry_equiv_pos_as_xyz
  1  'x, y, z'
loop_
 _atom_site_type_symbol
 _atom_site_label
 _atom_site_symmetry_multiplicity
 _atom_site_fract_x
 _atom_site_fract_y
 _atom_site_fract_z
 _atom_site_occupancy
  Nd  Nd0  1  0.507419  0.007419  0.933644  1
  Nd  Nd1  1  0.992581  0.492581  0.066356  1
  Nd  Nd2  1  0.001905  0.998095  0.500000  1
  Nd  Nd3  1  0.498095  0.501905  0.500000  1
  Zn  Zn4  1  0.250000  0.750000  0.000000  1
  Ge  Ge5  1  0.501302  0.001302  0.449375  1
  Ge  Ge6  1  0.998698  0.498698  0.550625  1
  Pd  Pd7  1  0.332178  0.832178  0.616527  1
  Pd  Pd8  1  0.328849  0.169940  0.624756  1
  Pd  Pd9  1  0.669940  0.828849  0.624756  1
  Pd  Pd10  1  0.669385  0.169385  0.619868  1
  Pd  Pd11  1  0.167822  0.667822  0.383473  1
  Pd  Pd12  1  0.171151  0.330060  0.375244  1
  Pd  Pd13  1  0.830060  0.671151  0.375244  1
  Pd  Pd14  1  0.830615  0.330615  0.380132  1
  Pd  Pd15  1  0.499268  0.767947  0.251143  1
  Pd  Pd16  1  0.497559  0.234945  0.253354  1
  Pd  Pd17  1  0.267947  0.999268  0.251143  1
  Pd  Pd18  1  0.734945  0.997559  0.253354  1
  Pd  Pd19  1  0.000732  0.732053  0.748857  1
  Pd  Pd20  1  0.002441  0.265055  0.746646  1
  Pd  Pd21  1  0.232053  0.500732  0.748857  1
  Pd  Pd22  1  0.765055  0.502441  0.746646  1
  Pd  Pd23  1  0.498830  0.352852  0.856129  1
  Pd  Pd24  1  0.493292  0.658993  0.863388  1
  Pd  Pd25  1  0.852852  0.998830  0.856129  1
  Pd  Pd26  1  0.158993  0.993292  0.863388  1
  Pd  Pd27  1  0.001170  0.147148  0.143871  1
  Pd  Pd28  1  0.006708  0.841007  0.136612  1
  Pd  Pd29  1  0.647148  0.501170  0.143871  1
  Pd  Pd30  1  0.341007  0.506708  0.136612  1
  Pd  Pd31  1  0.250000  0.250000  0.000000  1
  Pd  Pd32  1  0.750000  0.750000  0.000000  1
  Pd  Pd33  1  0.750000  0.250000  0.000000  1
