# generated using pymatgen
data_Ca2SmTm(Ru2O7)2
_symmetry_space_group_name_H-M   'P 1'
_cell_length_a   7.27914018
_cell_length_b   7.26452998
_cell_length_c   7.22782200
_cell_angle_alpha   60.16701300
_cell_angle_beta   60.23294046
_cell_angle_gamma   60.29869603
_symmetry_Int_Tables_number   1
_chemical_formula_structural   Ca2SmTm(Ru2O7)2
_chemical_formula_sum   'Ca2 Sm1 Tm1 Ru4 O14'
_cell_volume   271.68308714
_cell_formula_units_Z   1
loop_
 _symmetry_equiv_pos_site_id
 _symmetry_equiv_pos_as_xyz
  1  'x, y, z'
loop_
 _atom_site_type_symbol
 _atom_site_label
 _atom_site_symmetry_multiplicity
 _atom_site_fract_x
 _atom_site_fract_y
 _atom_site_fract_z
 _atom_site_occupancy
  Ca  Ca0  1  0.625000  0.625000  0.125000  1
  Ca  Ca1  1  0.625000  0.625000  0.625000  1
  Sm  Sm2  1  0.625000  0.125000  0.625000  1
  Tm  Tm3  1  0.125000  0.625000  0.625000  1
  Ru  Ru4  1  0.625000  0.125000  0.125000  1
  Ru  Ru5  1  0.125000  0.625000  0.125000  1
  Ru  Ru6  1  0.125000  0.125000  0.625000  1
  Ru  Ru7  1  0.125000  0.125000  0.125000  1
  O  O8  1  0.201428  0.210442  0.794065  1
  O  O9  1  0.194593  0.800225  0.206568  1
  O  O10  1  0.449677  0.050309  0.047705  1
  O  O11  1  0.194593  0.800225  0.798615  1
  O  O12  1  0.055407  0.449775  0.451385  1
  O  O13  1  0.804784  0.805398  0.194909  1
  O  O14  1  0.445216  0.444602  0.055091  1
  O  O15  1  0.485622  0.504213  0.505083  1
  O  O16  1  0.048572  0.039558  0.455935  1
  O  O17  1  0.449677  0.050309  0.452310  1
  O  O18  1  0.055407  0.449775  0.043432  1
  O  O19  1  0.764378  0.745787  0.744917  1
  O  O20  1  0.800323  0.199691  0.797690  1
  O  O21  1  0.800323  0.199691  0.202295  1
