# generated using pymatgen
data_TbTh(HgPb)3
_symmetry_space_group_name_H-M   'P 1'
_cell_length_a   4.83440200
_cell_length_b   4.72197700
_cell_length_c   9.46369500
_cell_angle_alpha   90.00000000
_cell_angle_beta   90.00000000
_cell_angle_gamma   90.00000000
_symmetry_Int_Tables_number   1
_chemical_formula_structural   TbTh(HgPb)3
_chemical_formula_sum   'Tb1 Th1 Hg3 Pb3'
_cell_volume   216.03661482
_cell_formula_units_Z   1
loop_
 _symmetry_equiv_pos_site_id
 _symmetry_equiv_pos_as_xyz
  1  'x, y, z'
loop_
 _atom_site_type_symbol
 _atom_site_label
 _atom_site_symmetry_multiplicity
 _atom_site_fract_x
 _atom_site_fract_y
 _atom_site_fract_z
 _atom_site_occupancy
  Tb  Tb0  1  0.000000  0.000000  0.000000  1
  Th  Th1  1  0.000000  0.000000  0.500000  1
  Hg  Hg2  1  0.500000  0.500000  0.000000  1
  Hg  Hg3  1  0.500000  0.000000  0.241126  1
  Hg  Hg4  1  0.500000  0.000000  0.758874  1
  Pb  Pb5  1  0.500000  0.500000  0.500000  1
  Pb  Pb6  1  0.000000  0.500000  0.237349  1
  Pb  Pb7  1  0.000000  0.500000  0.762651  1
