# generated using pymatgen
data_Ho2ZnCoIr
_symmetry_space_group_name_H-M   'P 1'
_cell_length_a   4.12229729
_cell_length_b   5.39595938
_cell_length_c   5.39595882
_cell_angle_alpha   62.80162863
_cell_angle_beta   67.54363171
_cell_angle_gamma   67.54361558
_symmetry_Int_Tables_number   1
_chemical_formula_structural   Ho2ZnCoIr
_chemical_formula_sum   'Ho2 Zn1 Co1 Ir1'
_cell_volume   95.46804339
_cell_formula_units_Z   1
loop_
 _symmetry_equiv_pos_site_id
 _symmetry_equiv_pos_as_xyz
  1  'x, y, z'
loop_
 _atom_site_type_symbol
 _atom_site_label
 _atom_site_symmetry_multiplicity
 _atom_site_fract_x
 _atom_site_fract_y
 _atom_site_fract_z
 _atom_site_occupancy
  Ho  Ho0  1  0.206899  0.290819  0.295383  1
  Ho  Ho1  1  0.793101  0.704617  0.709181  1
  Zn  Zn2  1  0.000000  0.986378  0.013622  1
  Co  Co3  1  0.500000  0.729341  0.270659  1
  Ir  Ir4  1  0.500000  0.288845  0.711155  1
