# generated using pymatgen
data_Tb12AlZn11C4
_symmetry_space_group_name_H-M   'P 1'
_cell_length_a   9.21242417
_cell_length_b   9.21242499
_cell_length_c   9.21242248
_cell_angle_alpha   60.11099314
_cell_angle_beta   60.11099152
_cell_angle_gamma   60.11099209
_symmetry_Int_Tables_number   1
_chemical_formula_structural   Tb12AlZn11C4
_chemical_formula_sum   'Tb12 Al1 Zn11 C4'
_cell_volume   554.23952195
_cell_formula_units_Z   1
loop_
 _symmetry_equiv_pos_site_id
 _symmetry_equiv_pos_as_xyz
  1  'x, y, z'
loop_
 _atom_site_type_symbol
 _atom_site_label
 _atom_site_symmetry_multiplicity
 _atom_site_fract_x
 _atom_site_fract_y
 _atom_site_fract_z
 _atom_site_occupancy
  Tb  Tb0  1  0.447052  0.447052  0.052957  1
  Tb  Tb1  1  0.052900  0.446993  0.052900  1
  Tb  Tb2  1  0.446993  0.052900  0.052900  1
  Tb  Tb3  1  0.052900  0.052900  0.446993  1
  Tb  Tb4  1  0.447052  0.052957  0.447052  1
  Tb  Tb5  1  0.052957  0.447052  0.447052  1
  Tb  Tb6  1  0.802948  0.802948  0.197043  1
  Tb  Tb7  1  0.197100  0.803007  0.197100  1
  Tb  Tb8  1  0.803007  0.197100  0.197100  1
  Tb  Tb9  1  0.197100  0.197100  0.803007  1
  Tb  Tb10  1  0.802948  0.197043  0.802948  1
  Tb  Tb11  1  0.197043  0.802948  0.802948  1
  Al  Al12  1  0.625000  0.625000  0.625000  1
  Zn  Zn13  1  0.826719  0.826719  0.520748  1
  Zn  Zn14  1  0.826719  0.520748  0.826719  1
  Zn  Zn15  1  0.520748  0.826719  0.826719  1
  Zn  Zn16  1  0.825964  0.825964  0.825964  1
  Zn  Zn17  1  0.423281  0.423281  0.729252  1
  Zn  Zn18  1  0.423281  0.729252  0.423281  1
  Zn  Zn19  1  0.729252  0.423281  0.423281  1
  Zn  Zn20  1  0.424036  0.424036  0.424036  1
  Zn  Zn21  1  0.625000  0.625000  0.125000  1
  Zn  Zn22  1  0.625000  0.125000  0.625000  1
  Zn  Zn23  1  0.125000  0.625000  0.625000  1
  C  C24  1  0.125000  0.125000  0.625000  1
  C  C25  1  0.125000  0.625000  0.125000  1
  C  C26  1  0.625000  0.125000  0.125000  1
  C  C27  1  0.125000  0.125000  0.125000  1
