# generated using pymatgen
data_Hf6Zr3Re4Ir
_symmetry_space_group_name_H-M   'P 1'
_cell_length_a   8.71536300
_cell_length_b   8.71536346
_cell_length_c   8.53696700
_cell_angle_alpha   90.00000000
_cell_angle_beta   90.00000000
_cell_angle_gamma   120.00000206
_symmetry_Int_Tables_number   1
_chemical_formula_structural   Hf6Zr3Re4Ir
_chemical_formula_sum   'Hf12 Zr6 Re8 Ir2'
_cell_volume   561.57169386
_cell_formula_units_Z   2
loop_
 _symmetry_equiv_pos_site_id
 _symmetry_equiv_pos_as_xyz
  1  'x, y, z'
loop_
 _atom_site_type_symbol
 _atom_site_label
 _atom_site_symmetry_multiplicity
 _atom_site_fract_x
 _atom_site_fract_y
 _atom_site_fract_z
 _atom_site_occupancy
  Hf  Hf0  1  0.195080  0.804920  0.444700  1
  Hf  Hf1  1  0.195080  0.390159  0.444700  1
  Hf  Hf2  1  0.609841  0.804920  0.444700  1
  Hf  Hf3  1  0.804920  0.195080  0.555300  1
  Hf  Hf4  1  0.804920  0.609841  0.555300  1
  Hf  Hf5  1  0.390159  0.195080  0.555300  1
  Hf  Hf6  1  0.804920  0.195080  0.944700  1
  Hf  Hf7  1  0.804920  0.609841  0.944700  1
  Hf  Hf8  1  0.390159  0.195080  0.944700  1
  Hf  Hf9  1  0.195080  0.804920  0.055300  1
  Hf  Hf10  1  0.195080  0.390159  0.055300  1
  Hf  Hf11  1  0.609841  0.804920  0.055300  1
  Zr  Zr12  1  0.541583  0.458417  0.250000  1
  Zr  Zr13  1  0.541583  0.083165  0.250000  1
  Zr  Zr14  1  0.916835  0.458417  0.250000  1
  Zr  Zr15  1  0.458417  0.541583  0.750000  1
  Zr  Zr16  1  0.458417  0.916835  0.750000  1
  Zr  Zr17  1  0.083165  0.541583  0.750000  1
  Re  Re18  1  0.890888  0.109112  0.250000  1
  Re  Re19  1  0.890888  0.781774  0.250000  1
  Re  Re20  1  0.218226  0.109112  0.250000  1
  Re  Re21  1  0.109112  0.890888  0.750000  1
  Re  Re22  1  0.109112  0.218226  0.750000  1
  Re  Re23  1  0.781774  0.890888  0.750000  1
  Re  Re24  1  0.000000  0.000000  0.500000  1
  Re  Re25  1  0.000000  0.000000  0.000000  1
  Ir  Ir26  1  0.333333  0.666667  0.250000  1
  Ir  Ir27  1  0.666667  0.333333  0.750000  1
