# generated using pymatgen
data_TbEr3(ZrIr)4
_symmetry_space_group_name_H-M   'P 1'
_cell_length_a   4.54811500
_cell_length_b   7.10377366
_cell_length_c   8.30099612
_cell_angle_alpha   89.89724227
_cell_angle_beta   90.00000000
_cell_angle_gamma   90.00000000
_symmetry_Int_Tables_number   1
_chemical_formula_structural   TbEr3(ZrIr)4
_chemical_formula_sum   'Tb1 Er3 Zr4 Ir4'
_cell_volume   268.19462200
_cell_formula_units_Z   1
loop_
 _symmetry_equiv_pos_site_id
 _symmetry_equiv_pos_as_xyz
  1  'x, y, z'
loop_
 _atom_site_type_symbol
 _atom_site_label
 _atom_site_symmetry_multiplicity
 _atom_site_fract_x
 _atom_site_fract_y
 _atom_site_fract_z
 _atom_site_occupancy
  Tb  Tb0  1  0.250000  0.984194  0.323777  1
  Er  Er1  1  0.250000  0.482784  0.175006  1
  Er  Er2  1  0.750000  0.017538  0.676368  1
  Er  Er3  1  0.750000  0.516768  0.824378  1
  Zr  Zr4  1  0.250000  0.356593  0.575516  1
  Zr  Zr5  1  0.250000  0.855476  0.924626  1
  Zr  Zr6  1  0.750000  0.643548  0.425954  1
  Zr  Zr7  1  0.750000  0.143723  0.073066  1
  Ir  Ir8  1  0.250000  0.233409  0.904875  1
  Ir  Ir9  1  0.250000  0.733053  0.596438  1
  Ir  Ir10  1  0.750000  0.765161  0.094117  1
  Ir  Ir11  1  0.750000  0.267754  0.405880  1
