# generated using pymatgen
data_CsRb2In(AsSe2)6
_symmetry_space_group_name_H-M   'P 1'
_cell_length_a   10.03288200
_cell_length_b   10.03288327
_cell_length_c   8.41159200
_cell_angle_alpha   90.00000000
_cell_angle_beta   90.00000000
_cell_angle_gamma   120.00000899
_symmetry_Int_Tables_number   1
_chemical_formula_structural   CsRb2In(AsSe2)6
_chemical_formula_sum   'Cs1 Rb2 In1 As6 Se12'
_cell_volume   733.26381753
_cell_formula_units_Z   1
loop_
 _symmetry_equiv_pos_site_id
 _symmetry_equiv_pos_as_xyz
  1  'x, y, z'
loop_
 _atom_site_type_symbol
 _atom_site_label
 _atom_site_symmetry_multiplicity
 _atom_site_fract_x
 _atom_site_fract_y
 _atom_site_fract_z
 _atom_site_occupancy
  Cs  Cs0  1  0.333333  0.666667  0.847715  1
  Rb  Rb1  1  0.000000  0.000000  0.999690  1
  Rb  Rb2  1  0.666667  0.333333  0.142641  1
  In  In3  1  0.000000  0.000000  0.497313  1
  As  As4  1  0.280672  0.832260  0.393255  1
  As  As5  1  0.167740  0.448414  0.393255  1
  As  As6  1  0.551586  0.719328  0.393255  1
  As  As7  1  0.719067  0.168568  0.608649  1
  As  As8  1  0.831432  0.550498  0.608649  1
  As  As9  1  0.449502  0.280933  0.608649  1
  Se  Se10  1  0.246901  0.038597  0.304014  1
  Se  Se11  1  0.961403  0.208304  0.304014  1
  Se  Se12  1  0.791696  0.753099  0.304014  1
  Se  Se13  1  0.756092  0.962981  0.693906  1
  Se  Se14  1  0.037019  0.793109  0.693906  1
  Se  Se15  1  0.206891  0.243908  0.693906  1
  Se  Se16  1  0.518669  0.909869  0.236877  1
  Se  Se17  1  0.090131  0.608800  0.236877  1
  Se  Se18  1  0.391200  0.481331  0.236877  1
  Se  Se19  1  0.482480  0.091873  0.767513  1
  Se  Se20  1  0.908127  0.390606  0.767513  1
  Se  Se21  1  0.609394  0.517520  0.767513  1
