# generated using pymatgen
data_Tb8BeCu(Si6Pd)2
_symmetry_space_group_name_H-M   'P 1'
_cell_length_a   8.05499200
_cell_length_b   8.05499266
_cell_length_c   8.15830600
_cell_angle_alpha   90.00002990
_cell_angle_beta   89.99998586
_cell_angle_gamma   120.00008924
_symmetry_Int_Tables_number   1
_chemical_formula_structural   Tb8BeCu(Si6Pd)2
_chemical_formula_sum   'Tb8 Be1 Cu1 Si12 Pd2'
_cell_volume   458.41676751
_cell_formula_units_Z   1
loop_
 _symmetry_equiv_pos_site_id
 _symmetry_equiv_pos_as_xyz
  1  'x, y, z'
loop_
 _atom_site_type_symbol
 _atom_site_label
 _atom_site_symmetry_multiplicity
 _atom_site_fract_x
 _atom_site_fract_y
 _atom_site_fract_z
 _atom_site_occupancy
  Tb  Tb0  1  0.499725  0.999450  0.247760  1
  Tb  Tb1  1  0.499331  0.998662  0.752319  1
  Tb  Tb2  1  0.000550  0.500274  0.247761  1
  Tb  Tb3  1  0.001338  0.500669  0.752319  1
  Tb  Tb4  1  0.499726  0.500275  0.247760  1
  Tb  Tb5  1  0.499331  0.500669  0.752319  1
  Tb  Tb6  1  0.000000  0.000000  0.248075  1
  Tb  Tb7  1  0.000000  0.000000  0.752304  1
  Be  Be8  1  0.333333  0.666667  0.999295  1
  Cu  Cu9  1  0.666667  0.333331  0.998067  1
  Si  Si10  1  0.172374  0.344748  0.999789  1
  Si  Si11  1  0.830587  0.661174  0.000720  1
  Si  Si12  1  0.655252  0.827626  0.999789  1
  Si  Si13  1  0.833864  0.667729  0.500937  1
  Si  Si14  1  0.338826  0.169413  0.000720  1
  Si  Si15  1  0.165712  0.331425  0.499183  1
  Si  Si16  1  0.172374  0.827626  0.999789  1
  Si  Si17  1  0.332271  0.166136  0.500937  1
  Si  Si18  1  0.830588  0.169413  0.000720  1
  Si  Si19  1  0.668575  0.834288  0.499183  1
  Si  Si20  1  0.833865  0.166135  0.500938  1
  Si  Si21  1  0.165712  0.834288  0.499183  1
  Pd  Pd22  1  0.666667  0.333333  0.500375  1
  Pd  Pd23  1  0.333333  0.666667  0.499760  1
