# generated using pymatgen
data_La2Ga10Au
_symmetry_space_group_name_H-M   'P 1'
_cell_length_a   4.57974301
_cell_length_b   4.57974482
_cell_length_c   13.22836369
_cell_angle_alpha   99.96828649
_cell_angle_beta   99.96828921
_cell_angle_gamma   90.00001086
_symmetry_Int_Tables_number   1
_chemical_formula_structural   La2Ga10Au
_chemical_formula_sum   'La2 Ga10 Au1'
_cell_volume   269.01020719
_cell_formula_units_Z   1
loop_
 _symmetry_equiv_pos_site_id
 _symmetry_equiv_pos_as_xyz
  1  'x, y, z'
loop_
 _atom_site_type_symbol
 _atom_site_label
 _atom_site_symmetry_multiplicity
 _atom_site_fract_x
 _atom_site_fract_y
 _atom_site_fract_z
 _atom_site_occupancy
  La  La0  1  0.648464  0.648464  0.296929  1
  La  La1  1  0.351536  0.351536  0.703071  1
  Ga  Ga2  1  0.554758  0.054758  0.109516  1
  Ga  Ga3  1  0.054758  0.554758  0.109516  1
  Ga  Ga4  1  0.103223  0.103223  0.206447  1
  Ga  Ga5  1  0.199648  0.199648  0.399295  1
  Ga  Ga6  1  0.750000  0.250000  0.500000  1
  Ga  Ga7  1  0.250000  0.750000  0.500000  1
  Ga  Ga8  1  0.800352  0.800352  0.600705  1
  Ga  Ga9  1  0.896777  0.896777  0.793552  1
  Ga  Ga10  1  0.945242  0.445242  0.890483  1
  Ga  Ga11  1  0.445242  0.945242  0.890483  1
  Au  Au12  1  0.500000  0.500000  0.000000  1
