# generated using pymatgen
data_Pr3TiMnC6
_symmetry_space_group_name_H-M   'P 1'
_cell_length_a   8.41564100
_cell_length_b   8.41564071
_cell_length_c   5.25282300
_cell_angle_alpha   90.00000000
_cell_angle_beta   90.00000000
_cell_angle_gamma   119.99998831
_symmetry_Int_Tables_number   1
_chemical_formula_structural   Pr3TiMnC6
_chemical_formula_sum   'Pr6 Ti2 Mn2 C12'
_cell_volume   322.17945038
_cell_formula_units_Z   2
loop_
 _symmetry_equiv_pos_site_id
 _symmetry_equiv_pos_as_xyz
  1  'x, y, z'
loop_
 _atom_site_type_symbol
 _atom_site_label
 _atom_site_symmetry_multiplicity
 _atom_site_fract_x
 _atom_site_fract_y
 _atom_site_fract_z
 _atom_site_occupancy
  Pr  Pr0  1  0.611139  0.679808  0.750000  1
  Pr  Pr1  1  0.931331  0.611139  0.250000  1
  Pr  Pr2  1  0.679808  0.068669  0.250000  1
  Pr  Pr3  1  0.320192  0.931331  0.750000  1
  Pr  Pr4  1  0.068669  0.388861  0.750000  1
  Pr  Pr5  1  0.388861  0.320192  0.250000  1
  Ti  Ti6  1  0.000000  0.000000  0.500000  1
  Ti  Ti7  1  0.000000  0.000000  0.000000  1
  Mn  Mn8  1  0.666667  0.333333  0.750000  1
  Mn  Mn9  1  0.333333  0.666667  0.250000  1
  C  C10  1  0.953771  0.759011  0.750000  1
  C  C11  1  0.194760  0.953771  0.250000  1
  C  C12  1  0.759011  0.805240  0.250000  1
  C  C13  1  0.240989  0.194760  0.750000  1
  C  C14  1  0.805240  0.046229  0.750000  1
  C  C15  1  0.046229  0.240989  0.250000  1
  C  C16  1  0.853783  0.570876  0.750000  1
  C  C17  1  0.282906  0.853783  0.250000  1
  C  C18  1  0.570876  0.717094  0.250000  1
  C  C19  1  0.429124  0.282906  0.750000  1
  C  C20  1  0.146217  0.429124  0.250000  1
  C  C21  1  0.717094  0.146217  0.750000  1
