# generated using pymatgen
data_La20GaSi9Ge2
_symmetry_space_group_name_H-M   'P 1'
_cell_length_a   7.91474600
_cell_length_b   7.91474600
_cell_length_c   14.55838100
_cell_angle_alpha   90.00000000
_cell_angle_beta   90.00000000
_cell_angle_gamma   90.00000000
_symmetry_Int_Tables_number   1
_chemical_formula_structural   La20GaSi9Ge2
_chemical_formula_sum   'La20 Ga1 Si9 Ge2'
_cell_volume   911.98363445
_cell_formula_units_Z   1
loop_
 _symmetry_equiv_pos_site_id
 _symmetry_equiv_pos_as_xyz
  1  'x, y, z'
loop_
 _atom_site_type_symbol
 _atom_site_label
 _atom_site_symmetry_multiplicity
 _atom_site_fract_x
 _atom_site_fract_y
 _atom_site_fract_z
 _atom_site_occupancy
  La  La0  1  0.500000  0.000000  0.777715  1
  La  La1  1  0.330394  0.313882  0.105258  1
  La  La2  1  0.828653  0.815639  0.894626  1
  La  La3  1  0.000000  0.500000  0.225868  1
  La  La4  1  0.828165  0.182487  0.392822  1
  La  La5  1  0.171347  0.184361  0.894626  1
  La  La6  1  0.669606  0.686118  0.105258  1
  La  La7  1  0.000000  0.500000  0.721489  1
  La  La8  1  0.812881  0.833601  0.607630  1
  La  La9  1  0.317513  0.328165  0.392822  1
  La  La10  1  0.186118  0.830394  0.105258  1
  La  La11  1  0.187119  0.166399  0.607630  1
  La  La12  1  0.813882  0.169606  0.105258  1
  La  La13  1  0.333601  0.687119  0.607630  1
  La  La14  1  0.500000  0.000000  0.275241  1
  La  La15  1  0.684361  0.328653  0.894626  1
  La  La16  1  0.666399  0.312881  0.607630  1
  La  La17  1  0.315639  0.671347  0.894626  1
  La  La18  1  0.171835  0.817513  0.392822  1
  La  La19  1  0.682487  0.671835  0.392822  1
  Ga  Ga20  1  0.000000  0.500000  0.502397  1
  Si  Si21  1  0.613305  0.387473  0.249023  1
  Si  Si22  1  0.887502  0.113808  0.751329  1
  Si  Si23  1  0.887473  0.886695  0.249023  1
  Si  Si24  1  0.112498  0.886192  0.751329  1
  Si  Si25  1  0.386192  0.387502  0.751329  1
  Si  Si26  1  0.112527  0.113305  0.249023  1
  Si  Si27  1  0.386695  0.612527  0.249023  1
  Si  Si28  1  0.613808  0.612498  0.751329  1
  Si  Si29  1  0.500000  0.000000  0.994724  1
  Ge  Ge30  1  0.500000  0.000000  0.494762  1
  Ge  Ge31  1  0.000000  0.500000  0.005047  1
