# generated using pymatgen
data_Na4UBiSe6
_symmetry_space_group_name_H-M   'P 1'
_cell_length_a   7.32950396
_cell_length_b   7.32950506
_cell_length_c   7.39837140
_cell_angle_alpha   80.38396946
_cell_angle_beta   80.38397809
_cell_angle_gamma   120.04488265
_symmetry_Int_Tables_number   1
_chemical_formula_structural   Na4UBiSe6
_chemical_formula_sum   'Na4 U1 Bi1 Se6'
_cell_volume   324.25211893
_cell_formula_units_Z   1
loop_
 _symmetry_equiv_pos_site_id
 _symmetry_equiv_pos_as_xyz
  1  'x, y, z'
loop_
 _atom_site_type_symbol
 _atom_site_label
 _atom_site_symmetry_multiplicity
 _atom_site_fract_x
 _atom_site_fract_y
 _atom_site_fract_z
 _atom_site_occupancy
  Na  Na0  1  0.000050  0.999950  0.000000  1
  Na  Na1  1  0.501426  0.498574  0.500000  1
  Na  Na2  1  0.837860  0.162140  0.500000  1
  Na  Na3  1  0.160392  0.839608  0.500000  1
  U  U4  1  0.332882  0.667118  0.000000  1
  Bi  Bi5  1  0.668067  0.331933  0.000000  1
  Se  Se6  1  0.266656  0.283487  0.232406  1
  Se  Se7  1  0.422081  0.061113  0.768334  1
  Se  Se8  1  0.094036  0.438848  0.770843  1
  Se  Se9  1  0.716513  0.733344  0.767594  1
  Se  Se10  1  0.561152  0.905964  0.229157  1
  Se  Se11  1  0.938887  0.577919  0.231666  1
