# generated using pymatgen
data_Pa6Mn16Si7
_symmetry_space_group_name_H-M   'P 1'
_cell_length_a   8.37860184
_cell_length_b   8.37860236
_cell_length_c   8.37860100
_cell_angle_alpha   60.00000144
_cell_angle_beta   59.99999938
_cell_angle_gamma   59.99999481
_symmetry_Int_Tables_number   1
_chemical_formula_structural   Pa6Mn16Si7
_chemical_formula_sum   'Pa6 Mn16 Si7'
_cell_volume   415.91025616
_cell_formula_units_Z   1
loop_
 _symmetry_equiv_pos_site_id
 _symmetry_equiv_pos_as_xyz
  1  'x, y, z'
loop_
 _atom_site_type_symbol
 _atom_site_label
 _atom_site_symmetry_multiplicity
 _atom_site_fract_x
 _atom_site_fract_y
 _atom_site_fract_z
 _atom_site_occupancy
  Pa  Pa0  1  0.710540  0.289461  0.289461  1
  Pa  Pa1  1  0.289461  0.710540  0.710540  1
  Pa  Pa2  1  0.289461  0.710540  0.289461  1
  Pa  Pa3  1  0.289461  0.289461  0.710540  1
  Pa  Pa4  1  0.710540  0.289461  0.710540  1
  Pa  Pa5  1  0.710540  0.710540  0.289461  1
  Mn  Mn6  1  0.324407  0.324407  0.324407  1
  Mn  Mn7  1  0.324407  0.324407  0.026778  1
  Mn  Mn8  1  0.026778  0.324407  0.324407  1
  Mn  Mn9  1  0.324407  0.026778  0.324407  1
  Mn  Mn10  1  0.675592  0.675592  0.675592  1
  Mn  Mn11  1  0.675592  0.675592  0.973222  1
  Mn  Mn12  1  0.675592  0.973222  0.675592  1
  Mn  Mn13  1  0.973222  0.675592  0.675592  1
  Mn  Mn14  1  0.122556  0.122556  0.122556  1
  Mn  Mn15  1  0.122556  0.122556  0.632332  1
  Mn  Mn16  1  0.632332  0.122556  0.122556  1
  Mn  Mn17  1  0.122556  0.632332  0.122556  1
  Mn  Mn18  1  0.877444  0.877444  0.877444  1
  Mn  Mn19  1  0.877444  0.877444  0.367669  1
  Mn  Mn20  1  0.877444  0.367669  0.877444  1
  Mn  Mn21  1  0.367669  0.877444  0.877444  1
  Si  Si22  1  0.500000  0.000000  0.000000  1
  Si  Si23  1  0.000000  0.500000  0.500000  1
  Si  Si24  1  0.000000  0.500000  0.000000  1
  Si  Si25  1  0.000000  0.000000  0.500000  1
  Si  Si26  1  0.500000  0.000000  0.500000  1
  Si  Si27  1  0.500000  0.500000  0.000000  1
  Si  Si28  1  0.000000  0.000000  0.000000  1
