# generated using pymatgen
data_YHo7(CdRh)2
_symmetry_space_group_name_H-M   'P 1'
_cell_length_a   9.59874810
_cell_length_b   9.59690869
_cell_length_c   9.59089502
_cell_angle_alpha   60.02693645
_cell_angle_beta   60.03112123
_cell_angle_gamma   59.98822264
_symmetry_Int_Tables_number   1
_chemical_formula_structural   YHo7(CdRh)2
_chemical_formula_sum   'Y2 Ho14 Cd4 Rh4'
_cell_volume   624.94501393
_cell_formula_units_Z   2
loop_
 _symmetry_equiv_pos_site_id
 _symmetry_equiv_pos_as_xyz
  1  'x, y, z'
loop_
 _atom_site_type_symbol
 _atom_site_label
 _atom_site_symmetry_multiplicity
 _atom_site_fract_x
 _atom_site_fract_y
 _atom_site_fract_z
 _atom_site_occupancy
  Y  Y0  1  0.936062  0.935942  0.563997  1
  Y  Y1  1  0.564049  0.563996  0.935978  1
  Ho  Ho2  1  0.688907  0.689012  0.311033  1
  Ho  Ho3  1  0.149981  0.549829  0.150084  1
  Ho  Ho4  1  0.688838  0.311034  0.689015  1
  Ho  Ho5  1  0.150148  0.150148  0.149918  1
  Ho  Ho6  1  0.549920  0.149936  0.150075  1
  Ho  Ho7  1  0.688837  0.311042  0.311113  1
  Ho  Ho8  1  0.150158  0.150122  0.549798  1
  Ho  Ho9  1  0.310961  0.688918  0.311165  1
  Ho  Ho10  1  0.310976  0.688900  0.688965  1
  Ho  Ho11  1  0.936759  0.563331  0.563299  1
  Ho  Ho12  1  0.936784  0.563305  0.936608  1
  Ho  Ho13  1  0.563352  0.936706  0.563272  1
  Ho  Ho14  1  0.563332  0.936717  0.936673  1
  Ho  Ho15  1  0.310949  0.311065  0.689003  1
  Cd  Cd16  1  0.918880  0.918913  0.243125  1
  Cd  Cd17  1  0.243164  0.919027  0.918900  1
  Cd  Cd18  1  0.918875  0.918921  0.919076  1
  Cd  Cd19  1  0.919014  0.243139  0.918923  1
  Rh  Rh20  1  0.357109  0.357099  0.928227  1
  Rh  Rh21  1  0.357541  0.928249  0.357100  1
  Rh  Rh22  1  0.928300  0.357530  0.357096  1
  Rh  Rh23  1  0.357103  0.357116  0.357553  1
