# generated using pymatgen
data_CeHo2Zn3Ir2Pd
_symmetry_space_group_name_H-M   'P 1'
_cell_length_a   7.39291700
_cell_length_b   7.20190773
_cell_length_c   3.85641000
_cell_angle_alpha   90.00000000
_cell_angle_beta   90.00000000
_cell_angle_gamma   120.88128514
_symmetry_Int_Tables_number   1
_chemical_formula_structural   CeHo2Zn3Ir2Pd
_chemical_formula_sum   'Ce1 Ho2 Zn3 Ir2 Pd1'
_cell_volume   176.21853695
_cell_formula_units_Z   1
loop_
 _symmetry_equiv_pos_site_id
 _symmetry_equiv_pos_as_xyz
  1  'x, y, z'
loop_
 _atom_site_type_symbol
 _atom_site_label
 _atom_site_symmetry_multiplicity
 _atom_site_fract_x
 _atom_site_fract_y
 _atom_site_fract_z
 _atom_site_occupancy
  Ce  Ce0  1  0.423974  0.000000  0.000000  1
  Ho  Ho1  1  0.997348  0.409129  0.000000  1
  Ho  Ho2  1  0.588220  0.590871  0.000000  1
  Zn  Zn3  1  0.994713  0.742547  0.500000  1
  Zn  Zn4  1  0.252165  0.257453  0.500000  1
  Zn  Zn5  1  0.757943  0.000000  0.500000  1
  Ir  Ir6  1  0.653222  0.321471  0.500000  1
  Ir  Ir7  1  0.331749  0.678529  0.500000  1
  Pd  Pd8  1  0.000667  0.000000  0.000000  1
