# generated using pymatgen
data_Ca2ErAl3Si2Pd
_symmetry_space_group_name_H-M   'P 1'
_cell_length_a   6.89450400
_cell_length_b   6.91435013
_cell_length_c   4.32376200
_cell_angle_alpha   90.00000000
_cell_angle_beta   90.00000000
_cell_angle_gamma   119.90509717
_symmetry_Int_Tables_number   1
_chemical_formula_structural   Ca2ErAl3Si2Pd
_chemical_formula_sum   'Ca2 Er1 Al3 Si2 Pd1'
_cell_volume   178.67398821
_cell_formula_units_Z   1
loop_
 _symmetry_equiv_pos_site_id
 _symmetry_equiv_pos_as_xyz
  1  'x, y, z'
loop_
 _atom_site_type_symbol
 _atom_site_label
 _atom_site_symmetry_multiplicity
 _atom_site_fract_x
 _atom_site_fract_y
 _atom_site_fract_z
 _atom_site_occupancy
  Ca  Ca0  1  0.999842  0.425040  0.000000  1
  Ca  Ca1  1  0.574801  0.574960  0.000000  1
  Er  Er2  1  0.422625  0.000000  0.000000  1
  Al  Al3  1  0.761920  0.000000  0.500000  1
  Al  Al4  1  0.237768  0.235372  0.500000  1
  Al  Al5  1  0.002395  0.764628  0.500000  1
  Si  Si6  1  0.661136  0.325935  0.500000  1
  Si  Si7  1  0.335201  0.674065  0.500000  1
  Pd  Pd8  1  0.004310  0.000000  0.000000  1
