# generated using pymatgen
data_Ac4LaIn11Ni6
_symmetry_space_group_name_H-M   'P 1'
_cell_length_a   10.67832071
_cell_length_b   10.62741872
_cell_length_c   4.54188300
_cell_angle_alpha   90.00000000
_cell_angle_beta   90.00000000
_cell_angle_gamma   89.43251932
_symmetry_Int_Tables_number   1
_chemical_formula_structural   Ac4LaIn11Ni6
_chemical_formula_sum   'Ac4 La1 In11 Ni6'
_cell_volume   515.40116168
_cell_formula_units_Z   1
loop_
 _symmetry_equiv_pos_site_id
 _symmetry_equiv_pos_as_xyz
  1  'x, y, z'
loop_
 _atom_site_type_symbol
 _atom_site_label
 _atom_site_symmetry_multiplicity
 _atom_site_fract_x
 _atom_site_fract_y
 _atom_site_fract_z
 _atom_site_occupancy
  Ac  Ac0  1  0.035717  0.314173  0.000000  1
  Ac  Ac1  1  0.966029  0.686999  0.000000  1
  Ac  Ac2  1  0.687180  0.965120  0.000000  1
  Ac  Ac3  1  0.498777  0.500040  0.500000  1
  La  La4  1  0.313093  0.035676  0.000000  1
  In  In5  1  0.162043  0.537156  0.500000  1
  In  In6  1  0.839589  0.463121  0.500000  1
  In  In7  1  0.461082  0.844757  0.500000  1
  In  In8  1  0.534100  0.156175  0.500000  1
  In  In9  1  0.691270  0.306709  0.000000  1
  In  In10  1  0.306649  0.696436  0.000000  1
  In  In11  1  0.165342  0.841013  0.500000  1
  In  In12  1  0.837436  0.162981  0.500000  1
  In  In13  1  0.275125  0.270553  0.500000  1
  In  In14  1  0.724091  0.725099  0.500000  1
  In  In15  1  0.003370  0.000454  0.000000  1
  Ni  Ni16  1  0.280302  0.444468  0.000000  1
  Ni  Ni17  1  0.720948  0.556079  0.000000  1
  Ni  Ni18  1  0.554167  0.722680  0.000000  1
  Ni  Ni19  1  0.441293  0.270729  0.000000  1
  Ni  Ni20  1  0.091251  0.089544  0.500000  1
  Ni  Ni21  1  0.911146  0.910036  0.500000  1
