# generated using pymatgen
data_Ca2TbNd(Ir2O7)2
_symmetry_space_group_name_H-M   'P 1'
_cell_length_a   7.30743892
_cell_length_b   7.35320348
_cell_length_c   7.30743900
_cell_angle_alpha   59.76304736
_cell_angle_beta   59.59770755
_cell_angle_gamma   59.76304648
_symmetry_Int_Tables_number   1
_chemical_formula_structural   Ca2TbNd(Ir2O7)2
_chemical_formula_sum   'Ca2 Tb1 Nd1 Ir4 O14'
_cell_volume   275.80292735
_cell_formula_units_Z   1
loop_
 _symmetry_equiv_pos_site_id
 _symmetry_equiv_pos_as_xyz
  1  'x, y, z'
loop_
 _atom_site_type_symbol
 _atom_site_label
 _atom_site_symmetry_multiplicity
 _atom_site_fract_x
 _atom_site_fract_y
 _atom_site_fract_z
 _atom_site_occupancy
  Ca  Ca0  1  0.625000  0.625000  0.125000  1
  Ca  Ca1  1  0.125000  0.625000  0.625000  1
  Tb  Tb2  1  0.625000  0.125000  0.625000  1
  Nd  Nd3  1  0.625000  0.625000  0.625000  1
  Ir  Ir4  1  0.625000  0.125000  0.125000  1
  Ir  Ir5  1  0.125000  0.625000  0.125000  1
  Ir  Ir6  1  0.125000  0.125000  0.625000  1
  Ir  Ir7  1  0.125000  0.125000  0.125000  1
  O  O8  1  0.209826  0.196748  0.796253  1
  O  O9  1  0.199110  0.801686  0.199110  1
  O  O10  1  0.453747  0.053252  0.040174  1
  O  O11  1  0.203548  0.797448  0.795399  1
  O  O12  1  0.046452  0.452552  0.454601  1
  O  O13  1  0.795399  0.797448  0.203548  1
  O  O14  1  0.454601  0.452552  0.046452  1
  O  O15  1  0.501617  0.491560  0.501617  1
  O  O16  1  0.040174  0.053252  0.453747  1
  O  O17  1  0.456974  0.048158  0.456974  1
  O  O18  1  0.050890  0.448314  0.050890  1
  O  O19  1  0.748383  0.758440  0.748383  1
  O  O20  1  0.793026  0.201842  0.793026  1
  O  O21  1  0.796253  0.196748  0.209826  1
