# generated using pymatgen
data_Ti2Mn7Nb2Al
_symmetry_space_group_name_H-M   'P 1'
_cell_length_a   4.80878500
_cell_length_b   4.80878477
_cell_length_c   7.94312800
_cell_angle_alpha   90.00000000
_cell_angle_beta   90.00000000
_cell_angle_gamma   119.99999467
_symmetry_Int_Tables_number   1
_chemical_formula_structural   Ti2Mn7Nb2Al
_chemical_formula_sum   'Ti2 Mn7 Nb2 Al1'
_cell_volume   159.07169776
_cell_formula_units_Z   1
loop_
 _symmetry_equiv_pos_site_id
 _symmetry_equiv_pos_as_xyz
  1  'x, y, z'
loop_
 _atom_site_type_symbol
 _atom_site_label
 _atom_site_symmetry_multiplicity
 _atom_site_fract_x
 _atom_site_fract_y
 _atom_site_fract_z
 _atom_site_occupancy
  Ti  Ti0  1  0.333333  0.666667  0.557992  1
  Ti  Ti1  1  0.666667  0.333333  0.442008  1
  Mn  Mn2  1  0.654753  0.827376  0.257932  1
  Mn  Mn3  1  0.172624  0.827376  0.257932  1
  Mn  Mn4  1  0.172624  0.345247  0.257932  1
  Mn  Mn5  1  0.345247  0.172624  0.742068  1
  Mn  Mn6  1  0.827376  0.172624  0.742068  1
  Mn  Mn7  1  0.827376  0.654753  0.742068  1
  Mn  Mn8  1  0.000000  0.000000  0.500000  1
  Nb  Nb9  1  0.666667  0.333333  0.073729  1
  Nb  Nb10  1  0.333333  0.666667  0.926271  1
  Al  Al11  1  0.000000  0.000000  0.000000  1
