# generated using pymatgen
data_PrHg3(Pd2O7)2
_symmetry_space_group_name_H-M   'P 1'
_cell_length_a   7.35511133
_cell_length_b   7.30673223
_cell_length_c   7.30673200
_cell_angle_alpha   60.00000103
_cell_angle_beta   60.21734934
_cell_angle_gamma   60.21735100
_symmetry_Int_Tables_number   1
_chemical_formula_structural   PrHg3(Pd2O7)2
_chemical_formula_sum   'Pr1 Hg3 Pd4 O14'
_cell_volume   278.57337529
_cell_formula_units_Z   1
loop_
 _symmetry_equiv_pos_site_id
 _symmetry_equiv_pos_as_xyz
  1  'x, y, z'
loop_
 _atom_site_type_symbol
 _atom_site_label
 _atom_site_symmetry_multiplicity
 _atom_site_fract_x
 _atom_site_fract_y
 _atom_site_fract_z
 _atom_site_occupancy
  Pr  Pr0  1  0.625000  0.125000  0.125000  1
  Hg  Hg1  1  0.125000  0.125000  0.625000  1
  Hg  Hg2  1  0.125000  0.125000  0.125000  1
  Hg  Hg3  1  0.125000  0.625000  0.125000  1
  Pd  Pd4  1  0.625000  0.625000  0.625000  1
  Pd  Pd5  1  0.125000  0.625000  0.625000  1
  Pd  Pd6  1  0.625000  0.125000  0.625000  1
  Pd  Pd7  1  0.625000  0.625000  0.125000  1
  O  O8  1  0.953684  0.545432  0.545432  1
  O  O9  1  0.296316  0.294548  0.704568  1
  O  O10  1  0.953684  0.545432  0.955452  1
  O  O11  1  0.701451  0.293418  0.293418  1
  O  O12  1  0.548549  0.538286  0.956582  1
  O  O13  1  0.548549  0.956582  0.538286  1
  O  O14  1  0.548549  0.956582  0.956582  1
  O  O15  1  0.218983  0.260339  0.260339  1
  O  O16  1  0.296316  0.704568  0.704568  1
  O  O17  1  0.701451  0.293418  0.711714  1
  O  O18  1  0.031017  0.989661  0.989661  1
  O  O19  1  0.953684  0.955452  0.545432  1
  O  O20  1  0.296316  0.704568  0.294548  1
  O  O21  1  0.701451  0.711714  0.293418  1
