# generated using pymatgen
data_HoCu2NiPtAu
_symmetry_space_group_name_H-M   'P 1'
_cell_length_a   5.02501496
_cell_length_b   5.02501293
_cell_length_c   5.18855170
_cell_angle_alpha   60.29787569
_cell_angle_beta   60.29788774
_cell_angle_gamma   59.65750737
_symmetry_Int_Tables_number   1
_chemical_formula_structural   HoCu2NiPtAu
_chemical_formula_sum   'Ho1 Cu2 Ni1 Pt1 Au1'
_cell_volume   92.81107738
_cell_formula_units_Z   1
loop_
 _symmetry_equiv_pos_site_id
 _symmetry_equiv_pos_as_xyz
  1  'x, y, z'
loop_
 _atom_site_type_symbol
 _atom_site_label
 _atom_site_symmetry_multiplicity
 _atom_site_fract_x
 _atom_site_fract_y
 _atom_site_fract_z
 _atom_site_occupancy
  Ho  Ho0  1  0.997646  0.997646  0.001801  1
  Cu  Cu1  1  0.627123  0.128970  0.618052  1
  Cu  Cu2  1  0.128970  0.627123  0.618052  1
  Ni  Ni3  1  0.626807  0.626807  0.617917  1
  Pt  Pt4  1  0.627769  0.627769  0.118368  1
  Au  Au5  1  0.241687  0.241687  0.275809  1
