# generated using pymatgen
data_AcCo2(Sn3Ru)2
_symmetry_space_group_name_H-M   'P 1'
_cell_length_a   6.94824662
_cell_length_b   6.94824610
_cell_length_c   6.83079653
_cell_angle_alpha   119.40332345
_cell_angle_beta   119.40332141
_cell_angle_gamma   91.98794430
_symmetry_Int_Tables_number   1
_chemical_formula_structural   AcCo2(Sn3Ru)2
_chemical_formula_sum   'Ac1 Co2 Sn6 Ru2'
_cell_volume   233.18871682
_cell_formula_units_Z   1
loop_
 _symmetry_equiv_pos_site_id
 _symmetry_equiv_pos_as_xyz
  1  'x, y, z'
loop_
 _atom_site_type_symbol
 _atom_site_label
 _atom_site_symmetry_multiplicity
 _atom_site_fract_x
 _atom_site_fract_y
 _atom_site_fract_z
 _atom_site_occupancy
  Ac  Ac0  1  0.011879  0.011879  0.000000  1
  Co  Co1  1  0.397333  0.753825  0.000000  1
  Co  Co2  1  0.753825  0.397333  0.000000  1
  Sn  Sn3  1  0.484228  0.109608  0.000000  1
  Sn  Sn4  1  0.109608  0.484228  0.000000  1
  Sn  Sn5  1  0.870258  0.870258  0.338311  1
  Sn  Sn6  1  0.531947  0.531947  0.661689  1
  Sn  Sn7  1  0.000332  0.500332  0.500000  1
  Sn  Sn8  1  0.500332  0.000332  0.500000  1
  Ru  Ru9  1  0.258453  0.258453  0.676650  1
  Ru  Ru10  1  0.581803  0.581803  0.323350  1
