# generated using pymatgen
data_Ir3Rh(Pb2O7)2
_symmetry_space_group_name_H-M   'P 1'
_cell_length_a   7.34657065
_cell_length_b   7.34657003
_cell_length_c   7.34970834
_cell_angle_alpha   60.01412433
_cell_angle_beta   60.01412915
_cell_angle_gamma   59.99999396
_symmetry_Int_Tables_number   1
_chemical_formula_structural   Ir3Rh(Pb2O7)2
_chemical_formula_sum   'Ir3 Rh1 Pb4 O14'
_cell_volume   280.55439047
_cell_formula_units_Z   1
loop_
 _symmetry_equiv_pos_site_id
 _symmetry_equiv_pos_as_xyz
  1  'x, y, z'
loop_
 _atom_site_type_symbol
 _atom_site_label
 _atom_site_symmetry_multiplicity
 _atom_site_fract_x
 _atom_site_fract_y
 _atom_site_fract_z
 _atom_site_occupancy
  Ir  Ir0  1  0.125000  0.625000  0.625000  1
  Ir  Ir1  1  0.625000  0.125000  0.625000  1
  Ir  Ir2  1  0.625000  0.625000  0.625000  1
  Rh  Rh3  1  0.625000  0.625000  0.125000  1
  Pb  Pb4  1  0.625000  0.125000  0.125000  1
  Pb  Pb5  1  0.125000  0.625000  0.125000  1
  Pb  Pb6  1  0.125000  0.125000  0.625000  1
  Pb  Pb7  1  0.125000  0.125000  0.125000  1
  O  O8  1  0.704415  0.704415  0.298762  1
  O  O9  1  0.296738  0.296738  0.702345  1
  O  O10  1  0.704178  0.296738  0.702345  1
  O  O11  1  0.292408  0.704415  0.298762  1
  O  O12  1  0.296738  0.704178  0.702345  1
  O  O13  1  0.704415  0.292408  0.298762  1
  O  O14  1  0.545585  0.545585  0.951238  1
  O  O15  1  0.953262  0.953262  0.547655  1
  O  O16  1  0.545822  0.953262  0.547655  1
  O  O17  1  0.957592  0.545585  0.951238  1
  O  O18  1  0.953262  0.545822  0.547655  1
  O  O19  1  0.545585  0.957592  0.951238  1
  O  O20  1  0.249900  0.249900  0.250300  1
  O  O21  1  0.000100  0.000100  0.999700  1
