# generated using pymatgen
data_SrZr3(Al3Ir)6
_symmetry_space_group_name_H-M   'P 1'
_cell_length_a   7.51684484
_cell_length_b   7.50589487
_cell_length_c   9.39935700
_cell_angle_alpha   90.00000000
_cell_angle_beta   90.00000000
_cell_angle_gamma   119.65592045
_symmetry_Int_Tables_number   1
_chemical_formula_structural   SrZr3(Al3Ir)6
_chemical_formula_sum   'Sr1 Zr3 Al18 Ir6'
_cell_volume   460.85276363
_cell_formula_units_Z   1
loop_
 _symmetry_equiv_pos_site_id
 _symmetry_equiv_pos_as_xyz
  1  'x, y, z'
loop_
 _atom_site_type_symbol
 _atom_site_label
 _atom_site_symmetry_multiplicity
 _atom_site_fract_x
 _atom_site_fract_y
 _atom_site_fract_z
 _atom_site_occupancy
  Sr  Sr0  1  0.329173  0.006133  0.750000  1
  Zr  Zr1  1  0.994233  0.672013  0.250000  1
  Zr  Zr2  1  0.005897  0.329774  0.750000  1
  Zr  Zr3  1  0.671780  0.994480  0.250000  1
  Al  Al4  1  0.122154  0.123969  0.250000  1
  Al  Al5  1  0.868218  0.875871  0.750000  1
  Al  Al6  1  0.997688  0.334663  0.078074  1
  Al  Al7  1  0.998110  0.661665  0.929402  1
  Al  Al8  1  0.998110  0.661665  0.570598  1
  Al  Al9  1  0.335394  0.998565  0.417904  1
  Al  Al10  1  0.997688  0.334663  0.421926  1
  Al  Al11  1  0.668919  0.001606  0.570765  1
  Al  Al12  1  0.668919  0.001606  0.929235  1
  Al  Al13  1  0.335394  0.998565  0.082096  1
  Al  Al14  1  0.331487  0.334410  0.550665  1
  Al  Al15  1  0.668503  0.668116  0.439280  1
  Al  Al16  1  0.668503  0.668116  0.060720  1
  Al  Al17  1  0.331487  0.334410  0.949335  1
  Al  Al18  1  0.337932  0.553525  0.250000  1
  Al  Al19  1  0.671505  0.456097  0.750000  1
  Al  Al20  1  0.554639  0.340059  0.250000  1
  Al  Al21  1  0.445297  0.650768  0.750000  1
  Ir  Ir22  1  0.673696  0.329576  0.002831  1
  Ir  Ir23  1  0.328510  0.671851  0.003375  1
  Ir  Ir24  1  0.328510  0.671851  0.496625  1
  Ir  Ir25  1  0.673696  0.329576  0.497169  1
  Ir  Ir26  1  0.997281  0.998203  0.003116  1
  Ir  Ir27  1  0.997281  0.998203  0.496884  1
