# generated using pymatgen
data_Ho20CuBi8Os3
_symmetry_space_group_name_H-M   'P 1'
_cell_length_a   7.96769684
_cell_length_b   9.02206200
_cell_length_c   12.41136340
_cell_angle_alpha   90.00000000
_cell_angle_beta   89.67282703
_cell_angle_gamma   90.00000000
_symmetry_Int_Tables_number   1
_chemical_formula_structural   Ho20CuBi8Os3
_chemical_formula_sum   'Ho20 Cu1 Bi8 Os3'
_cell_volume   892.17699357
_cell_formula_units_Z   1
loop_
 _symmetry_equiv_pos_site_id
 _symmetry_equiv_pos_as_xyz
  1  'x, y, z'
loop_
 _atom_site_type_symbol
 _atom_site_label
 _atom_site_symmetry_multiplicity
 _atom_site_fract_x
 _atom_site_fract_y
 _atom_site_fract_z
 _atom_site_occupancy
  Ho  Ho0  1  0.333702  0.750000  0.714702  1
  Ho  Ho1  1  0.660802  0.250000  0.291065  1
  Ho  Ho2  1  0.842146  0.250000  0.791563  1
  Ho  Ho3  1  0.156314  0.750000  0.205529  1
  Ho  Ho4  1  0.877204  0.750000  0.803322  1
  Ho  Ho5  1  0.119772  0.250000  0.193811  1
  Ho  Ho6  1  0.378923  0.250000  0.692221  1
  Ho  Ho7  1  0.626822  0.750000  0.304339  1
  Ho  Ho8  1  0.677357  0.536653  0.566362  1
  Ho  Ho9  1  0.324088  0.450105  0.435765  1
  Ho  Ho10  1  0.174110  0.458746  0.936392  1
  Ho  Ho11  1  0.324088  0.049895  0.435765  1
  Ho  Ho12  1  0.825456  0.544144  0.063395  1
  Ho  Ho13  1  0.677357  0.963347  0.566362  1
  Ho  Ho14  1  0.825456  0.955856  0.063395  1
  Ho  Ho15  1  0.174110  0.041254  0.936392  1
  Ho  Ho16  1  0.045055  0.750000  0.498962  1
  Ho  Ho17  1  0.946893  0.250000  0.501681  1
  Ho  Ho18  1  0.559658  0.250000  0.003831  1
  Ho  Ho19  1  0.443603  0.750000  0.997726  1
  Cu  Cu20  1  0.424105  0.750000  0.488903  1
  Bi  Bi21  1  0.568328  0.508583  0.827575  1
  Bi  Bi22  1  0.431111  0.491762  0.174173  1
  Bi  Bi23  1  0.072656  0.490685  0.670640  1
  Bi  Bi24  1  0.431111  0.008238  0.174173  1
  Bi  Bi25  1  0.930530  0.509545  0.328523  1
  Bi  Bi26  1  0.568328  0.991417  0.827575  1
  Bi  Bi27  1  0.930530  0.990455  0.328523  1
  Bi  Bi28  1  0.072656  0.009315  0.670640  1
  Os  Os29  1  0.077442  0.750000  0.986427  1
  Os  Os30  1  0.923805  0.250000  0.010504  1
  Os  Os31  1  0.576484  0.250000  0.509763  1
