# generated using pymatgen
data_Sr6NdSc(BO3)6
_symmetry_space_group_name_H-M   'P 1'
_cell_length_a   7.86214102
_cell_length_b   7.86214159
_cell_length_c   7.86214161
_cell_angle_alpha   105.21082048
_cell_angle_beta   105.21081531
_cell_angle_gamma   105.21080808
_symmetry_Int_Tables_number   1
_chemical_formula_structural   Sr6NdSc(BO3)6
_chemical_formula_sum   'Sr6 Nd1 Sc1 B6 O18'
_cell_volume   422.93545672
_cell_formula_units_Z   1
loop_
 _symmetry_equiv_pos_site_id
 _symmetry_equiv_pos_as_xyz
  1  'x, y, z'
loop_
 _atom_site_type_symbol
 _atom_site_label
 _atom_site_symmetry_multiplicity
 _atom_site_fract_x
 _atom_site_fract_y
 _atom_site_fract_z
 _atom_site_occupancy
  Sr  Sr0  1  0.646073  0.266706  0.157816  1
  Sr  Sr1  1  0.157816  0.646073  0.266705  1
  Sr  Sr2  1  0.733294  0.842184  0.353927  1
  Sr  Sr3  1  0.266706  0.157816  0.646073  1
  Sr  Sr4  1  0.842184  0.353927  0.733294  1
  Sr  Sr5  1  0.353927  0.733294  0.842184  1
  Nd  Nd6  1  0.000000  0.000000  0.000000  1
  Sc  Sc7  1  0.500000  0.500000  0.500000  1
  B  B8  1  0.298160  0.383099  0.042977  1
  B  B9  1  0.383099  0.042978  0.298160  1
  B  B10  1  0.042978  0.298160  0.383099  1
  B  B11  1  0.957022  0.701840  0.616901  1
  B  B12  1  0.616901  0.957022  0.701840  1
  B  B13  1  0.701840  0.616901  0.957022  1
  O  O14  1  0.720118  0.806796  0.019638  1
  O  O15  1  0.807519  0.545548  0.067617  1
  O  O16  1  0.980362  0.279882  0.193204  1
  O  O17  1  0.454451  0.932382  0.192481  1
  O  O18  1  0.431121  0.499414  0.221543  1
  O  O19  1  0.193204  0.980362  0.279882  1
  O  O20  1  0.499414  0.221543  0.431120  1
  O  O21  1  0.932382  0.192482  0.454451  1
  O  O22  1  0.221543  0.431121  0.499414  1
  O  O23  1  0.778457  0.568879  0.500586  1
  O  O24  1  0.067618  0.807518  0.545549  1
  O  O25  1  0.500586  0.778457  0.568880  1
  O  O26  1  0.806796  0.019638  0.720118  1
  O  O27  1  0.568879  0.500586  0.778457  1
  O  O28  1  0.545549  0.067618  0.807519  1
  O  O29  1  0.019638  0.720118  0.806796  1
  O  O30  1  0.192481  0.454452  0.932383  1
  O  O31  1  0.279882  0.193204  0.980362  1
