# generated using pymatgen
data_LiEr4Al17Pt6
_symmetry_space_group_name_H-M   'P 1'
_cell_length_a   7.58242690
_cell_length_b   7.58241685
_cell_length_c   9.42392900
_cell_angle_alpha   90.00000000
_cell_angle_beta   90.00000000
_cell_angle_gamma   119.48390017
_symmetry_Int_Tables_number   1
_chemical_formula_structural   LiEr4Al17Pt6
_chemical_formula_sum   'Li1 Er4 Al17 Pt6'
_cell_volume   471.64332353
_cell_formula_units_Z   1
loop_
 _symmetry_equiv_pos_site_id
 _symmetry_equiv_pos_as_xyz
  1  'x, y, z'
loop_
 _atom_site_type_symbol
 _atom_site_label
 _atom_site_symmetry_multiplicity
 _atom_site_fract_x
 _atom_site_fract_y
 _atom_site_fract_z
 _atom_site_occupancy
  Li  Li0  1  0.128243  0.128251  0.250000  1
  Er  Er1  1  0.995737  0.666808  0.250000  1
  Er  Er2  1  0.007711  0.329186  0.750000  1
  Er  Er3  1  0.666814  0.995737  0.250000  1
  Er  Er4  1  0.329184  0.007706  0.750000  1
  Al  Al5  1  0.867018  0.867018  0.750000  1
  Al  Al6  1  0.000910  0.327789  0.081748  1
  Al  Al7  1  0.001314  0.665024  0.922238  1
  Al  Al8  1  0.001314  0.665024  0.577762  1
  Al  Al9  1  0.327788  0.000910  0.418252  1
  Al  Al10  1  0.000910  0.327789  0.418252  1
  Al  Al11  1  0.665022  0.001314  0.577762  1
  Al  Al12  1  0.665022  0.001314  0.922238  1
  Al  Al13  1  0.327788  0.000910  0.081748  1
  Al  Al14  1  0.334047  0.334046  0.549815  1
  Al  Al15  1  0.671921  0.671922  0.438400  1
  Al  Al16  1  0.671921  0.671922  0.061600  1
  Al  Al17  1  0.334047  0.334046  0.950185  1
  Al  Al18  1  0.340236  0.541703  0.250000  1
  Al  Al19  1  0.658650  0.450939  0.750000  1
  Al  Al20  1  0.541702  0.340236  0.250000  1
  Al  Al21  1  0.450941  0.658653  0.750000  1
  Pt  Pt22  1  0.675691  0.329732  0.000876  1
  Pt  Pt23  1  0.329735  0.675694  0.000878  1
  Pt  Pt24  1  0.329735  0.675694  0.499122  1
  Pt  Pt25  1  0.675691  0.329732  0.499124  1
  Pt  Pt26  1  0.000455  0.000453  0.993849  1
  Pt  Pt27  1  0.000455  0.000453  0.506151  1
