# generated using pymatgen
data_Tm5LuAl14(Si5Os4)2
_symmetry_space_group_name_H-M   'P 1'
_cell_length_a   8.68656403
_cell_length_b   8.68355109
_cell_length_c   9.27490400
_cell_angle_alpha   90.00000000
_cell_angle_beta   90.00000000
_cell_angle_gamma   120.13337182
_symmetry_Int_Tables_number   1
_chemical_formula_structural   Tm5LuAl14(Si5Os4)2
_chemical_formula_sum   'Tm5 Lu1 Al14 Si10 Os8'
_cell_volume   605.06245698
_cell_formula_units_Z   1
loop_
 _symmetry_equiv_pos_site_id
 _symmetry_equiv_pos_as_xyz
  1  'x, y, z'
loop_
 _atom_site_type_symbol
 _atom_site_label
 _atom_site_symmetry_multiplicity
 _atom_site_fract_x
 _atom_site_fract_y
 _atom_site_fract_z
 _atom_site_occupancy
  Tm  Tm0  1  0.808138  0.612621  0.750000  1
  Tm  Tm1  1  0.613500  0.808349  0.250000  1
  Tm  Tm2  1  0.387358  0.191929  0.750000  1
  Tm  Tm3  1  0.195207  0.805017  0.250000  1
  Tm  Tm4  1  0.805255  0.194945  0.750000  1
  Lu  Lu5  1  0.191073  0.384792  0.250000  1
  Al  Al6  1  0.165231  0.328909  0.579599  1
  Al  Al7  1  0.835362  0.669593  0.419258  1
  Al  Al8  1  0.671896  0.835242  0.579898  1
  Al  Al9  1  0.835362  0.669593  0.080742  1
  Al  Al10  1  0.331130  0.165036  0.419585  1
  Al  Al11  1  0.165231  0.328909  0.920401  1
  Al  Al12  1  0.163737  0.836428  0.580122  1
  Al  Al13  1  0.331130  0.165036  0.080415  1
  Al  Al14  1  0.833815  0.166336  0.420915  1
  Al  Al15  1  0.671896  0.835242  0.920102  1
  Al  Al16  1  0.833815  0.166336  0.079085  1
  Al  Al17  1  0.163737  0.836428  0.919878  1
  Al  Al18  1  0.435843  0.564405  0.750000  1
  Al  Al19  1  0.999449  0.000568  0.750000  1
  Si  Si20  1  0.334215  0.664533  0.043084  1
  Si  Si21  1  0.665759  0.334105  0.956557  1
  Si  Si22  1  0.665759  0.334105  0.543443  1
  Si  Si23  1  0.334215  0.664533  0.456916  1
  Si  Si24  1  0.561131  0.123757  0.250000  1
  Si  Si25  1  0.435930  0.875041  0.750000  1
  Si  Si26  1  0.876319  0.438427  0.250000  1
  Si  Si27  1  0.124727  0.563942  0.750000  1
  Si  Si28  1  0.562178  0.437148  0.250000  1
  Si  Si29  1  0.000638  0.994271  0.250000  1
  Os  Os30  1  0.499687  0.000235  0.000390  1
  Os  Os31  1  0.999490  0.500519  0.000692  1
  Os  Os32  1  0.499687  0.000235  0.499610  1
  Os  Os33  1  0.501037  0.499390  0.006805  1
  Os  Os34  1  0.999490  0.500519  0.499308  1
  Os  Os35  1  0.501037  0.499390  0.493195  1
  Os  Os36  1  0.000269  0.002068  0.007466  1
  Os  Os37  1  0.000269  0.002068  0.492534  1
