# generated using pymatgen
data_Tb2YbDyRu8
_symmetry_space_group_name_H-M   'P 1'
_cell_length_a   5.24531508
_cell_length_b   5.24531422
_cell_length_c   8.99642400
_cell_angle_alpha   90.00526671
_cell_angle_beta   89.99472993
_cell_angle_gamma   120.01408763
_symmetry_Int_Tables_number   1
_chemical_formula_structural   Tb2YbDyRu8
_chemical_formula_sum   'Tb2 Yb1 Dy1 Ru8'
_cell_volume   214.32950825
_cell_formula_units_Z   1
loop_
 _symmetry_equiv_pos_site_id
 _symmetry_equiv_pos_as_xyz
  1  'x, y, z'
loop_
 _atom_site_type_symbol
 _atom_site_label
 _atom_site_symmetry_multiplicity
 _atom_site_fract_x
 _atom_site_fract_y
 _atom_site_fract_z
 _atom_site_occupancy
  Tb  Tb0  1  0.333366  0.666634  0.432401  1
  Tb  Tb1  1  0.333379  0.666621  0.062426  1
  Yb  Yb2  1  0.666675  0.333325  0.935459  1
  Dy  Dy3  1  0.666654  0.333346  0.572334  1
  Ru  Ru4  1  0.000058  0.999942  0.498701  1
  Ru  Ru5  1  0.000092  0.999908  0.999199  1
  Ru  Ru6  1  0.170503  0.341180  0.749693  1
  Ru  Ru7  1  0.170549  0.829451  0.749704  1
  Ru  Ru8  1  0.658820  0.829497  0.749693  1
  Ru  Ru9  1  0.828666  0.657356  0.250121  1
  Ru  Ru10  1  0.828592  0.171408  0.250147  1
  Ru  Ru11  1  0.342644  0.171334  0.250121  1
