# generated using pymatgen
data_Rb12AlInAs6
_symmetry_space_group_name_H-M   'P 1'
_cell_length_a   6.12662400
_cell_length_b   10.42991789
_cell_length_c   11.97760440
_cell_angle_alpha   78.84967549
_cell_angle_beta   90.00000000
_cell_angle_gamma   90.00000000
_symmetry_Int_Tables_number   1
_chemical_formula_structural   Rb12AlInAs6
_chemical_formula_sum   'Rb12 Al1 In1 As6'
_cell_volume   750.92337294
_cell_formula_units_Z   1
loop_
 _symmetry_equiv_pos_site_id
 _symmetry_equiv_pos_as_xyz
  1  'x, y, z'
loop_
 _atom_site_type_symbol
 _atom_site_label
 _atom_site_symmetry_multiplicity
 _atom_site_fract_x
 _atom_site_fract_y
 _atom_site_fract_z
 _atom_site_occupancy
  Rb  Rb0  1  0.750000  0.121821  0.320587  1
  Rb  Rb1  1  0.250000  0.885443  0.677649  1
  Rb  Rb2  1  0.750000  0.134467  0.983279  1
  Rb  Rb3  1  0.250000  0.862248  0.025141  1
  Rb  Rb4  1  0.750000  0.433930  0.466554  1
  Rb  Rb5  1  0.250000  0.567263  0.526588  1
  Rb  Rb6  1  0.750000  0.456895  0.077680  1
  Rb  Rb7  1  0.250000  0.529074  0.929658  1
  Rb  Rb8  1  0.750000  0.729936  0.226244  1
  Rb  Rb9  1  0.250000  0.262387  0.769514  1
  Rb  Rb10  1  0.750000  0.085645  0.629748  1
  Rb  Rb11  1  0.250000  0.922780  0.366831  1
  Al  Al12  1  0.250000  0.322974  0.279635  1
  In  In13  1  0.750000  0.676385  0.722563  1
  As  As14  1  0.750000  0.421144  0.777298  1
  As  As15  1  0.250000  0.561258  0.225705  1
  As  As16  1  0.750000  0.791494  0.504641  1
  As  As17  1  0.250000  0.217425  0.482449  1
  As  As18  1  0.750000  0.829521  0.879648  1
  As  As19  1  0.250000  0.187910  0.128590  1
