# generated using pymatgen
data_ZrTi(SiTc)2
_symmetry_space_group_name_H-M   'P 1'
_cell_length_a   3.34578500
_cell_length_b   6.89523731
_cell_length_c   11.96491634
_cell_angle_alpha   90.00116003
_cell_angle_beta   90.00000000
_cell_angle_gamma   90.00000000
_symmetry_Int_Tables_number   1
_chemical_formula_structural   ZrTi(SiTc)2
_chemical_formula_sum   'Zr3 Ti3 Si6 Tc6'
_cell_volume   276.03039927
_cell_formula_units_Z   3
loop_
 _symmetry_equiv_pos_site_id
 _symmetry_equiv_pos_as_xyz
  1  'x, y, z'
loop_
 _atom_site_type_symbol
 _atom_site_label
 _atom_site_symmetry_multiplicity
 _atom_site_fract_x
 _atom_site_fract_y
 _atom_site_fract_z
 _atom_site_occupancy
  Zr  Zr0  1  0.500000  0.299404  0.297563  1
  Zr  Zr1  1  0.500000  0.296053  0.703296  1
  Zr  Zr2  1  0.500000  0.799875  0.201401  1
  Ti  Ti3  1  0.500000  0.402546  0.997560  1
  Ti  Ti4  1  0.500000  0.903391  0.502512  1
  Ti  Ti5  1  0.500000  0.797546  0.798176  1
  Si  Si6  1  0.500000  0.001736  0.996307  1
  Si  Si7  1  0.500000  0.504072  0.501745  1
  Si  Si8  1  0.000000  0.989791  0.666823  1
  Si  Si9  1  0.000000  0.497367  0.158239  1
  Si  Si10  1  0.000000  0.506690  0.836914  1
  Si  Si11  1  0.000000  0.996620  0.340951  1
  Tc  Tc12  1  0.000000  0.240685  0.502053  1
  Tc  Tc13  1  0.000000  0.742297  0.995908  1
  Tc  Tc14  1  0.000000  0.632284  0.630421  1
  Tc  Tc15  1  0.000000  0.130622  0.124413  1
  Tc  Tc16  1  0.000000  0.128418  0.871056  1
  Tc  Tc17  1  0.000000  0.630799  0.374662  1
