# generated using pymatgen
data_K(Nb3Te4)4
_symmetry_space_group_name_H-M   'P 1'
_cell_length_a   7.32034412
_cell_length_b   10.89724688
_cell_length_c   11.49474014
_cell_angle_alpha   118.23536638
_cell_angle_beta   108.55107393
_cell_angle_gamma   90.01026396
_symmetry_Int_Tables_number   1
_chemical_formula_structural   K(Nb3Te4)4
_chemical_formula_sum   'K1 Nb12 Te16'
_cell_volume   753.30313741
_cell_formula_units_Z   1
loop_
 _symmetry_equiv_pos_site_id
 _symmetry_equiv_pos_as_xyz
  1  'x, y, z'
loop_
 _atom_site_type_symbol
 _atom_site_label
 _atom_site_symmetry_multiplicity
 _atom_site_fract_x
 _atom_site_fract_y
 _atom_site_fract_z
 _atom_site_occupancy
  K  K0  1  0.500000  0.000000  0.000000  1
  Nb  Nb1  1  0.124562  0.101066  0.487849  1
  Nb  Nb2  1  0.615054  0.100310  0.489442  1
  Nb  Nb3  1  0.323610  0.387721  0.900138  1
  Nb  Nb4  1  0.826589  0.389156  0.899050  1
  Nb  Nb5  1  0.176010  0.510806  0.610403  1
  Nb  Nb6  1  0.686509  0.512179  0.613023  1
  Nb  Nb7  1  0.384946  0.899690  0.510558  1
  Nb  Nb8  1  0.875438  0.898934  0.512151  1
  Nb  Nb9  1  0.173411  0.610844  0.100950  1
  Nb  Nb10  1  0.676390  0.612279  0.099862  1
  Nb  Nb11  1  0.313491  0.487821  0.386977  1
  Nb  Nb12  1  0.823990  0.489194  0.389597  1
  Te  Te13  1  0.738871  0.067632  0.728631  1
  Te  Te14  1  0.235495  0.066121  0.723463  1
  Te  Te15  1  0.842988  0.661343  0.933682  1
  Te  Te16  1  0.339198  0.657724  0.933154  1
  Te  Te17  1  0.544492  0.276313  0.342418  1
  Te  Te18  1  0.044597  0.271498  0.338752  1
  Te  Te19  1  0.764505  0.933879  0.276537  1
  Te  Te20  1  0.261129  0.932368  0.271369  1
  Te  Te21  1  0.660802  0.342276  0.066846  1
  Te  Te22  1  0.157012  0.338657  0.066318  1
  Te  Te23  1  0.955403  0.728502  0.661248  1
  Te  Te24  1  0.455508  0.723687  0.657582  1
  Te  Te25  1  0.958407  0.331845  0.665649  1
  Te  Te26  1  0.458870  0.335120  0.667689  1
  Te  Te27  1  0.541130  0.664880  0.332311  1
  Te  Te28  1  0.041593  0.668155  0.334351  1
