# generated using pymatgen
data_Tm4Mg3ZnIr4
_symmetry_space_group_name_H-M   'P 1'
_cell_length_a   4.04026000
_cell_length_b   6.98142184
_cell_length_c   8.40046207
_cell_angle_alpha   89.86407093
_cell_angle_beta   90.00000000
_cell_angle_gamma   90.00000000
_symmetry_Int_Tables_number   1
_chemical_formula_structural   Tm4Mg3ZnIr4
_chemical_formula_sum   'Tm4 Mg3 Zn1 Ir4'
_cell_volume   236.94914560
_cell_formula_units_Z   1
loop_
 _symmetry_equiv_pos_site_id
 _symmetry_equiv_pos_as_xyz
  1  'x, y, z'
loop_
 _atom_site_type_symbol
 _atom_site_label
 _atom_site_symmetry_multiplicity
 _atom_site_fract_x
 _atom_site_fract_y
 _atom_site_fract_z
 _atom_site_occupancy
  Tm  Tm0  1  0.250000  0.536213  0.179705  1
  Tm  Tm1  1  0.750000  0.457921  0.823112  1
  Tm  Tm2  1  0.250000  0.047347  0.329592  1
  Tm  Tm3  1  0.750000  0.962271  0.673068  1
  Mg  Mg4  1  0.250000  0.135307  0.938790  1
  Mg  Mg5  1  0.750000  0.864198  0.060532  1
  Mg  Mg6  1  0.250000  0.631180  0.556782  1
  Zn  Zn7  1  0.750000  0.366158  0.437980  1
  Ir  Ir8  1  0.750000  0.748453  0.371396  1
  Ir  Ir9  1  0.250000  0.253605  0.626726  1
  Ir  Ir10  1  0.750000  0.249288  0.133247  1
  Ir  Ir11  1  0.250000  0.748058  0.869071  1
