# generated using pymatgen
data_Sr6Ca2IrRuO12
_symmetry_space_group_name_H-M   'P 1'
_cell_length_a   6.87059438
_cell_length_b   6.87059450
_cell_length_c   6.87059500
_cell_angle_alpha   91.48528288
_cell_angle_beta   91.48527456
_cell_angle_gamma   91.48527933
_symmetry_Int_Tables_number   1
_chemical_formula_structural   Sr6Ca2IrRuO12
_chemical_formula_sum   'Sr6 Ca2 Ir1 Ru1 O12'
_cell_volume   323.99423619
_cell_formula_units_Z   1
loop_
 _symmetry_equiv_pos_site_id
 _symmetry_equiv_pos_as_xyz
  1  'x, y, z'
loop_
 _atom_site_type_symbol
 _atom_site_label
 _atom_site_symmetry_multiplicity
 _atom_site_fract_x
 _atom_site_fract_y
 _atom_site_fract_z
 _atom_site_occupancy
  Sr  Sr0  1  0.754477  0.384537  0.111845  1
  Sr  Sr1  1  0.111845  0.754477  0.384537  1
  Sr  Sr2  1  0.384537  0.111845  0.754477  1
  Sr  Sr3  1  0.245523  0.615463  0.888155  1
  Sr  Sr4  1  0.888155  0.245523  0.615463  1
  Sr  Sr5  1  0.615463  0.888155  0.245523  1
  Ca  Ca6  1  0.248190  0.248190  0.248190  1
  Ca  Ca7  1  0.751810  0.751810  0.751810  1
  Ir  Ir8  1  0.000000  0.000000  0.000000  1
  Ru  Ru9  1  0.500000  0.500000  0.500000  1
  O  O10  1  0.451358  0.781926  0.577783  1
  O  O11  1  0.577783  0.451358  0.781926  1
  O  O12  1  0.781926  0.577783  0.451358  1
  O  O13  1  0.051573  0.913875  0.712278  1
  O  O14  1  0.712278  0.051573  0.913875  1
  O  O15  1  0.913875  0.712278  0.051573  1
  O  O16  1  0.548642  0.218074  0.422217  1
  O  O17  1  0.422217  0.548642  0.218074  1
  O  O18  1  0.218074  0.422217  0.548642  1
  O  O19  1  0.948427  0.086125  0.287722  1
  O  O20  1  0.086125  0.287722  0.948427  1
  O  O21  1  0.287722  0.948427  0.086125  1
