# generated using pymatgen
data_Zr5ZnSn2Bi
_symmetry_space_group_name_H-M   'P 1'
_cell_length_a   8.76282572
_cell_length_b   8.75666582
_cell_length_c   5.90621500
_cell_angle_alpha   90.00000000
_cell_angle_beta   90.00000000
_cell_angle_gamma   119.97674976
_symmetry_Int_Tables_number   1
_chemical_formula_structural   Zr5ZnSn2Bi
_chemical_formula_sum   'Zr10 Zn2 Sn4 Bi2'
_cell_volume   392.57671382
_cell_formula_units_Z   2
loop_
 _symmetry_equiv_pos_site_id
 _symmetry_equiv_pos_as_xyz
  1  'x, y, z'
loop_
 _atom_site_type_symbol
 _atom_site_label
 _atom_site_symmetry_multiplicity
 _atom_site_fract_x
 _atom_site_fract_y
 _atom_site_fract_z
 _atom_site_occupancy
  Zr  Zr0  1  0.669012  0.335275  0.002971  1
  Zr  Zr1  1  0.330988  0.666265  0.002971  1
  Zr  Zr2  1  0.330988  0.666265  0.497029  1
  Zr  Zr3  1  0.669012  0.335275  0.497029  1
  Zr  Zr4  1  0.736430  0.732085  0.750000  1
  Zr  Zr5  1  0.263570  0.995655  0.750000  1
  Zr  Zr6  1  0.000000  0.269164  0.750000  1
  Zr  Zr7  1  0.267162  0.267555  0.250000  1
  Zr  Zr8  1  0.732838  0.000393  0.250000  1
  Zr  Zr9  1  0.000000  0.731410  0.250000  1
  Zn  Zn10  1  0.000000  0.999534  0.001595  1
  Zn  Zn11  1  0.000000  0.999534  0.498405  1
  Sn  Sn12  1  0.000000  0.614755  0.750000  1
  Sn  Sn13  1  0.616869  0.617111  0.250000  1
  Sn  Sn14  1  0.383131  0.000242  0.250000  1
  Sn  Sn15  1  0.000000  0.384718  0.250000  1
  Bi  Bi16  1  0.385617  0.385191  0.750000  1
  Bi  Bi17  1  0.614383  0.999574  0.750000  1
