# generated using pymatgen
data_YEr5Si4(GeRu2)2
_symmetry_space_group_name_H-M   'P 1'
_cell_length_a   5.72136617
_cell_length_b   5.72136575
_cell_length_c   13.83890600
_cell_angle_alpha   90.00000000
_cell_angle_beta   90.00000000
_cell_angle_gamma   137.26545205
_symmetry_Int_Tables_number   1
_chemical_formula_structural   YEr5Si4(GeRu2)2
_chemical_formula_sum   'Y1 Er5 Si4 Ge2 Ru4'
_cell_volume   307.40914765
_cell_formula_units_Z   1
loop_
 _symmetry_equiv_pos_site_id
 _symmetry_equiv_pos_as_xyz
  1  'x, y, z'
loop_
 _atom_site_type_symbol
 _atom_site_label
 _atom_site_symmetry_multiplicity
 _atom_site_fract_x
 _atom_site_fract_y
 _atom_site_fract_z
 _atom_site_occupancy
  Y  Y0  1  0.644293  0.355707  0.250000  1
  Er  Er1  1  0.924555  0.075445  0.387604  1
  Er  Er2  1  0.075351  0.924649  0.612745  1
  Er  Er3  1  0.924555  0.075445  0.112396  1
  Er  Er4  1  0.075351  0.924649  0.887255  1
  Er  Er5  1  0.354820  0.645180  0.750000  1
  Si  Si6  1  0.616732  0.383268  0.461675  1
  Si  Si7  1  0.383265  0.616735  0.538871  1
  Si  Si8  1  0.616732  0.383268  0.038325  1
  Si  Si9  1  0.383265  0.616735  0.961129  1
  Ge  Ge10  1  0.338773  0.661227  0.250000  1
  Ge  Ge11  1  0.661845  0.338155  0.750000  1
  Ru  Ru12  1  0.788424  0.211576  0.920635  1
  Ru  Ru13  1  0.211808  0.788192  0.078630  1
  Ru  Ru14  1  0.788424  0.211576  0.579365  1
  Ru  Ru15  1  0.211808  0.788192  0.421370  1
