# generated using pymatgen
data_AcSm11(SiBr3)4
_symmetry_space_group_name_H-M   'P 1'
_cell_length_a   10.33875951
_cell_length_b   10.42112390
_cell_length_c   10.33875824
_cell_angle_alpha   109.41140950
_cell_angle_beta   109.60034108
_cell_angle_gamma   109.41140074
_symmetry_Int_Tables_number   1
_chemical_formula_structural   AcSm11(SiBr3)4
_chemical_formula_sum   'Ac1 Sm11 Si4 Br12'
_cell_volume   857.38805651
_cell_formula_units_Z   1
loop_
 _symmetry_equiv_pos_site_id
 _symmetry_equiv_pos_as_xyz
  1  'x, y, z'
loop_
 _atom_site_type_symbol
 _atom_site_label
 _atom_site_symmetry_multiplicity
 _atom_site_fract_x
 _atom_site_fract_y
 _atom_site_fract_z
 _atom_site_occupancy
  Ac  Ac0  1  0.254155  0.750000  0.245845  1
  Sm  Sm1  1  0.486952  0.750000  0.013048  1
  Sm  Sm2  1  0.750832  0.237047  0.262288  1
  Sm  Sm3  1  0.237712  0.262953  0.749168  1
  Sm  Sm4  1  0.474805  0.484411  0.236294  1
  Sm  Sm5  1  0.263706  0.015589  0.025195  1
  Sm  Sm6  1  0.237489  0.471800  0.486723  1
  Sm  Sm7  1  0.013277  0.028200  0.262511  1
  Sm  Sm8  1  0.011803  0.485033  0.747287  1
  Sm  Sm9  1  0.489513  0.240001  0.474429  1
  Sm  Sm10  1  0.752713  0.014967  0.488197  1
  Sm  Sm11  1  0.025571  0.259999  0.010487  1
  Si  Si12  1  0.250464  0.250000  0.249536  1
  Si  Si13  1  0.000484  0.250000  0.499516  1
  Si  Si14  1  0.249939  0.496415  0.997055  1
  Si  Si15  1  0.502945  0.003585  0.250061  1
  Br  Br16  1  0.997975  0.994512  0.746019  1
  Br  Br17  1  0.754671  0.748536  0.250554  1
  Br  Br18  1  0.983819  0.748495  0.983793  1
  Br  Br19  1  0.252670  0.008768  0.515139  1
  Br  Br20  1  0.746063  0.996795  0.992970  1
  Br  Br21  1  0.503611  0.250000  0.996389  1
  Br  Br22  1  0.747306  0.250000  0.752694  1
  Br  Br23  1  0.516207  0.751505  0.516181  1
  Br  Br24  1  0.753981  0.505488  0.502025  1
  Br  Br25  1  0.249446  0.751464  0.745329  1
  Br  Br26  1  0.507030  0.503205  0.753937  1
  Br  Br27  1  0.984861  0.491232  0.247330  1
