# generated using pymatgen
data_Cs8NaLi3(YSb2)4
_symmetry_space_group_name_H-M   'P 1'
_cell_length_a   11.59377567
_cell_length_b   11.59377411
_cell_length_c   7.41987618
_cell_angle_alpha   90.09463197
_cell_angle_beta   89.90536737
_cell_angle_gamma   100.52925410
_symmetry_Int_Tables_number   1
_chemical_formula_structural   Cs8NaLi3(YSb2)4
_chemical_formula_sum   'Cs8 Na1 Li3 Y4 Sb8'
_cell_volume   980.55136885
_cell_formula_units_Z   1
loop_
 _symmetry_equiv_pos_site_id
 _symmetry_equiv_pos_as_xyz
  1  'x, y, z'
loop_
 _atom_site_type_symbol
 _atom_site_label
 _atom_site_symmetry_multiplicity
 _atom_site_fract_x
 _atom_site_fract_y
 _atom_site_fract_z
 _atom_site_occupancy
  Cs  Cs0  1  0.071219  0.429422  0.249499  1
  Cs  Cs1  1  0.429422  0.071219  0.750501  1
  Cs  Cs2  1  0.929357  0.568781  0.749647  1
  Cs  Cs3  1  0.568781  0.929357  0.250353  1
  Cs  Cs4  1  0.675125  0.323223  0.211686  1
  Cs  Cs5  1  0.823096  0.178268  0.712435  1
  Cs  Cs6  1  0.323223  0.675125  0.788314  1
  Cs  Cs7  1  0.178268  0.823096  0.287565  1
  Na  Na8  1  0.882890  0.882890  0.500000  1
  Li  Li9  1  0.378592  0.378592  0.000000  1
  Li  Li10  1  0.124973  0.124973  0.500000  1
  Li  Li11  1  0.620790  0.620790  0.000000  1
  Y  Y12  1  0.131511  0.131511  0.000000  1
  Y  Y13  1  0.370195  0.370195  0.500000  1
  Y  Y14  1  0.869081  0.869081  0.000000  1
  Y  Y15  1  0.629164  0.629164  0.500000  1
  Sb  Sb16  1  0.835776  0.653604  0.239897  1
  Sb  Sb17  1  0.653604  0.835776  0.760103  1
  Sb  Sb18  1  0.160670  0.339652  0.748535  1
  Sb  Sb19  1  0.339652  0.160670  0.251465  1
  Sb  Sb20  1  0.909316  0.095728  0.224751  1
  Sb  Sb21  1  0.588440  0.411126  0.736912  1
  Sb  Sb22  1  0.095728  0.909316  0.775249  1
  Sb  Sb23  1  0.411126  0.588440  0.263088  1
