# generated using pymatgen
data_ZrSc(ZnIr)2
_symmetry_space_group_name_H-M   'P 1'
_cell_length_a   5.10133183
_cell_length_b   5.10133142
_cell_length_c   5.25423700
_cell_angle_alpha   90.00000000
_cell_angle_beta   90.00000000
_cell_angle_gamma   130.86675403
_symmetry_Int_Tables_number   1
_chemical_formula_structural   ZrSc(ZnIr)2
_chemical_formula_sum   'Zr1 Sc1 Zn2 Ir2'
_cell_volume   103.40285839
_cell_formula_units_Z   1
loop_
 _symmetry_equiv_pos_site_id
 _symmetry_equiv_pos_as_xyz
  1  'x, y, z'
loop_
 _atom_site_type_symbol
 _atom_site_label
 _atom_site_symmetry_multiplicity
 _atom_site_fract_x
 _atom_site_fract_y
 _atom_site_fract_z
 _atom_site_occupancy
  Zr  Zr0  1  0.714367  0.285633  0.250000  1
  Sc  Sc1  1  0.286263  0.713737  0.750000  1
  Zn  Zn2  1  0.002506  0.997494  0.500305  1
  Zn  Zn3  1  0.002506  0.997494  0.999695  1
  Ir  Ir4  1  0.399675  0.600325  0.250000  1
  Ir  Ir5  1  0.594683  0.405317  0.750000  1
