# generated using pymatgen
data_CsNdSm9(C2I9)2
_symmetry_space_group_name_H-M   'P 1'
_cell_length_a   11.59095446
_cell_length_b   11.64363238
_cell_length_c   11.72435134
_cell_angle_alpha   113.21948053
_cell_angle_beta   87.13996259
_cell_angle_gamma   119.52684034
_symmetry_Int_Tables_number   1
_chemical_formula_structural   CsNdSm9(C2I9)2
_chemical_formula_sum   'Cs1 Nd1 Sm9 C4 I18'
_cell_volume   1244.49972096
_cell_formula_units_Z   1
loop_
 _symmetry_equiv_pos_site_id
 _symmetry_equiv_pos_as_xyz
  1  'x, y, z'
loop_
 _atom_site_type_symbol
 _atom_site_label
 _atom_site_symmetry_multiplicity
 _atom_site_fract_x
 _atom_site_fract_y
 _atom_site_fract_z
 _atom_site_occupancy
  Cs  Cs0  1  0.500032  0.000198  0.500023  1
  Nd  Nd1  1  0.669300  0.720520  0.705766  1
  Sm  Sm2  1  0.277019  0.353661  0.016698  1
  Sm  Sm3  1  0.093354  0.395565  0.294853  1
  Sm  Sm4  1  0.965717  0.039228  0.324305  1
  Sm  Sm5  1  0.906324  0.604108  0.704802  1
  Sm  Sm6  1  0.107446  0.944583  0.001064  1
  Sm  Sm7  1  0.034801  0.961063  0.676025  1
  Sm  Sm8  1  0.327729  0.278144  0.292342  1
  Sm  Sm9  1  0.723456  0.646603  0.983653  1
  Sm  Sm10  1  0.893121  0.055644  0.999230  1
  C  C11  1  0.152152  0.221332  0.123973  1
  C  C12  1  0.849205  0.779253  0.876762  1
  C  C13  1  0.922722  0.853417  0.803230  1
  C  C14  1  0.078596  0.147110  0.197629  1
  I  I15  1  0.446751  0.528126  0.832528  1
  I  I16  1  0.384891  0.038122  0.157837  1
  I  I17  1  0.777116  0.856710  0.499112  1
  I  I18  1  0.836008  0.311242  0.153921  1
  I  I19  1  0.551439  0.470057  0.169374  1
  I  I20  1  0.224499  0.144874  0.499278  1
  I  I21  1  0.317178  0.095404  0.831693  1
  I  I22  1  0.683037  0.904712  0.168197  1
  I  I23  1  0.977922  0.757907  0.168955  1
  I  I24  1  0.932790  0.299432  0.502066  1
  I  I25  1  0.022067  0.241937  0.831183  1
  I  I26  1  0.067287  0.700621  0.497872  1
  I  I27  1  0.261863  0.624004  0.184597  1
  I  I28  1  0.738037  0.376108  0.815460  1
  I  I29  1  0.639490  0.426677  0.494540  1
  I  I30  1  0.164208  0.689141  0.846386  1
  I  I31  1  0.614713  0.965646  0.844292  1
  I  I32  1  0.359729  0.568849  0.502353  1
