# generated using pymatgen
data_Ho8Zn2Si12RuRh
_symmetry_space_group_name_H-M   'P 1'
_cell_length_a   8.14929100
_cell_length_b   8.14929036
_cell_length_c   7.94037900
_cell_angle_alpha   90.00000000
_cell_angle_beta   90.00000000
_cell_angle_gamma   120.00000666
_symmetry_Int_Tables_number   1
_chemical_formula_structural   Ho8Zn2Si12RuRh
_chemical_formula_sum   'Ho8 Zn2 Si12 Ru1 Rh1'
_cell_volume   456.67943258
_cell_formula_units_Z   1
loop_
 _symmetry_equiv_pos_site_id
 _symmetry_equiv_pos_as_xyz
  1  'x, y, z'
loop_
 _atom_site_type_symbol
 _atom_site_label
 _atom_site_symmetry_multiplicity
 _atom_site_fract_x
 _atom_site_fract_y
 _atom_site_fract_z
 _atom_site_occupancy
  Ho  Ho0  1  0.000000  0.000000  0.250266  1
  Ho  Ho1  1  0.000000  0.000000  0.749314  1
  Ho  Ho2  1  0.509294  0.490706  0.240940  1
  Ho  Ho3  1  0.509294  0.018589  0.240940  1
  Ho  Ho4  1  0.981411  0.490706  0.240940  1
  Ho  Ho5  1  0.493020  0.506980  0.758862  1
  Ho  Ho6  1  0.493020  0.986040  0.758862  1
  Ho  Ho7  1  0.013960  0.506980  0.758862  1
  Zn  Zn8  1  0.333333  0.666667  0.464050  1
  Zn  Zn9  1  0.666667  0.333333  0.539553  1
  Si  Si10  1  0.165971  0.834029  0.508994  1
  Si  Si11  1  0.165971  0.331940  0.508994  1
  Si  Si12  1  0.668060  0.834029  0.508994  1
  Si  Si13  1  0.833912  0.166088  0.490769  1
  Si  Si14  1  0.833912  0.667824  0.490769  1
  Si  Si15  1  0.332176  0.166088  0.490769  1
  Si  Si16  1  0.832821  0.167179  0.992196  1
  Si  Si17  1  0.832821  0.665641  0.992196  1
  Si  Si18  1  0.334359  0.167179  0.992196  1
  Si  Si19  1  0.166340  0.833660  0.007882  1
  Si  Si20  1  0.166340  0.332680  0.007882  1
  Si  Si21  1  0.667320  0.833660  0.007882  1
  Ru  Ru22  1  0.666667  0.333333  0.976582  1
  Rh  Rh23  1  0.333333  0.666667  0.021307  1
