# generated using pymatgen
data_Zn3Ni(BrO3)8
_symmetry_space_group_name_H-M   'P 1'
_cell_length_a   5.73896811
_cell_length_b   10.47541157
_cell_length_c   10.52271284
_cell_angle_alpha   119.08762332
_cell_angle_beta   89.96714946
_cell_angle_gamma   90.25010220
_symmetry_Int_Tables_number   1
_chemical_formula_structural   Zn3Ni(BrO3)8
_chemical_formula_sum   'Zn3 Ni1 Br8 O24'
_cell_volume   552.81299475
_cell_formula_units_Z   1
loop_
 _symmetry_equiv_pos_site_id
 _symmetry_equiv_pos_as_xyz
  1  'x, y, z'
loop_
 _atom_site_type_symbol
 _atom_site_label
 _atom_site_symmetry_multiplicity
 _atom_site_fract_x
 _atom_site_fract_y
 _atom_site_fract_z
 _atom_site_occupancy
  Zn  Zn0  1  0.643200  0.236146  0.493132  1
  Zn  Zn1  1  0.144566  0.263615  0.006118  1
  Zn  Zn2  1  0.643100  0.736754  0.994924  1
  Ni  Ni3  1  0.141020  0.761809  0.506857  1
  Br  Br4  1  0.258858  0.416503  0.350716  1
  Br  Br5  1  0.761463  0.585458  0.650114  1
  Br  Br6  1  0.258095  0.914972  0.848891  1
  Br  Br7  1  0.757489  0.085109  0.149262  1
  Br  Br8  1  0.789664  0.084622  0.688395  1
  Br  Br9  1  0.285133  0.911846  0.310488  1
  Br  Br10  1  0.288337  0.413179  0.809054  1
  Br  Br11  1  0.788956  0.586953  0.192439  1
  O  O12  1  0.428312  0.885733  0.962897  1
  O  O13  1  0.926007  0.113558  0.033791  1
  O  O14  1  0.363501  0.800342  0.680204  1
  O  O15  1  0.865304  0.200726  0.317282  1
  O  O16  1  0.366986  0.302252  0.182713  1
  O  O17  1  0.868212  0.699920  0.818547  1
  O  O18  1  0.932140  0.228500  0.824295  1
  O  O19  1  0.430708  0.770207  0.175186  1
  O  O20  1  0.932303  0.932072  0.661119  1
  O  O21  1  0.426868  0.065688  0.338123  1
  O  O22  1  0.354285  0.081381  0.878838  1
  O  O23  1  0.852734  0.919699  0.121268  1
  O  O24  1  0.432594  0.270421  0.674648  1
  O  O25  1  0.935552  0.729170  0.327769  1
  O  O26  1  0.352091  0.399820  0.959853  1
  O  O27  1  0.853249  0.602824  0.043048  1
  O  O28  1  0.430060  0.566849  0.836204  1
  O  O29  1  0.927645  0.432724  0.163464  1
  O  O30  1  0.351638  0.583367  0.380107  1
  O  O31  1  0.854021  0.419381  0.621198  1
  O  O32  1  0.430184  0.387751  0.464683  1
  O  O33  1  0.932770  0.613101  0.535026  1
  O  O34  1  0.853223  0.100679  0.539083  1
  O  O35  1  0.349329  0.896875  0.460259  1
