# generated using pymatgen
data_Dy5YReB14Os
_symmetry_space_group_name_H-M   'P 1'
_cell_length_a   8.07466200
_cell_length_b   8.07466288
_cell_length_c   9.33912400
_cell_angle_alpha   90.00000000
_cell_angle_beta   90.00000000
_cell_angle_gamma   154.71880481
_symmetry_Int_Tables_number   1
_chemical_formula_structural   Dy5YReB14Os
_chemical_formula_sum   'Dy5 Y1 Re1 B14 Os1'
_cell_volume   260.04285371
_cell_formula_units_Z   1
loop_
 _symmetry_equiv_pos_site_id
 _symmetry_equiv_pos_as_xyz
  1  'x, y, z'
loop_
 _atom_site_type_symbol
 _atom_site_label
 _atom_site_symmetry_multiplicity
 _atom_site_fract_x
 _atom_site_fract_y
 _atom_site_fract_z
 _atom_site_occupancy
  Dy  Dy0  1  0.894533  0.105467  0.439951  1
  Dy  Dy1  1  0.105617  0.894383  0.561083  1
  Dy  Dy2  1  0.894533  0.105467  0.060049  1
  Dy  Dy3  1  0.105617  0.894383  0.938917  1
  Dy  Dy4  1  0.756879  0.243121  0.750000  1
  Y  Y5  1  0.243711  0.756289  0.250000  1
  Re  Re6  1  0.947205  0.052795  0.750000  1
  B  B7  1  0.726899  0.273101  0.465382  1
  B  B8  1  0.272467  0.727533  0.533500  1
  B  B9  1  0.726899  0.273101  0.034618  1
  B  B10  1  0.272467  0.727533  0.966500  1
  B  B11  1  0.631654  0.368346  0.151199  1
  B  B12  1  0.367703  0.632297  0.849044  1
  B  B13  1  0.631654  0.368346  0.348801  1
  B  B14  1  0.367703  0.632297  0.650956  1
  B  B15  1  0.520805  0.479195  0.096303  1
  B  B16  1  0.479237  0.520763  0.904427  1
  B  B17  1  0.520805  0.479195  0.403697  1
  B  B18  1  0.479237  0.520763  0.595573  1
  B  B19  1  0.457226  0.542774  0.250000  1
  B  B20  1  0.543301  0.456699  0.750000  1
  Os  Os21  1  0.053846  0.946154  0.250000  1
