# generated using pymatgen
data_Li4Y3ZrPt4
_symmetry_space_group_name_H-M   'P 1'
_cell_length_a   3.92758500
_cell_length_b   6.99422393
_cell_length_c   8.49445570
_cell_angle_alpha   90.80088580
_cell_angle_beta   90.00000000
_cell_angle_gamma   90.00000000
_symmetry_Int_Tables_number   1
_chemical_formula_structural   Li4Y3ZrPt4
_chemical_formula_sum   'Li4 Y3 Zr1 Pt4'
_cell_volume   233.32337618
_cell_formula_units_Z   1
loop_
 _symmetry_equiv_pos_site_id
 _symmetry_equiv_pos_as_xyz
  1  'x, y, z'
loop_
 _atom_site_type_symbol
 _atom_site_label
 _atom_site_symmetry_multiplicity
 _atom_site_fract_x
 _atom_site_fract_y
 _atom_site_fract_z
 _atom_site_occupancy
  Li  Li0  1  0.250000  0.886138  0.948245  1
  Li  Li1  1  0.250000  0.372138  0.552967  1
  Li  Li2  1  0.750000  0.124598  0.056603  1
  Li  Li3  1  0.750000  0.620251  0.441447  1
  Y  Y4  1  0.250000  0.451504  0.184922  1
  Y  Y5  1  0.750000  0.051111  0.675775  1
  Y  Y6  1  0.750000  0.558648  0.823385  1
  Zr  Zr7  1  0.250000  0.938770  0.323632  1
  Pt  Pt8  1  0.250000  0.262031  0.872822  1
  Pt  Pt9  1  0.250000  0.758240  0.614623  1
  Pt  Pt10  1  0.750000  0.760078  0.138262  1
  Pt  Pt11  1  0.750000  0.216494  0.367316  1
