# generated using pymatgen
data_Er(OsO3)3
_symmetry_space_group_name_H-M   'P 1'
_cell_length_a   7.35106100
_cell_length_b   5.17250525
_cell_length_c   8.20414610
_cell_angle_alpha   85.45252937
_cell_angle_beta   90.00000000
_cell_angle_gamma   90.00000000
_symmetry_Int_Tables_number   1
_chemical_formula_structural   Er(OsO3)3
_chemical_formula_sum   'Er2 Os6 O18'
_cell_volume   310.96752036
_cell_formula_units_Z   2
loop_
 _symmetry_equiv_pos_site_id
 _symmetry_equiv_pos_as_xyz
  1  'x, y, z'
loop_
 _atom_site_type_symbol
 _atom_site_label
 _atom_site_symmetry_multiplicity
 _atom_site_fract_x
 _atom_site_fract_y
 _atom_site_fract_z
 _atom_site_occupancy
  Er  Er0  1  0.250000  0.970912  0.427995  1
  Er  Er1  1  0.750000  0.029088  0.572005  1
  Os  Os2  1  0.000000  0.000000  0.000000  1
  Os  Os3  1  0.500000  0.000000  0.000000  1
  Os  Os4  1  0.004378  0.539328  0.692431  1
  Os  Os5  1  0.495622  0.539328  0.692431  1
  Os  Os6  1  0.995622  0.460672  0.307569  1
  Os  Os7  1  0.504378  0.460672  0.307569  1
  O  O8  1  0.250000  0.896425  0.982968  1
  O  O9  1  0.933257  0.855318  0.788220  1
  O  O10  1  0.566743  0.855318  0.788220  1
  O  O11  1  0.958819  0.742310  0.470679  1
  O  O12  1  0.541181  0.742310  0.470679  1
  O  O13  1  0.250000  0.670710  0.661898  1
  O  O14  1  0.954480  0.682215  0.120917  1
  O  O15  1  0.545520  0.682215  0.120917  1
  O  O16  1  0.250000  0.586590  0.312288  1
  O  O17  1  0.750000  0.413410  0.687712  1
  O  O18  1  0.045520  0.317785  0.879083  1
  O  O19  1  0.454480  0.317785  0.879083  1
  O  O20  1  0.750000  0.329290  0.338102  1
  O  O21  1  0.041181  0.257690  0.529321  1
  O  O22  1  0.458819  0.257690  0.529321  1
  O  O23  1  0.066743  0.144682  0.211780  1
  O  O24  1  0.433257  0.144682  0.211780  1
  O  O25  1  0.750000  0.103575  0.017032  1
