# generated using pymatgen
data_Tb17Ho3Pb16
_symmetry_space_group_name_H-M   'P 1'
_cell_length_a   8.22616706
_cell_length_b   15.72918000
_cell_length_c   8.31354706
_cell_angle_alpha   90.00000000
_cell_angle_beta   90.01412680
_cell_angle_gamma   90.00000000
_symmetry_Int_Tables_number   1
_chemical_formula_structural   Tb17Ho3Pb16
_chemical_formula_sum   'Tb17 Ho3 Pb16'
_cell_volume   1075.69699171
_cell_formula_units_Z   1
loop_
 _symmetry_equiv_pos_site_id
 _symmetry_equiv_pos_as_xyz
  1  'x, y, z'
loop_
 _atom_site_type_symbol
 _atom_site_label
 _atom_site_symmetry_multiplicity
 _atom_site_fract_x
 _atom_site_fract_y
 _atom_site_fract_z
 _atom_site_occupancy
  Tb  Tb0  1  0.622592  0.620092  0.159624  1
  Tb  Tb1  1  0.122830  0.879916  0.340198  1
  Tb  Tb2  1  0.377311  0.120104  0.840296  1
  Tb  Tb3  1  0.877316  0.379871  0.659697  1
  Tb  Tb4  1  0.377311  0.379896  0.840296  1
  Tb  Tb5  1  0.877316  0.120129  0.659697  1
  Tb  Tb6  1  0.622592  0.879908  0.159624  1
  Tb  Tb7  1  0.122830  0.620084  0.340198  1
  Tb  Tb8  1  0.466606  0.600145  0.677286  1
  Tb  Tb9  1  0.966741  0.899839  0.822860  1
  Tb  Tb10  1  0.533323  0.100186  0.322778  1
  Tb  Tb11  1  0.033303  0.399837  0.177227  1
  Tb  Tb12  1  0.533323  0.399814  0.322778  1
  Tb  Tb13  1  0.033303  0.100163  0.177227  1
  Tb  Tb14  1  0.466606  0.899855  0.677286  1
  Tb  Tb15  1  0.966741  0.600161  0.822860  1
  Tb  Tb16  1  0.791477  0.750000  0.496683  1
  Ho  Ho17  1  0.291286  0.750000  0.003402  1
  Ho  Ho18  1  0.208688  0.250000  0.503385  1
  Ho  Ho19  1  0.708704  0.250000  0.996667  1
  Pb  Pb20  1  0.718990  0.457365  0.967544  1
  Pb  Pb21  1  0.218992  0.042635  0.532442  1
  Pb  Pb22  1  0.281012  0.957396  0.032458  1
  Pb  Pb23  1  0.780999  0.542454  0.467524  1
  Pb  Pb24  1  0.281012  0.542604  0.032458  1
  Pb  Pb25  1  0.780999  0.957546  0.467524  1
  Pb  Pb26  1  0.718990  0.042635  0.967544  1
  Pb  Pb27  1  0.218992  0.457365  0.532442  1
  Pb  Pb28  1  0.427607  0.750000  0.372378  1
  Pb  Pb29  1  0.928091  0.750000  0.127195  1
  Pb  Pb30  1  0.571958  0.250000  0.627468  1
  Pb  Pb31  1  0.071953  0.250000  0.872531  1
  Pb  Pb32  1  0.654980  0.750000  0.849160  1
  Pb  Pb33  1  0.155212  0.750000  0.651353  1
  Pb  Pb34  1  0.344992  0.250000  0.151248  1
  Pb  Pb35  1  0.845022  0.250000  0.348662  1
