# generated using pymatgen
data_Ag(BrF4)2
_symmetry_space_group_name_H-M   'P 1'
_cell_length_a   11.44918200
_cell_length_b   5.70849717
_cell_length_c   7.83779711
_cell_angle_alpha   47.45274548
_cell_angle_beta   90.00000000
_cell_angle_gamma   90.00000000
_symmetry_Int_Tables_number   1
_chemical_formula_structural   Ag(BrF4)2
_chemical_formula_sum   'Ag2 Br4 F16'
_cell_volume   377.39197767
_cell_formula_units_Z   2
loop_
 _symmetry_equiv_pos_site_id
 _symmetry_equiv_pos_as_xyz
  1  'x, y, z'
loop_
 _atom_site_type_symbol
 _atom_site_label
 _atom_site_symmetry_multiplicity
 _atom_site_fract_x
 _atom_site_fract_y
 _atom_site_fract_z
 _atom_site_occupancy
  Ag  Ag0  1  0.500000  0.500000  0.500000  1
  Ag  Ag1  1  0.000000  0.500000  0.000000  1
  Br  Br2  1  0.677639  0.251104  0.012940  1
  Br  Br3  1  0.177639  0.748896  0.487060  1
  Br  Br4  1  0.822361  0.251104  0.512940  1
  Br  Br5  1  0.322361  0.748896  0.987060  1
  F  F6  1  0.233421  0.460730  0.250958  1
  F  F7  1  0.733421  0.539270  0.249042  1
  F  F8  1  0.766579  0.539270  0.749042  1
  F  F9  1  0.266579  0.460730  0.750958  1
  F  F10  1  0.183533  0.888961  0.815152  1
  F  F11  1  0.683533  0.111039  0.684848  1
  F  F12  1  0.084910  0.042138  0.191769  1
  F  F13  1  0.584910  0.957862  0.308231  1
  F  F14  1  0.915090  0.957862  0.808231  1
  F  F15  1  0.415090  0.042138  0.691769  1
  F  F16  1  0.034217  0.583113  0.680926  1
  F  F17  1  0.534217  0.416887  0.819074  1
  F  F18  1  0.965783  0.416887  0.319074  1
  F  F19  1  0.465783  0.583113  0.180926  1
  F  F20  1  0.316467  0.888961  0.315152  1
  F  F21  1  0.816467  0.111039  0.184848  1
