# generated using pymatgen
data_BaCe3F13
_symmetry_space_group_name_H-M   'P 1'
_cell_length_a   7.27199600
_cell_length_b   8.09811200
_cell_length_c   8.77086600
_cell_angle_alpha   90.00000000
_cell_angle_beta   90.00000000
_cell_angle_gamma   90.00000000
_symmetry_Int_Tables_number   1
_chemical_formula_structural   BaCe3F13
_chemical_formula_sum   'Ba2 Ce6 F26'
_cell_volume   516.51137014
_cell_formula_units_Z   2
loop_
 _symmetry_equiv_pos_site_id
 _symmetry_equiv_pos_as_xyz
  1  'x, y, z'
loop_
 _atom_site_type_symbol
 _atom_site_label
 _atom_site_symmetry_multiplicity
 _atom_site_fract_x
 _atom_site_fract_y
 _atom_site_fract_z
 _atom_site_occupancy
  Ba  Ba0  1  0.881793  0.500000  0.679234  1
  Ba  Ba1  1  0.118207  0.500000  0.179234  1
  Ce  Ce2  1  0.601747  0.250707  0.332912  1
  Ce  Ce3  1  0.601747  0.749293  0.332912  1
  Ce  Ce4  1  0.398253  0.749293  0.832912  1
  Ce  Ce5  1  0.398253  0.250707  0.832912  1
  Ce  Ce6  1  0.104890  0.000000  0.500509  1
  Ce  Ce7  1  0.895110  0.000000  0.000509  1
  F  F8  1  0.703975  0.816998  0.867609  1
  F  F9  1  0.567647  0.500000  0.841683  1
  F  F10  1  0.103973  0.794905  0.961622  1
  F  F11  1  0.824505  0.717850  0.154822  1
  F  F12  1  0.355492  0.000000  0.672133  1
  F  F13  1  0.025059  0.000000  0.231458  1
  F  F14  1  0.896027  0.205095  0.461622  1
  F  F15  1  0.432353  0.500000  0.341683  1
  F  F16  1  0.974941  0.000000  0.731458  1
  F  F17  1  0.437271  0.695416  0.093455  1
  F  F18  1  0.780882  0.500000  0.383453  1
  F  F19  1  0.437271  0.304584  0.093455  1
  F  F20  1  0.562729  0.695416  0.593455  1
  F  F21  1  0.602810  0.000000  0.449188  1
  F  F22  1  0.296025  0.816998  0.367609  1
  F  F23  1  0.219118  0.500000  0.883453  1
  F  F24  1  0.824505  0.282150  0.154822  1
  F  F25  1  0.175495  0.717850  0.654822  1
  F  F26  1  0.175495  0.282150  0.654822  1
  F  F27  1  0.296025  0.183002  0.367609  1
  F  F28  1  0.703975  0.183002  0.867609  1
  F  F29  1  0.644508  0.000000  0.172133  1
  F  F30  1  0.397190  0.000000  0.949188  1
  F  F31  1  0.103973  0.205095  0.961622  1
  F  F32  1  0.562729  0.304584  0.593455  1
  F  F33  1  0.896027  0.794905  0.461622  1
