# generated using pymatgen
data_Ba6Tb3Sc(WO9)2
_symmetry_space_group_name_H-M   'P 1'
_cell_length_a   6.06269509
_cell_length_b   8.57760679
_cell_length_c   10.50382690
_cell_angle_alpha   65.90248788
_cell_angle_beta   73.22590270
_cell_angle_gamma   90.00274444
_symmetry_Int_Tables_number   1
_chemical_formula_structural   Ba6Tb3Sc(WO9)2
_chemical_formula_sum   'Ba6 Tb3 Sc1 W2 O18'
_cell_volume   473.05262078
_cell_formula_units_Z   1
loop_
 _symmetry_equiv_pos_site_id
 _symmetry_equiv_pos_as_xyz
  1  'x, y, z'
loop_
 _atom_site_type_symbol
 _atom_site_label
 _atom_site_symmetry_multiplicity
 _atom_site_fract_x
 _atom_site_fract_y
 _atom_site_fract_z
 _atom_site_occupancy
  Ba  Ba0  1  0.499997  0.269408  0.000012  1
  Ba  Ba1  1  0.841771  0.580518  0.316417  1
  Ba  Ba2  1  0.158253  0.896964  0.683570  1
  Ba  Ba3  1  0.500003  0.730592  0.999988  1
  Ba  Ba4  1  0.841747  0.103036  0.316430  1
  Ba  Ba5  1  0.158229  0.419482  0.683583  1
  Tb  Tb6  1  0.000000  0.000000  0.000000  1
  Tb  Tb7  1  0.331228  0.331236  0.337525  1
  Tb  Tb8  1  0.668772  0.668764  0.662475  1
  Sc  Sc9  1  0.000000  0.500000  0.000000  1
  W  W10  1  0.334012  0.833960  0.332011  1
  W  W11  1  0.665988  0.166040  0.667989  1
  O  O12  1  0.000000  0.255297  0.000001  1
  O  O13  1  0.332321  0.602705  0.335393  1
  O  O14  1  0.667624  0.938114  0.664624  1
  O  O15  1  0.160162  0.415371  0.169249  1
  O  O16  1  0.487546  0.758497  0.482989  1
  O  O17  1  0.819650  0.089893  0.820298  1
  O  O18  1  0.329359  0.584677  0.830680  1
  O  O19  1  0.640021  0.910092  0.179720  1
  O  O20  1  0.970477  0.241512  0.516986  1
  O  O21  1  0.000000  0.744703  0.999999  1
  O  O22  1  0.332376  0.061886  0.335376  1
  O  O23  1  0.667679  0.397295  0.664607  1
  O  O24  1  0.839838  0.584629  0.830751  1
  O  O25  1  0.180350  0.910107  0.179702  1
  O  O26  1  0.512454  0.241503  0.517011  1
  O  O27  1  0.670641  0.415323  0.169320  1
  O  O28  1  0.029523  0.758488  0.483014  1
  O  O29  1  0.359979  0.089908  0.820280  1
