# generated using pymatgen
data_Pr2HoPaPt4
_symmetry_space_group_name_H-M   'P 1'
_cell_length_a   4.59581300
_cell_length_b   5.69113985
_cell_length_c   7.20622551
_cell_angle_alpha   91.26585927
_cell_angle_beta   90.00000000
_cell_angle_gamma   90.00000000
_symmetry_Int_Tables_number   1
_chemical_formula_structural   Pr2HoPaPt4
_chemical_formula_sum   'Pr2 Ho1 Pa1 Pt4'
_cell_volume   188.43581631
_cell_formula_units_Z   1
loop_
 _symmetry_equiv_pos_site_id
 _symmetry_equiv_pos_as_xyz
  1  'x, y, z'
loop_
 _atom_site_type_symbol
 _atom_site_label
 _atom_site_symmetry_multiplicity
 _atom_site_fract_x
 _atom_site_fract_y
 _atom_site_fract_z
 _atom_site_occupancy
  Pr  Pr0  1  0.250000  0.140590  0.183001  1
  Pr  Pr1  1  0.750000  0.645218  0.316982  1
  Ho  Ho2  1  0.750000  0.854636  0.818383  1
  Pa  Pa3  1  0.250000  0.356291  0.684371  1
  Pt  Pt4  1  0.250000  0.841116  0.568637  1
  Pt  Pt5  1  0.250000  0.649345  0.018164  1
  Pt  Pt6  1  0.750000  0.169263  0.481680  1
  Pt  Pt7  1  0.750000  0.343541  0.928781  1
