# generated using pymatgen
data_Tb2NdMn(Co4P3)2
_symmetry_space_group_name_H-M   'P 1'
_cell_length_a   3.72195700
_cell_length_b   10.59620200
_cell_length_c   12.27170500
_cell_angle_alpha   90.00000000
_cell_angle_beta   90.00000000
_cell_angle_gamma   90.00000000
_symmetry_Int_Tables_number   1
_chemical_formula_structural   Tb2NdMn(Co4P3)2
_chemical_formula_sum   'Tb4 Nd2 Mn2 Co16 P12'
_cell_volume   483.97896553
_cell_formula_units_Z   2
loop_
 _symmetry_equiv_pos_site_id
 _symmetry_equiv_pos_as_xyz
  1  'x, y, z'
loop_
 _atom_site_type_symbol
 _atom_site_label
 _atom_site_symmetry_multiplicity
 _atom_site_fract_x
 _atom_site_fract_y
 _atom_site_fract_z
 _atom_site_occupancy
  Tb  Tb0  1  0.500000  0.818673  0.204430  1
  Tb  Tb1  1  0.500000  0.181327  0.204430  1
  Tb  Tb2  1  0.000000  0.681327  0.795570  1
  Tb  Tb3  1  0.000000  0.318673  0.795570  1
  Nd  Nd4  1  0.000000  0.500000  0.523065  1
  Nd  Nd5  1  0.500000  0.000000  0.476935  1
  Mn  Mn6  1  0.500000  0.500000  0.156986  1
  Mn  Mn7  1  0.000000  0.000000  0.843014  1
  Co  Co8  1  0.500000  0.500000  0.705927  1
  Co  Co9  1  0.000000  0.000000  0.294073  1
  Co  Co10  1  0.000000  0.500000  0.987612  1
  Co  Co11  1  0.500000  0.000000  0.012388  1
  Co  Co12  1  0.500000  0.333105  0.994896  1
  Co  Co13  1  0.500000  0.666895  0.994896  1
  Co  Co14  1  0.000000  0.166895  0.005104  1
  Co  Co15  1  0.000000  0.833105  0.005104  1
  Co  Co16  1  0.500000  0.296024  0.429256  1
  Co  Co17  1  0.500000  0.703976  0.429256  1
  Co  Co18  1  0.000000  0.203976  0.570744  1
  Co  Co19  1  0.000000  0.796024  0.570744  1
  Co  Co20  1  0.500000  0.880052  0.711545  1
  Co  Co21  1  0.500000  0.119948  0.711545  1
  Co  Co22  1  0.000000  0.619948  0.288455  1
  Co  Co23  1  0.000000  0.380052  0.288455  1
  P  P24  1  0.500000  0.500000  0.885038  1
  P  P25  1  0.000000  0.000000  0.114962  1
  P  P26  1  0.500000  0.500000  0.341137  1
  P  P27  1  0.000000  0.000000  0.658863  1
  P  P28  1  0.500000  0.307787  0.617081  1
  P  P29  1  0.500000  0.692213  0.617081  1
  P  P30  1  0.000000  0.192213  0.382919  1
  P  P31  1  0.000000  0.807787  0.382919  1
  P  P32  1  0.500000  0.846611  0.893781  1
  P  P33  1  0.500000  0.153389  0.893781  1
  P  P34  1  0.000000  0.653389  0.106219  1
  P  P35  1  0.000000  0.346611  0.106219  1
