# generated using pymatgen
data_CeTh(Be12Ni)2
_symmetry_space_group_name_H-M   'P 1'
_cell_length_a   7.32206571
_cell_length_b   7.37797072
_cell_length_c   7.30159987
_cell_angle_alpha   59.84057601
_cell_angle_beta   59.94088731
_cell_angle_gamma   59.56578995
_symmetry_Int_Tables_number   1
_chemical_formula_structural   CeTh(Be12Ni)2
_chemical_formula_sum   'Ce1 Th1 Be24 Ni2'
_cell_volume   277.53188842
_cell_formula_units_Z   1
loop_
 _symmetry_equiv_pos_site_id
 _symmetry_equiv_pos_as_xyz
  1  'x, y, z'
loop_
 _atom_site_type_symbol
 _atom_site_label
 _atom_site_symmetry_multiplicity
 _atom_site_fract_x
 _atom_site_fract_y
 _atom_site_fract_z
 _atom_site_occupancy
  Ce  Ce0  1  0.998820  0.001160  0.998861  1
  Th  Th1  1  0.501252  0.498742  0.501261  1
  Be  Be2  1  0.316345  0.539074  0.182337  1
  Be  Be3  1  0.182347  0.962234  0.316343  1
  Be  Be4  1  0.039925  0.686649  0.458701  1
  Be  Be5  1  0.458732  0.814679  0.039923  1
  Be  Be6  1  0.684529  0.033224  0.816630  1
  Be  Be7  1  0.816636  0.465603  0.684528  1
  Be  Be8  1  0.959246  0.544735  0.309938  1
  Be  Be9  1  0.542107  0.955937  0.189270  1
  Be  Be10  1  0.189308  0.312646  0.542131  1
  Be  Be11  1  0.309971  0.186038  0.959303  1
  Be  Be12  1  0.461716  0.033520  0.687696  1
  Be  Be13  1  0.037019  0.465728  0.813373  1
  Be  Be14  1  0.813364  0.683893  0.036962  1
  Be  Be15  1  0.687685  0.817097  0.461713  1
  Be  Be16  1  0.312285  0.959251  0.542464  1
  Be  Be17  1  0.186385  0.542111  0.959021  1
  Be  Be18  1  0.542487  0.186036  0.312270  1
  Be  Be19  1  0.958976  0.312465  0.186401  1
  Be  Be20  1  0.687687  0.462035  0.036745  1
  Be  Be21  1  0.814278  0.036307  0.461893  1
  Be  Be22  1  0.036825  0.813499  0.687701  1
  Be  Be23  1  0.461829  0.687576  0.814258  1
  Be  Be24  1  0.250126  0.249876  0.250150  1
  Be  Be25  1  0.749918  0.750078  0.749899  1
  Ni  Ni26  1  0.548145  0.308250  0.952122  1
  Ni  Ni27  1  0.952054  0.191557  0.548110  1
