# generated using pymatgen
data_Sc8Zn4Ag3Ir
_symmetry_space_group_name_H-M   'P 1'
_cell_length_a   6.75617100
_cell_length_b   6.73057900
_cell_length_c   6.75590200
_cell_angle_alpha   90.00000000
_cell_angle_beta   89.99886359
_cell_angle_gamma   90.00000000
_symmetry_Int_Tables_number   1
_chemical_formula_structural   Sc8Zn4Ag3Ir
_chemical_formula_sum   'Sc8 Zn4 Ag3 Ir1'
_cell_volume   307.21074419
_cell_formula_units_Z   1
loop_
 _symmetry_equiv_pos_site_id
 _symmetry_equiv_pos_as_xyz
  1  'x, y, z'
loop_
 _atom_site_type_symbol
 _atom_site_label
 _atom_site_symmetry_multiplicity
 _atom_site_fract_x
 _atom_site_fract_y
 _atom_site_fract_z
 _atom_site_occupancy
  Sc  Sc0  1  0.243297  0.994118  0.256714  1
  Sc  Sc1  1  0.243297  0.505880  0.256714  1
  Sc  Sc2  1  0.756770  0.506397  0.256770  1
  Sc  Sc3  1  0.756770  0.993602  0.256770  1
  Sc  Sc4  1  0.243242  0.994100  0.743231  1
  Sc  Sc5  1  0.243242  0.505898  0.743231  1
  Sc  Sc6  1  0.756717  0.506381  0.743285  1
  Sc  Sc7  1  0.756717  0.993618  0.743285  1
  Zn  Zn8  1  0.999465  0.249999  0.999997  1
  Zn  Zn9  1  0.000563  0.750000  0.999997  1
  Zn  Zn10  1  0.499413  0.750000  0.500000  1
  Zn  Zn11  1  0.500555  0.249999  0.500001  1
  Ag  Ag12  1  0.500377  0.249999  0.999999  1
  Ag  Ag13  1  0.499613  0.750000  0.999997  1
  Ag  Ag14  1  0.999591  0.249999  0.500000  1
  Ir  Ir15  1  0.000371  0.750000  0.500009  1
