# generated using pymatgen
data_Y6Ho(TmPb2)3
_symmetry_space_group_name_H-M   'P 1'
_cell_length_a   6.58149400
_cell_length_b   9.04977635
_cell_length_c   9.05065102
_cell_angle_alpha   119.99687400
_cell_angle_beta   89.99982430
_cell_angle_gamma   90.00041832
_symmetry_Int_Tables_number   1
_chemical_formula_structural   Y6Ho(TmPb2)3
_chemical_formula_sum   'Y6 Ho1 Tm3 Pb6'
_cell_volume   466.85978605
_cell_formula_units_Z   1
loop_
 _symmetry_equiv_pos_site_id
 _symmetry_equiv_pos_as_xyz
  1  'x, y, z'
loop_
 _atom_site_type_symbol
 _atom_site_label
 _atom_site_symmetry_multiplicity
 _atom_site_fract_x
 _atom_site_fract_y
 _atom_site_fract_z
 _atom_site_occupancy
  Y  Y0  1  0.750051  0.238866  0.000041  1
  Y  Y1  1  0.750049  0.761011  0.761041  1
  Y  Y2  1  0.750047  0.999889  0.238917  1
  Y  Y3  1  0.249961  0.761175  0.000042  1
  Y  Y4  1  0.249949  0.239031  0.238923  1
  Y  Y5  1  0.249954  0.000028  0.761038  1
  Ho  Ho6  1  0.499999  0.333294  0.666622  1
  Tm  Tm7  1  0.499998  0.666671  0.333378  1
  Tm  Tm8  1  0.999999  0.666708  0.333379  1
  Tm  Tm9  1  0.999999  0.333329  0.666621  1
  Pb  Pb10  1  0.750121  0.605149  0.000150  1
  Pb  Pb11  1  0.750136  0.395054  0.394952  1
  Pb  Pb12  1  0.750134  0.999804  0.604898  1
  Pb  Pb13  1  0.249858  0.395000  0.000149  1
  Pb  Pb14  1  0.249873  0.605095  0.604898  1
  Pb  Pb15  1  0.249873  0.999896  0.394951  1
