# generated using pymatgen
data_CaTh(Si2Rh3)2
_symmetry_space_group_name_H-M   'P 1'
_cell_length_a   6.67261369
_cell_length_b   6.67261322
_cell_length_c   6.67261180
_cell_angle_alpha   130.32879774
_cell_angle_beta   114.49592798
_cell_angle_gamma   86.45676634
_symmetry_Int_Tables_number   1
_chemical_formula_structural   CaTh(Si2Rh3)2
_chemical_formula_sum   'Ca1 Th1 Si4 Rh6'
_cell_volume   196.75290174
_cell_formula_units_Z   1
loop_
 _symmetry_equiv_pos_site_id
 _symmetry_equiv_pos_as_xyz
  1  'x, y, z'
loop_
 _atom_site_type_symbol
 _atom_site_label
 _atom_site_symmetry_multiplicity
 _atom_site_fract_x
 _atom_site_fract_y
 _atom_site_fract_z
 _atom_site_occupancy
  Ca  Ca0  1  0.750000  0.037292  0.287292  1
  Th  Th1  1  0.250000  0.952182  0.702182  1
  Si  Si2  1  0.585100  0.387942  0.802841  1
  Si  Si3  1  0.428720  0.621259  0.192539  1
  Si  Si4  1  0.071280  0.263819  0.192539  1
  Si  Si5  1  0.914900  0.717741  0.802841  1
  Rh  Rh6  1  0.214179  0.502011  0.716027  1
  Rh  Rh7  1  0.714016  0.001848  0.716027  1
  Rh  Rh8  1  0.785984  0.502011  0.287832  1
  Rh  Rh9  1  0.285821  0.001848  0.287832  1
  Rh  Rh10  1  0.490674  0.506024  0.496697  1
  Rh  Rh11  1  0.009326  0.506024  0.015350  1
