# generated using pymatgen
data_Li3Dy2Y2AlPt4
_symmetry_space_group_name_H-M   'P 1'
_cell_length_a   4.03683400
_cell_length_b   7.00888088
_cell_length_c   8.42592600
_cell_angle_alpha   90.88441989
_cell_angle_beta   90.00000000
_cell_angle_gamma   90.00000000
_symmetry_Int_Tables_number   1
_chemical_formula_structural   Li3Dy2Y2AlPt4
_chemical_formula_sum   'Li3 Dy2 Y2 Al1 Pt4'
_cell_volume   238.37212526
_cell_formula_units_Z   1
loop_
 _symmetry_equiv_pos_site_id
 _symmetry_equiv_pos_as_xyz
  1  'x, y, z'
loop_
 _atom_site_type_symbol
 _atom_site_label
 _atom_site_symmetry_multiplicity
 _atom_site_fract_x
 _atom_site_fract_y
 _atom_site_fract_z
 _atom_site_occupancy
  Li  Li0  1  0.250000  0.873893  0.942114  1
  Li  Li1  1  0.750000  0.131028  0.060992  1
  Li  Li2  1  0.750000  0.629600  0.438602  1
  Dy  Dy3  1  0.750000  0.544313  0.817713  1
  Dy  Dy4  1  0.750000  0.042407  0.684026  1
  Y  Y5  1  0.250000  0.455589  0.180333  1
  Y  Y6  1  0.250000  0.955721  0.319298  1
  Al  Al7  1  0.250000  0.371197  0.558000  1
  Pt  Pt8  1  0.250000  0.740834  0.618611  1
  Pt  Pt9  1  0.750000  0.254896  0.392369  1
  Pt  Pt10  1  0.750000  0.745281  0.123063  1
  Pt  Pt11  1  0.250000  0.255239  0.864880  1
