# generated using pymatgen
data_Y3Zn2In3Ag
_symmetry_space_group_name_H-M   'P 1'
_cell_length_a   7.35849900
_cell_length_b   7.35849869
_cell_length_c   4.42877900
_cell_angle_alpha   90.00000000
_cell_angle_beta   90.00000000
_cell_angle_gamma   119.99999689
_symmetry_Int_Tables_number   1
_chemical_formula_structural   Y3Zn2In3Ag
_chemical_formula_sum   'Y3 Zn2 In3 Ag1'
_cell_volume   207.67924994
_cell_formula_units_Z   1
loop_
 _symmetry_equiv_pos_site_id
 _symmetry_equiv_pos_as_xyz
  1  'x, y, z'
loop_
 _atom_site_type_symbol
 _atom_site_label
 _atom_site_symmetry_multiplicity
 _atom_site_fract_x
 _atom_site_fract_y
 _atom_site_fract_z
 _atom_site_occupancy
  Y  Y0  1  0.418570  0.418570  0.500000  1
  Y  Y1  1  0.581430  0.000000  0.500000  1
  Y  Y2  1  0.000000  0.581430  0.500000  1
  Zn  Zn3  1  0.666667  0.333333  0.000000  1
  Zn  Zn4  1  0.333333  0.666667  0.000000  1
  In  In5  1  0.745081  0.745081  0.000000  1
  In  In6  1  0.254919  0.000000  0.000000  1
  In  In7  1  0.000000  0.254919  0.000000  1
  Ag  Ag8  1  0.000000  0.000000  0.500000  1
