# generated using pymatgen
data_Y2Cr3Co7Ni2As7
_symmetry_space_group_name_H-M   'P 1'
_cell_length_a   3.76774200
_cell_length_b   9.45702292
_cell_length_c   9.44875426
_cell_angle_alpha   119.99446993
_cell_angle_beta   90.00000000
_cell_angle_gamma   90.00000000
_symmetry_Int_Tables_number   1
_chemical_formula_structural   Y2Cr3Co7Ni2As7
_chemical_formula_sum   'Y2 Cr3 Co7 Ni2 As7'
_cell_volume   291.58486782
_cell_formula_units_Z   1
loop_
 _symmetry_equiv_pos_site_id
 _symmetry_equiv_pos_as_xyz
  1  'x, y, z'
loop_
 _atom_site_type_symbol
 _atom_site_label
 _atom_site_symmetry_multiplicity
 _atom_site_fract_x
 _atom_site_fract_y
 _atom_site_fract_z
 _atom_site_occupancy
  Y  Y0  1  0.000000  0.668527  0.334994  1
  Y  Y1  1  0.500000  0.331956  0.666067  1
  Cr  Cr2  1  0.500000  0.781724  0.895317  1
  Cr  Cr3  1  0.500000  0.113443  0.218098  1
  Cr  Cr4  1  0.500000  0.107067  0.886109  1
  Co  Co5  1  0.000000  0.060037  0.631602  1
  Co  Co6  1  0.000000  0.878692  0.159033  1
  Co  Co7  1  0.000000  0.281234  0.122154  1
  Co  Co8  1  0.000000  0.840864  0.720030  1
  Co  Co9  1  0.500000  0.949231  0.384421  1
  Co  Co10  1  0.500000  0.434593  0.048910  1
  Co  Co11  1  0.500000  0.615089  0.564162  1
  Ni  Ni12  1  0.000000  0.568519  0.938979  1
  Ni  Ni13  1  0.000000  0.368349  0.429836  1
  As  As14  1  0.000000  0.000719  0.999658  1
  As  As15  1  0.500000  0.711066  0.120359  1
  As  As16  1  0.500000  0.409647  0.287764  1
  As  As17  1  0.500000  0.882835  0.592876  1
  As  As18  1  0.000000  0.588028  0.699394  1
  As  As19  1  0.000000  0.111059  0.414145  1
  As  As20  1  0.000000  0.297322  0.886096  1
