# generated using pymatgen
data_ErTm3(WO6)2
_symmetry_space_group_name_H-M   'P 1'
_cell_length_a   5.33655800
_cell_length_b   7.63034712
_cell_length_c   11.35961004
_cell_angle_alpha   75.24505748
_cell_angle_beta   90.00000000
_cell_angle_gamma   90.00000000
_symmetry_Int_Tables_number   1
_chemical_formula_structural   ErTm3(WO6)2
_chemical_formula_sum   'Er2 Tm6 W4 O24'
_cell_volume   447.30751272
_cell_formula_units_Z   2
loop_
 _symmetry_equiv_pos_site_id
 _symmetry_equiv_pos_as_xyz
  1  'x, y, z'
loop_
 _atom_site_type_symbol
 _atom_site_label
 _atom_site_symmetry_multiplicity
 _atom_site_fract_x
 _atom_site_fract_y
 _atom_site_fract_z
 _atom_site_occupancy
  Er  Er0  1  0.684398  0.500000  0.750000  1
  Er  Er1  1  0.315602  0.500000  0.250000  1
  Tm  Tm2  1  0.739725  0.000000  0.750000  1
  Tm  Tm3  1  0.260275  0.000000  0.250000  1
  Tm  Tm4  1  0.184597  0.795436  0.578440  1
  Tm  Tm5  1  0.815403  0.795436  0.078440  1
  Tm  Tm6  1  0.184597  0.204564  0.921560  1
  Tm  Tm7  1  0.815403  0.204564  0.421560  1
  W  W8  1  0.255397  0.723414  0.885599  1
  W  W9  1  0.744603  0.723414  0.385599  1
  W  W10  1  0.255397  0.276586  0.614401  1
  W  W11  1  0.744603  0.276586  0.114401  1
  O  O12  1  0.041012  0.941135  0.895391  1
  O  O13  1  0.535754  0.848761  0.930809  1
  O  O14  1  0.958988  0.941135  0.395391  1
  O  O15  1  0.460171  0.791729  0.726147  1
  O  O16  1  0.464246  0.848761  0.430809  1
  O  O17  1  0.980158  0.711262  0.770430  1
  O  O18  1  0.539829  0.791729  0.226147  1
  O  O19  1  0.851935  0.634066  0.550087  1
  O  O20  1  0.361588  0.487692  0.886061  1
  O  O21  1  0.019842  0.711262  0.270430  1
  O  O22  1  0.361588  0.512308  0.613939  1
  O  O23  1  0.851935  0.365934  0.949913  1
  O  O24  1  0.148065  0.634066  0.050087  1
  O  O25  1  0.638412  0.487692  0.386061  1
  O  O26  1  0.980158  0.288738  0.729570  1
  O  O27  1  0.638412  0.512308  0.113939  1
  O  O28  1  0.148065  0.365934  0.449913  1
  O  O29  1  0.460171  0.208271  0.773853  1
  O  O30  1  0.019842  0.288738  0.229570  1
  O  O31  1  0.535754  0.151239  0.569191  1
  O  O32  1  0.539829  0.208271  0.273853  1
  O  O33  1  0.041012  0.058865  0.604609  1
  O  O34  1  0.464246  0.151239  0.069191  1
  O  O35  1  0.958988  0.058865  0.104609  1
