# generated using pymatgen
data_K8Mn3CrS4(O4F3)4
_symmetry_space_group_name_H-M   'P 1'
_cell_length_a   11.02287500
_cell_length_b   7.40239475
_cell_length_c   8.61656500
_cell_angle_alpha   87.58202785
_cell_angle_beta   90.00000000
_cell_angle_gamma   90.00000000
_symmetry_Int_Tables_number   1
_chemical_formula_structural   K8Mn3CrS4(O4F3)4
_chemical_formula_sum   'K8 Mn3 Cr1 S4 O16 F12'
_cell_volume   702.44842682
_cell_formula_units_Z   1
loop_
 _symmetry_equiv_pos_site_id
 _symmetry_equiv_pos_as_xyz
  1  'x, y, z'
loop_
 _atom_site_type_symbol
 _atom_site_label
 _atom_site_symmetry_multiplicity
 _atom_site_fract_x
 _atom_site_fract_y
 _atom_site_fract_z
 _atom_site_occupancy
  K  K0  1  0.806616  0.181321  0.662736  1
  K  K1  1  0.808088  0.690060  0.334114  1
  K  K2  1  0.305943  0.816735  0.832287  1
  K  K3  1  0.193384  0.818679  0.337264  1
  K  K4  1  0.191912  0.309940  0.665886  1
  K  K5  1  0.306417  0.312478  0.168125  1
  K  K6  1  0.693583  0.687522  0.831875  1
  K  K7  1  0.694057  0.183265  0.167713  1
  Mn  Mn8  1  0.000000  0.500000  0.000000  1
  Mn  Mn9  1  0.500000  0.500000  0.500000  1
  Mn  Mn10  1  0.000000  0.000000  0.000000  1
  Cr  Cr11  1  0.500000  0.000000  0.500000  1
  S  S12  1  0.501306  0.751759  0.194244  1
  S  S13  1  0.999415  0.252622  0.310865  1
  S  S14  1  0.498694  0.248241  0.805756  1
  S  S15  1  0.000585  0.747378  0.689135  1
  O  O16  1  0.599174  0.833019  0.099555  1
  O  O17  1  0.099439  0.171719  0.402544  1
  O  O18  1  0.400826  0.166981  0.900445  1
  O  O19  1  0.900561  0.828281  0.597456  1
  O  O20  1  0.404826  0.671079  0.102893  1
  O  O21  1  0.907841  0.341492  0.405087  1
  O  O22  1  0.595174  0.328921  0.897107  1
  O  O23  1  0.092159  0.658508  0.594913  1
  O  O24  1  0.561317  0.605803  0.300350  1
  O  O25  1  0.059777  0.394515  0.199340  1
  O  O26  1  0.438683  0.394197  0.699650  1
  O  O27  1  0.940223  0.605485  0.800660  1
  O  O28  1  0.938877  0.114485  0.214531  1
  O  O29  1  0.555920  0.110412  0.702895  1
  O  O30  1  0.444080  0.889588  0.297105  1
  O  O31  1  0.061123  0.885515  0.785469  1
  F  F32  1  0.837018  0.976600  0.946177  1
  F  F33  1  0.331784  0.022233  0.556307  1
  F  F34  1  0.162982  0.023400  0.053823  1
  F  F35  1  0.668216  0.977767  0.443693  1
  F  F36  1  0.000482  0.237073  0.889716  1
  F  F37  1  0.500771  0.761539  0.610234  1
  F  F38  1  0.999518  0.762927  0.110284  1
  F  F39  1  0.499229  0.238461  0.389766  1
  F  F40  1  0.163225  0.522514  0.939149  1
  F  F41  1  0.836775  0.477486  0.060851  1
  F  F42  1  0.337863  0.523703  0.437851  1
  F  F43  1  0.662137  0.476297  0.562149  1
