# generated using pymatgen
data_Hf9Ta2Re2P
_symmetry_space_group_name_H-M   'P 1'
_cell_length_a   8.67940211
_cell_length_b   8.67940236
_cell_length_c   8.71513000
_cell_angle_alpha   90.00000000
_cell_angle_beta   90.00000000
_cell_angle_gamma   120.35393456
_symmetry_Int_Tables_number   1
_chemical_formula_structural   Hf9Ta2Re2P
_chemical_formula_sum   'Hf18 Ta4 Re4 P2'
_cell_volume   566.53162148
_cell_formula_units_Z   2
loop_
 _symmetry_equiv_pos_site_id
 _symmetry_equiv_pos_as_xyz
  1  'x, y, z'
loop_
 _atom_site_type_symbol
 _atom_site_label
 _atom_site_symmetry_multiplicity
 _atom_site_fract_x
 _atom_site_fract_y
 _atom_site_fract_z
 _atom_site_occupancy
  Hf  Hf0  1  0.198031  0.801969  0.453894  1
  Hf  Hf1  1  0.197538  0.394764  0.456767  1
  Hf  Hf2  1  0.605236  0.802462  0.456767  1
  Hf  Hf3  1  0.803876  0.196124  0.554022  1
  Hf  Hf4  1  0.802292  0.605721  0.551978  1
  Hf  Hf5  1  0.394279  0.197708  0.551978  1
  Hf  Hf6  1  0.803876  0.196124  0.945978  1
  Hf  Hf7  1  0.802292  0.605721  0.948022  1
  Hf  Hf8  1  0.394279  0.197708  0.948022  1
  Hf  Hf9  1  0.198031  0.801969  0.046106  1
  Hf  Hf10  1  0.197538  0.394764  0.043233  1
  Hf  Hf11  1  0.605236  0.802462  0.043233  1
  Hf  Hf12  1  0.535003  0.464997  0.250000  1
  Hf  Hf13  1  0.537664  0.073833  0.250000  1
  Hf  Hf14  1  0.926167  0.462336  0.250000  1
  Hf  Hf15  1  0.460133  0.539867  0.750000  1
  Hf  Hf16  1  0.463133  0.922529  0.750000  1
  Hf  Hf17  1  0.077471  0.536867  0.750000  1
  Ta  Ta18  1  0.889491  0.110509  0.250000  1
  Ta  Ta19  1  0.888540  0.777838  0.250000  1
  Ta  Ta20  1  0.222162  0.111460  0.250000  1
  Ta  Ta21  1  0.108157  0.891843  0.750000  1
  Re  Re22  1  0.109970  0.221081  0.750000  1
  Re  Re23  1  0.778919  0.890030  0.750000  1
  Re  Re24  1  0.999332  0.000668  0.498911  1
  Re  Re25  1  0.999332  0.000668  0.001089  1
  P  P26  1  0.334253  0.665747  0.250000  1
  P  P27  1  0.667770  0.332230  0.750000  1
