# generated using pymatgen
data_Pr5Eu3Te8
_symmetry_space_group_name_H-M   'P 1'
_cell_length_a   9.15430321
_cell_length_b   9.15430531
_cell_length_c   9.15430400
_cell_angle_alpha   59.46199547
_cell_angle_beta   59.46199498
_cell_angle_gamma   59.46199758
_symmetry_Int_Tables_number   1
_chemical_formula_structural   Pr5Eu3Te8
_chemical_formula_sum   'Pr5 Eu3 Te8'
_cell_volume   535.81285168
_cell_formula_units_Z   1
loop_
 _symmetry_equiv_pos_site_id
 _symmetry_equiv_pos_as_xyz
  1  'x, y, z'
loop_
 _atom_site_type_symbol
 _atom_site_label
 _atom_site_symmetry_multiplicity
 _atom_site_fract_x
 _atom_site_fract_y
 _atom_site_fract_z
 _atom_site_occupancy
  Pr  Pr0  1  0.125000  0.125000  0.125000  1
  Pr  Pr1  1  0.625000  0.125000  0.625000  1
  Pr  Pr2  1  0.625000  0.625000  0.625000  1
  Pr  Pr3  1  0.125000  0.625000  0.625000  1
  Pr  Pr4  1  0.625000  0.625000  0.125000  1
  Eu  Eu5  1  0.125000  0.625000  0.125000  1
  Eu  Eu6  1  0.125000  0.125000  0.625000  1
  Eu  Eu7  1  0.625000  0.125000  0.125000  1
  Te  Te8  1  0.374988  0.875640  0.374988  1
  Te  Te9  1  0.875012  0.374360  0.875012  1
  Te  Te10  1  0.875012  0.875012  0.374360  1
  Te  Te11  1  0.874842  0.874842  0.874842  1
  Te  Te12  1  0.875640  0.374988  0.374988  1
  Te  Te13  1  0.374988  0.374988  0.875640  1
  Te  Te14  1  0.375158  0.375158  0.375158  1
  Te  Te15  1  0.374360  0.875012  0.875012  1
