# generated using pymatgen
data_Rb3SrSmUTe6
_symmetry_space_group_name_H-M   'P 1'
_cell_length_a   8.08019492
_cell_length_b   8.08019554
_cell_length_c   8.98083832
_cell_angle_alpha   81.29736813
_cell_angle_beta   81.29736589
_cell_angle_gamma   120.04075634
_symmetry_Int_Tables_number   1
_chemical_formula_structural   Rb3SrSmUTe6
_chemical_formula_sum   'Rb3 Sr1 Sm1 U1 Te6'
_cell_volume   483.76051114
_cell_formula_units_Z   1
loop_
 _symmetry_equiv_pos_site_id
 _symmetry_equiv_pos_as_xyz
  1  'x, y, z'
loop_
 _atom_site_type_symbol
 _atom_site_label
 _atom_site_symmetry_multiplicity
 _atom_site_fract_x
 _atom_site_fract_y
 _atom_site_fract_z
 _atom_site_occupancy
  Rb  Rb0  1  0.659474  0.340526  0.500000  1
  Rb  Rb1  1  0.341109  0.658891  0.500000  1
  Rb  Rb2  1  0.999520  0.000480  0.500000  1
  Sr  Sr3  1  0.500061  0.499939  0.000000  1
  Sm  Sm4  1  0.832232  0.167768  0.000000  1
  U  U5  1  0.167603  0.832397  0.000000  1
  Te  Te6  1  0.789523  0.782729  0.201881  1
  Te  Te7  1  0.217271  0.210477  0.798119  1
  Te  Te8  1  0.423848  0.073345  0.204798  1
  Te  Te9  1  0.562152  0.919448  0.795026  1
  Te  Te10  1  0.926655  0.576152  0.795202  1
  Te  Te11  1  0.080552  0.437848  0.204974  1
