# generated using pymatgen
data_PrSm4Dy(RuBr3)2
_symmetry_space_group_name_H-M   'P 1'
_cell_length_a   4.20480600
_cell_length_b   8.70088615
_cell_length_c   12.12767705
_cell_angle_alpha   87.33115827
_cell_angle_beta   90.00000000
_cell_angle_gamma   90.00000000
_symmetry_Int_Tables_number   1
_chemical_formula_structural   PrSm4Dy(RuBr3)2
_chemical_formula_sum   'Pr1 Sm4 Dy1 Ru2 Br6'
_cell_volume   443.21633365
_cell_formula_units_Z   1
loop_
 _symmetry_equiv_pos_site_id
 _symmetry_equiv_pos_as_xyz
  1  'x, y, z'
loop_
 _atom_site_type_symbol
 _atom_site_label
 _atom_site_symmetry_multiplicity
 _atom_site_fract_x
 _atom_site_fract_y
 _atom_site_fract_z
 _atom_site_occupancy
  Pr  Pr0  1  0.750000  0.112711  0.170828  1
  Sm  Sm1  1  0.250000  0.282855  0.400624  1
  Sm  Sm2  1  0.750000  0.713798  0.604394  1
  Sm  Sm3  1  0.250000  0.866729  0.370353  1
  Sm  Sm4  1  0.250000  0.892599  0.824649  1
  Dy  Dy5  1  0.750000  0.125205  0.628442  1
  Ru  Ru6  1  0.250000  0.935585  0.597777  1
  Ru  Ru7  1  0.750000  0.063727  0.403588  1
  Br  Br8  1  0.250000  0.421100  0.631980  1
  Br  Br9  1  0.750000  0.570231  0.374137  1
  Br  Br10  1  0.250000  0.873752  0.103406  1
  Br  Br11  1  0.750000  0.128058  0.885968  1
  Br  Br12  1  0.250000  0.358752  0.148706  1
  Br  Br13  1  0.750000  0.654895  0.855152  1
