# generated using pymatgen
data_HoTm2Pa(ZnRh)4
_symmetry_space_group_name_H-M   'P 1'
_cell_length_a   3.84024700
_cell_length_b   7.07089570
_cell_length_c   8.30215485
_cell_angle_alpha   90.85575910
_cell_angle_beta   90.00000000
_cell_angle_gamma   90.00000000
_symmetry_Int_Tables_number   1
_chemical_formula_structural   HoTm2Pa(ZnRh)4
_chemical_formula_sum   'Ho1 Tm2 Pa1 Zn4 Rh4'
_cell_volume   225.41145191
_cell_formula_units_Z   1
loop_
 _symmetry_equiv_pos_site_id
 _symmetry_equiv_pos_as_xyz
  1  'x, y, z'
loop_
 _atom_site_type_symbol
 _atom_site_label
 _atom_site_symmetry_multiplicity
 _atom_site_fract_x
 _atom_site_fract_y
 _atom_site_fract_z
 _atom_site_occupancy
  Ho  Ho0  1  0.250000  0.053302  0.322351  1
  Tm  Tm1  1  0.750000  0.442107  0.808654  1
  Tm  Tm2  1  0.750000  0.940379  0.686395  1
  Pa  Pa3  1  0.250000  0.553917  0.178204  1
  Zn  Zn4  1  0.250000  0.620429  0.564479  1
  Zn  Zn5  1  0.750000  0.369205  0.443065  1
  Zn  Zn6  1  0.750000  0.895273  0.062706  1
  Zn  Zn7  1  0.250000  0.127239  0.934122  1
  Rh  Rh8  1  0.250000  0.738542  0.887219  1
  Rh  Rh9  1  0.750000  0.281988  0.128520  1
  Rh  Rh10  1  0.750000  0.743003  0.357049  1
  Rh  Rh11  1  0.250000  0.234617  0.627235  1
