# generated using pymatgen
data_Pr5TmU4O20
_symmetry_space_group_name_H-M   'P 1'
_cell_length_a   6.77536559
_cell_length_b   7.71271583
_cell_length_c   8.62743645
_cell_angle_alpha   101.59014223
_cell_angle_beta   97.67699739
_cell_angle_gamma   107.15687150
_symmetry_Int_Tables_number   1
_chemical_formula_structural   Pr5TmU4O20
_chemical_formula_sum   'Pr5 Tm1 U4 O20'
_cell_volume   412.93948562
_cell_formula_units_Z   1
loop_
 _symmetry_equiv_pos_site_id
 _symmetry_equiv_pos_as_xyz
  1  'x, y, z'
loop_
 _atom_site_type_symbol
 _atom_site_label
 _atom_site_symmetry_multiplicity
 _atom_site_fract_x
 _atom_site_fract_y
 _atom_site_fract_z
 _atom_site_occupancy
  Pr  Pr0  1  0.613951  0.704620  0.699549  1
  Pr  Pr1  1  0.386049  0.295380  0.300451  1
  Pr  Pr2  1  0.199066  0.898051  0.891877  1
  Pr  Pr3  1  0.000000  0.500000  0.500000  1
  Pr  Pr4  1  0.800934  0.101949  0.108123  1
  Tm  Tm5  1  0.000000  0.000000  0.500000  1
  U  U6  1  0.401691  0.804552  0.302476  1
  U  U7  1  0.197944  0.400353  0.900029  1
  U  U8  1  0.802056  0.599647  0.099971  1
  U  U9  1  0.598309  0.195448  0.697524  1
  O  O10  1  0.437705  0.534598  0.132717  1
  O  O11  1  0.556989  0.993893  0.836570  1
  O  O12  1  0.271531  0.151594  0.739727  1
  O  O13  1  0.360388  0.600637  0.438157  1
  O  O14  1  0.054640  0.735367  0.327568  1
  O  O15  1  0.443011  0.006107  0.163430  1
  O  O16  1  0.149979  0.189321  0.028064  1
  O  O17  1  0.562295  0.465402  0.867283  1
  O  O18  1  0.855869  0.341839  0.948667  1
  O  O19  1  0.254745  0.600538  0.763139  1
  O  O20  1  0.956333  0.783236  0.644173  1
  O  O21  1  0.350731  0.054923  0.456609  1
  O  O22  1  0.649269  0.945077  0.543391  1
  O  O23  1  0.043667  0.216764  0.355827  1
  O  O24  1  0.745255  0.399462  0.236861  1
  O  O25  1  0.144131  0.658161  0.051333  1
  O  O26  1  0.850021  0.810679  0.971936  1
  O  O27  1  0.945360  0.264633  0.672432  1
  O  O28  1  0.639612  0.399363  0.561843  1
  O  O29  1  0.728469  0.848406  0.260273  1
