# generated using pymatgen
data_SrSm2Ni2Ir7
_symmetry_space_group_name_H-M   'P 1'
_cell_length_a   9.08948457
_cell_length_b   9.08948515
_cell_length_c   9.08948400
_cell_angle_alpha   34.38285733
_cell_angle_beta   34.38285198
_cell_angle_gamma   34.38286348
_symmetry_Int_Tables_number   1
_chemical_formula_structural   SrSm2Ni2Ir7
_chemical_formula_sum   'Sr1 Sm2 Ni2 Ir7'
_cell_volume   213.61090460
_cell_formula_units_Z   1
loop_
 _symmetry_equiv_pos_site_id
 _symmetry_equiv_pos_as_xyz
  1  'x, y, z'
loop_
 _atom_site_type_symbol
 _atom_site_label
 _atom_site_symmetry_multiplicity
 _atom_site_fract_x
 _atom_site_fract_y
 _atom_site_fract_z
 _atom_site_occupancy
  Sr  Sr0  1  0.000000  0.000000  0.000000  1
  Sm  Sm1  1  0.860732  0.860732  0.860732  1
  Sm  Sm2  1  0.139268  0.139268  0.139268  1
  Ni  Ni3  1  0.667148  0.667148  0.667148  1
  Ni  Ni4  1  0.332852  0.332852  0.332852  1
  Ir  Ir5  1  0.419468  0.921032  0.419468  1
  Ir  Ir6  1  0.419468  0.419468  0.921032  1
  Ir  Ir7  1  0.921032  0.419468  0.419468  1
  Ir  Ir8  1  0.580532  0.078968  0.580532  1
  Ir  Ir9  1  0.580532  0.580532  0.078968  1
  Ir  Ir10  1  0.078968  0.580532  0.580532  1
  Ir  Ir11  1  0.500000  0.500000  0.500000  1
