# generated using pymatgen
data_TbY9NiHg3
_symmetry_space_group_name_H-M   'P 1'
_cell_length_a   9.70686888
_cell_length_b   9.71124213
_cell_length_c   9.59121319
_cell_angle_alpha   89.99999899
_cell_angle_beta   89.87798666
_cell_angle_gamma   120.01489562
_symmetry_Int_Tables_number   1
_chemical_formula_structural   TbY9NiHg3
_chemical_formula_sum   'Tb2 Y18 Ni2 Hg6'
_cell_volume   782.87351696
_cell_formula_units_Z   2
loop_
 _symmetry_equiv_pos_site_id
 _symmetry_equiv_pos_as_xyz
  1  'x, y, z'
loop_
 _atom_site_type_symbol
 _atom_site_label
 _atom_site_symmetry_multiplicity
 _atom_site_fract_x
 _atom_site_fract_y
 _atom_site_fract_z
 _atom_site_occupancy
  Tb  Tb0  1  0.210819  0.790193  0.435077  1
  Tb  Tb1  1  0.210819  0.420627  0.435077  1
  Y  Y2  1  0.999845  0.999922  0.499639  1
  Y  Y3  1  0.000049  0.000024  0.000322  1
  Y  Y4  1  0.543265  0.456575  0.250113  1
  Y  Y5  1  0.543265  0.086691  0.250113  1
  Y  Y6  1  0.913528  0.456765  0.249729  1
  Y  Y7  1  0.456736  0.543521  0.750095  1
  Y  Y8  1  0.456736  0.913214  0.750095  1
  Y  Y9  1  0.086846  0.543423  0.750219  1
  Y  Y10  1  0.582187  0.791094  0.436215  1
  Y  Y11  1  0.790555  0.209753  0.564374  1
  Y  Y12  1  0.790555  0.580800  0.564374  1
  Y  Y13  1  0.418281  0.209140  0.564538  1
  Y  Y14  1  0.790581  0.209646  0.935696  1
  Y  Y15  1  0.790581  0.580934  0.935696  1
  Y  Y16  1  0.419524  0.209762  0.935844  1
  Y  Y17  1  0.209076  0.790388  0.063608  1
  Y  Y18  1  0.209076  0.418689  0.063608  1
  Y  Y19  1  0.579675  0.789838  0.064253  1
  Ni  Ni20  1  0.331704  0.665852  0.250640  1
  Ni  Ni21  1  0.666704  0.333352  0.749744  1
  Hg  Hg22  1  0.879376  0.120297  0.250053  1
  Hg  Hg23  1  0.879376  0.759079  0.250053  1
  Hg  Hg24  1  0.241160  0.120580  0.249657  1
  Hg  Hg25  1  0.120507  0.879269  0.750362  1
  Hg  Hg26  1  0.120507  0.241238  0.750362  1
  Hg  Hg27  1  0.758668  0.879334  0.750444  1
