# generated using pymatgen
data_DyHo2Ni2Ir7
_symmetry_space_group_name_H-M   'P 1'
_cell_length_a   5.27180139
_cell_length_b   5.27180262
_cell_length_c   8.96831500
_cell_angle_alpha   72.90765886
_cell_angle_beta   72.90765478
_cell_angle_gamma   59.99999470
_symmetry_Int_Tables_number   1
_chemical_formula_structural   DyHo2Ni2Ir7
_chemical_formula_sum   'Dy1 Ho2 Ni2 Ir7'
_cell_volume   203.04263350
_cell_formula_units_Z   1
loop_
 _symmetry_equiv_pos_site_id
 _symmetry_equiv_pos_as_xyz
  1  'x, y, z'
loop_
 _atom_site_type_symbol
 _atom_site_label
 _atom_site_symmetry_multiplicity
 _atom_site_fract_x
 _atom_site_fract_y
 _atom_site_fract_z
 _atom_site_occupancy
  Dy  Dy0  1  0.000000  0.000000  0.000000  1
  Ho  Ho1  1  0.140333  0.140333  0.578999  1
  Ho  Ho2  1  0.859667  0.859667  0.421001  1
  Ni  Ni3  1  0.333446  0.333446  0.999663  1
  Ni  Ni4  1  0.666554  0.666554  0.000337  1
  Ir  Ir5  1  0.077877  0.581280  0.759564  1
  Ir  Ir6  1  0.581280  0.581280  0.759564  1
  Ir  Ir7  1  0.581280  0.077877  0.759564  1
  Ir  Ir8  1  0.922123  0.418720  0.240436  1
  Ir  Ir9  1  0.418720  0.418720  0.240436  1
  Ir  Ir10  1  0.418720  0.922123  0.240436  1
  Ir  Ir11  1  0.500000  0.500000  0.500000  1
