# generated using pymatgen
data_HfNb2P6PtO24
_symmetry_space_group_name_H-M   'P 1'
_cell_length_a   8.72653438
_cell_length_b   8.72281442
_cell_length_c   9.05859832
_cell_angle_alpha   90.07354776
_cell_angle_beta   118.67295196
_cell_angle_gamma   120.00885608
_symmetry_Int_Tables_number   1
_chemical_formula_structural   HfNb2P6PtO24
_chemical_formula_sum   'Hf1 Nb2 P6 Pt1 O24'
_cell_volume   496.77101548
_cell_formula_units_Z   1
loop_
 _symmetry_equiv_pos_site_id
 _symmetry_equiv_pos_as_xyz
  1  'x, y, z'
loop_
 _atom_site_type_symbol
 _atom_site_label
 _atom_site_symmetry_multiplicity
 _atom_site_fract_x
 _atom_site_fract_y
 _atom_site_fract_z
 _atom_site_occupancy
  Hf  Hf0  1  0.222241  0.862203  0.084159  1
  Nb  Nb1  1  0.214976  0.358295  0.572252  1
  Nb  Nb2  1  0.788161  0.143236  0.931729  1
  P  P3  1  0.985197  0.954901  0.252696  1
  P  P4  1  0.298077  0.531036  0.255174  1
  P  P5  1  0.277868  0.755345  0.745392  1
  P  P6  1  0.723583  0.266553  0.256240  1
  P  P7  1  0.724668  0.469509  0.746395  1
  P  P8  1  0.993322  0.023926  0.747967  1
  Pt  Pt9  1  0.792224  0.644762  0.437679  1
  O  O10  1  0.313851  0.710097  0.228743  1
  O  O11  1  0.858592  0.991585  0.082380  1
  O  O12  1  0.823047  0.844754  0.586101  1
  O  O13  1  0.812108  0.792519  0.267855  1
  O  O14  1  0.128423  0.915628  0.234273  1
  O  O15  1  0.475435  0.520187  0.270712  1
  O  O16  1  0.108041  0.759046  0.578108  1
  O  O17  1  0.907614  0.638976  0.910609  1
  O  O18  1  0.273129  0.775348  0.909202  1
  O  O19  1  0.490678  0.923557  0.780130  1
  O  O20  1  0.739825  0.472639  0.583164  1
  O  O21  1  0.742749  0.452165  0.264499  1
  O  O22  1  0.276059  0.578498  0.713700  1
  O  O23  1  0.281114  0.504731  0.417142  1
  O  O24  1  0.521370  0.102878  0.234373  1
  O  O25  1  0.724748  0.222686  0.090361  1
  O  O26  1  0.090723  0.362149  0.089104  1
  O  O27  1  0.916014  0.284812  0.420898  1
  O  O28  1  0.513975  0.436631  0.706532  1
  O  O29  1  0.859190  0.070454  0.779701  1
  O  O30  1  0.134679  0.194432  0.709665  1
  O  O31  1  0.130891  0.135599  0.411472  1
  O  O32  1  0.141311  0.007818  0.916258  1
  O  O33  1  0.716120  0.293045  0.785332  1
