# generated using pymatgen
data_HfZr3V4GaP3
_symmetry_space_group_name_H-M   'P 1'
_cell_length_a   3.49706100
_cell_length_b   6.73453837
_cell_length_c   8.05049670
_cell_angle_alpha   89.56339862
_cell_angle_beta   90.00000000
_cell_angle_gamma   90.00000000
_symmetry_Int_Tables_number   1
_chemical_formula_structural   HfZr3V4GaP3
_chemical_formula_sum   'Hf1 Zr3 V4 Ga1 P3'
_cell_volume   189.59247987
_cell_formula_units_Z   1
loop_
 _symmetry_equiv_pos_site_id
 _symmetry_equiv_pos_as_xyz
  1  'x, y, z'
loop_
 _atom_site_type_symbol
 _atom_site_label
 _atom_site_symmetry_multiplicity
 _atom_site_fract_x
 _atom_site_fract_y
 _atom_site_fract_z
 _atom_site_occupancy
  Hf  Hf0  1  0.250000  0.541000  0.672331  1
  Zr  Zr1  1  0.250000  0.040898  0.828994  1
  Zr  Zr2  1  0.750000  0.963082  0.160521  1
  Zr  Zr3  1  0.750000  0.446082  0.332159  1
  V  V4  1  0.250000  0.132853  0.446777  1
  V  V5  1  0.250000  0.622512  0.049983  1
  V  V6  1  0.750000  0.881920  0.567183  1
  V  V7  1  0.750000  0.370691  0.940757  1
  Ga  Ga8  1  0.250000  0.757845  0.363646  1
  P  P9  1  0.250000  0.261487  0.136177  1
  P  P10  1  0.750000  0.245592  0.638998  1
  P  P11  1  0.750000  0.736037  0.862472  1
