# generated using pymatgen
data_Ho3Er5(PI6)2
_symmetry_space_group_name_H-M   'P 1'
_cell_length_a   4.15967200
_cell_length_b   13.82708830
_cell_length_c   14.56295100
_cell_angle_alpha   90.09572859
_cell_angle_beta   90.00000000
_cell_angle_gamma   90.00000000
_symmetry_Int_Tables_number   1
_chemical_formula_structural   Ho3Er5(PI6)2
_chemical_formula_sum   'Ho3 Er5 P2 I12'
_cell_volume   837.60373477
_cell_formula_units_Z   1
loop_
 _symmetry_equiv_pos_site_id
 _symmetry_equiv_pos_as_xyz
  1  'x, y, z'
loop_
 _atom_site_type_symbol
 _atom_site_label
 _atom_site_symmetry_multiplicity
 _atom_site_fract_x
 _atom_site_fract_y
 _atom_site_fract_z
 _atom_site_occupancy
  Ho  Ho0  1  0.000000  0.893319  0.427866  1
  Ho  Ho1  1  0.000000  0.606826  0.927569  1
  Ho  Ho2  1  0.000000  0.393119  0.072262  1
  Er  Er3  1  0.500000  0.112566  0.351528  1
  Er  Er4  1  0.500000  0.887621  0.648433  1
  Er  Er5  1  0.500000  0.612678  0.148685  1
  Er  Er6  1  0.500000  0.387349  0.851514  1
  Er  Er7  1  0.000000  0.106526  0.572010  1
  P  P8  1  0.500000  0.000500  0.500228  1
  P  P9  1  0.500000  0.500074  0.000068  1
  I  I10  1  0.500000  0.247105  0.163761  1
  I  I11  1  0.500000  0.753280  0.836514  1
  I  I12  1  0.500000  0.747876  0.337122  1
  I  I13  1  0.500000  0.250870  0.662442  1
  I  I14  1  0.000000  0.258071  0.416877  1
  I  I15  1  0.000000  0.741779  0.584077  1
  I  I16  1  0.000000  0.758762  0.084406  1
  I  I17  1  0.000000  0.241119  0.915433  1
  I  I18  1  0.000000  0.000731  0.241236  1
  I  I19  1  0.000000  0.000319  0.758155  1
  I  I20  1  0.000000  0.500937  0.259412  1
  I  I21  1  0.000000  0.498573  0.740402  1
