# generated using pymatgen
data_Tb2Ho6Si12Ir3Rh
_symmetry_space_group_name_H-M   'P 1'
_cell_length_a   8.16651100
_cell_length_b   8.16651263
_cell_length_c   7.90474500
_cell_angle_alpha   90.00000000
_cell_angle_beta   90.00000000
_cell_angle_gamma   120.00000556
_symmetry_Int_Tables_number   1
_chemical_formula_structural   Tb2Ho6Si12Ir3Rh
_chemical_formula_sum   'Tb2 Ho6 Si12 Ir3 Rh1'
_cell_volume   456.55348398
_cell_formula_units_Z   1
loop_
 _symmetry_equiv_pos_site_id
 _symmetry_equiv_pos_as_xyz
  1  'x, y, z'
loop_
 _atom_site_type_symbol
 _atom_site_label
 _atom_site_symmetry_multiplicity
 _atom_site_fract_x
 _atom_site_fract_y
 _atom_site_fract_z
 _atom_site_occupancy
  Tb  Tb0  1  0.000000  0.000000  0.248828  1
  Tb  Tb1  1  0.000000  0.000000  0.750348  1
  Ho  Ho2  1  0.509755  0.490245  0.250132  1
  Ho  Ho3  1  0.509755  0.019511  0.250132  1
  Ho  Ho4  1  0.980489  0.490245  0.250132  1
  Ho  Ho5  1  0.490630  0.509370  0.749884  1
  Ho  Ho6  1  0.490630  0.981263  0.749884  1
  Ho  Ho7  1  0.018737  0.509370  0.749884  1
  Si  Si8  1  0.167033  0.832967  0.498851  1
  Si  Si9  1  0.167033  0.334066  0.498851  1
  Si  Si10  1  0.665934  0.832967  0.498851  1
  Si  Si11  1  0.833074  0.166926  0.500620  1
  Si  Si12  1  0.833074  0.666150  0.500620  1
  Si  Si13  1  0.333850  0.166926  0.500620  1
  Si  Si14  1  0.833182  0.166818  0.999435  1
  Si  Si15  1  0.833182  0.666362  0.999435  1
  Si  Si16  1  0.333638  0.166818  0.999435  1
  Si  Si17  1  0.167516  0.832484  0.999916  1
  Si  Si18  1  0.167516  0.335032  0.999916  1
  Si  Si19  1  0.664968  0.832484  0.999916  1
  Ir  Ir20  1  0.333333  0.666667  0.468622  1
  Ir  Ir21  1  0.666667  0.333333  0.532731  1
  Ir  Ir22  1  0.666667  0.333333  0.965698  1
  Rh  Rh23  1  0.333333  0.666667  0.037259  1
