# generated using pymatgen
data_Pa2SiIr3
_symmetry_space_group_name_H-M   'P 1'
_cell_length_a   5.12543394
_cell_length_b   5.12543308
_cell_length_c   5.12543274
_cell_angle_alpha   65.12941803
_cell_angle_beta   65.12942757
_cell_angle_gamma   65.12942135
_symmetry_Int_Tables_number   1
_chemical_formula_structural   Pa2SiIr3
_chemical_formula_sum   'Pa2 Si1 Ir3'
_cell_volume   105.86103669
_cell_formula_units_Z   1
loop_
 _symmetry_equiv_pos_site_id
 _symmetry_equiv_pos_as_xyz
  1  'x, y, z'
loop_
 _atom_site_type_symbol
 _atom_site_label
 _atom_site_symmetry_multiplicity
 _atom_site_fract_x
 _atom_site_fract_y
 _atom_site_fract_z
 _atom_site_occupancy
  Pa  Pa0  1  0.378988  0.378988  0.378988  1
  Pa  Pa1  1  0.621012  0.621012  0.621012  1
  Si  Si2  1  0.000000  0.000000  0.000000  1
  Ir  Ir3  1  0.500001  0.000000  0.000000  1
  Ir  Ir4  1  0.000000  0.500001  0.000000  1
  Ir  Ir5  1  0.000000  0.000000  0.499999  1
