# generated using pymatgen
data_TiNbAlCo5B2
_symmetry_space_group_name_H-M   'P 1'
_cell_length_a   8.56045800
_cell_length_b   8.55142700
_cell_length_c   2.96517700
_cell_angle_alpha   90.00000000
_cell_angle_beta   90.00000000
_cell_angle_gamma   90.00000000
_symmetry_Int_Tables_number   1
_chemical_formula_structural   TiNbAlCo5B2
_chemical_formula_sum   'Ti2 Nb2 Al2 Co10 B4'
_cell_volume   217.06320754
_cell_formula_units_Z   2
loop_
 _symmetry_equiv_pos_site_id
 _symmetry_equiv_pos_as_xyz
  1  'x, y, z'
loop_
 _atom_site_type_symbol
 _atom_site_label
 _atom_site_symmetry_multiplicity
 _atom_site_fract_x
 _atom_site_fract_y
 _atom_site_fract_z
 _atom_site_occupancy
  Ti  Ti0  1  0.676136  0.822697  0.000000  1
  Ti  Ti1  1  0.176136  0.677303  0.000000  1
  Nb  Nb2  1  0.823485  0.325174  0.000000  1
  Nb  Nb3  1  0.323485  0.174826  0.000000  1
  Al  Al4  1  0.000199  0.998947  0.000000  1
  Al  Al5  1  0.500199  0.501053  0.000000  1
  Co  Co6  1  0.502589  0.995327  0.500000  1
  Co  Co7  1  0.002589  0.504673  0.500000  1
  Co  Co8  1  0.067721  0.222022  0.500000  1
  Co  Co9  1  0.220811  0.927685  0.500000  1
  Co  Co10  1  0.778848  0.066460  0.500000  1
  Co  Co11  1  0.929235  0.780486  0.500000  1
  Co  Co12  1  0.429235  0.719514  0.500000  1
  Co  Co13  1  0.567721  0.277978  0.500000  1
  Co  Co14  1  0.720811  0.572315  0.500000  1
  Co  Co15  1  0.278848  0.433540  0.500000  1
  B  B16  1  0.621408  0.117929  0.000000  1
  B  B17  1  0.121408  0.382071  0.000000  1
  B  B18  1  0.879570  0.623757  0.000000  1
  B  B19  1  0.379570  0.876243  0.000000  1
