# generated using pymatgen
data_YbDy6Lu(B6Os)4
_symmetry_space_group_name_H-M   'P 1'
_cell_length_a   3.64612300
_cell_length_b   9.13857088
_cell_length_c   11.52561502
_cell_angle_alpha   89.93764360
_cell_angle_beta   90.00000000
_cell_angle_gamma   90.00000000
_symmetry_Int_Tables_number   1
_chemical_formula_structural   YbDy6Lu(B6Os)4
_chemical_formula_sum   'Yb1 Dy6 Lu1 B24 Os4'
_cell_volume   384.03733905
_cell_formula_units_Z   1
loop_
 _symmetry_equiv_pos_site_id
 _symmetry_equiv_pos_as_xyz
  1  'x, y, z'
loop_
 _atom_site_type_symbol
 _atom_site_label
 _atom_site_symmetry_multiplicity
 _atom_site_fract_x
 _atom_site_fract_y
 _atom_site_fract_z
 _atom_site_occupancy
  Yb  Yb0  1  0.000000  0.323155  0.413691  1
  Dy  Dy1  1  0.000000  0.676162  0.585551  1
  Dy  Dy2  1  0.000000  0.821794  0.086029  1
  Dy  Dy3  1  0.000000  0.178788  0.914206  1
  Dy  Dy4  1  0.000000  0.944086  0.371711  1
  Dy  Dy5  1  0.000000  0.058050  0.627886  1
  Dy  Dy6  1  0.000000  0.443288  0.128236  1
  Lu  Lu7  1  0.000000  0.556146  0.872410  1
  B  B8  1  0.500000  0.553524  0.432688  1
  B  B9  1  0.500000  0.446283  0.567697  1
  B  B10  1  0.500000  0.053068  0.066330  1
  B  B11  1  0.500000  0.945165  0.932515  1
  B  B12  1  0.500000  0.747916  0.419013  1
  B  B13  1  0.500000  0.252992  0.581279  1
  B  B14  1  0.500000  0.247695  0.080508  1
  B  B15  1  0.500000  0.750160  0.919251  1
  B  B16  1  0.500000  0.790953  0.266071  1
  B  B17  1  0.500000  0.210762  0.734432  1
  B  B18  1  0.500000  0.289897  0.233592  1
  B  B19  1  0.500000  0.707964  0.766786  1
  B  B20  1  0.500000  0.631607  0.185881  1
  B  B21  1  0.500000  0.370114  0.815532  1
  B  B22  1  0.500000  0.131592  0.313702  1
  B  B23  1  0.500000  0.867967  0.685766  1
  B  B24  1  0.500000  0.983419  0.211716  1
  B  B25  1  0.500000  0.016149  0.787536  1
  B  B26  1  0.500000  0.483394  0.287776  1
  B  B27  1  0.500000  0.517402  0.713787  1
  B  B28  1  0.500000  0.606328  0.028304  1
  B  B29  1  0.500000  0.395108  0.969888  1
  B  B30  1  0.500000  0.104936  0.471019  1
  B  B31  1  0.500000  0.894268  0.529392  1
  Os  Os32  1  0.000000  0.638778  0.320681  1
  Os  Os33  1  0.000000  0.363696  0.680687  1
  Os  Os34  1  0.000000  0.136539  0.176961  1
  Os  Os35  1  0.000000  0.860855  0.821491  1
