# generated using pymatgen
data_Pr3Sm2(RhO6)2
_symmetry_space_group_name_H-M   'P 1'
_cell_length_a   7.09268337
_cell_length_b   7.09268358
_cell_length_c   7.56868607
_cell_angle_alpha   74.23070056
_cell_angle_beta   74.23069902
_cell_angle_gamma   50.87155112
_symmetry_Int_Tables_number   1
_chemical_formula_structural   Pr3Sm2(RhO6)2
_chemical_formula_sum   'Pr3 Sm2 Rh2 O12'
_cell_volume   281.66998745
_cell_formula_units_Z   1
loop_
 _symmetry_equiv_pos_site_id
 _symmetry_equiv_pos_as_xyz
  1  'x, y, z'
loop_
 _atom_site_type_symbol
 _atom_site_label
 _atom_site_symmetry_multiplicity
 _atom_site_fract_x
 _atom_site_fract_y
 _atom_site_fract_z
 _atom_site_occupancy
  Pr  Pr0  1  0.692713  0.692713  0.168071  1
  Pr  Pr1  1  0.307287  0.307287  0.831929  1
  Pr  Pr2  1  0.000000  0.000000  0.500000  1
  Sm  Sm3  1  0.304427  0.304427  0.359028  1
  Sm  Sm4  1  0.695573  0.695573  0.640972  1
  Rh  Rh5  1  0.753694  0.246306  0.000000  1
  Rh  Rh6  1  0.246306  0.753694  0.000000  1
  O  O7  1  0.092980  0.595715  0.573252  1
  O  O8  1  0.999788  0.999788  0.173336  1
  O  O9  1  0.404285  0.907020  0.426748  1
  O  O10  1  0.498210  0.498210  0.180781  1
  O  O11  1  0.103080  0.574076  0.083327  1
  O  O12  1  0.907020  0.404285  0.426748  1
  O  O13  1  0.000212  0.000212  0.826664  1
  O  O14  1  0.595715  0.092979  0.573252  1
  O  O15  1  0.501790  0.501790  0.819219  1
  O  O16  1  0.574076  0.103080  0.083327  1
  O  O17  1  0.425924  0.896920  0.916673  1
  O  O18  1  0.896920  0.425924  0.916673  1
