# generated using pymatgen
data_YbWSeO6
_symmetry_space_group_name_H-M   'P 1'
_cell_length_a   6.67047905
_cell_length_b   7.23298410
_cell_length_c   10.45187551
_cell_angle_alpha   99.81086200
_cell_angle_beta   102.24426679
_cell_angle_gamma   89.05565625
_symmetry_Int_Tables_number   1
_chemical_formula_structural   YbWSeO6
_chemical_formula_sum   'Yb4 W4 Se4 O24'
_cell_volume   485.49726831
_cell_formula_units_Z   4
loop_
 _symmetry_equiv_pos_site_id
 _symmetry_equiv_pos_as_xyz
  1  'x, y, z'
loop_
 _atom_site_type_symbol
 _atom_site_label
 _atom_site_symmetry_multiplicity
 _atom_site_fract_x
 _atom_site_fract_y
 _atom_site_fract_z
 _atom_site_occupancy
  Yb  Yb0  1  0.756119  0.859389  0.514100  1
  Yb  Yb1  1  0.243881  0.140611  0.485900  1
  Yb  Yb2  1  0.670179  0.712789  0.841536  1
  Yb  Yb3  1  0.329821  0.287211  0.158464  1
  W  W4  1  0.170359  0.959329  0.799426  1
  W  W5  1  0.829641  0.040671  0.200574  1
  W  W6  1  0.179727  0.455728  0.799061  1
  W  W7  1  0.820273  0.544272  0.200939  1
  Se  Se8  1  0.285868  0.641360  0.518522  1
  Se  Se9  1  0.714132  0.358640  0.481478  1
  Se  Se10  1  0.637307  0.189675  0.785532  1
  Se  Se11  1  0.362693  0.810325  0.214468  1
  O  O12  1  0.178090  0.063645  0.966230  1
  O  O13  1  0.821910  0.936355  0.033770  1
  O  O14  1  0.898645  0.887597  0.747745  1
  O  O15  1  0.101355  0.112403  0.252255  1
  O  O16  1  0.139760  0.186721  0.717644  1
  O  O17  1  0.860240  0.813279  0.282356  1
  O  O18  1  0.288038  0.716069  0.830174  1
  O  O19  1  0.711962  0.283931  0.169826  1
  O  O20  1  0.160818  0.847985  0.581693  1
  O  O21  1  0.839182  0.152015  0.418307  1
  O  O22  1  0.490435  0.016561  0.825681  1
  O  O23  1  0.509565  0.983439  0.174319  1
  O  O24  1  0.220054  0.426904  0.967832  1
  O  O25  1  0.779946  0.573096  0.032168  1
  O  O26  1  0.912880  0.511818  0.766853  1
  O  O27  1  0.087120  0.488182  0.233147  1
  O  O28  1  0.200476  0.462903  0.593120  1
  O  O29  1  0.799524  0.537097  0.406880  1
  O  O30  1  0.500137  0.395729  0.804268  1
  O  O31  1  0.499863  0.604271  0.195732  1
  O  O32  1  0.532032  0.683762  0.607309  1
  O  O33  1  0.467968  0.316238  0.392691  1
  O  O34  1  0.579791  0.122464  0.615853  1
  O  O35  1  0.420209  0.877536  0.384147  1
