# generated using pymatgen
data_Sc24Tc7Ag
_symmetry_space_group_name_H-M   'P 1'
_cell_length_a   5.83001793
_cell_length_b   8.58835000
_cell_length_c   13.83740253
_cell_angle_alpha   90.00000000
_cell_angle_beta   90.46569048
_cell_angle_gamma   90.00000000
_symmetry_Int_Tables_number   1
_chemical_formula_structural   Sc24Tc7Ag
_chemical_formula_sum   'Sc24 Tc7 Ag1'
_cell_volume   692.81910416
_cell_formula_units_Z   1
loop_
 _symmetry_equiv_pos_site_id
 _symmetry_equiv_pos_as_xyz
  1  'x, y, z'
loop_
 _atom_site_type_symbol
 _atom_site_label
 _atom_site_symmetry_multiplicity
 _atom_site_fract_x
 _atom_site_fract_y
 _atom_site_fract_z
 _atom_site_occupancy
  Sc  Sc0  1  0.534177  0.750000  0.354246  1
  Sc  Sc1  1  0.030617  0.250000  0.147085  1
  Sc  Sc2  1  0.471248  0.250000  0.646222  1
  Sc  Sc3  1  0.964851  0.750000  0.860337  1
  Sc  Sc4  1  0.792793  0.750000  0.110930  1
  Sc  Sc5  1  0.296417  0.250000  0.386349  1
  Sc  Sc6  1  0.203391  0.250000  0.888838  1
  Sc  Sc7  1  0.692050  0.750000  0.609457  1
  Sc  Sc8  1  0.444229  0.944312  0.793951  1
  Sc  Sc9  1  0.926570  0.069483  0.708718  1
  Sc  Sc10  1  0.561898  0.437356  0.210511  1
  Sc  Sc11  1  0.064273  0.563308  0.290261  1
  Sc  Sc12  1  0.561898  0.062644  0.210511  1
  Sc  Sc13  1  0.064273  0.936692  0.290261  1
  Sc  Sc14  1  0.444229  0.555688  0.793951  1
  Sc  Sc15  1  0.926570  0.430517  0.708718  1
  Sc  Sc16  1  0.249359  0.950944  0.526341  1
  Sc  Sc17  1  0.746870  0.061196  0.968489  1
  Sc  Sc18  1  0.753469  0.439419  0.465974  1
  Sc  Sc19  1  0.254596  0.558718  0.034102  1
  Sc  Sc20  1  0.753469  0.060581  0.465974  1
  Sc  Sc21  1  0.254596  0.941282  0.034102  1
  Sc  Sc22  1  0.249359  0.549056  0.526341  1
  Sc  Sc23  1  0.746870  0.438804  0.968489  1
  Tc  Tc24  1  0.934581  0.750000  0.449206  1
  Tc  Tc25  1  0.428021  0.250000  0.057296  1
  Tc  Tc26  1  0.075511  0.250000  0.557041  1
  Tc  Tc27  1  0.567458  0.750000  0.940761  1
  Tc  Tc28  1  0.352984  0.750000  0.180693  1
  Tc  Tc29  1  0.855978  0.250000  0.319730  1
  Tc  Tc30  1  0.646710  0.250000  0.819970  1
  Ag  Ag31  1  0.150682  0.750000  0.675140  1
