# generated using pymatgen
data_Rb6MgSe4
_symmetry_space_group_name_H-M   'P 1'
_cell_length_a   10.76051300
_cell_length_b   10.76051222
_cell_length_c   8.42082400
_cell_angle_alpha   90.00000000
_cell_angle_beta   90.00000000
_cell_angle_gamma   119.99999933
_symmetry_Int_Tables_number   1
_chemical_formula_structural   Rb6MgSe4
_chemical_formula_sum   'Rb12 Mg2 Se8'
_cell_volume   844.40568095
_cell_formula_units_Z   2
loop_
 _symmetry_equiv_pos_site_id
 _symmetry_equiv_pos_as_xyz
  1  'x, y, z'
loop_
 _atom_site_type_symbol
 _atom_site_label
 _atom_site_symmetry_multiplicity
 _atom_site_fract_x
 _atom_site_fract_y
 _atom_site_fract_z
 _atom_site_occupancy
  Rb  Rb0  1  0.146522  0.853478  0.543682  1
  Rb  Rb1  1  0.293045  0.146522  0.043682  1
  Rb  Rb2  1  0.853478  0.706955  0.043682  1
  Rb  Rb3  1  0.146522  0.293045  0.543682  1
  Rb  Rb4  1  0.706955  0.853478  0.543682  1
  Rb  Rb5  1  0.853478  0.146522  0.043682  1
  Rb  Rb6  1  0.528397  0.471603  0.366074  1
  Rb  Rb7  1  0.056795  0.528397  0.866074  1
  Rb  Rb8  1  0.471603  0.943205  0.866074  1
  Rb  Rb9  1  0.528397  0.056795  0.366074  1
  Rb  Rb10  1  0.943205  0.471603  0.366074  1
  Rb  Rb11  1  0.471603  0.528397  0.866074  1
  Mg  Mg12  1  0.333333  0.666667  0.251917  1
  Mg  Mg13  1  0.666667  0.333333  0.751917  1
  Se  Se14  1  0.333333  0.666667  0.566964  1
  Se  Se15  1  0.666667  0.333333  0.066964  1
  Se  Se16  1  0.197659  0.802341  0.153850  1
  Se  Se17  1  0.395316  0.197659  0.653850  1
  Se  Se18  1  0.802341  0.604684  0.653850  1
  Se  Se19  1  0.197659  0.395316  0.153850  1
  Se  Se20  1  0.604684  0.802341  0.153850  1
  Se  Se21  1  0.802341  0.197659  0.653850  1
