# generated using pymatgen
data_Ac2HfRuF14
_symmetry_space_group_name_H-M   'P 1'
_cell_length_a   5.99448295
_cell_length_b   6.42417004
_cell_length_c   8.74603436
_cell_angle_alpha   78.46418801
_cell_angle_beta   89.70247781
_cell_angle_gamma   90.05249819
_symmetry_Int_Tables_number   1
_chemical_formula_structural   Ac2HfRuF14
_chemical_formula_sum   'Ac2 Hf1 Ru1 F14'
_cell_volume   329.99746772
_cell_formula_units_Z   1
loop_
 _symmetry_equiv_pos_site_id
 _symmetry_equiv_pos_as_xyz
  1  'x, y, z'
loop_
 _atom_site_type_symbol
 _atom_site_label
 _atom_site_symmetry_multiplicity
 _atom_site_fract_x
 _atom_site_fract_y
 _atom_site_fract_z
 _atom_site_occupancy
  Ac  Ac0  1  0.201856  0.659984  0.310947  1
  Ac  Ac1  1  0.701995  0.336137  0.693115  1
  Hf  Hf2  1  0.710908  0.191188  0.223192  1
  Ru  Ru3  1  0.211574  0.810072  0.776919  1
  F  F4  1  0.381361  0.440121  0.525823  1
  F  F5  1  0.878261  0.561242  0.471619  1
  F  F6  1  0.923456  0.948938  0.224406  1
  F  F7  1  0.419678  0.048257  0.773733  1
  F  F8  1  0.458911  0.978732  0.241497  1
  F  F9  1  0.961285  0.014615  0.760634  1
  F  F10  1  0.501510  0.437793  0.211895  1
  F  F11  1  0.004788  0.568292  0.785319  1
  F  F12  1  0.202412  0.763125  0.000373  1
  F  F13  1  0.700577  0.239214  0.990281  1
  F  F14  1  0.222221  0.860025  0.553027  1
  F  F15  1  0.721197  0.144799  0.456255  1
  F  F16  1  0.980783  0.381253  0.210198  1
  F  F17  1  0.469944  0.616211  0.790765  1
