# generated using pymatgen
data_Tb3PrEr(In2Pd)2
_symmetry_space_group_name_H-M   'P 1'
_cell_length_a   3.65623900
_cell_length_b   8.22589579
_cell_length_c   18.47353092
_cell_angle_alpha   89.85355887
_cell_angle_beta   90.00000000
_cell_angle_gamma   90.00000000
_symmetry_Int_Tables_number   1
_chemical_formula_structural   Tb3PrEr(In2Pd)2
_chemical_formula_sum   'Tb6 Pr2 Er2 In8 Pd4'
_cell_volume   555.60516391
_cell_formula_units_Z   2
loop_
 _symmetry_equiv_pos_site_id
 _symmetry_equiv_pos_as_xyz
  1  'x, y, z'
loop_
 _atom_site_type_symbol
 _atom_site_label
 _atom_site_symmetry_multiplicity
 _atom_site_fract_x
 _atom_site_fract_y
 _atom_site_fract_z
 _atom_site_occupancy
  Tb  Tb0  1  0.000000  0.738413  0.283395  1
  Tb  Tb1  1  0.000000  0.261587  0.716605  1
  Tb  Tb2  1  0.000000  0.761466  0.782064  1
  Tb  Tb3  1  0.000000  0.238534  0.217936  1
  Tb  Tb4  1  0.000000  0.621603  0.084164  1
  Tb  Tb5  1  0.000000  0.378397  0.915836  1
  Pr  Pr6  1  0.000000  0.500000  0.500000  1
  Pr  Pr7  1  0.000000  0.000000  0.000000  1
  Er  Er8  1  0.000000  0.879069  0.584757  1
  Er  Er9  1  0.000000  0.120931  0.415243  1
  In  In10  1  0.500000  0.700170  0.931359  1
  In  In11  1  0.500000  0.299830  0.068641  1
  In  In12  1  0.500000  0.803162  0.433167  1
  In  In13  1  0.500000  0.196838  0.566833  1
  In  In14  1  0.500000  0.585059  0.653568  1
  In  In15  1  0.500000  0.414941  0.346432  1
  In  In16  1  0.500000  0.917606  0.154265  1
  In  In17  1  0.500000  0.082394  0.845735  1
  Pd  Pd18  1  0.500000  0.524856  0.196003  1
  Pd  Pd19  1  0.500000  0.475144  0.803997  1
  Pd  Pd20  1  0.500000  0.974814  0.694165  1
  Pd  Pd21  1  0.500000  0.025186  0.305835  1
