# generated using pymatgen
data_Li6Ni16P7
_symmetry_space_group_name_H-M   'P 1'
_cell_length_a   7.76402895
_cell_length_b   7.76402911
_cell_length_c   7.76402900
_cell_angle_alpha   59.99999620
_cell_angle_beta   59.99999551
_cell_angle_gamma   59.99999769
_symmetry_Int_Tables_number   1
_chemical_formula_structural   Li6Ni16P7
_chemical_formula_sum   'Li6 Ni16 P7'
_cell_volume   330.93783174
_cell_formula_units_Z   1
loop_
 _symmetry_equiv_pos_site_id
 _symmetry_equiv_pos_as_xyz
  1  'x, y, z'
loop_
 _atom_site_type_symbol
 _atom_site_label
 _atom_site_symmetry_multiplicity
 _atom_site_fract_x
 _atom_site_fract_y
 _atom_site_fract_z
 _atom_site_occupancy
  Li  Li0  1  0.796717  0.203282  0.203282  1
  Li  Li1  1  0.203281  0.796718  0.796718  1
  Li  Li2  1  0.203282  0.796717  0.203282  1
  Li  Li3  1  0.203282  0.203282  0.796717  1
  Li  Li4  1  0.796718  0.203281  0.796718  1
  Li  Li5  1  0.796718  0.796718  0.203281  1
  Ni  Ni6  1  0.382646  0.382646  0.382646  1
  Ni  Ni7  1  0.382646  0.382646  0.852063  1
  Ni  Ni8  1  0.852063  0.382646  0.382646  1
  Ni  Ni9  1  0.382646  0.852063  0.382646  1
  Ni  Ni10  1  0.617354  0.617354  0.617354  1
  Ni  Ni11  1  0.617354  0.617354  0.147937  1
  Ni  Ni12  1  0.617354  0.147937  0.617354  1
  Ni  Ni13  1  0.147937  0.617354  0.617354  1
  Ni  Ni14  1  0.165002  0.165002  0.165002  1
  Ni  Ni15  1  0.165002  0.165002  0.504995  1
  Ni  Ni16  1  0.504995  0.165002  0.165002  1
  Ni  Ni17  1  0.165002  0.504995  0.165002  1
  Ni  Ni18  1  0.834998  0.834998  0.834998  1
  Ni  Ni19  1  0.834998  0.834998  0.495006  1
  Ni  Ni20  1  0.834998  0.495006  0.834998  1
  Ni  Ni21  1  0.495006  0.834998  0.834998  1
  P  P22  1  0.500000  0.000000  0.500000  1
  P  P23  1  0.000000  0.000000  0.500000  1
  P  P24  1  0.000000  0.500000  0.000000  1
  P  P25  1  0.000000  0.500000  0.500000  1
  P  P26  1  0.500000  0.000000  0.000000  1
  P  P27  1  0.500000  0.500000  0.000000  1
  P  P28  1  0.500000  0.500000  0.500000  1
