# generated using pymatgen
data_Sm7Ho(ReI4)2
_symmetry_space_group_name_H-M   'P 1'
_cell_length_a   11.12396616
_cell_length_b   11.08363716
_cell_length_c   6.32956500
_cell_angle_alpha   90.06830850
_cell_angle_beta   90.15006983
_cell_angle_gamma   89.85524875
_symmetry_Int_Tables_number   1
_chemical_formula_structural   Sm7Ho(ReI4)2
_chemical_formula_sum   'Sm7 Ho1 Re2 I8'
_cell_volume   780.39170086
_cell_formula_units_Z   1
loop_
 _symmetry_equiv_pos_site_id
 _symmetry_equiv_pos_as_xyz
  1  'x, y, z'
loop_
 _atom_site_type_symbol
 _atom_site_label
 _atom_site_symmetry_multiplicity
 _atom_site_fract_x
 _atom_site_fract_y
 _atom_site_fract_z
 _atom_site_occupancy
  Sm  Sm0  1  0.083531  0.790587  0.499575  1
  Sm  Sm1  1  0.083770  0.208555  0.001188  1
  Sm  Sm2  1  0.207869  0.084515  0.501401  1
  Sm  Sm3  1  0.916555  0.791828  0.998625  1
  Sm  Sm4  1  0.914688  0.208239  0.500178  1
  Sm  Sm5  1  0.209058  0.915318  0.000792  1
  Sm  Sm6  1  0.791738  0.916763  0.498449  1
  Ho  Ho7  1  0.801599  0.081123  0.998869  1
  Re  Re8  1  0.000973  0.999567  0.249987  1
  Re  Re9  1  0.001010  0.999556  0.749810  1
  I  I10  1  0.633487  0.156771  0.501304  1
  I  I11  1  0.840958  0.632881  0.500175  1
  I  I12  1  0.365780  0.157868  0.000112  1
  I  I13  1  0.154154  0.368254  0.499908  1
  I  I14  1  0.634891  0.853347  0.999346  1
  I  I15  1  0.365845  0.842191  0.499928  1
  I  I16  1  0.156773  0.631682  0.000081  1
  I  I17  1  0.837321  0.360955  0.000272  1
