# generated using pymatgen
data_Na2TiNb5(Co4P3)4
_symmetry_space_group_name_H-M   'P 1'
_cell_length_a   11.99655700
_cell_length_b   12.01220962
_cell_length_c   3.59633100
_cell_angle_alpha   90.00000000
_cell_angle_beta   90.00000000
_cell_angle_gamma   119.95690725
_symmetry_Int_Tables_number   1
_chemical_formula_structural   Na2TiNb5(Co4P3)4
_chemical_formula_sum   'Na2 Ti1 Nb5 Co16 P12'
_cell_volume   449.01229482
_cell_formula_units_Z   1
loop_
 _symmetry_equiv_pos_site_id
 _symmetry_equiv_pos_as_xyz
  1  'x, y, z'
loop_
 _atom_site_type_symbol
 _atom_site_label
 _atom_site_symmetry_multiplicity
 _atom_site_fract_x
 _atom_site_fract_y
 _atom_site_fract_z
 _atom_site_occupancy
  Na  Na0  1  0.333083  0.667466  0.000000  1
  Na  Na1  1  0.665618  0.332534  0.000000  1
  Ti  Ti2  1  0.442072  0.000000  0.000000  1
  Nb  Nb3  1  0.819197  0.000000  0.500000  1
  Nb  Nb4  1  0.001617  0.821528  0.500000  1
  Nb  Nb5  1  0.180089  0.178472  0.500000  1
  Nb  Nb6  1  0.999720  0.444320  0.000000  1
  Nb  Nb7  1  0.555400  0.555680  0.000000  1
  Co  Co8  1  0.278241  0.000000  0.500000  1
  Co  Co9  1  0.999530  0.274534  0.500000  1
  Co  Co10  1  0.724996  0.725466  0.500000  1
  Co  Co11  1  0.635580  0.809404  0.000000  1
  Co  Co12  1  0.193858  0.827907  0.000000  1
  Co  Co13  1  0.172866  0.363376  0.000000  1
  Co  Co14  1  0.365950  0.172093  0.000000  1
  Co  Co15  1  0.809490  0.636624  0.000000  1
  Co  Co16  1  0.826175  0.190596  0.000000  1
  Co  Co17  1  0.524644  0.877529  0.500000  1
  Co  Co18  1  0.123996  0.650826  0.500000  1
  Co  Co19  1  0.350639  0.474863  0.500000  1
  Co  Co20  1  0.473169  0.349174  0.500000  1
  Co  Co21  1  0.875776  0.525137  0.500000  1
  Co  Co22  1  0.647115  0.122471  0.500000  1
  Co  Co23  1  0.000673  0.000000  0.000000  1
  P  P24  1  0.173327  0.000000  0.000000  1
  P  P25  1  0.999643  0.171733  0.000000  1
  P  P26  1  0.827910  0.828267  0.000000  1
  P  P27  1  0.517215  0.689028  0.500000  1
  P  P28  1  0.314269  0.831511  0.500000  1
  P  P29  1  0.170536  0.482740  0.500000  1
  P  P30  1  0.482758  0.168489  0.500000  1
  P  P31  1  0.687796  0.517260  0.500000  1
  P  P32  1  0.828188  0.310972  0.500000  1
  P  P33  1  0.646855  0.000000  0.000000  1
  P  P34  1  0.001050  0.650090  0.000000  1
  P  P35  1  0.350960  0.349910  0.000000  1
