# generated using pymatgen
data_Zr10GaCuPb6
_symmetry_space_group_name_H-M   'P 1'
_cell_length_a   8.83740100
_cell_length_b   8.83740232
_cell_length_c   5.96262100
_cell_angle_alpha   90.00000000
_cell_angle_beta   90.00000000
_cell_angle_gamma   119.99999882
_symmetry_Int_Tables_number   1
_chemical_formula_structural   Zr10GaCuPb6
_chemical_formula_sum   'Zr10 Ga1 Cu1 Pb6'
_cell_volume   403.28960709
_cell_formula_units_Z   1
loop_
 _symmetry_equiv_pos_site_id
 _symmetry_equiv_pos_as_xyz
  1  'x, y, z'
loop_
 _atom_site_type_symbol
 _atom_site_label
 _atom_site_symmetry_multiplicity
 _atom_site_fract_x
 _atom_site_fract_y
 _atom_site_fract_z
 _atom_site_occupancy
  Zr  Zr0  1  0.666667  0.333333  0.000000  1
  Zr  Zr1  1  0.333333  0.666667  0.000000  1
  Zr  Zr2  1  0.333333  0.666667  0.500000  1
  Zr  Zr3  1  0.666667  0.333333  0.500000  1
  Zr  Zr4  1  0.740113  0.740113  0.752276  1
  Zr  Zr5  1  0.259887  0.000000  0.752276  1
  Zr  Zr6  1  0.000000  0.259887  0.752276  1
  Zr  Zr7  1  0.259887  0.259887  0.247724  1
  Zr  Zr8  1  0.740113  0.000000  0.247724  1
  Zr  Zr9  1  0.000000  0.740113  0.247724  1
  Ga  Ga10  1  0.000000  0.000000  0.500000  1
  Cu  Cu11  1  0.000000  0.000000  0.000000  1
  Pb  Pb12  1  0.387097  0.387097  0.748166  1
  Pb  Pb13  1  0.612903  0.000000  0.748166  1
  Pb  Pb14  1  0.000000  0.612903  0.748166  1
  Pb  Pb15  1  0.612903  0.612903  0.251834  1
  Pb  Pb16  1  0.387097  0.000000  0.251834  1
  Pb  Pb17  1  0.000000  0.387097  0.251834  1
