# generated using pymatgen
data_LaYbTmCoSn6
_symmetry_space_group_name_H-M   'P 1'
_cell_length_a   8.43521962
_cell_length_b   8.43521981
_cell_length_c   13.38001300
_cell_angle_alpha   90.00000000
_cell_angle_beta   90.00000000
_cell_angle_gamma   147.78326626
_symmetry_Int_Tables_number   1
_chemical_formula_structural   LaYbTmCoSn6
_chemical_formula_sum   'La2 Yb2 Tm2 Co2 Sn12'
_cell_volume   507.54794293
_cell_formula_units_Z   2
loop_
 _symmetry_equiv_pos_site_id
 _symmetry_equiv_pos_as_xyz
  1  'x, y, z'
loop_
 _atom_site_type_symbol
 _atom_site_label
 _atom_site_symmetry_multiplicity
 _atom_site_fract_x
 _atom_site_fract_y
 _atom_site_fract_z
 _atom_site_occupancy
  La  La0  1  0.900572  0.099428  0.094749  1
  La  La1  1  0.099428  0.900572  0.594749  1
  Yb  Yb2  1  0.099938  0.900062  0.903270  1
  Yb  Yb3  1  0.900062  0.099938  0.403270  1
  Tm  Tm4  1  0.899563  0.100437  0.752420  1
  Tm  Tm5  1  0.100437  0.899563  0.252420  1
  Co  Co6  1  0.296749  0.703251  0.248958  1
  Co  Co7  1  0.703251  0.296749  0.748958  1
  Sn  Sn8  1  0.759640  0.240360  0.571640  1
  Sn  Sn9  1  0.425695  0.574305  0.578577  1
  Sn  Sn10  1  0.574041  0.425959  0.420897  1
  Sn  Sn11  1  0.731659  0.268341  0.250086  1
  Sn  Sn12  1  0.268341  0.731659  0.750086  1
  Sn  Sn13  1  0.240360  0.759640  0.071640  1
  Sn  Sn14  1  0.245762  0.754238  0.427073  1
  Sn  Sn15  1  0.574305  0.425695  0.078577  1
  Sn  Sn16  1  0.455532  0.544468  0.252330  1
  Sn  Sn17  1  0.544468  0.455532  0.752330  1
  Sn  Sn18  1  0.754238  0.245762  0.927073  1
  Sn  Sn19  1  0.425959  0.574041  0.920897  1
