# generated using pymatgen
data_Hf16TaNi4Rh3
_symmetry_space_group_name_H-M   'P 1'
_cell_length_a   8.69771259
_cell_length_b   8.61587634
_cell_length_c   8.61587700
_cell_angle_alpha   60.00000129
_cell_angle_beta   60.31076147
_cell_angle_gamma   60.31076716
_symmetry_Int_Tables_number   1
_chemical_formula_structural   Hf16TaNi4Rh3
_chemical_formula_sum   'Hf16 Ta1 Ni4 Rh3'
_cell_volume   458.68346445
_cell_formula_units_Z   1
loop_
 _symmetry_equiv_pos_site_id
 _symmetry_equiv_pos_as_xyz
  1  'x, y, z'
loop_
 _atom_site_type_symbol
 _atom_site_label
 _atom_site_symmetry_multiplicity
 _atom_site_fract_x
 _atom_site_fract_y
 _atom_site_fract_z
 _atom_site_occupancy
  Hf  Hf0  1  0.668307  0.110564  0.110564  1
  Hf  Hf1  1  0.102780  0.694613  0.101302  1
  Hf  Hf2  1  0.102780  0.101302  0.694613  1
  Hf  Hf3  1  0.102780  0.101302  0.101302  1
  Hf  Hf4  1  0.316912  0.315071  0.684009  1
  Hf  Hf5  1  0.695125  0.677018  0.313929  1
  Hf  Hf6  1  0.316912  0.684009  0.315071  1
  Hf  Hf7  1  0.695125  0.313929  0.677018  1
  Hf  Hf8  1  0.695125  0.313929  0.313929  1
  Hf  Hf9  1  0.316912  0.684009  0.684009  1
  Hf  Hf10  1  0.944182  0.949684  0.553068  1
  Hf  Hf11  1  0.552079  0.551309  0.948306  1
  Hf  Hf12  1  0.944182  0.553068  0.949684  1
  Hf  Hf13  1  0.552079  0.948306  0.551309  1
  Hf  Hf14  1  0.552079  0.948306  0.948306  1
  Hf  Hf15  1  0.944182  0.553068  0.553068  1
  Ta  Ta16  1  0.012875  0.329041  0.329041  1
  Ni  Ni17  1  0.328453  0.890516  0.890516  1
  Ni  Ni18  1  0.885161  0.319858  0.897491  1
  Ni  Ni19  1  0.885161  0.897491  0.319858  1
  Ni  Ni20  1  0.885161  0.897491  0.897491  1
  Rh  Rh21  1  0.333882  0.988727  0.338695  1
  Rh  Rh22  1  0.333882  0.338695  0.988727  1
  Rh  Rh23  1  0.333882  0.338695  0.338695  1
