# generated using pymatgen
data_Ho3Er3Tm10(CdIr)4
_symmetry_space_group_name_H-M   'P 1'
_cell_length_a   9.52571966
_cell_length_b   9.53027718
_cell_length_c   9.52510575
_cell_angle_alpha   59.98630639
_cell_angle_beta   59.96099009
_cell_angle_gamma   59.97990763
_symmetry_Int_Tables_number   1
_chemical_formula_structural   Ho3Er3Tm10(CdIr)4
_chemical_formula_sum   'Ho3 Er3 Tm10 Cd4 Ir4'
_cell_volume   611.10953377
_cell_formula_units_Z   1
loop_
 _symmetry_equiv_pos_site_id
 _symmetry_equiv_pos_as_xyz
  1  'x, y, z'
loop_
 _atom_site_type_symbol
 _atom_site_label
 _atom_site_symmetry_multiplicity
 _atom_site_fract_x
 _atom_site_fract_y
 _atom_site_fract_z
 _atom_site_occupancy
  Ho  Ho0  1  0.188078  0.812167  0.812227  1
  Ho  Ho1  1  0.812227  0.187528  0.188078  1
  Ho  Ho2  1  0.812253  0.187747  0.812253  1
  Er  Er3  1  0.187865  0.812135  0.187865  1
  Er  Er4  1  0.812114  0.812029  0.188206  1
  Er  Er5  1  0.188206  0.187651  0.812114  1
  Tm  Tm6  1  0.599101  0.598847  0.599089  1
  Tm  Tm7  1  0.599507  0.599020  0.202381  1
  Tm  Tm8  1  0.599089  0.202963  0.599101  1
  Tm  Tm9  1  0.202381  0.599092  0.599507  1
  Tm  Tm10  1  0.060463  0.439499  0.438891  1
  Tm  Tm11  1  0.438891  0.061147  0.060463  1
  Tm  Tm12  1  0.439230  0.060770  0.439230  1
  Tm  Tm13  1  0.060898  0.439102  0.060898  1
  Tm  Tm14  1  0.438840  0.439402  0.060506  1
  Tm  Tm15  1  0.060506  0.061252  0.438840  1
  Cd  Cd16  1  0.830812  0.830900  0.830940  1
  Cd  Cd17  1  0.831105  0.831128  0.506510  1
  Cd  Cd18  1  0.830940  0.507346  0.830812  1
  Cd  Cd19  1  0.506510  0.831254  0.831105  1
  Ir  Ir20  1  0.392025  0.391551  0.392165  1
  Ir  Ir21  1  0.392077  0.391540  0.824713  1
  Ir  Ir22  1  0.392165  0.824258  0.392025  1
  Ir  Ir23  1  0.824713  0.391669  0.392077  1
