# generated using pymatgen
data_TbNpN3
_symmetry_space_group_name_H-M   'P 1'
_cell_length_a   5.70001700
_cell_length_b   5.95813300
_cell_length_c   8.26268900
_cell_angle_alpha   90.00000000
_cell_angle_beta   90.00000000
_cell_angle_gamma   90.00000000
_symmetry_Int_Tables_number   1
_chemical_formula_structural   TbNpN3
_chemical_formula_sum   'Tb4 Np4 N12'
_cell_volume   280.61297691
_cell_formula_units_Z   4
loop_
 _symmetry_equiv_pos_site_id
 _symmetry_equiv_pos_as_xyz
  1  'x, y, z'
loop_
 _atom_site_type_symbol
 _atom_site_label
 _atom_site_symmetry_multiplicity
 _atom_site_fract_x
 _atom_site_fract_y
 _atom_site_fract_z
 _atom_site_occupancy
  Tb  Tb0  1  0.513933  0.557254  0.250000  1
  Tb  Tb1  1  0.986067  0.057254  0.250000  1
  Tb  Tb2  1  0.486067  0.442746  0.750000  1
  Tb  Tb3  1  0.013933  0.942746  0.750000  1
  Np  Np4  1  0.000000  0.500000  0.000000  1
  Np  Np5  1  0.500000  0.000000  0.500000  1
  Np  Np6  1  0.000000  0.500000  0.500000  1
  Np  Np7  1  0.500000  0.000000  0.000000  1
  N  N8  1  0.384895  0.953549  0.250000  1
  N  N9  1  0.115105  0.453549  0.250000  1
  N  N10  1  0.615105  0.046451  0.750000  1
  N  N11  1  0.884895  0.546451  0.750000  1
  N  N12  1  0.788904  0.811505  0.060631  1
  N  N13  1  0.711096  0.311505  0.439369  1
  N  N14  1  0.211096  0.188495  0.560631  1
  N  N15  1  0.288904  0.688495  0.939369  1
  N  N16  1  0.211096  0.188495  0.939369  1
  N  N17  1  0.288904  0.688495  0.560631  1
  N  N18  1  0.788904  0.811505  0.439369  1
  N  N19  1  0.711096  0.311505  0.060631  1
