# generated using pymatgen
data_Er3Sn3Pd2Ru
_symmetry_space_group_name_H-M   'P 1'
_cell_length_a   7.62265000
_cell_length_b   7.62264903
_cell_length_c   3.83007500
_cell_angle_alpha   90.00000000
_cell_angle_beta   90.00000000
_cell_angle_gamma   119.99999554
_symmetry_Int_Tables_number   1
_chemical_formula_structural   Er3Sn3Pd2Ru
_chemical_formula_sum   'Er3 Sn3 Pd2 Ru1'
_cell_volume   192.73022692
_cell_formula_units_Z   1
loop_
 _symmetry_equiv_pos_site_id
 _symmetry_equiv_pos_as_xyz
  1  'x, y, z'
loop_
 _atom_site_type_symbol
 _atom_site_label
 _atom_site_symmetry_multiplicity
 _atom_site_fract_x
 _atom_site_fract_y
 _atom_site_fract_z
 _atom_site_occupancy
  Er  Er0  1  0.401283  0.401283  0.500000  1
  Er  Er1  1  0.598717  0.000000  0.500000  1
  Er  Er2  1  0.000000  0.598717  0.500000  1
  Sn  Sn3  1  0.739698  0.739698  0.000000  1
  Sn  Sn4  1  0.260302  0.000000  0.000000  1
  Sn  Sn5  1  0.000000  0.260302  0.000000  1
  Pd  Pd6  1  0.666667  0.333333  0.000000  1
  Pd  Pd7  1  0.333333  0.666667  0.000000  1
  Ru  Ru8  1  0.000000  0.000000  0.500000  1
