# generated using pymatgen
data_Li2Dy2BRh4
_symmetry_space_group_name_H-M   'P 1'
_cell_length_a   5.88329980
_cell_length_b   5.88329851
_cell_length_c   5.67154400
_cell_angle_alpha   61.18364734
_cell_angle_beta   61.18365423
_cell_angle_gamma   59.93615961
_symmetry_Int_Tables_number   1
_chemical_formula_structural   Li2Dy2BRh4
_chemical_formula_sum   'Li2 Dy2 B1 Rh4'
_cell_volume   141.17362576
_cell_formula_units_Z   1
loop_
 _symmetry_equiv_pos_site_id
 _symmetry_equiv_pos_as_xyz
  1  'x, y, z'
loop_
 _atom_site_type_symbol
 _atom_site_label
 _atom_site_symmetry_multiplicity
 _atom_site_fract_x
 _atom_site_fract_y
 _atom_site_fract_z
 _atom_site_occupancy
  Li  Li0  1  0.736918  0.263083  0.263775  1
  Li  Li1  1  0.263083  0.736918  0.263775  1
  Dy  Dy2  1  0.245995  0.245995  0.258956  1
  Dy  Dy3  1  0.754005  0.754005  0.750946  1
  B  B4  1  0.000000  0.000000  0.966573  1
  Rh  Rh5  1  0.755364  0.755364  0.254157  1
  Rh  Rh6  1  0.244636  0.244636  0.764884  1
  Rh  Rh7  1  0.734244  0.265757  0.738467  1
  Rh  Rh8  1  0.265757  0.734244  0.738467  1
