# generated using pymatgen
data_Th5As12Ru19
_symmetry_space_group_name_H-M   'P 1'
_cell_length_a   13.08379700
_cell_length_b   13.08379711
_cell_length_c   4.11444000
_cell_angle_alpha   90.00000000
_cell_angle_beta   90.00000000
_cell_angle_gamma   119.99999718
_symmetry_Int_Tables_number   1
_chemical_formula_structural   Th5As12Ru19
_chemical_formula_sum   'Th5 As12 Ru19'
_cell_volume   609.97070235
_cell_formula_units_Z   1
loop_
 _symmetry_equiv_pos_site_id
 _symmetry_equiv_pos_as_xyz
  1  'x, y, z'
loop_
 _atom_site_type_symbol
 _atom_site_label
 _atom_site_symmetry_multiplicity
 _atom_site_fract_x
 _atom_site_fract_y
 _atom_site_fract_z
 _atom_site_occupancy
  Th  Th0  1  0.188512  0.188512  0.500000  1
  Th  Th1  1  0.811488  0.000000  0.500000  1
  Th  Th2  1  0.000000  0.811488  0.500000  1
  Th  Th3  1  0.333333  0.666667  0.000000  1
  Th  Th4  1  0.666667  0.333333  0.000000  1
  As  As5  1  0.816024  0.816024  0.000000  1
  As  As6  1  0.183976  0.000000  0.000000  1
  As  As7  1  0.000000  0.183976  0.000000  1
  As  As8  1  0.169095  0.477454  0.500000  1
  As  As9  1  0.522546  0.691642  0.500000  1
  As  As10  1  0.308358  0.830905  0.500000  1
  As  As11  1  0.691642  0.522546  0.500000  1
  As  As12  1  0.830905  0.308358  0.500000  1
  As  As13  1  0.477454  0.169095  0.500000  1
  As  As14  1  0.374633  0.374633  0.000000  1
  As  As15  1  0.625367  0.000000  0.000000  1
  As  As16  1  0.000000  0.625367  0.000000  1
  Ru  Ru17  1  0.558782  0.558782  0.000000  1
  Ru  Ru18  1  0.441218  0.000000  0.000000  1
  Ru  Ru19  1  0.000000  0.441218  0.000000  1
  Ru  Ru20  1  0.717768  0.717768  0.500000  1
  Ru  Ru21  1  0.282232  0.000000  0.500000  1
  Ru  Ru22  1  0.000000  0.282232  0.500000  1
  Ru  Ru23  1  0.183594  0.376513  0.000000  1
  Ru  Ru24  1  0.623487  0.807081  0.000000  1
  Ru  Ru25  1  0.192919  0.816406  0.000000  1
  Ru  Ru26  1  0.807081  0.623487  0.000000  1
  Ru  Ru27  1  0.816406  0.192919  0.000000  1
  Ru  Ru28  1  0.376513  0.183594  0.000000  1
  Ru  Ru29  1  0.364898  0.489714  0.500000  1
  Ru  Ru30  1  0.510286  0.875182  0.500000  1
  Ru  Ru31  1  0.124818  0.635102  0.500000  1
  Ru  Ru32  1  0.875182  0.510286  0.500000  1
  Ru  Ru33  1  0.635102  0.124818  0.500000  1
  Ru  Ru34  1  0.489714  0.364898  0.500000  1
  Ru  Ru35  1  0.000000  0.000000  0.000000  1
