# generated using pymatgen
data_Sc12Co4TcPb
_symmetry_space_group_name_H-M   'P 1'
_cell_length_a   7.74137714
_cell_length_b   7.74137714
_cell_length_c   7.74137751
_cell_angle_alpha   111.45983666
_cell_angle_beta   111.09439215
_cell_angle_gamma   105.91705891
_symmetry_Int_Tables_number   1
_chemical_formula_structural   Sc12Co4TcPb
_chemical_formula_sum   'Sc12 Co4 Tc1 Pb1'
_cell_volume   356.10901160
_cell_formula_units_Z   1
loop_
 _symmetry_equiv_pos_site_id
 _symmetry_equiv_pos_as_xyz
  1  'x, y, z'
loop_
 _atom_site_type_symbol
 _atom_site_label
 _atom_site_symmetry_multiplicity
 _atom_site_fract_x
 _atom_site_fract_y
 _atom_site_fract_z
 _atom_site_occupancy
  Sc  Sc0  1  0.424555  0.224743  0.199811  1
  Sc  Sc1  1  0.575445  0.775257  0.800189  1
  Sc  Sc2  1  0.024931  0.224743  0.800189  1
  Sc  Sc3  1  0.975069  0.775257  0.199811  1
  Sc  Sc4  1  0.309930  0.612010  0.302080  1
  Sc  Sc5  1  0.690070  0.387990  0.697920  1
  Sc  Sc6  1  0.309930  0.007848  0.697920  1
  Sc  Sc7  1  0.690070  0.992152  0.302080  1
  Sc  Sc8  1  0.183598  0.273450  0.457048  1
  Sc  Sc9  1  0.816402  0.726549  0.542952  1
  Sc  Sc10  1  0.183598  0.726549  0.910148  1
  Sc  Sc11  1  0.816402  0.273450  0.089852  1
  Co  Co12  1  0.369778  0.000000  0.369778  1
  Co  Co13  1  0.630222  0.000000  0.630222  1
  Co  Co14  1  0.117443  0.617443  0.500000  1
  Co  Co15  1  0.882557  0.382557  0.500000  1
  Tc  Tc16  1  0.000000  0.000000  0.000000  1
  Pb  Pb17  1  0.500000  0.500000  0.000000  1
