# generated using pymatgen
data_Ac2MnFeN6
_symmetry_space_group_name_H-M   'P 1'
_cell_length_a   6.60443965
_cell_length_b   6.60444080
_cell_length_c   5.41980500
_cell_angle_alpha   90.00000000
_cell_angle_beta   90.00000000
_cell_angle_gamma   144.36593444
_symmetry_Int_Tables_number   1
_chemical_formula_structural   Ac2MnFeN6
_chemical_formula_sum   'Ac2 Mn1 Fe1 N6'
_cell_volume   137.73073526
_cell_formula_units_Z   1
loop_
 _symmetry_equiv_pos_site_id
 _symmetry_equiv_pos_as_xyz
  1  'x, y, z'
loop_
 _atom_site_type_symbol
 _atom_site_label
 _atom_site_symmetry_multiplicity
 _atom_site_fract_x
 _atom_site_fract_y
 _atom_site_fract_z
 _atom_site_occupancy
  Ac  Ac0  1  0.369154  0.630846  0.250000  1
  Ac  Ac1  1  0.629587  0.370413  0.750000  1
  Mn  Mn2  1  0.089492  0.910508  0.250000  1
  Fe  Fe3  1  0.909834  0.090166  0.750000  1
  N  N4  1  0.468171  0.850346  0.750000  1
  N  N5  1  0.149654  0.531829  0.750000  1
  N  N6  1  0.002839  0.997161  0.998479  1
  N  N7  1  0.528389  0.149958  0.250000  1
  N  N8  1  0.850042  0.471611  0.250000  1
  N  N9  1  0.002839  0.997161  0.501521  1
