# generated using pymatgen
data_LiDy8Tc11Ge16
_symmetry_space_group_name_H-M   'P 1'
_cell_length_a   6.95841540
_cell_length_b   6.96291954
_cell_length_c   13.01571942
_cell_angle_alpha   89.83453688
_cell_angle_beta   90.18841019
_cell_angle_gamma   90.64796972
_symmetry_Int_Tables_number   1
_chemical_formula_structural   LiDy8Tc11Ge16
_chemical_formula_sum   'Li1 Dy8 Tc11 Ge16'
_cell_volume   630.57684543
_cell_formula_units_Z   1
loop_
 _symmetry_equiv_pos_site_id
 _symmetry_equiv_pos_as_xyz
  1  'x, y, z'
loop_
 _atom_site_type_symbol
 _atom_site_label
 _atom_site_symmetry_multiplicity
 _atom_site_fract_x
 _atom_site_fract_y
 _atom_site_fract_z
 _atom_site_occupancy
  Li  Li0  1  0.695816  0.490264  0.876532  1
  Dy  Dy1  1  0.010120  0.657937  0.030889  1
  Dy  Dy2  1  0.994142  0.340017  0.526998  1
  Dy  Dy3  1  0.656791  0.011455  0.972909  1
  Dy  Dy4  1  0.159556  0.492265  0.777595  1
  Dy  Dy5  1  0.834854  0.515198  0.279460  1
  Dy  Dy6  1  0.487126  0.162734  0.221776  1
  Dy  Dy7  1  0.512838  0.837163  0.719238  1
  Dy  Dy8  1  0.338376  0.995545  0.471734  1
  Tc  Tc9  1  0.319934  0.486245  0.379332  1
  Tc  Tc10  1  0.804751  0.028048  0.368898  1
  Tc  Tc11  1  0.979687  0.197290  0.132039  1
  Tc  Tc12  1  0.020986  0.808213  0.631440  1
  Tc  Tc13  1  0.479577  0.322790  0.621491  1
  Tc  Tc14  1  0.199707  0.967893  0.867073  1
  Tc  Tc15  1  0.664822  0.665843  0.499344  1
  Tc  Tc16  1  0.842044  0.159504  0.747638  1
  Tc  Tc17  1  0.156330  0.840211  0.251985  1
  Tc  Tc18  1  0.341401  0.333063  0.994087  1
  Tc  Tc19  1  0.509979  0.680163  0.126552  1
  Ge  Ge20  1  0.014179  0.735442  0.436730  1
  Ge  Ge21  1  0.995009  0.257389  0.935017  1
  Ge  Ge22  1  0.730990  0.017302  0.563060  1
  Ge  Ge23  1  0.219003  0.483114  0.188122  1
  Ge  Ge24  1  0.775982  0.514927  0.680590  1
  Ge  Ge25  1  0.478658  0.222110  0.812711  1
  Ge  Ge26  1  0.515145  0.781455  0.316445  1
  Ge  Ge27  1  0.264186  0.982430  0.063321  1
  Ge  Ge28  1  0.807577  0.891759  0.179908  1
  Ge  Ge29  1  0.307838  0.616061  0.567100  1
  Ge  Ge30  1  0.688409  0.391679  0.069157  1
  Ge  Ge31  1  0.613168  0.312651  0.432982  1
  Ge  Ge32  1  0.395875  0.685491  0.936620  1
  Ge  Ge33  1  0.110238  0.192458  0.319372  1
  Ge  Ge34  1  0.192090  0.111400  0.680766  1
  Ge  Ge35  1  0.882813  0.812494  0.821089  1
