# generated using pymatgen
data_Tb15TmIn4NiRh3
_symmetry_space_group_name_H-M   'P 1'
_cell_length_a   9.68758267
_cell_length_b   9.68213569
_cell_length_c   9.66756700
_cell_angle_alpha   60.04976597
_cell_angle_beta   60.06832647
_cell_angle_gamma   60.01647050
_symmetry_Int_Tables_number   1
_chemical_formula_structural   Tb15TmIn4NiRh3
_chemical_formula_sum   'Tb15 Tm1 In4 Ni1 Rh3'
_cell_volume   641.84462308
_cell_formula_units_Z   1
loop_
 _symmetry_equiv_pos_site_id
 _symmetry_equiv_pos_as_xyz
  1  'x, y, z'
loop_
 _atom_site_type_symbol
 _atom_site_label
 _atom_site_symmetry_multiplicity
 _atom_site_fract_x
 _atom_site_fract_y
 _atom_site_fract_z
 _atom_site_occupancy
  Tb  Tb0  1  0.810945  0.189693  0.811546  1
  Tb  Tb1  1  0.188150  0.190173  0.810839  1
  Tb  Tb2  1  0.649462  0.049870  0.650333  1
  Tb  Tb3  1  0.061689  0.061480  0.438415  1
  Tb  Tb4  1  0.436812  0.438420  0.062384  1
  Tb  Tb5  1  0.652104  0.649236  0.651827  1
  Tb  Tb6  1  0.810945  0.189693  0.187817  1
  Tb  Tb7  1  0.188940  0.810971  0.810847  1
  Tb  Tb8  1  0.047557  0.648509  0.651967  1
  Tb  Tb9  1  0.438747  0.061033  0.062211  1
  Tb  Tb10  1  0.438747  0.061033  0.438008  1
  Tb  Tb11  1  0.061859  0.438905  0.062644  1
  Tb  Tb12  1  0.652104  0.649236  0.046832  1
  Tb  Tb13  1  0.188940  0.810971  0.189241  1
  Tb  Tb14  1  0.061859  0.438905  0.436592  1
  Tm  Tm15  1  0.810293  0.811078  0.189314  1
  In  In16  1  0.417098  0.418071  0.416700  1
  In  In17  1  0.417098  0.418071  0.748130  1
  In  In18  1  0.418194  0.746427  0.417689  1
  In  In19  1  0.747967  0.418371  0.416831  1
  Ni  Ni20  1  0.858140  0.426526  0.857667  1
  Rh  Rh21  1  0.857654  0.857673  0.858737  1
  Rh  Rh22  1  0.857654  0.857673  0.425936  1
  Rh  Rh23  1  0.427041  0.857978  0.857490  1
