# generated using pymatgen
data_Y3Ho17Cd3Hg3Ru2
_symmetry_space_group_name_H-M   'P 1'
_cell_length_a   9.56938200
_cell_length_b   9.56938121
_cell_length_c   9.75977800
_cell_angle_alpha   90.00000000
_cell_angle_beta   90.00000000
_cell_angle_gamma   120.00000273
_symmetry_Int_Tables_number   1
_chemical_formula_structural   Y3Ho17Cd3Hg3Ru2
_chemical_formula_sum   'Y3 Ho17 Cd3 Hg3 Ru2'
_cell_volume   773.99526912
_cell_formula_units_Z   1
loop_
 _symmetry_equiv_pos_site_id
 _symmetry_equiv_pos_as_xyz
  1  'x, y, z'
loop_
 _atom_site_type_symbol
 _atom_site_label
 _atom_site_symmetry_multiplicity
 _atom_site_fract_x
 _atom_site_fract_y
 _atom_site_fract_z
 _atom_site_occupancy
  Y  Y0  1  0.458988  0.541012  0.750000  1
  Y  Y1  1  0.458988  0.917976  0.750000  1
  Y  Y2  1  0.082024  0.541012  0.750000  1
  Ho  Ho3  1  0.000000  0.000000  0.491177  1
  Ho  Ho4  1  0.000000  0.000000  0.008823  1
  Ho  Ho5  1  0.209409  0.790591  0.439181  1
  Ho  Ho6  1  0.209409  0.418819  0.439181  1
  Ho  Ho7  1  0.581181  0.790591  0.439181  1
  Ho  Ho8  1  0.790241  0.209759  0.559354  1
  Ho  Ho9  1  0.790241  0.580481  0.559354  1
  Ho  Ho10  1  0.419519  0.209759  0.559354  1
  Ho  Ho11  1  0.790241  0.209759  0.940646  1
  Ho  Ho12  1  0.790241  0.580481  0.940646  1
  Ho  Ho13  1  0.419519  0.209759  0.940646  1
  Ho  Ho14  1  0.209409  0.790591  0.060819  1
  Ho  Ho15  1  0.209409  0.418819  0.060819  1
  Ho  Ho16  1  0.581181  0.790591  0.060819  1
  Ho  Ho17  1  0.541221  0.458779  0.250000  1
  Ho  Ho18  1  0.541221  0.082442  0.250000  1
  Ho  Ho19  1  0.917558  0.458779  0.250000  1
  Cd  Cd20  1  0.113015  0.886985  0.750000  1
  Cd  Cd21  1  0.113015  0.226030  0.750000  1
  Cd  Cd22  1  0.773970  0.886985  0.750000  1
  Hg  Hg23  1  0.879656  0.120344  0.250000  1
  Hg  Hg24  1  0.879656  0.759314  0.250000  1
  Hg  Hg25  1  0.240686  0.120344  0.250000  1
  Ru  Ru26  1  0.333333  0.666667  0.250000  1
  Ru  Ru27  1  0.666667  0.333333  0.750000  1
