# generated using pymatgen
data_YbTh3(Ga8Pt3)3
_symmetry_space_group_name_H-M   'P 1'
_cell_length_a   7.65598819
_cell_length_b   7.66278496
_cell_length_c   13.33671949
_cell_angle_alpha   84.42206957
_cell_angle_beta   78.90644477
_cell_angle_gamma   59.95907904
_symmetry_Int_Tables_number   1
_chemical_formula_structural   YbTh3(Ga8Pt3)3
_chemical_formula_sum   'Yb1 Th3 Ga24 Pt9'
_cell_volume   664.65490942
_cell_formula_units_Z   1
loop_
 _symmetry_equiv_pos_site_id
 _symmetry_equiv_pos_as_xyz
  1  'x, y, z'
loop_
 _atom_site_type_symbol
 _atom_site_label
 _atom_site_symmetry_multiplicity
 _atom_site_fract_x
 _atom_site_fract_y
 _atom_site_fract_z
 _atom_site_occupancy
  Yb  Yb0  1  0.267104  0.501283  0.193003  1
  Th  Th1  1  0.396027  0.168279  0.808624  1
  Th  Th2  1  0.603306  0.832143  0.191927  1
  Th  Th3  1  0.732118  0.498492  0.808613  1
  Ga  Ga4  1  0.688219  0.833622  0.941245  1
  Ga  Ga5  1  0.311244  0.172930  0.062706  1
  Ga  Ga6  1  0.144997  0.833984  0.559128  1
  Ga  Ga7  1  0.854527  0.166254  0.438541  1
  Ga  Ga8  1  0.480674  0.167500  0.556043  1
  Ga  Ga9  1  0.519401  0.833068  0.443264  1
  Ga  Ga10  1  0.218424  0.171853  0.326020  1
  Ga  Ga11  1  0.784170  0.834080  0.669969  1
  Ga  Ga12  1  0.435902  0.507425  0.670116  1
  Ga  Ga13  1  0.558564  0.493199  0.326502  1
  Ga  Ga14  1  0.109660  0.159149  0.669315  1
  Ga  Ga15  1  0.897832  0.834281  0.327022  1
  Ga  Ga16  1  0.349827  0.502132  0.945202  1
  Ga  Ga17  1  0.640694  0.498972  0.062012  1
  Ga  Ga18  1  0.017401  0.165104  0.948208  1
  Ga  Ga19  1  0.985603  0.828215  0.058132  1
  Ga  Ga20  1  0.186665  0.499778  0.441143  1
  Ga  Ga21  1  0.814697  0.499367  0.556054  1
  Ga  Ga22  1  0.734637  0.166468  0.181991  1
  Ga  Ga23  1  0.262429  0.835235  0.818331  1
  Ga  Ga24  1  0.063135  0.634000  0.816599  1
  Ga  Ga25  1  0.940381  0.366331  0.183054  1
  Ga  Ga26  1  0.863323  0.034975  0.816428  1
  Ga  Ga27  1  0.138630  0.960787  0.183334  1
  Pt  Pt28  1  0.119968  0.493986  0.639266  1
  Pt  Pt29  1  0.878185  0.505933  0.360415  1
  Pt  Pt30  1  0.660038  0.169032  0.998164  1
  Pt  Pt31  1  0.342103  0.831827  0.000181  1
  Pt  Pt32  1  0.542797  0.163782  0.360616  1
  Pt  Pt33  1  0.459995  0.833432  0.639855  1
  Pt  Pt34  1  0.780674  0.172985  0.637972  1
  Pt  Pt35  1  0.219046  0.829814  0.362119  1
  Pt  Pt36  1  0.997601  0.500305  0.998887  1
