# generated using pymatgen
data_Ta2MnB2Ru5
_symmetry_space_group_name_H-M   'P 1'
_cell_length_a   9.29668300
_cell_length_b   9.29668300
_cell_length_c   2.99650500
_cell_angle_alpha   90.00000000
_cell_angle_beta   90.00000000
_cell_angle_gamma   90.00000000
_symmetry_Int_Tables_number   1
_chemical_formula_structural   Ta2MnB2Ru5
_chemical_formula_sum   'Ta4 Mn2 B4 Ru10'
_cell_volume   258.98287745
_cell_formula_units_Z   2
loop_
 _symmetry_equiv_pos_site_id
 _symmetry_equiv_pos_as_xyz
  1  'x, y, z'
loop_
 _atom_site_type_symbol
 _atom_site_label
 _atom_site_symmetry_multiplicity
 _atom_site_fract_x
 _atom_site_fract_y
 _atom_site_fract_z
 _atom_site_occupancy
  Ta  Ta0  1  0.822531  0.677469  0.000000  1
  Ta  Ta1  1  0.177469  0.322531  0.000000  1
  Ta  Ta2  1  0.322531  0.822531  0.000000  1
  Ta  Ta3  1  0.677469  0.177469  0.000000  1
  Mn  Mn4  1  0.500000  0.500000  0.000000  1
  Mn  Mn5  1  0.000000  0.000000  0.000000  1
  B  B6  1  0.623954  0.876046  0.000000  1
  B  B7  1  0.376046  0.123954  0.000000  1
  B  B8  1  0.123954  0.623954  0.000000  1
  B  B9  1  0.876046  0.376046  0.000000  1
  Ru  Ru10  1  0.570430  0.714277  0.500000  1
  Ru  Ru11  1  0.429570  0.285723  0.500000  1
  Ru  Ru12  1  0.070430  0.785723  0.500000  1
  Ru  Ru13  1  0.929570  0.214277  0.500000  1
  Ru  Ru14  1  0.285723  0.570430  0.500000  1
  Ru  Ru15  1  0.714277  0.429570  0.500000  1
  Ru  Ru16  1  0.214277  0.070430  0.500000  1
  Ru  Ru17  1  0.785723  0.929570  0.500000  1
  Ru  Ru18  1  0.500000  0.000000  0.500000  1
  Ru  Ru19  1  0.000000  0.500000  0.500000  1
