# generated using pymatgen
data_Sc7Nb(IrRu)4
_symmetry_space_group_name_H-M   'P 1'
_cell_length_a   6.37478300
_cell_length_b   4.56645700
_cell_length_c   9.13388500
_cell_angle_alpha   90.00000000
_cell_angle_beta   89.99962307
_cell_angle_gamma   90.00000000
_symmetry_Int_Tables_number   1
_chemical_formula_structural   Sc7Nb(IrRu)4
_chemical_formula_sum   'Sc7 Nb1 Ir4 Ru4'
_cell_volume   265.88896752
_cell_formula_units_Z   1
loop_
 _symmetry_equiv_pos_site_id
 _symmetry_equiv_pos_as_xyz
  1  'x, y, z'
loop_
 _atom_site_type_symbol
 _atom_site_label
 _atom_site_symmetry_multiplicity
 _atom_site_fract_x
 _atom_site_fract_y
 _atom_site_fract_z
 _atom_site_occupancy
  Sc  Sc0  1  0.499984  0.750000  0.125002  1
  Sc  Sc1  1  0.999941  0.250000  0.378107  1
  Sc  Sc2  1  0.499860  0.250000  0.375763  1
  Sc  Sc3  1  0.499811  0.750000  0.624999  1
  Sc  Sc4  1  0.000642  0.750000  0.625005  1
  Sc  Sc5  1  0.500053  0.250000  0.874231  1
  Sc  Sc6  1  0.000141  0.250000  0.871907  1
  Nb  Nb7  1  0.998996  0.750000  0.124998  1
  Ir  Ir8  1  0.756586  0.250000  0.125002  1
  Ir  Ir9  1  0.247014  0.750000  0.370013  1
  Ir  Ir10  1  0.749530  0.250000  0.624999  1
  Ir  Ir11  1  0.247157  0.750000  0.879998  1
  Ru  Ru12  1  0.239806  0.250000  0.124974  1
  Ru  Ru13  1  0.754518  0.750000  0.367888  1
  Ru  Ru14  1  0.251269  0.250000  0.625000  1
  Ru  Ru15  1  0.754695  0.750000  0.882111  1
