# generated using pymatgen
data_LiScTi4(AsRu)6
_symmetry_space_group_name_H-M   'P 1'
_cell_length_a   7.50417224
_cell_length_b   7.50731139
_cell_length_c   7.50417359
_cell_angle_alpha   127.85515728
_cell_angle_beta   121.08945191
_cell_angle_gamma   82.51623786
_symmetry_Int_Tables_number   1
_chemical_formula_structural   LiScTi4(AsRu)6
_chemical_formula_sum   'Li1 Sc1 Ti4 As6 Ru6'
_cell_volume   274.74268242
_cell_formula_units_Z   1
loop_
 _symmetry_equiv_pos_site_id
 _symmetry_equiv_pos_as_xyz
  1  'x, y, z'
loop_
 _atom_site_type_symbol
 _atom_site_label
 _atom_site_symmetry_multiplicity
 _atom_site_fract_x
 _atom_site_fract_y
 _atom_site_fract_z
 _atom_site_occupancy
  Li  Li0  1  0.477002  0.237807  0.260804  1
  Sc  Sc1  1  0.527821  0.795828  0.768006  1
  Ti  Ti2  1  0.749342  0.671423  0.422080  1
  Ti  Ti3  1  0.250088  0.668815  0.918727  1
  Ti  Ti4  1  0.053095  0.847418  0.294323  1
  Ti  Ti5  1  0.943964  0.236550  0.792586  1
  As  As6  1  0.836554  0.571707  0.743719  1
  As  As7  1  0.161421  0.916302  0.746781  1
  As  As8  1  0.669521  0.916302  0.254883  1
  As  As9  1  0.327989  0.571707  0.235154  1
  As  As10  1  0.291468  0.301987  0.510520  1
  As  As11  1  0.718128  0.222769  0.004642  1
  Ru  Ru12  1  0.665097  0.497111  0.916255  1
  Ru  Ru13  1  0.333034  0.245468  0.825404  1
  Ru  Ru14  1  0.920065  0.245468  0.412434  1
  Ru  Ru15  1  0.080856  0.497111  0.332015  1
  Ru  Ru16  1  0.006679  0.998311  0.010436  1
  Ru  Ru17  1  0.487874  0.998311  0.491631  1
