# generated using pymatgen
data_DyY2ZnCd3Ga2
_symmetry_space_group_name_H-M   'P 1'
_cell_length_a   7.34809100
_cell_length_b   7.34835466
_cell_length_c   4.30078000
_cell_angle_alpha   90.00000000
_cell_angle_beta   90.00000000
_cell_angle_gamma   120.00118224
_symmetry_Int_Tables_number   1
_chemical_formula_structural   DyY2ZnCd3Ga2
_chemical_formula_sum   'Dy1 Y2 Zn1 Cd3 Ga2'
_cell_volume   201.11169214
_cell_formula_units_Z   1
loop_
 _symmetry_equiv_pos_site_id
 _symmetry_equiv_pos_as_xyz
  1  'x, y, z'
loop_
 _atom_site_type_symbol
 _atom_site_label
 _atom_site_symmetry_multiplicity
 _atom_site_fract_x
 _atom_site_fract_y
 _atom_site_fract_z
 _atom_site_occupancy
  Dy  Dy0  1  0.000000  0.578297  0.500000  1
  Y  Y1  1  0.421713  0.421706  0.500000  1
  Y  Y2  1  0.578287  0.999993  0.500000  1
  Zn  Zn3  1  0.000000  0.999921  0.500000  1
  Cd  Cd4  1  0.752636  0.752584  0.000000  1
  Cd  Cd5  1  0.247364  0.999948  0.000000  1
  Cd  Cd6  1  0.000000  0.247465  0.000000  1
  Ga  Ga7  1  0.666796  0.333441  0.000000  1
  Ga  Ga8  1  0.333204  0.666645  0.000000  1
