# generated using pymatgen
data_Fe4CoPt11
_symmetry_space_group_name_H-M   'P 1'
_cell_length_a   3.88619300
_cell_length_b   5.50745251
_cell_length_c   11.02670095
_cell_angle_alpha   90.09094591
_cell_angle_beta   90.00000000
_cell_angle_gamma   90.00000000
_symmetry_Int_Tables_number   1
_chemical_formula_structural   Fe4CoPt11
_chemical_formula_sum   'Fe4 Co1 Pt11'
_cell_volume   236.00444112
_cell_formula_units_Z   1
loop_
 _symmetry_equiv_pos_site_id
 _symmetry_equiv_pos_as_xyz
  1  'x, y, z'
loop_
 _atom_site_type_symbol
 _atom_site_label
 _atom_site_symmetry_multiplicity
 _atom_site_fract_x
 _atom_site_fract_y
 _atom_site_fract_z
 _atom_site_occupancy
  Fe  Fe0  1  0.500000  0.751637  0.372912  1
  Fe  Fe1  1  0.500000  0.752293  0.878943  1
  Fe  Fe2  1  0.500000  0.247707  0.121057  1
  Fe  Fe3  1  0.500000  0.248363  0.627088  1
  Co  Co4  1  0.000000  0.000000  0.000000  1
  Pt  Pt5  1  0.000000  0.006163  0.242968  1
  Pt  Pt6  1  0.000000  0.993837  0.757032  1
  Pt  Pt7  1  0.000000  0.500000  0.000000  1
  Pt  Pt8  1  0.000000  0.500000  0.500000  1
  Pt  Pt9  1  0.000000  0.506029  0.248894  1
  Pt  Pt10  1  0.000000  0.493971  0.751106  1
  Pt  Pt11  1  0.500000  0.248980  0.373597  1
  Pt  Pt12  1  0.500000  0.236925  0.882954  1
  Pt  Pt13  1  0.500000  0.763075  0.117046  1
  Pt  Pt14  1  0.500000  0.751020  0.626403  1
  Pt  Pt15  1  0.000000  0.000000  0.500000  1
