# generated using pymatgen
data_Ti8Al15Ir4PdRh2
_symmetry_space_group_name_H-M   'P 1'
_cell_length_a   8.66967628
_cell_length_b   8.65055870
_cell_length_c   8.66248670
_cell_angle_alpha   119.98025579
_cell_angle_beta   119.83812004
_cell_angle_gamma   90.14788865
_symmetry_Int_Tables_number   1
_chemical_formula_structural   Ti8Al15Ir4PdRh2
_chemical_formula_sum   'Ti8 Al15 Ir4 Pd1 Rh2'
_cell_volume   460.04878401
_cell_formula_units_Z   1
loop_
 _symmetry_equiv_pos_site_id
 _symmetry_equiv_pos_as_xyz
  1  'x, y, z'
loop_
 _atom_site_type_symbol
 _atom_site_label
 _atom_site_symmetry_multiplicity
 _atom_site_fract_x
 _atom_site_fract_y
 _atom_site_fract_z
 _atom_site_occupancy
  Ti  Ti0  1  0.790139  0.292164  0.074983  1
  Ti  Ti1  1  0.219055  0.292195  0.501819  1
  Ti  Ti2  1  0.210630  0.707954  0.500769  1
  Ti  Ti3  1  0.216369  0.715542  0.923894  1
  Ti  Ti4  1  0.788390  0.713451  0.499137  1
  Ti  Ti5  1  0.780774  0.284655  0.498587  1
  Ti  Ti6  1  0.385928  0.125295  0.749182  1
  Ti  Ti7  1  0.377864  0.633520  0.255447  1
  Al  Al8  1  0.997140  0.496678  0.499901  1
  Al  Al9  1  0.152632  0.342187  0.190215  1
  Al  Al10  1  0.152995  0.963174  0.809861  1
  Al  Al11  1  0.149998  0.346854  0.802950  1
  Al  Al12  1  0.541976  0.346551  0.196130  1
  Al  Al13  1  0.846710  0.653937  0.808432  1
  Al  Al14  1  0.846458  0.040466  0.191713  1
  Al  Al15  1  0.843288  0.653936  0.188206  1
  Al  Al16  1  0.467647  0.655216  0.812268  1
  Al  Al17  1  0.378345  0.120877  0.257031  1
  Al  Al18  1  0.861431  0.122721  0.745260  1
  Al  Al19  1  0.617111  0.876514  0.253868  1
  Al  Al20  1  0.621601  0.365936  0.743832  1
  Al  Al21  1  0.620720  0.877636  0.742155  1
  Al  Al22  1  0.138082  0.877616  0.255420  1
  Ir  Ir23  1  0.498637  0.000062  0.998977  1
  Ir  Ir24  1  0.497506  0.497855  0.000630  1
  Ir  Ir25  1  0.498033  0.499764  0.498042  1
  Ir  Ir26  1  0.001688  0.499021  0.001546  1
  Pd  Pd27  1  0.999644  0.999302  0.499826  1
  Rh  Rh28  1  0.999076  0.998924  0.999188  1
  Rh  Rh29  1  0.500128  0.999998  0.500731  1
