# generated using pymatgen
data_Sc4VSi7Pt9
_symmetry_space_group_name_H-M   'P 1'
_cell_length_a   9.94681385
_cell_length_b   9.94707601
_cell_length_c   3.89990500
_cell_angle_alpha   90.00000000
_cell_angle_beta   90.00000000
_cell_angle_gamma   119.70909773
_symmetry_Int_Tables_number   1
_chemical_formula_structural   Sc4VSi7Pt9
_chemical_formula_sum   'Sc4 V1 Si7 Pt9'
_cell_volume   335.14264686
_cell_formula_units_Z   1
loop_
 _symmetry_equiv_pos_site_id
 _symmetry_equiv_pos_as_xyz
  1  'x, y, z'
loop_
 _atom_site_type_symbol
 _atom_site_label
 _atom_site_symmetry_multiplicity
 _atom_site_fract_x
 _atom_site_fract_y
 _atom_site_fract_z
 _atom_site_occupancy
  Sc  Sc0  1  0.877536  0.103547  0.499998  1
  Sc  Sc1  1  0.899386  0.774129  0.499998  1
  Sc  Sc2  1  0.334510  0.664255  0.000000  1
  Sc  Sc3  1  0.665436  0.333443  0.499998  1
  V  V4  1  0.220030  0.123371  0.499998  1
  Si  Si5  1  0.284766  0.413575  0.499998  1
  Si  Si6  1  0.574446  0.861407  0.499998  1
  Si  Si7  1  0.143320  0.714925  0.499998  1
  Si  Si8  1  0.418004  0.115019  0.000000  1
  Si  Si9  1  0.884832  0.311802  0.000000  1
  Si  Si10  1  0.687130  0.573209  0.000000  1
  Si  Si11  1  0.010825  0.004908  0.000000  1
  Pt  Pt12  1  0.054894  0.447409  0.499998  1
  Pt  Pt13  1  0.550320  0.604551  0.499998  1
  Pt  Pt14  1  0.394693  0.951294  0.499998  1
  Pt  Pt15  1  0.120898  0.280931  0.000000  1
  Pt  Pt16  1  0.722594  0.842043  0.000000  1
  Pt  Pt17  1  0.162236  0.877135  0.000000  1
  Pt  Pt18  1  0.431589  0.355367  0.000000  1
  Pt  Pt19  1  0.643103  0.081940  0.000000  1
  Pt  Pt20  1  0.919453  0.565743  0.000000  1
