# generated using pymatgen
data_PrNd7(ErSn3)2
_symmetry_space_group_name_H-M   'P 1'
_cell_length_a   9.23020359
_cell_length_b   9.22083707
_cell_length_c   6.79070302
_cell_angle_alpha   89.99039762
_cell_angle_beta   90.00479384
_cell_angle_gamma   119.96642564
_symmetry_Int_Tables_number   1
_chemical_formula_structural   PrNd7(ErSn3)2
_chemical_formula_sum   'Pr1 Nd7 Er2 Sn6'
_cell_volume   500.69565477
_cell_formula_units_Z   1
loop_
 _symmetry_equiv_pos_site_id
 _symmetry_equiv_pos_as_xyz
  1  'x, y, z'
loop_
 _atom_site_type_symbol
 _atom_site_label
 _atom_site_symmetry_multiplicity
 _atom_site_fract_x
 _atom_site_fract_y
 _atom_site_fract_z
 _atom_site_occupancy
  Pr  Pr0  1  0.000000  0.757330  0.747919  1
  Nd  Nd1  1  0.333477  0.666672  0.000091  1
  Nd  Nd2  1  0.666523  0.333194  0.000091  1
  Nd  Nd3  1  0.756712  0.756845  0.252120  1
  Nd  Nd4  1  0.243288  0.000133  0.252120  1
  Nd  Nd5  1  0.000000  0.243012  0.252163  1
  Nd  Nd6  1  0.243140  0.243174  0.747875  1
  Nd  Nd7  1  0.756860  0.000035  0.747875  1
  Er  Er8  1  0.666568  0.333186  0.499907  1
  Er  Er9  1  0.333432  0.666618  0.499907  1
  Sn  Sn10  1  0.396066  0.396132  0.259944  1
  Sn  Sn11  1  0.603934  0.000065  0.259944  1
  Sn  Sn12  1  0.000000  0.603895  0.259859  1
  Sn  Sn13  1  0.603121  0.603608  0.740044  1
  Sn  Sn14  1  0.396879  0.000486  0.740044  1
  Sn  Sn15  1  0.000000  0.395614  0.740095  1
