# generated using pymatgen
data_YTh2Al3Co2Ni
_symmetry_space_group_name_H-M   'P 1'
_cell_length_a   7.02725900
_cell_length_b   7.14882691
_cell_length_c   3.86876500
_cell_angle_alpha   90.00000000
_cell_angle_beta   90.00000000
_cell_angle_gamma   119.43904122
_symmetry_Int_Tables_number   1
_chemical_formula_structural   YTh2Al3Co2Ni
_chemical_formula_sum   'Y1 Th2 Al3 Co2 Ni1'
_cell_volume   169.25868579
_cell_formula_units_Z   1
loop_
 _symmetry_equiv_pos_site_id
 _symmetry_equiv_pos_as_xyz
  1  'x, y, z'
loop_
 _atom_site_type_symbol
 _atom_site_label
 _atom_site_symmetry_multiplicity
 _atom_site_fract_x
 _atom_site_fract_y
 _atom_site_fract_z
 _atom_site_occupancy
  Y  Y0  1  0.582218  0.000000  0.000000  1
  Th  Th1  1  0.998847  0.573471  0.000000  1
  Th  Th2  1  0.425375  0.426529  0.000000  1
  Al  Al3  1  0.243027  0.000000  0.500000  1
  Al  Al4  1  0.991816  0.222776  0.500000  1
  Al  Al5  1  0.769041  0.777224  0.500000  1
  Co  Co6  1  0.309982  0.639557  0.500000  1
  Co  Co7  1  0.670426  0.360443  0.500000  1
  Ni  Ni8  1  0.009270  0.000000  0.000000  1
