# generated using pymatgen
data_Ce7DyPa2O20
_symmetry_space_group_name_H-M   'P 1'
_cell_length_a   6.66772878
_cell_length_b   7.72072717
_cell_length_c   8.62984229
_cell_angle_alpha   103.14544129
_cell_angle_beta   97.32911465
_cell_angle_gamma   106.71834749
_symmetry_Int_Tables_number   1
_chemical_formula_structural   Ce7DyPa2O20
_chemical_formula_sum   'Ce7 Dy1 Pa2 O20'
_cell_volume   405.36562618
_cell_formula_units_Z   1
loop_
 _symmetry_equiv_pos_site_id
 _symmetry_equiv_pos_as_xyz
  1  'x, y, z'
loop_
 _atom_site_type_symbol
 _atom_site_label
 _atom_site_symmetry_multiplicity
 _atom_site_fract_x
 _atom_site_fract_y
 _atom_site_fract_z
 _atom_site_occupancy
  Ce  Ce0  1  0.002330  0.501057  0.000909  1
  Ce  Ce1  1  0.800646  0.099990  0.603551  1
  Ce  Ce2  1  0.602847  0.701485  0.198139  1
  Ce  Ce3  1  0.199442  0.398575  0.398150  1
  Ce  Ce4  1  0.394524  0.297458  0.799691  1
  Ce  Ce5  1  0.199524  0.899946  0.397725  1
  Ce  Ce6  1  0.400144  0.801349  0.800986  1
  Dy  Dy7  1  0.000221  0.000032  0.000299  1
  Pa  Pa8  1  0.800772  0.602231  0.603126  1
  Pa  Pa9  1  0.599506  0.197954  0.197578  1
  O  O10  1  0.842310  0.329133  0.450598  1
  O  O11  1  0.647550  0.932493  0.052463  1
  O  O12  1  0.949648  0.774776  0.151553  1
  O  O13  1  0.845858  0.818454  0.455236  1
  O  O14  1  0.457178  0.526746  0.644727  1
  O  O15  1  0.647451  0.417404  0.052836  1
  O  O16  1  0.749446  0.382399  0.747369  1
  O  O17  1  0.262798  0.129831  0.248606  1
  O  O18  1  0.449771  0.023656  0.649369  1
  O  O19  1  0.940928  0.273727  0.155917  1
  O  O20  1  0.555843  0.982158  0.345937  1
  O  O21  1  0.045152  0.721882  0.843547  1
  O  O22  1  0.255591  0.624947  0.251595  1
  O  O23  1  0.750076  0.866477  0.747568  1
  O  O24  1  0.353262  0.576229  0.948043  1
  O  O25  1  0.047619  0.226042  0.850944  1
  O  O26  1  0.559522  0.471937  0.351242  1
  O  O27  1  0.145572  0.174229  0.547134  1
  O  O28  1  0.355778  0.076741  0.954458  1
  O  O29  1  0.138691  0.670663  0.550704  1
