# generated using pymatgen
data_La9NdOs4
_symmetry_space_group_name_H-M   'P 1'
_cell_length_a   9.06765567
_cell_length_b   9.06765551
_cell_length_c   7.45654883
_cell_angle_alpha   85.00521108
_cell_angle_beta   85.00521252
_cell_angle_gamma   43.76588454
_symmetry_Int_Tables_number   1
_chemical_formula_structural   La9NdOs4
_chemical_formula_sum   'La9 Nd1 Os4'
_cell_volume   422.21529555
_cell_formula_units_Z   1
loop_
 _symmetry_equiv_pos_site_id
 _symmetry_equiv_pos_as_xyz
  1  'x, y, z'
loop_
 _atom_site_type_symbol
 _atom_site_label
 _atom_site_symmetry_multiplicity
 _atom_site_fract_x
 _atom_site_fract_y
 _atom_site_fract_z
 _atom_site_occupancy
  La  La0  1  0.016052  0.800665  0.909108  1
  La  La1  1  0.199335  0.983948  0.590892  1
  La  La2  1  0.986611  0.196416  0.094767  1
  La  La3  1  0.803584  0.013389  0.405233  1
  La  La4  1  0.361986  0.209449  0.819933  1
  La  La5  1  0.790551  0.638014  0.680067  1
  La  La6  1  0.637782  0.788951  0.178958  1
  La  La7  1  0.211049  0.362218  0.321042  1
  La  La8  1  0.571191  0.428809  0.750000  1
  Nd  Nd9  1  0.428537  0.571463  0.250000  1
  Os  Os10  1  0.171115  0.605393  0.579913  1
  Os  Os11  1  0.394607  0.828885  0.920087  1
  Os  Os12  1  0.826017  0.398418  0.420541  1
  Os  Os13  1  0.601582  0.173983  0.079459  1
