# generated using pymatgen
data_Sc2ZnRh4Pb
_symmetry_space_group_name_H-M   'P 1'
_cell_length_a   6.14156501
_cell_length_b   6.14130200
_cell_length_c   6.95542500
_cell_angle_alpha   89.99992973
_cell_angle_beta   90.00034201
_cell_angle_gamma   90.00138067
_symmetry_Int_Tables_number   1
_chemical_formula_structural   Sc2ZnRh4Pb
_chemical_formula_sum   'Sc4 Zn2 Rh8 Pb2'
_cell_volume   262.33919370
_cell_formula_units_Z   2
loop_
 _symmetry_equiv_pos_site_id
 _symmetry_equiv_pos_as_xyz
  1  'x, y, z'
loop_
 _atom_site_type_symbol
 _atom_site_label
 _atom_site_symmetry_multiplicity
 _atom_site_fract_x
 _atom_site_fract_y
 _atom_site_fract_z
 _atom_site_occupancy
  Sc  Sc0  1  0.250016  0.249982  0.999996  1
  Sc  Sc1  1  0.749984  0.750018  0.000004  1
  Sc  Sc2  1  0.250119  0.249985  0.500002  1
  Sc  Sc3  1  0.749881  0.750015  0.499997  1
  Zn  Zn4  1  0.749801  0.250010  0.000008  1
  Zn  Zn5  1  0.250198  0.749990  0.999992  1
  Rh  Rh6  1  0.999992  0.500006  0.237417  1
  Rh  Rh7  1  0.999993  0.999999  0.237427  1
  Rh  Rh8  1  0.499981  0.500000  0.237635  1
  Rh  Rh9  1  0.499982  0.999994  0.237625  1
  Rh  Rh10  1  0.500019  0.500000  0.762364  1
  Rh  Rh11  1  0.500018  0.000006  0.762374  1
  Rh  Rh12  1  0.000008  0.499994  0.762583  1
  Rh  Rh13  1  0.000007  0.000001  0.762573  1
  Pb  Pb14  1  0.750236  0.250013  0.499986  1
  Pb  Pb15  1  0.249764  0.749987  0.500015  1
