# generated using pymatgen
data_Nb3B2Te8Mo5
_symmetry_space_group_name_H-M   'P 1'
_cell_length_a   4.65072600
_cell_length_b   10.97814300
_cell_length_c   18.88321684
_cell_angle_alpha   90.16415104
_cell_angle_beta   90.00000000
_cell_angle_gamma   90.00000000
_symmetry_Int_Tables_number   1
_chemical_formula_structural   Nb3B2Te8Mo5
_chemical_formula_sum   'Nb6 B4 Te16 Mo10'
_cell_volume   964.10388933
_cell_formula_units_Z   2
loop_
 _symmetry_equiv_pos_site_id
 _symmetry_equiv_pos_as_xyz
  1  'x, y, z'
loop_
 _atom_site_type_symbol
 _atom_site_label
 _atom_site_symmetry_multiplicity
 _atom_site_fract_x
 _atom_site_fract_y
 _atom_site_fract_z
 _atom_site_occupancy
  Nb  Nb0  1  0.000000  0.173128  0.053238  1
  Nb  Nb1  1  0.000000  0.826872  0.946762  1
  Nb  Nb2  1  0.000000  0.411066  0.399662  1
  Nb  Nb3  1  0.000000  0.588934  0.600338  1
  Nb  Nb4  1  0.000000  0.909202  0.099921  1
  Nb  Nb5  1  0.000000  0.090798  0.900079  1
  B  B6  1  0.272243  0.500000  0.500000  1
  B  B7  1  0.721403  0.000000  0.000000  1
  B  B8  1  0.727757  0.500000  0.500000  1
  B  B9  1  0.278597  0.000000  0.000000  1
  Te  Te10  1  0.000000  0.838201  0.558921  1
  Te  Te11  1  0.000000  0.161799  0.441079  1
  Te  Te12  1  0.000000  0.341743  0.938972  1
  Te  Te13  1  0.000000  0.658257  0.061028  1
  Te  Te14  1  0.500000  0.339155  0.318279  1
  Te  Te15  1  0.500000  0.660845  0.681721  1
  Te  Te16  1  0.500000  0.836671  0.180075  1
  Te  Te17  1  0.500000  0.163329  0.819925  1
  Te  Te18  1  0.500000  0.811876  0.406938  1
  Te  Te19  1  0.500000  0.188124  0.593062  1
  Te  Te20  1  0.500000  0.312014  0.096170  1
  Te  Te21  1  0.500000  0.687986  0.903830  1
  Te  Te22  1  0.000000  0.613770  0.306024  1
  Te  Te23  1  0.000000  0.386230  0.693976  1
  Te  Te24  1  0.000000  0.105172  0.198575  1
  Te  Te25  1  0.000000  0.894828  0.801425  1
  Mo  Mo26  1  0.500000  0.559170  0.394502  1
  Mo  Mo27  1  0.500000  0.440830  0.605498  1
  Mo  Mo28  1  0.500000  0.057300  0.106065  1
  Mo  Mo29  1  0.500000  0.942700  0.893935  1
  Mo  Mo30  1  0.500000  0.682394  0.533574  1
  Mo  Mo31  1  0.500000  0.317606  0.466426  1
  Mo  Mo32  1  0.500000  0.183220  0.967670  1
  Mo  Mo33  1  0.500000  0.816780  0.032330  1
  Mo  Mo34  1  0.000000  0.669182  0.449420  1
  Mo  Mo35  1  0.000000  0.330818  0.550580  1
