# generated using pymatgen
data_Ca6Ni16As13Rh4
_symmetry_space_group_name_H-M   'P 1'
_cell_length_a   13.32444000
_cell_length_b   13.32443904
_cell_length_c   3.92761400
_cell_angle_alpha   90.00000000
_cell_angle_beta   90.00000000
_cell_angle_gamma   119.99999742
_symmetry_Int_Tables_number   1
_chemical_formula_structural   Ca6Ni16As13Rh4
_chemical_formula_sum   'Ca6 Ni16 As13 Rh4'
_cell_volume   603.88931049
_cell_formula_units_Z   1
loop_
 _symmetry_equiv_pos_site_id
 _symmetry_equiv_pos_as_xyz
  1  'x, y, z'
loop_
 _atom_site_type_symbol
 _atom_site_label
 _atom_site_symmetry_multiplicity
 _atom_site_fract_x
 _atom_site_fract_y
 _atom_site_fract_z
 _atom_site_occupancy
  Ca  Ca0  1  0.189293  0.474310  0.000000  1
  Ca  Ca1  1  0.525690  0.714983  0.000000  1
  Ca  Ca2  1  0.285017  0.810707  0.000000  1
  Ca  Ca3  1  0.718086  0.187635  0.500000  1
  Ca  Ca4  1  0.812365  0.530451  0.500000  1
  Ca  Ca5  1  0.469549  0.281914  0.500000  1
  Ni  Ni6  1  0.091431  0.201633  0.000000  1
  Ni  Ni7  1  0.798367  0.889798  0.000000  1
  Ni  Ni8  1  0.110202  0.908569  0.000000  1
  Ni  Ni9  1  0.666667  0.333333  0.000000  1
  Ni  Ni10  1  0.416891  0.435599  0.000000  1
  Ni  Ni11  1  0.564401  0.981292  0.000000  1
  Ni  Ni12  1  0.018708  0.583109  0.000000  1
  Ni  Ni13  1  0.244984  0.317293  0.500000  1
  Ni  Ni14  1  0.682707  0.927691  0.500000  1
  Ni  Ni15  1  0.072309  0.755016  0.500000  1
  Ni  Ni16  1  0.438400  0.025279  0.500000  1
  Ni  Ni17  1  0.974721  0.413121  0.500000  1
  Ni  Ni18  1  0.586879  0.561600  0.500000  1
  Ni  Ni19  1  0.922901  0.243755  0.000000  1
  Ni  Ni20  1  0.756245  0.679146  0.000000  1
  Ni  Ni21  1  0.320854  0.077099  0.000000  1
  As  As22  1  0.387554  0.516218  0.500000  1
  As  As23  1  0.483782  0.871336  0.500000  1
  As  As24  1  0.128664  0.612446  0.500000  1
  As  As25  1  0.047907  0.283312  0.500000  1
  As  As26  1  0.716688  0.764596  0.500000  1
  As  As27  1  0.235404  0.952093  0.500000  1
  As  As28  1  0.522490  0.139238  0.000000  1
  As  As29  1  0.860762  0.383253  0.000000  1
  As  As30  1  0.616747  0.477510  0.000000  1
  As  As31  1  0.767559  0.047874  0.000000  1
  As  As32  1  0.952126  0.719685  0.000000  1
  As  As33  1  0.280315  0.232441  0.000000  1
  As  As34  1  0.000000  0.000000  0.000000  1
  Rh  Rh35  1  0.333333  0.666667  0.500000  1
  Rh  Rh36  1  0.915826  0.072008  0.500000  1
  Rh  Rh37  1  0.927992  0.843819  0.500000  1
  Rh  Rh38  1  0.156181  0.084174  0.500000  1
