# generated using pymatgen
data_RbPd3RhO8
_symmetry_space_group_name_H-M   'P 1'
_cell_length_a   7.45413684
_cell_length_b   7.45413727
_cell_length_c   10.27044800
_cell_angle_alpha   46.07093914
_cell_angle_beta   46.07093598
_cell_angle_gamma   24.27217016
_symmetry_Int_Tables_number   1
_chemical_formula_structural   RbPd3RhO8
_chemical_formula_sum   'Rb1 Pd3 Rh1 O8'
_cell_volume   165.28393490
_cell_formula_units_Z   1
loop_
 _symmetry_equiv_pos_site_id
 _symmetry_equiv_pos_as_xyz
  1  'x, y, z'
loop_
 _atom_site_type_symbol
 _atom_site_label
 _atom_site_symmetry_multiplicity
 _atom_site_fract_x
 _atom_site_fract_y
 _atom_site_fract_z
 _atom_site_occupancy
  Rb  Rb0  1  0.004215  0.004215  0.996168  1
  Pd  Pd1  1  0.850216  0.850216  0.817767  1
  Pd  Pd2  1  0.668198  0.668198  0.479995  1
  Pd  Pd3  1  0.334502  0.334502  0.517063  1
  Rh  Rh4  1  0.147074  0.147074  0.187491  1
  O  O5  1  0.322214  0.322214  0.724220  1
  O  O6  1  0.669423  0.669423  0.283329  1
  O  O7  1  0.957187  0.957187  0.362987  1
  O  O8  1  0.046447  0.046447  0.629518  1
  O  O9  1  0.346164  0.346164  0.954379  1
  O  O10  1  0.652753  0.652753  0.050321  1
  O  O11  1  0.701535  0.701535  0.646365  1
  O  O12  1  0.300070  0.300070  0.350396  1
