# generated using pymatgen
data_Zr3Ta4Nb(Co4P3)4
_symmetry_space_group_name_H-M   'P 1'
_cell_length_a   11.92628946
_cell_length_b   11.92454328
_cell_length_c   3.65117100
_cell_angle_alpha   90.00000000
_cell_angle_beta   90.00000000
_cell_angle_gamma   119.97253000
_symmetry_Int_Tables_number   1
_chemical_formula_structural   Zr3Ta4Nb(Co4P3)4
_chemical_formula_sum   'Zr3 Ta4 Nb1 Co16 P12'
_cell_volume   449.81098111
_cell_formula_units_Z   1
loop_
 _symmetry_equiv_pos_site_id
 _symmetry_equiv_pos_as_xyz
  1  'x, y, z'
loop_
 _atom_site_type_symbol
 _atom_site_label
 _atom_site_symmetry_multiplicity
 _atom_site_fract_x
 _atom_site_fract_y
 _atom_site_fract_z
 _atom_site_occupancy
  Zr  Zr0  1  0.822765  0.999988  0.500000  1
  Zr  Zr1  1  0.333681  0.666938  0.000000  1
  Zr  Zr2  1  0.666611  0.333065  0.000000  1
  Ta  Ta3  1  0.999528  0.823193  0.500000  1
  Ta  Ta4  1  0.444506  0.999638  0.000000  1
  Ta  Ta5  1  0.000396  0.446701  0.000000  1
  Ta  Ta6  1  0.554580  0.553751  0.000000  1
  Nb  Nb7  1  0.178184  0.178619  0.500000  1
  Co  Co8  1  0.272185  0.999377  0.500000  1
  Co  Co9  1  0.001772  0.276078  0.500000  1
  Co  Co10  1  0.726278  0.723797  0.500000  1
  Co  Co11  1  0.627143  0.805786  0.000000  1
  Co  Co12  1  0.190282  0.821213  0.000000  1
  Co  Co13  1  0.179561  0.371318  0.000000  1
  Co  Co14  1  0.370311  0.178652  0.000000  1
  Co  Co15  1  0.809572  0.629995  0.000000  1
  Co  Co16  1  0.821219  0.194101  0.000000  1
  Co  Co17  1  0.514989  0.871855  0.500000  1
  Co  Co18  1  0.127840  0.644174  0.500000  1
  Co  Co19  1  0.356632  0.483851  0.500000  1
  Co  Co20  1  0.483363  0.355682  0.500000  1
  Co  Co21  1  0.872377  0.515822  0.500000  1
  Co  Co22  1  0.642928  0.127991  0.500000  1
  Co  Co23  1  0.001566  0.998882  0.000000  1
  P  P24  1  0.175329  0.000060  0.000000  1
  P  P25  1  0.001762  0.175250  0.000000  1
  P  P26  1  0.825997  0.824366  0.000000  1
  P  P27  1  0.520932  0.690002  0.500000  1
  P  P28  1  0.309758  0.830437  0.500000  1
  P  P29  1  0.170216  0.480402  0.500000  1
  P  P30  1  0.478919  0.169187  0.500000  1
  P  P31  1  0.689609  0.519195  0.500000  1
  P  P32  1  0.830723  0.309798  0.500000  1
  P  P33  1  0.646738  0.999970  0.000000  1
  P  P34  1  0.000147  0.649413  0.000000  1
  P  P35  1  0.351600  0.351452  0.000000  1
