# generated using pymatgen
data_Tb2Ho5Co2Sn23Rh4
_symmetry_space_group_name_H-M   'P 1'
_cell_length_a   9.78653542
_cell_length_b   9.79320284
_cell_length_c   10.06514132
_cell_angle_alpha   89.99999935
_cell_angle_beta   90.01924390
_cell_angle_gamma   120.02254269
_symmetry_Int_Tables_number   1
_chemical_formula_structural   Tb2Ho5Co2Sn23Rh4
_chemical_formula_sum   'Tb2 Ho5 Co2 Sn23 Rh4'
_cell_volume   835.22887761
_cell_formula_units_Z   1
loop_
 _symmetry_equiv_pos_site_id
 _symmetry_equiv_pos_as_xyz
  1  'x, y, z'
loop_
 _atom_site_type_symbol
 _atom_site_label
 _atom_site_symmetry_multiplicity
 _atom_site_fract_x
 _atom_site_fract_y
 _atom_site_fract_z
 _atom_site_occupancy
  Tb  Tb0  1  0.000047  0.000024  0.000027  1
  Tb  Tb1  1  0.956816  0.478408  0.692975  1
  Ho  Ho2  1  0.478823  0.521138  0.307242  1
  Ho  Ho3  1  0.521212  0.478936  0.692730  1
  Ho  Ho4  1  0.478823  0.957685  0.307242  1
  Ho  Ho5  1  0.521212  0.042276  0.692730  1
  Ho  Ho6  1  0.042503  0.521251  0.306788  1
  Co  Co7  1  0.337386  0.168693  0.198571  1
  Co  Co8  1  0.662502  0.831251  0.801527  1
  Sn  Sn9  1  0.351176  0.004735  0.004973  1
  Sn  Sn10  1  0.648867  0.995350  0.995165  1
  Sn  Sn11  1  0.000061  0.351128  0.000091  1
  Sn  Sn12  1  0.000061  0.648933  0.000091  1
  Sn  Sn13  1  0.648867  0.653517  0.995165  1
  Sn  Sn14  1  0.351176  0.346441  0.004973  1
  Sn  Sn15  1  0.338698  0.669350  0.818646  1
  Sn  Sn16  1  0.661346  0.330672  0.181413  1
  Sn  Sn17  1  0.000051  0.000026  0.499974  1
  Sn  Sn18  1  0.778247  0.221247  0.455821  1
  Sn  Sn19  1  0.221956  0.778948  0.543622  1
  Sn  Sn20  1  0.778247  0.557000  0.455821  1
  Sn  Sn21  1  0.221956  0.443008  0.543622  1
  Sn  Sn22  1  0.439217  0.219609  0.450529  1
  Sn  Sn23  1  0.560807  0.780403  0.549365  1
  Sn  Sn24  1  0.333441  0.666721  0.119463  1
  Sn  Sn25  1  0.665754  0.332876  0.881047  1
  Sn  Sn26  1  0.123811  0.886743  0.277105  1
  Sn  Sn27  1  0.876196  0.112943  0.722939  1
  Sn  Sn28  1  0.123811  0.237069  0.277105  1
  Sn  Sn29  1  0.876196  0.763252  0.722939  1
  Sn  Sn30  1  0.758989  0.879495  0.282158  1
  Sn  Sn31  1  0.241053  0.120526  0.717817  1
  Rh  Rh32  1  0.830860  0.167526  0.197680  1
  Rh  Rh33  1  0.169486  0.833025  0.802483  1
  Rh  Rh34  1  0.830860  0.663334  0.197680  1
  Rh  Rh35  1  0.169486  0.336461  0.802483  1
