# generated using pymatgen
data_Nd3Al12(RuPt)2
_symmetry_space_group_name_H-M   'P 1'
_cell_length_a   8.95736908
_cell_length_b   8.90636710
_cell_length_c   9.64228600
_cell_angle_alpha   90.00000000
_cell_angle_beta   90.00000000
_cell_angle_gamma   119.81182459
_symmetry_Int_Tables_number   1
_chemical_formula_structural   Nd3Al12(RuPt)2
_chemical_formula_sum   'Nd6 Al24 Ru4 Pt4'
_cell_volume   667.43977407
_cell_formula_units_Z   2
loop_
 _symmetry_equiv_pos_site_id
 _symmetry_equiv_pos_as_xyz
  1  'x, y, z'
loop_
 _atom_site_type_symbol
 _atom_site_label
 _atom_site_symmetry_multiplicity
 _atom_site_fract_x
 _atom_site_fract_y
 _atom_site_fract_z
 _atom_site_occupancy
  Nd  Nd0  1  0.188738  0.380939  0.250000  1
  Nd  Nd1  1  0.811262  0.619061  0.750000  1
  Nd  Nd2  1  0.619440  0.809720  0.250000  1
  Nd  Nd3  1  0.380560  0.190280  0.750000  1
  Nd  Nd4  1  0.188738  0.807798  0.250000  1
  Nd  Nd5  1  0.811262  0.192202  0.750000  1
  Al  Al6  1  0.327615  0.663808  0.025666  1
  Al  Al7  1  0.672385  0.336192  0.974334  1
  Al  Al8  1  0.672385  0.336192  0.525666  1
  Al  Al9  1  0.327615  0.663808  0.474334  1
  Al  Al10  1  0.158550  0.326474  0.576290  1
  Al  Al11  1  0.841450  0.673526  0.423710  1
  Al  Al12  1  0.676424  0.838212  0.574307  1
  Al  Al13  1  0.841450  0.673526  0.076290  1
  Al  Al14  1  0.323576  0.161788  0.425693  1
  Al  Al15  1  0.158550  0.326474  0.923710  1
  Al  Al16  1  0.158550  0.832075  0.576290  1
  Al  Al17  1  0.323576  0.161788  0.074307  1
  Al  Al18  1  0.841450  0.167925  0.423710  1
  Al  Al19  1  0.676424  0.838212  0.925693  1
  Al  Al20  1  0.841450  0.167925  0.076290  1
  Al  Al21  1  0.158550  0.832075  0.923710  1
  Al  Al22  1  0.564379  0.127957  0.250000  1
  Al  Al23  1  0.435621  0.872043  0.750000  1
  Al  Al24  1  0.875023  0.437512  0.250000  1
  Al  Al25  1  0.124977  0.562488  0.750000  1
  Al  Al26  1  0.564379  0.436422  0.250000  1
  Al  Al27  1  0.435621  0.563578  0.750000  1
  Al  Al28  1  0.995309  0.997654  0.250000  1
  Al  Al29  1  0.004691  0.002346  0.750000  1
  Ru  Ru30  1  0.000000  0.500000  0.000000  1
  Ru  Ru31  1  0.000000  0.500000  0.500000  1
  Ru  Ru32  1  0.000000  0.000000  0.000000  1
  Ru  Ru33  1  0.000000  0.000000  0.500000  1
  Pt  Pt34  1  0.500000  0.000000  0.000000  1
  Pt  Pt35  1  0.500000  0.000000  0.500000  1
  Pt  Pt36  1  0.500000  0.500000  0.000000  1
  Pt  Pt37  1  0.500000  0.500000  0.500000  1
