# generated using pymatgen
data_Nd2Th3Sn3Cl
_symmetry_space_group_name_H-M   'P 1'
_cell_length_a   9.49353509
_cell_length_b   9.50368503
_cell_length_c   6.60017200
_cell_angle_alpha   90.00000000
_cell_angle_beta   90.00000000
_cell_angle_gamma   119.96685064
_symmetry_Int_Tables_number   1
_chemical_formula_structural   Nd2Th3Sn3Cl
_chemical_formula_sum   'Nd4 Th6 Sn6 Cl2'
_cell_volume   515.88256698
_cell_formula_units_Z   2
loop_
 _symmetry_equiv_pos_site_id
 _symmetry_equiv_pos_as_xyz
  1  'x, y, z'
loop_
 _atom_site_type_symbol
 _atom_site_label
 _atom_site_symmetry_multiplicity
 _atom_site_fract_x
 _atom_site_fract_y
 _atom_site_fract_z
 _atom_site_occupancy
  Nd  Nd0  1  0.999769  0.267055  0.250000  1
  Nd  Nd1  1  0.000217  0.732848  0.750000  1
  Nd  Nd2  1  0.732672  0.732913  0.250000  1
  Nd  Nd3  1  0.267367  0.267192  0.750000  1
  Th  Th4  1  0.270838  0.999980  0.250000  1
  Th  Th5  1  0.729198  0.000015  0.750000  1
  Th  Th6  1  0.334255  0.668545  0.999978  1
  Th  Th7  1  0.665709  0.331458  0.999970  1
  Th  Th8  1  0.665709  0.331458  0.500030  1
  Th  Th9  1  0.334255  0.668545  0.500022  1
  Sn  Sn10  1  0.616393  0.000005  0.250000  1
  Sn  Sn11  1  0.383591  0.000021  0.750000  1
  Sn  Sn12  1  0.999946  0.615284  0.250000  1
  Sn  Sn13  1  0.000028  0.384674  0.750000  1
  Sn  Sn14  1  0.384617  0.384667  0.250000  1
  Sn  Sn15  1  0.615372  0.615343  0.750000  1
  Cl  Cl16  1  0.000032  0.999999  0.999988  1
  Cl  Cl17  1  0.000032  0.999999  0.500012  1
