# generated using pymatgen
data_Cs3Th7Se12
_symmetry_space_group_name_H-M   'P 1'
_cell_length_a   4.27070200
_cell_length_b   13.17739600
_cell_length_c   26.82139600
_cell_angle_alpha   90.00000000
_cell_angle_beta   90.00000000
_cell_angle_gamma   90.00000000
_symmetry_Int_Tables_number   1
_chemical_formula_structural   Cs3Th7Se12
_chemical_formula_sum   'Cs6 Th14 Se24'
_cell_volume   1509.42049986
_cell_formula_units_Z   2
loop_
 _symmetry_equiv_pos_site_id
 _symmetry_equiv_pos_as_xyz
  1  'x, y, z'
loop_
 _atom_site_type_symbol
 _atom_site_label
 _atom_site_symmetry_multiplicity
 _atom_site_fract_x
 _atom_site_fract_y
 _atom_site_fract_z
 _atom_site_occupancy
  Cs  Cs0  1  0.500000  0.524762  0.134573  1
  Cs  Cs1  1  0.500000  0.965322  0.857393  1
  Cs  Cs2  1  0.000000  0.034678  0.357393  1
  Cs  Cs3  1  0.000000  0.475238  0.634573  1
  Cs  Cs4  1  0.500000  0.810084  0.469622  1
  Cs  Cs5  1  0.000000  0.189916  0.969622  1
  Th  Th6  1  0.500000  0.465990  0.404478  1
  Th  Th7  1  0.500000  0.033616  0.597026  1
  Th  Th8  1  0.000000  0.966384  0.097026  1
  Th  Th9  1  0.000000  0.534010  0.904478  1
  Th  Th10  1  0.000000  0.246667  0.499855  1
  Th  Th11  1  0.500000  0.753333  0.999855  1
  Th  Th12  1  0.500000  0.344838  0.818115  1
  Th  Th13  1  0.500000  0.156379  0.182170  1
  Th  Th14  1  0.000000  0.843621  0.682170  1
  Th  Th15  1  0.000000  0.655162  0.318115  1
  Th  Th16  1  0.500000  0.645119  0.789643  1
  Th  Th17  1  0.500000  0.852423  0.210734  1
  Th  Th18  1  0.000000  0.147577  0.710734  1
  Th  Th19  1  0.000000  0.354881  0.289643  1
  Se  Se20  1  0.500000  0.397794  0.513676  1
  Se  Se21  1  0.500000  0.093304  0.485292  1
  Se  Se22  1  0.000000  0.906696  0.985292  1
  Se  Se23  1  0.000000  0.602206  0.013676  1
  Se  Se24  1  0.500000  0.302383  0.710714  1
  Se  Se25  1  0.500000  0.199877  0.289479  1
  Se  Se26  1  0.000000  0.800123  0.789479  1
  Se  Se27  1  0.000000  0.697617  0.210714  1
  Se  Se28  1  0.500000  0.683412  0.678831  1
  Se  Se29  1  0.500000  0.817415  0.323625  1
  Se  Se30  1  0.000000  0.182585  0.823625  1
  Se  Se31  1  0.000000  0.316588  0.178831  1
  Se  Se32  1  0.500000  0.386582  0.928444  1
  Se  Se33  1  0.500000  0.115384  0.073025  1
  Se  Se34  1  0.000000  0.884616  0.573025  1
  Se  Se35  1  0.000000  0.613418  0.428444  1
  Se  Se36  1  0.500000  0.510109  0.292222  1
  Se  Se37  1  0.500000  0.990169  0.709306  1
  Se  Se38  1  0.000000  0.009831  0.209306  1
  Se  Se39  1  0.000000  0.489891  0.792222  1
  Se  Se40  1  0.500000  0.693715  0.895965  1
  Se  Se41  1  0.500000  0.806739  0.104274  1
  Se  Se42  1  0.000000  0.193261  0.604274  1
  Se  Se43  1  0.000000  0.306285  0.395965  1
