# generated using pymatgen
data_Dy7Er9In4RuRh3
_symmetry_space_group_name_H-M   'P 1'
_cell_length_a   9.62240004
_cell_length_b   9.62029105
_cell_length_c   9.62253583
_cell_angle_alpha   59.95514012
_cell_angle_beta   59.91196192
_cell_angle_gamma   59.89168776
_symmetry_Int_Tables_number   1
_chemical_formula_structural   Dy7Er9In4RuRh3
_chemical_formula_sum   'Dy7 Er9 In4 Ru1 Rh3'
_cell_volume   628.71390000
_cell_formula_units_Z   1
loop_
 _symmetry_equiv_pos_site_id
 _symmetry_equiv_pos_as_xyz
  1  'x, y, z'
loop_
 _atom_site_type_symbol
 _atom_site_label
 _atom_site_symmetry_multiplicity
 _atom_site_fract_x
 _atom_site_fract_y
 _atom_site_fract_z
 _atom_site_occupancy
  Dy  Dy0  1  0.188093  0.192825  0.810657  1
  Dy  Dy1  1  0.440178  0.059817  0.060640  1
  Dy  Dy2  1  0.437836  0.063001  0.436019  1
  Dy  Dy3  1  0.059736  0.438781  0.060468  1
  Dy  Dy4  1  0.650170  0.048603  0.648858  1
  Dy  Dy5  1  0.191944  0.808445  0.810039  1
  Dy  Dy6  1  0.061296  0.061261  0.437719  1
  Er  Er7  1  0.810091  0.192698  0.188435  1
  Er  Er8  1  0.809605  0.808703  0.192291  1
  Er  Er9  1  0.651295  0.648557  0.047046  1
  Er  Er10  1  0.652659  0.650920  0.651525  1
  Er  Er11  1  0.059822  0.437965  0.441681  1
  Er  Er12  1  0.045017  0.650014  0.651274  1
  Er  Er13  1  0.808969  0.194154  0.809657  1
  Er  Er14  1  0.443373  0.437549  0.059534  1
  Er  Er15  1  0.191600  0.807658  0.192137  1
  In  In16  1  0.417908  0.746552  0.418474  1
  In  In17  1  0.416958  0.417267  0.748716  1
  In  In18  1  0.748569  0.417488  0.417327  1
  In  In19  1  0.416258  0.418726  0.416144  1
  Ru  Ru20  1  0.856203  0.424918  0.857762  1
  Rh  Rh21  1  0.860297  0.858126  0.422247  1
  Rh  Rh22  1  0.424832  0.855807  0.860769  1
  Rh  Rh23  1  0.857297  0.860161  0.860586  1
