# generated using pymatgen
data_Ba6Gd2Al4O15
_symmetry_space_group_name_H-M   'P 1'
_cell_length_a   5.90861109
_cell_length_b   7.89355560
_cell_length_c   18.26129900
_cell_angle_alpha   88.77875787
_cell_angle_beta   89.95176714
_cell_angle_gamma   89.97693505
_symmetry_Int_Tables_number   1
_chemical_formula_structural   Ba6Gd2Al4O15
_chemical_formula_sum   'Ba12 Gd4 Al8 O30'
_cell_volume   851.51224649
_cell_formula_units_Z   2
loop_
 _symmetry_equiv_pos_site_id
 _symmetry_equiv_pos_as_xyz
  1  'x, y, z'
loop_
 _atom_site_type_symbol
 _atom_site_label
 _atom_site_symmetry_multiplicity
 _atom_site_fract_x
 _atom_site_fract_y
 _atom_site_fract_z
 _atom_site_occupancy
  Ba  Ba0  1  0.756686  0.501740  0.080904  1
  Ba  Ba1  1  0.243242  0.498099  0.918932  1
  Ba  Ba2  1  0.757266  0.498232  0.418844  1
  Ba  Ba3  1  0.243113  0.502043  0.581111  1
  Ba  Ba4  1  0.750402  0.971116  0.090082  1
  Ba  Ba5  1  0.249526  0.028624  0.909957  1
  Ba  Ba6  1  0.750685  0.028595  0.410000  1
  Ba  Ba7  1  0.249427  0.971517  0.590080  1
  Ba  Ba8  1  0.716609  0.999905  0.749987  1
  Ba  Ba9  1  0.283070  0.000212  0.250073  1
  Ba  Ba10  1  0.671765  0.499920  0.749973  1
  Ba  Ba11  1  0.327938  0.500280  0.249891  1
  Gd  Gd12  1  0.748305  0.753404  0.909663  1
  Gd  Gd13  1  0.251610  0.246475  0.090344  1
  Gd  Gd14  1  0.748298  0.246761  0.590255  1
  Gd  Gd15  1  0.251960  0.753462  0.409776  1
  Al  Al16  1  0.747230  0.752910  0.558355  1
  Al  Al17  1  0.253088  0.247205  0.441733  1
  Al  Al18  1  0.747190  0.246975  0.941847  1
  Al  Al19  1  0.252714  0.752861  0.058182  1
  Al  Al20  1  0.773748  0.778499  0.265866  1
  Al  Al21  1  0.226166  0.221465  0.733990  1
  Al  Al22  1  0.773387  0.221340  0.234034  1
  Al  Al23  1  0.226331  0.778589  0.765935  1
  O  O24  1  0.204712  0.000010  0.749884  1
  O  O25  1  0.795284  0.999917  0.249931  1
  O  O26  1  0.502503  0.764152  0.003661  1
  O  O27  1  0.497161  0.235790  0.996268  1
  O  O28  1  0.502814  0.235926  0.496176  1
  O  O29  1  0.497594  0.764022  0.503787  1
  O  O30  1  0.764490  0.943887  0.608428  1
  O  O31  1  0.235397  0.056043  0.391766  1
  O  O32  1  0.764625  0.056003  0.891732  1
  O  O33  1  0.235432  0.943816  0.108330  1
  O  O34  1  0.018518  0.765165  0.995767  1
  O  O35  1  0.981436  0.234610  0.004256  1
  O  O36  1  0.018512  0.235041  0.504091  1
  O  O37  1  0.981885  0.765184  0.496000  1
  O  O38  1  0.326253  0.695055  0.684899  1
  O  O39  1  0.673617  0.304695  0.315163  1
  O  O40  1  0.325438  0.305053  0.815010  1
  O  O41  1  0.674856  0.695098  0.184813  1
  O  O42  1  0.441205  0.753659  0.834043  1
  O  O43  1  0.558629  0.246367  0.165930  1
  O  O44  1  0.441279  0.246587  0.665894  1
  O  O45  1  0.558772  0.753541  0.334038  1
  O  O46  1  0.965164  0.725513  0.806441  1
  O  O47  1  0.034593  0.274574  0.193577  1
  O  O48  1  0.965132  0.274441  0.693424  1
  O  O49  1  0.034678  0.725518  0.306631  1
  O  O50  1  0.756812  0.540673  0.593721  1
  O  O51  1  0.243443  0.459537  0.406444  1
  O  O52  1  0.756717  0.459432  0.906634  1
  O  O53  1  0.243289  0.540459  0.093440  1
