# generated using pymatgen
data_BaBiPtPb
_symmetry_space_group_name_H-M   'P 1'
_cell_length_a   10.25861645
_cell_length_b   10.25861609
_cell_length_c   5.04866600
_cell_angle_alpha   90.00000000
_cell_angle_beta   90.00000000
_cell_angle_gamma   151.62147422
_symmetry_Int_Tables_number   1
_chemical_formula_structural   BaBiPtPb
_chemical_formula_sum   'Ba2 Bi2 Pt2 Pb2'
_cell_volume   252.53233098
_cell_formula_units_Z   2
loop_
 _symmetry_equiv_pos_site_id
 _symmetry_equiv_pos_as_xyz
  1  'x, y, z'
loop_
 _atom_site_type_symbol
 _atom_site_label
 _atom_site_symmetry_multiplicity
 _atom_site_fract_x
 _atom_site_fract_y
 _atom_site_fract_z
 _atom_site_occupancy
  Ba  Ba0  1  0.110145  0.889855  0.249999  1
  Ba  Ba1  1  0.889457  0.110543  0.750000  1
  Bi  Bi2  1  0.545722  0.454277  0.750000  1
  Bi  Bi3  1  0.252006  0.747994  0.750000  1
  Pt  Pt4  1  0.316084  0.683916  0.249999  1
  Pt  Pt5  1  0.683478  0.316522  0.750000  1
  Pb  Pb6  1  0.749660  0.250340  0.249999  1
  Pb  Pb7  1  0.453447  0.546552  0.249999  1
