# generated using pymatgen
data_Zr2CdAgF11
_symmetry_space_group_name_H-M   'P 1'
_cell_length_a   6.01498422
_cell_length_b   6.01498382
_cell_length_c   7.99006132
_cell_angle_alpha   69.71954920
_cell_angle_beta   69.71954889
_cell_angle_gamma   73.25890170
_symmetry_Int_Tables_number   1
_chemical_formula_structural   Zr2CdAgF11
_chemical_formula_sum   'Zr2 Cd1 Ag1 F11'
_cell_volume   249.67556885
_cell_formula_units_Z   1
loop_
 _symmetry_equiv_pos_site_id
 _symmetry_equiv_pos_as_xyz
  1  'x, y, z'
loop_
 _atom_site_type_symbol
 _atom_site_label
 _atom_site_symmetry_multiplicity
 _atom_site_fract_x
 _atom_site_fract_y
 _atom_site_fract_z
 _atom_site_occupancy
  Zr  Zr0  1  0.505852  0.505852  0.764686  1
  Zr  Zr1  1  0.494148  0.494148  0.235314  1
  Cd  Cd2  1  0.000000  0.000000  0.500000  1
  Ag  Ag3  1  0.000000  0.000000  0.000000  1
  F  F4  1  0.202250  0.763642  0.306106  1
  F  F5  1  0.236358  0.797750  0.693894  1
  F  F6  1  0.797750  0.236358  0.693894  1
  F  F7  1  0.763642  0.202250  0.306106  1
  F  F8  1  0.500000  0.500000  0.500000  1
  F  F9  1  0.661819  0.338181  0.000000  1
  F  F10  1  0.338181  0.661819  0.000000  1
  F  F11  1  0.740768  0.740768  0.654978  1
  F  F12  1  0.259232  0.259232  0.345022  1
  F  F13  1  0.722620  0.722620  0.113018  1
  F  F14  1  0.277380  0.277380  0.886982  1
