# generated using pymatgen
data_Rb3BiTe3
_symmetry_space_group_name_H-M   'P 1'
_cell_length_a   11.01710300
_cell_length_b   11.01710300
_cell_length_c   11.01710300
_cell_angle_alpha   90.00000000
_cell_angle_beta   90.00000000
_cell_angle_gamma   90.00000000
_symmetry_Int_Tables_number   1
_chemical_formula_structural   Rb3BiTe3
_chemical_formula_sum   'Rb12 Bi4 Te12'
_cell_volume   1337.21804692
_cell_formula_units_Z   4
loop_
 _symmetry_equiv_pos_site_id
 _symmetry_equiv_pos_as_xyz
  1  'x, y, z'
loop_
 _atom_site_type_symbol
 _atom_site_label
 _atom_site_symmetry_multiplicity
 _atom_site_fract_x
 _atom_site_fract_y
 _atom_site_fract_z
 _atom_site_occupancy
  Rb  Rb0  1  0.579943  0.579943  0.579943  1
  Rb  Rb1  1  0.920057  0.420057  0.079943  1
  Rb  Rb2  1  0.079943  0.920057  0.420057  1
  Rb  Rb3  1  0.420057  0.079943  0.920057  1
  Rb  Rb4  1  0.321753  0.321753  0.321753  1
  Rb  Rb5  1  0.178247  0.678247  0.821753  1
  Rb  Rb6  1  0.821753  0.178247  0.678247  1
  Rb  Rb7  1  0.678247  0.821753  0.178247  1
  Rb  Rb8  1  0.816171  0.816171  0.816171  1
  Rb  Rb9  1  0.683829  0.183829  0.316171  1
  Rb  Rb10  1  0.316171  0.683829  0.183829  1
  Rb  Rb11  1  0.183829  0.316171  0.683829  1
  Bi  Bi12  1  0.027777  0.027777  0.027777  1
  Bi  Bi13  1  0.472223  0.972223  0.527777  1
  Bi  Bi14  1  0.527777  0.472223  0.972223  1
  Bi  Bi15  1  0.972223  0.527777  0.472223  1
  Te  Te16  1  0.222629  0.608275  0.497432  1
  Te  Te17  1  0.497432  0.222629  0.608275  1
  Te  Te18  1  0.608275  0.497432  0.222629  1
  Te  Te19  1  0.891725  0.502568  0.722629  1
  Te  Te20  1  0.997432  0.277371  0.391725  1
  Te  Te21  1  0.391725  0.997432  0.277371  1
  Te  Te22  1  0.002568  0.777371  0.108275  1
  Te  Te23  1  0.502568  0.722629  0.891725  1
  Te  Te24  1  0.108275  0.002568  0.777371  1
  Te  Te25  1  0.722629  0.891725  0.502568  1
  Te  Te26  1  0.777371  0.108275  0.002568  1
  Te  Te27  1  0.277371  0.391725  0.997432  1
