# generated using pymatgen
data_Dy10Sn5BiSe2
_symmetry_space_group_name_H-M   'P 1'
_cell_length_a   9.15058139
_cell_length_b   9.15058086
_cell_length_c   6.71071200
_cell_angle_alpha   90.00000000
_cell_angle_beta   90.00000000
_cell_angle_gamma   120.11221347
_symmetry_Int_Tables_number   1
_chemical_formula_structural   Dy10Sn5BiSe2
_chemical_formula_sum   'Dy10 Sn5 Bi1 Se2'
_cell_volume   486.07624706
_cell_formula_units_Z   1
loop_
 _symmetry_equiv_pos_site_id
 _symmetry_equiv_pos_as_xyz
  1  'x, y, z'
loop_
 _atom_site_type_symbol
 _atom_site_label
 _atom_site_symmetry_multiplicity
 _atom_site_fract_x
 _atom_site_fract_y
 _atom_site_fract_z
 _atom_site_occupancy
  Dy  Dy0  1  0.669359  0.332566  0.001717  1
  Dy  Dy1  1  0.332566  0.669359  0.001717  1
  Dy  Dy2  1  0.332566  0.669359  0.498283  1
  Dy  Dy3  1  0.669359  0.332566  0.498283  1
  Dy  Dy4  1  0.749210  0.749210  0.750000  1
  Dy  Dy5  1  0.251405  0.995234  0.750000  1
  Dy  Dy6  1  0.995234  0.251405  0.750000  1
  Dy  Dy7  1  0.252224  0.252224  0.250000  1
  Dy  Dy8  1  0.746293  0.999745  0.250000  1
  Dy  Dy9  1  0.999745  0.746293  0.250000  1
  Sn  Sn10  1  0.603783  0.000167  0.750000  1
  Sn  Sn11  1  0.000167  0.603783  0.750000  1
  Sn  Sn12  1  0.604886  0.604886  0.250000  1
  Sn  Sn13  1  0.395892  0.000622  0.250000  1
  Sn  Sn14  1  0.000622  0.395892  0.250000  1
  Bi  Bi15  1  0.395044  0.395044  0.750000  1
  Se  Se16  1  0.000823  0.000823  0.999766  1
  Se  Se17  1  0.000823  0.000823  0.500234  1
