# generated using pymatgen
data_YbTm3(ZnRh)4
_symmetry_space_group_name_H-M   'P 1'
_cell_length_a   4.02919200
_cell_length_b   6.90742195
_cell_length_c   8.03238729
_cell_angle_alpha   90.08626254
_cell_angle_beta   90.00000000
_cell_angle_gamma   90.00000000
_symmetry_Int_Tables_number   1
_chemical_formula_structural   YbTm3(ZnRh)4
_chemical_formula_sum   'Yb1 Tm3 Zn4 Rh4'
_cell_volume   223.55176190
_cell_formula_units_Z   1
loop_
 _symmetry_equiv_pos_site_id
 _symmetry_equiv_pos_as_xyz
  1  'x, y, z'
loop_
 _atom_site_type_symbol
 _atom_site_label
 _atom_site_symmetry_multiplicity
 _atom_site_fract_x
 _atom_site_fract_y
 _atom_site_fract_z
 _atom_site_occupancy
  Yb  Yb0  1  0.250000  0.534996  0.183309  1
  Tm  Tm1  1  0.750000  0.463977  0.817266  1
  Tm  Tm2  1  0.750000  0.962786  0.682787  1
  Tm  Tm3  1  0.250000  0.035153  0.316744  1
  Zn  Zn4  1  0.250000  0.639412  0.564519  1
  Zn  Zn5  1  0.750000  0.362399  0.433868  1
  Zn  Zn6  1  0.750000  0.861510  0.065511  1
  Zn  Zn7  1  0.250000  0.138590  0.935991  1
  Rh  Rh8  1  0.250000  0.758053  0.874218  1
  Rh  Rh9  1  0.750000  0.238711  0.123071  1
  Rh  Rh10  1  0.750000  0.745824  0.379075  1
  Rh  Rh11  1  0.250000  0.258588  0.623640  1
