# generated using pymatgen
data_Ho4Tc3B8Ru7
_symmetry_space_group_name_H-M   'P 1'
_cell_length_a   3.08506300
_cell_length_b   8.78006855
_cell_length_c   10.17381029
_cell_angle_alpha   90.12230592
_cell_angle_beta   90.00000000
_cell_angle_gamma   90.00000000
_symmetry_Int_Tables_number   1
_chemical_formula_structural   Ho4Tc3B8Ru7
_chemical_formula_sum   'Ho4 Tc3 B8 Ru7'
_cell_volume   275.57802871
_cell_formula_units_Z   1
loop_
 _symmetry_equiv_pos_site_id
 _symmetry_equiv_pos_as_xyz
  1  'x, y, z'
loop_
 _atom_site_type_symbol
 _atom_site_label
 _atom_site_symmetry_multiplicity
 _atom_site_fract_x
 _atom_site_fract_y
 _atom_site_fract_z
 _atom_site_occupancy
  Ho  Ho0  1  0.500000  0.839931  0.181472  1
  Ho  Ho1  1  0.500000  0.159536  0.818820  1
  Ho  Ho2  1  0.500000  0.659798  0.682616  1
  Ho  Ho3  1  0.500000  0.340382  0.316774  1
  Tc  Tc4  1  0.000000  0.658504  0.953963  1
  Tc  Tc5  1  0.000000  0.340895  0.045742  1
  Tc  Tc6  1  0.000000  0.843686  0.454908  1
  B  B7  1  0.500000  0.963208  0.586900  1
  B  B8  1  0.500000  0.030078  0.411700  1
  B  B9  1  0.500000  0.849107  0.902727  1
  B  B10  1  0.500000  0.152373  0.097785  1
  B  B11  1  0.500000  0.650581  0.400533  1
  B  B12  1  0.500000  0.351242  0.599403  1
  B  B13  1  0.500000  0.466722  0.913886  1
  B  B14  1  0.500000  0.534148  0.085661  1
  Ru  Ru15  1  0.000000  0.160385  0.546727  1
  Ru  Ru16  1  0.000000  0.000266  0.000392  1
  Ru  Ru17  1  0.000000  0.405916  0.759553  1
  Ru  Ru18  1  0.000000  0.593350  0.239835  1
  Ru  Ru19  1  0.000000  0.499783  0.500197  1
  Ru  Ru20  1  0.000000  0.907362  0.739360  1
  Ru  Ru21  1  0.000000  0.092747  0.261047  1
