# generated using pymatgen
data_Rb2Hf3ScSe8
_symmetry_space_group_name_H-M   'P 1'
_cell_length_a   6.55022400
_cell_length_b   7.56780100
_cell_length_c   17.19697600
_cell_angle_alpha   90.00000000
_cell_angle_beta   90.00000000
_cell_angle_gamma   90.00000000
_symmetry_Int_Tables_number   1
_chemical_formula_structural   Rb2Hf3ScSe8
_chemical_formula_sum   'Rb4 Hf6 Sc2 Se16'
_cell_volume   852.46771581
_cell_formula_units_Z   2
loop_
 _symmetry_equiv_pos_site_id
 _symmetry_equiv_pos_as_xyz
  1  'x, y, z'
loop_
 _atom_site_type_symbol
 _atom_site_label
 _atom_site_symmetry_multiplicity
 _atom_site_fract_x
 _atom_site_fract_y
 _atom_site_fract_z
 _atom_site_occupancy
  Rb  Rb0  1  0.351173  0.000000  0.000000  1
  Rb  Rb1  1  0.652466  0.500000  0.500000  1
  Rb  Rb2  1  0.029820  0.000000  0.500000  1
  Rb  Rb3  1  0.971103  0.500000  0.000000  1
  Hf  Hf4  1  0.001285  0.000000  0.249073  1
  Hf  Hf5  1  0.001285  0.000000  0.750927  1
  Hf  Hf6  1  0.500104  0.252987  0.250046  1
  Hf  Hf7  1  0.500104  0.747013  0.749954  1
  Hf  Hf8  1  0.500104  0.747013  0.250046  1
  Hf  Hf9  1  0.500104  0.252987  0.749954  1
  Sc  Sc10  1  0.998403  0.500000  0.250910  1
  Sc  Sc11  1  0.998403  0.500000  0.749090  1
  Se  Se12  1  0.831656  0.245909  0.342507  1
  Se  Se13  1  0.831656  0.754091  0.657493  1
  Se  Se14  1  0.167952  0.751445  0.157570  1
  Se  Se15  1  0.167952  0.248555  0.842430  1
  Se  Se16  1  0.167952  0.248555  0.157570  1
  Se  Se17  1  0.167952  0.751445  0.842430  1
  Se  Se18  1  0.831656  0.754091  0.342507  1
  Se  Se19  1  0.831656  0.245909  0.657493  1
  Se  Se20  1  0.670411  0.000000  0.158512  1
  Se  Se21  1  0.670411  0.000000  0.841488  1
  Se  Se22  1  0.333401  0.500000  0.342286  1
  Se  Se23  1  0.333401  0.500000  0.657714  1
  Se  Se24  1  0.334572  0.000000  0.340716  1
  Se  Se25  1  0.334572  0.000000  0.659284  1
  Se  Se26  1  0.660219  0.500000  0.158007  1
  Se  Se27  1  0.660219  0.500000  0.841993  1
