# generated using pymatgen
data_Tb7Yb(ReC2)4
_symmetry_space_group_name_H-M   'P 1'
_cell_length_a   5.15260300
_cell_length_b   6.58672900
_cell_length_c   9.97730738
_cell_angle_alpha   89.39268703
_cell_angle_beta   90.00000000
_cell_angle_gamma   90.00000000
_symmetry_Int_Tables_number   1
_chemical_formula_structural   Tb7Yb(ReC2)4
_chemical_formula_sum   'Tb7 Yb1 Re4 C8'
_cell_volume   338.59881348
_cell_formula_units_Z   1
loop_
 _symmetry_equiv_pos_site_id
 _symmetry_equiv_pos_as_xyz
  1  'x, y, z'
loop_
 _atom_site_type_symbol
 _atom_site_label
 _atom_site_symmetry_multiplicity
 _atom_site_fract_x
 _atom_site_fract_y
 _atom_site_fract_z
 _atom_site_occupancy
  Tb  Tb0  1  0.250000  0.684369  0.553435  1
  Tb  Tb1  1  0.750000  0.314534  0.444517  1
  Tb  Tb2  1  0.750000  0.817439  0.055780  1
  Tb  Tb3  1  0.250000  0.180694  0.946242  1
  Tb  Tb4  1  0.250000  0.531406  0.219712  1
  Tb  Tb5  1  0.750000  0.467448  0.782605  1
  Tb  Tb6  1  0.750000  0.966563  0.717353  1
  Yb  Yb7  1  0.250000  0.033511  0.280840  1
  Re  Re8  1  0.250000  0.721569  0.861938  1
  Re  Re9  1  0.750000  0.278310  0.136424  1
  Re  Re10  1  0.750000  0.776808  0.363501  1
  Re  Re11  1  0.250000  0.225364  0.636889  1
  C  C12  1  0.250000  0.456063  0.759549  1
  C  C13  1  0.750000  0.544199  0.241274  1
  C  C14  1  0.750000  0.043237  0.258854  1
  C  C15  1  0.250000  0.957814  0.739838  1
  C  C16  1  0.250000  0.812933  0.043158  1
  C  C17  1  0.750000  0.179250  0.954986  1
  C  C18  1  0.750000  0.683703  0.547386  1
  C  C19  1  0.250000  0.324787  0.455718  1
