# generated using pymatgen
data_La3In3GeIrRh
_symmetry_space_group_name_H-M   'P 1'
_cell_length_a   7.68808600
_cell_length_b   7.68808532
_cell_length_c   4.27420000
_cell_angle_alpha   90.00000000
_cell_angle_beta   90.00000000
_cell_angle_gamma   120.00000292
_symmetry_Int_Tables_number   1
_chemical_formula_structural   La3In3GeIrRh
_chemical_formula_sum   'La3 In3 Ge1 Ir1 Rh1'
_cell_volume   218.78718784
_cell_formula_units_Z   1
loop_
 _symmetry_equiv_pos_site_id
 _symmetry_equiv_pos_as_xyz
  1  'x, y, z'
loop_
 _atom_site_type_symbol
 _atom_site_label
 _atom_site_symmetry_multiplicity
 _atom_site_fract_x
 _atom_site_fract_y
 _atom_site_fract_z
 _atom_site_occupancy
  La  La0  1  0.012200  0.594394  0.500000  1
  La  La1  1  0.582194  0.987800  0.500000  1
  La  La2  1  0.405606  0.417806  0.500000  1
  In  In3  1  0.009935  0.249552  0.000000  1
  In  In4  1  0.239617  0.990065  0.000000  1
  In  In5  1  0.750448  0.760383  0.000000  1
  Ge  Ge6  1  0.666667  0.333333  0.000000  1
  Ir  Ir7  1  0.333333  0.666667  0.000000  1
  Rh  Rh8  1  0.000000  0.000000  0.500000  1
