# generated using pymatgen
data_La3ZnIn3Pt2
_symmetry_space_group_name_H-M   'P 1'
_cell_length_a   7.91414700
_cell_length_b   7.91414705
_cell_length_c   4.09704400
_cell_angle_alpha   90.00000000
_cell_angle_beta   90.00000000
_cell_angle_gamma   120.00008539
_symmetry_Int_Tables_number   1
_chemical_formula_structural   La3ZnIn3Pt2
_chemical_formula_sum   'La3 Zn1 In3 Pt2'
_cell_volume   222.23328936
_cell_formula_units_Z   1
loop_
 _symmetry_equiv_pos_site_id
 _symmetry_equiv_pos_as_xyz
  1  'x, y, z'
loop_
 _atom_site_type_symbol
 _atom_site_label
 _atom_site_symmetry_multiplicity
 _atom_site_fract_x
 _atom_site_fract_y
 _atom_site_fract_z
 _atom_site_occupancy
  La  La0  1  0.583271  0.000013  0.500000  1
  La  La1  1  0.416758  0.416759  0.500000  1
  La  La2  1  0.000012  0.583270  0.500000  1
  Zn  Zn3  1  0.000013  0.000012  0.500000  1
  In  In4  1  0.249541  0.000000  0.000000  1
  In  In5  1  0.000002  0.249542  0.000000  1
  In  In6  1  0.750474  0.750474  0.000000  1
  Pt  Pt7  1  0.666681  0.333349  0.000000  1
  Pt  Pt8  1  0.333349  0.666682  0.000000  1
