# generated using pymatgen
data_LaTh2Ga3NiRh2
_symmetry_space_group_name_H-M   'P 1'
_cell_length_a   7.24254932
_cell_length_b   7.21759111
_cell_length_c   4.06616200
_cell_angle_alpha   90.00000000
_cell_angle_beta   90.00000000
_cell_angle_gamma   119.88607774
_symmetry_Int_Tables_number   1
_chemical_formula_structural   LaTh2Ga3NiRh2
_chemical_formula_sum   'La1 Th2 Ga3 Ni1 Rh2'
_cell_volume   184.28774353
_cell_formula_units_Z   1
loop_
 _symmetry_equiv_pos_site_id
 _symmetry_equiv_pos_as_xyz
  1  'x, y, z'
loop_
 _atom_site_type_symbol
 _atom_site_label
 _atom_site_symmetry_multiplicity
 _atom_site_fract_x
 _atom_site_fract_y
 _atom_site_fract_z
 _atom_site_occupancy
  La  La0  1  0.000000  0.414774  0.500000  1
  Th  Th1  1  0.586070  0.586069  0.500000  1
  Th  Th2  1  0.413930  0.999999  0.500000  1
  Ga  Ga3  1  0.000000  0.767247  0.000000  1
  Ga  Ga4  1  0.225584  0.228277  0.000000  1
  Ga  Ga5  1  0.774416  0.002693  0.000000  1
  Ni  Ni6  1  0.000000  0.987514  0.500000  1
  Rh  Rh7  1  0.352304  0.682865  0.000000  1
  Rh  Rh8  1  0.647696  0.330561  0.000000  1
