# generated using pymatgen
data_LiLaZn2(Ni3B)2
_symmetry_space_group_name_H-M   'P 1'
_cell_length_a   5.12791900
_cell_length_b   5.12791864
_cell_length_c   6.83048900
_cell_angle_alpha   90.00000000
_cell_angle_beta   90.00000000
_cell_angle_gamma   119.99999585
_symmetry_Int_Tables_number   1
_chemical_formula_structural   LiLaZn2(Ni3B)2
_chemical_formula_sum   'Li1 La1 Zn2 Ni6 B2'
_cell_volume   155.54810658
_cell_formula_units_Z   1
loop_
 _symmetry_equiv_pos_site_id
 _symmetry_equiv_pos_as_xyz
  1  'x, y, z'
loop_
 _atom_site_type_symbol
 _atom_site_label
 _atom_site_symmetry_multiplicity
 _atom_site_fract_x
 _atom_site_fract_y
 _atom_site_fract_z
 _atom_site_occupancy
  Li  Li0  1  0.000000  0.000000  0.500000  1
  La  La1  1  0.000000  0.000000  0.000000  1
  Zn  Zn2  1  0.333333  0.666667  0.000000  1
  Zn  Zn3  1  0.666667  0.333333  0.000000  1
  Ni  Ni4  1  0.500000  0.000000  0.305822  1
  Ni  Ni5  1  0.500000  0.500000  0.305822  1
  Ni  Ni6  1  0.000000  0.500000  0.305822  1
  Ni  Ni7  1  0.500000  0.000000  0.694178  1
  Ni  Ni8  1  0.500000  0.500000  0.694178  1
  Ni  Ni9  1  0.000000  0.500000  0.694178  1
  B  B10  1  0.666667  0.333333  0.500000  1
  B  B11  1  0.333333  0.666667  0.500000  1
