# generated using pymatgen
data_Sc5TiB4IrRh9
_symmetry_space_group_name_H-M   'P 1'
_cell_length_a   9.43808639
_cell_length_b   9.45136639
_cell_length_c   3.11706000
_cell_angle_alpha   90.00000000
_cell_angle_beta   90.00000000
_cell_angle_gamma   89.96697433
_symmetry_Int_Tables_number   1
_chemical_formula_structural   Sc5TiB4IrRh9
_chemical_formula_sum   'Sc5 Ti1 B4 Ir1 Rh9'
_cell_volume   278.05047265
_cell_formula_units_Z   1
loop_
 _symmetry_equiv_pos_site_id
 _symmetry_equiv_pos_as_xyz
  1  'x, y, z'
loop_
 _atom_site_type_symbol
 _atom_site_label
 _atom_site_symmetry_multiplicity
 _atom_site_fract_x
 _atom_site_fract_y
 _atom_site_fract_z
 _atom_site_occupancy
  Sc  Sc0  1  0.825734  0.324342  0.000000  1
  Sc  Sc1  1  0.324603  0.173988  0.000000  1
  Sc  Sc2  1  0.675347  0.825560  0.000000  1
  Sc  Sc3  1  0.174280  0.675161  0.000000  1
  Sc  Sc4  1  0.500124  0.500069  0.000000  1
  Ti  Ti5  1  0.999628  0.998736  0.000000  1
  B  B6  1  0.621805  0.122110  0.000000  1
  B  B7  1  0.121568  0.377287  0.000000  1
  B  B8  1  0.878430  0.622510  0.000000  1
  B  B9  1  0.378309  0.878347  0.000000  1
  Ir  Ir10  1  0.067749  0.216253  0.500000  1
  Rh  Rh11  1  0.216926  0.932490  0.500000  1
  Rh  Rh12  1  0.783438  0.068089  0.500000  1
  Rh  Rh13  1  0.932032  0.783276  0.500000  1
  Rh  Rh14  1  0.424303  0.723700  0.500000  1
  Rh  Rh15  1  0.575187  0.276531  0.500000  1
  Rh  Rh16  1  0.723052  0.575433  0.500000  1
  Rh  Rh17  1  0.277161  0.425672  0.500000  1
  Rh  Rh18  1  0.500580  0.999857  0.500000  1
  Rh  Rh19  1  0.999743  0.500591  0.500000  1
