# generated using pymatgen
data_Eu8Ga(Si4Au)3
_symmetry_space_group_name_H-M   'P 1'
_cell_length_a   8.30018600
_cell_length_b   8.30018656
_cell_length_c   8.72643800
_cell_angle_alpha   90.00000000
_cell_angle_beta   90.00000000
_cell_angle_gamma   120.00000574
_symmetry_Int_Tables_number   1
_chemical_formula_structural   Eu8Ga(Si4Au)3
_chemical_formula_sum   'Eu8 Ga1 Si12 Au3'
_cell_volume   520.64690677
_cell_formula_units_Z   1
loop_
 _symmetry_equiv_pos_site_id
 _symmetry_equiv_pos_as_xyz
  1  'x, y, z'
loop_
 _atom_site_type_symbol
 _atom_site_label
 _atom_site_symmetry_multiplicity
 _atom_site_fract_x
 _atom_site_fract_y
 _atom_site_fract_z
 _atom_site_occupancy
  Eu  Eu0  1  0.501049  0.498951  0.748749  1
  Eu  Eu1  1  0.501337  0.498663  0.251344  1
  Eu  Eu2  1  0.997902  0.498951  0.748749  1
  Eu  Eu3  1  0.997324  0.498663  0.251344  1
  Eu  Eu4  1  0.501049  0.002098  0.748749  1
  Eu  Eu5  1  0.501337  0.002676  0.251344  1
  Eu  Eu6  1  0.000000  0.000000  0.749672  1
  Eu  Eu7  1  0.000000  0.000000  0.250113  1
  Ga  Ga8  1  0.666667  0.333333  0.499862  1
  Si  Si9  1  0.837297  0.162703  0.000941  1
  Si  Si10  1  0.162849  0.837151  0.999749  1
  Si  Si11  1  0.325407  0.162703  0.000941  1
  Si  Si12  1  0.163406  0.836594  0.499359  1
  Si  Si13  1  0.674301  0.837151  0.999749  1
  Si  Si14  1  0.836855  0.163145  0.499911  1
  Si  Si15  1  0.837297  0.674593  0.000941  1
  Si  Si16  1  0.673189  0.836594  0.499359  1
  Si  Si17  1  0.162849  0.325699  0.999749  1
  Si  Si18  1  0.326291  0.163145  0.499911  1
  Si  Si19  1  0.163406  0.326811  0.499359  1
  Si  Si20  1  0.836855  0.673709  0.499911  1
  Au  Au21  1  0.666667  0.333333  0.999451  1
  Au  Au22  1  0.333333  0.666667  0.000957  1
  Au  Au23  1  0.333333  0.666667  0.499776  1
