# generated using pymatgen
data_Tm4Al5Tc3
_symmetry_space_group_name_H-M   'P 1'
_cell_length_a   5.47205968
_cell_length_b   5.51320114
_cell_length_c   8.72771500
_cell_angle_alpha   90.00000000
_cell_angle_beta   90.00000000
_cell_angle_gamma   120.24902834
_symmetry_Int_Tables_number   1
_chemical_formula_structural   Tm4Al5Tc3
_chemical_formula_sum   'Tm4 Al5 Tc3'
_cell_volume   227.45242151
_cell_formula_units_Z   1
loop_
 _symmetry_equiv_pos_site_id
 _symmetry_equiv_pos_as_xyz
  1  'x, y, z'
loop_
 _atom_site_type_symbol
 _atom_site_label
 _atom_site_symmetry_multiplicity
 _atom_site_fract_x
 _atom_site_fract_y
 _atom_site_fract_z
 _atom_site_occupancy
  Tm  Tm0  1  0.337449  0.668725  0.443851  1
  Tm  Tm1  1  0.664946  0.332473  0.554916  1
  Tm  Tm2  1  0.664946  0.332473  0.945084  1
  Tm  Tm3  1  0.337449  0.668725  0.056149  1
  Al  Al4  1  0.836428  0.162797  0.250000  1
  Al  Al5  1  0.836428  0.673632  0.250000  1
  Al  Al6  1  0.324380  0.162190  0.250000  1
  Al  Al7  1  0.184653  0.842171  0.750000  1
  Al  Al8  1  0.184653  0.342482  0.750000  1
  Tc  Tc9  1  0.976239  0.988119  0.510083  1
  Tc  Tc10  1  0.976239  0.988119  0.989917  1
  Tc  Tc11  1  0.676189  0.838095  0.750000  1
