# generated using pymatgen
data_Ac10PrNd9Sn16
_symmetry_space_group_name_H-M   'P 1'
_cell_length_a   8.54917602
_cell_length_b   8.70352077
_cell_length_c   16.54579894
_cell_angle_alpha   89.74787950
_cell_angle_beta   90.00236874
_cell_angle_gamma   89.99258556
_symmetry_Int_Tables_number   1
_chemical_formula_structural   Ac10PrNd9Sn16
_chemical_formula_sum   'Ac10 Pr1 Nd9 Sn16'
_cell_volume   1231.12673650
_cell_formula_units_Z   1
loop_
 _symmetry_equiv_pos_site_id
 _symmetry_equiv_pos_as_xyz
  1  'x, y, z'
loop_
 _atom_site_type_symbol
 _atom_site_label
 _atom_site_symmetry_multiplicity
 _atom_site_fract_x
 _atom_site_fract_y
 _atom_site_fract_z
 _atom_site_occupancy
  Ac  Ac0  1  0.491105  0.818486  0.904387  1
  Ac  Ac1  1  0.991153  0.681527  0.595625  1
  Ac  Ac2  1  0.510384  0.178353  0.401280  1
  Ac  Ac3  1  0.010235  0.321774  0.098739  1
  Ac  Ac4  1  0.509772  0.182247  0.099222  1
  Ac  Ac5  1  0.009713  0.317850  0.400759  1
  Ac  Ac6  1  0.488419  0.817033  0.596572  1
  Ac  Ac7  1  0.988445  0.683044  0.903446  1
  Ac  Ac8  1  0.641872  0.339259  0.882928  1
  Ac  Ac9  1  0.141886  0.160754  0.617071  1
  Pr  Pr10  1  0.190425  0.999272  0.249383  1
  Nd  Nd11  1  0.358266  0.660008  0.375039  1
  Nd  Nd12  1  0.858180  0.839911  0.124985  1
  Nd  Nd13  1  0.355101  0.661211  0.122107  1
  Nd  Nd14  1  0.855054  0.838664  0.377853  1
  Nd  Nd15  1  0.645765  0.338097  0.622078  1
  Nd  Nd16  1  0.145864  0.161892  0.877904  1
  Nd  Nd17  1  0.310303  0.497915  0.751377  1
  Nd  Nd18  1  0.810336  0.002068  0.748633  1
  Nd  Nd19  1  0.690661  0.500869  0.250617  1
  Sn  Sn20  1  0.194233  0.959648  0.042915  1
  Sn  Sn21  1  0.694286  0.540296  0.456908  1
  Sn  Sn22  1  0.792021  0.039391  0.541463  1
  Sn  Sn23  1  0.292099  0.460581  0.958575  1
  Sn  Sn24  1  0.815400  0.035588  0.958874  1
  Sn  Sn25  1  0.315453  0.464370  0.541088  1
  Sn  Sn26  1  0.195816  0.949943  0.451296  1
  Sn  Sn27  1  0.695780  0.549914  0.048896  1
  Sn  Sn28  1  0.688056  0.643895  0.748347  1
  Sn  Sn29  1  0.188084  0.856124  0.751614  1
  Sn  Sn30  1  0.312718  0.360914  0.249621  1
  Sn  Sn31  1  0.812447  0.139577  0.250361  1
  Sn  Sn32  1  0.445116  0.118110  0.751636  1
  Sn  Sn33  1  0.945097  0.381807  0.748362  1
  Sn  Sn34  1  0.555471  0.874223  0.249564  1
  Sn  Sn35  1  0.054984  0.625385  0.250474  1
