# generated using pymatgen
data_Ho4Hf3ZrF28
_symmetry_space_group_name_H-M   'P 1'
_cell_length_a   5.69534262
_cell_length_b   9.02377265
_cell_length_c   12.13639239
_cell_angle_alpha   62.44649970
_cell_angle_beta   89.92624372
_cell_angle_gamma   90.01258225
_symmetry_Int_Tables_number   1
_chemical_formula_structural   Ho4Hf3ZrF28
_chemical_formula_sum   'Ho4 Hf3 Zr1 F28'
_cell_volume   552.98664880
_cell_formula_units_Z   1
loop_
 _symmetry_equiv_pos_site_id
 _symmetry_equiv_pos_as_xyz
  1  'x, y, z'
loop_
 _atom_site_type_symbol
 _atom_site_label
 _atom_site_symmetry_multiplicity
 _atom_site_fract_x
 _atom_site_fract_y
 _atom_site_fract_z
 _atom_site_occupancy
  Ho  Ho0  1  0.756944  0.814552  0.765527  1
  Ho  Ho1  1  0.255634  0.184672  0.733984  1
  Ho  Ho2  1  0.242968  0.184599  0.234727  1
  Ho  Ho3  1  0.743439  0.816280  0.266015  1
  Hf  Hf4  1  0.756041  0.273952  0.955918  1
  Hf  Hf5  1  0.256665  0.725135  0.545056  1
  Hf  Hf6  1  0.244501  0.726375  0.044506  1
  Zr  Zr7  1  0.743182  0.273669  0.455809  1
  F  F8  1  0.464721  0.710602  0.921358  1
  F  F9  1  0.950548  0.291241  0.585281  1
  F  F10  1  0.532391  0.288874  0.077597  1
  F  F11  1  0.038624  0.711301  0.420851  1
  F  F12  1  0.439287  0.277618  0.545982  1
  F  F13  1  0.954404  0.722757  0.949834  1
  F  F14  1  0.547333  0.719665  0.451537  1
  F  F15  1  0.044445  0.278097  0.051569  1
  F  F16  1  0.771002  0.523679  0.859854  1
  F  F17  1  0.269927  0.474855  0.640665  1
  F  F18  1  0.228173  0.477162  0.140836  1
  F  F19  1  0.729856  0.527509  0.356138  1
  F  F20  1  0.758469  0.024773  0.058354  1
  F  F21  1  0.261281  0.973927  0.444062  1
  F  F22  1  0.243071  0.975718  0.940955  1
  F  F23  1  0.740600  0.020513  0.555910  1
  F  F24  1  0.985760  0.731726  0.648854  1
  F  F25  1  0.490025  0.266221  0.850706  1
  F  F26  1  0.028739  0.267725  0.356006  1
  F  F27  1  0.513816  0.734688  0.147697  1
  F  F28  1  0.036137  0.748613  0.171047  1
  F  F29  1  0.542204  0.253968  0.322354  1
  F  F30  1  0.968792  0.252454  0.830807  1
  F  F31  1  0.465455  0.744130  0.672936  1
  F  F32  1  0.426631  0.972280  0.235901  1
  F  F33  1  0.925581  0.027221  0.268407  1
  F  F34  1  0.572090  0.028419  0.761759  1
  F  F35  1  0.071262  0.975029  0.731204  1
