# generated using pymatgen
data_Tb3Tm(Hf3Ge4)2
_symmetry_space_group_name_H-M   'P 1'
_cell_length_a   7.39668406
_cell_length_b   7.39429500
_cell_length_c   13.56368800
_cell_angle_alpha   90.00000000
_cell_angle_beta   90.00000000
_cell_angle_gamma   90.00904805
_symmetry_Int_Tables_number   1
_chemical_formula_structural   Tb3Tm(Hf3Ge4)2
_chemical_formula_sum   'Tb6 Tm2 Hf12 Ge16'
_cell_volume   741.84235920
_cell_formula_units_Z   2
loop_
 _symmetry_equiv_pos_site_id
 _symmetry_equiv_pos_as_xyz
  1  'x, y, z'
loop_
 _atom_site_type_symbol
 _atom_site_label
 _atom_site_symmetry_multiplicity
 _atom_site_fract_x
 _atom_site_fract_y
 _atom_site_fract_z
 _atom_site_occupancy
  Tb  Tb0  1  0.157233  0.495738  0.467566  1
  Tb  Tb1  1  0.504240  0.842432  0.032551  1
  Tb  Tb2  1  0.842767  0.504262  0.967566  1
  Tb  Tb3  1  0.495760  0.157568  0.532551  1
  Tb  Tb4  1  0.342025  0.996082  0.782166  1
  Tb  Tb5  1  0.657975  0.003918  0.282166  1
  Tm  Tm6  1  0.997580  0.342921  0.217719  1
  Tm  Tm7  1  0.002420  0.657079  0.717719  1
  Hf  Hf8  1  0.173243  0.173565  0.999908  1
  Hf  Hf9  1  0.826757  0.826435  0.499908  1
  Hf  Hf10  1  0.326160  0.673071  0.249989  1
  Hf  Hf11  1  0.673840  0.326929  0.749989  1
  Hf  Hf12  1  0.154659  0.996299  0.375163  1
  Hf  Hf13  1  0.845341  0.003701  0.875163  1
  Hf  Hf14  1  0.502957  0.655027  0.624984  1
  Hf  Hf15  1  0.344756  0.497695  0.874938  1
  Hf  Hf16  1  0.497043  0.344973  0.124984  1
  Hf  Hf17  1  0.655244  0.502305  0.374938  1
  Hf  Hf18  1  0.996763  0.154610  0.624743  1
  Hf  Hf19  1  0.003237  0.845390  0.124743  1
  Ge  Ge20  1  0.364221  0.301085  0.321475  1
  Ge  Ge21  1  0.635779  0.698915  0.821475  1
  Ge  Ge22  1  0.197269  0.863373  0.573023  1
  Ge  Ge23  1  0.134631  0.800921  0.927666  1
  Ge  Ge24  1  0.802731  0.136627  0.073023  1
  Ge  Ge25  1  0.865369  0.199079  0.427666  1
  Ge  Ge26  1  0.299785  0.366455  0.677938  1
  Ge  Ge27  1  0.700215  0.633545  0.177938  1
  Ge  Ge28  1  0.295837  0.039874  0.181615  1
  Ge  Ge29  1  0.704163  0.960126  0.681615  1
  Ge  Ge30  1  0.460703  0.795844  0.431349  1
  Ge  Ge31  1  0.202799  0.538014  0.069241  1
  Ge  Ge32  1  0.539297  0.204156  0.931349  1
  Ge  Ge33  1  0.797201  0.461986  0.569241  1
  Ge  Ge34  1  0.039224  0.297711  0.817965  1
  Ge  Ge35  1  0.960776  0.702289  0.317965  1
