# generated using pymatgen
data_Tb4Lu3Mg(B6Os)4
_symmetry_space_group_name_H-M   'P 1'
_cell_length_a   3.61346100
_cell_length_b   9.05444755
_cell_length_c   11.45080370
_cell_angle_alpha   89.95992621
_cell_angle_beta   90.00000000
_cell_angle_gamma   90.00000000
_symmetry_Int_Tables_number   1
_chemical_formula_structural   Tb4Lu3Mg(B6Os)4
_chemical_formula_sum   'Tb4 Lu3 Mg1 B24 Os4'
_cell_volume   374.64607987
_cell_formula_units_Z   1
loop_
 _symmetry_equiv_pos_site_id
 _symmetry_equiv_pos_as_xyz
  1  'x, y, z'
loop_
 _atom_site_type_symbol
 _atom_site_label
 _atom_site_symmetry_multiplicity
 _atom_site_fract_x
 _atom_site_fract_y
 _atom_site_fract_z
 _atom_site_occupancy
  Tb  Tb0  1  0.000000  0.321030  0.412430  1
  Tb  Tb1  1  0.000000  0.679328  0.583298  1
  Tb  Tb2  1  0.000000  0.822647  0.088571  1
  Tb  Tb3  1  0.000000  0.177879  0.915764  1
  Lu  Lu4  1  0.000000  0.054867  0.624596  1
  Lu  Lu5  1  0.000000  0.443877  0.128306  1
  Lu  Lu6  1  0.000000  0.556078  0.872743  1
  Mg  Mg7  1  0.000000  0.946489  0.376786  1
  B  B8  1  0.500000  0.555850  0.432034  1
  B  B9  1  0.500000  0.445170  0.566907  1
  B  B10  1  0.500000  0.053843  0.068621  1
  B  B11  1  0.500000  0.945565  0.932473  1
  B  B12  1  0.500000  0.752625  0.418358  1
  B  B13  1  0.500000  0.248953  0.580018  1
  B  B14  1  0.500000  0.249410  0.081601  1
  B  B15  1  0.500000  0.749956  0.919007  1
  B  B16  1  0.500000  0.794453  0.266338  1
  B  B17  1  0.500000  0.207335  0.733413  1
  B  B18  1  0.500000  0.290224  0.234464  1
  B  B19  1  0.500000  0.708230  0.765444  1
  B  B20  1  0.500000  0.631403  0.185525  1
  B  B21  1  0.500000  0.369141  0.815311  1
  B  B22  1  0.500000  0.127460  0.316278  1
  B  B23  1  0.500000  0.869548  0.683241  1
  B  B24  1  0.500000  0.981163  0.214685  1
  B  B25  1  0.500000  0.017281  0.785721  1
  B  B26  1  0.500000  0.483318  0.286958  1
  B  B27  1  0.500000  0.517074  0.713311  1
  B  B28  1  0.500000  0.603752  0.028589  1
  B  B29  1  0.500000  0.396409  0.971965  1
  B  B30  1  0.500000  0.099456  0.470285  1
  B  B31  1  0.500000  0.898377  0.525612  1
  Os  Os32  1  0.000000  0.641887  0.319849  1
  Os  Os33  1  0.000000  0.360687  0.680103  1
  Os  Os34  1  0.000000  0.137336  0.181421  1
  Os  Os35  1  0.000000  0.861900  0.819977  1
