# generated using pymatgen
data_Hf6Ti3Nb(Si3N)2
_symmetry_space_group_name_H-M   'P 1'
_cell_length_a   7.71513400
_cell_length_b   7.71513397
_cell_length_c   5.34534500
_cell_angle_alpha   90.00000000
_cell_angle_beta   90.00000000
_cell_angle_gamma   120.00000014
_symmetry_Int_Tables_number   1
_chemical_formula_structural   Hf6Ti3Nb(Si3N)2
_chemical_formula_sum   'Hf6 Ti3 Nb1 Si6 N2'
_cell_volume   275.54549627
_cell_formula_units_Z   1
loop_
 _symmetry_equiv_pos_site_id
 _symmetry_equiv_pos_as_xyz
  1  'x, y, z'
loop_
 _atom_site_type_symbol
 _atom_site_label
 _atom_site_symmetry_multiplicity
 _atom_site_fract_x
 _atom_site_fract_y
 _atom_site_fract_z
 _atom_site_occupancy
  Hf  Hf0  1  0.237227  0.999558  0.250162  1
  Hf  Hf1  1  0.762331  0.999558  0.749838  1
  Hf  Hf2  1  0.000442  0.237669  0.250162  1
  Hf  Hf3  1  0.000442  0.762773  0.749838  1
  Hf  Hf4  1  0.762331  0.762773  0.250162  1
  Hf  Hf5  1  0.237227  0.237669  0.749838  1
  Ti  Ti6  1  0.666667  0.333333  0.000000  1
  Ti  Ti7  1  0.666667  0.333333  0.500000  1
  Ti  Ti8  1  0.333333  0.666667  0.500000  1
  Nb  Nb9  1  0.333333  0.666667  0.000000  1
  Si  Si10  1  0.592066  0.002006  0.252183  1
  Si  Si11  1  0.409940  0.002006  0.747817  1
  Si  Si12  1  0.997994  0.590060  0.252183  1
  Si  Si13  1  0.997994  0.407934  0.747817  1
  Si  Si14  1  0.409940  0.407934  0.252183  1
  Si  Si15  1  0.592066  0.590060  0.747817  1
  N  N16  1  0.000000  0.000000  0.000000  1
  N  N17  1  0.000000  0.000000  0.500000  1
