# generated using pymatgen
data_Tb8Dy12Si15Sn
_symmetry_space_group_name_H-M   'P 1'
_cell_length_a   7.72316058
_cell_length_b   7.74214094
_cell_length_c   14.18010778
_cell_angle_alpha   89.71404111
_cell_angle_beta   90.08100710
_cell_angle_gamma   89.78331072
_symmetry_Int_Tables_number   1
_chemical_formula_structural   Tb8Dy12Si15Sn
_chemical_formula_sum   'Tb8 Dy12 Si15 Sn1'
_cell_volume   847.86500218
_cell_formula_units_Z   1
loop_
 _symmetry_equiv_pos_site_id
 _symmetry_equiv_pos_as_xyz
  1  'x, y, z'
loop_
 _atom_site_type_symbol
 _atom_site_label
 _atom_site_symmetry_multiplicity
 _atom_site_fract_x
 _atom_site_fract_y
 _atom_site_fract_z
 _atom_site_occupancy
  Tb  Tb0  1  0.988065  0.361280  0.204922  1
  Tb  Tb1  1  0.005931  0.641750  0.709550  1
  Tb  Tb2  1  0.132555  0.503847  0.463352  1
  Tb  Tb3  1  0.507368  0.857993  0.039747  1
  Tb  Tb4  1  0.859826  0.505845  0.957266  1
  Tb  Tb5  1  0.493013  0.140798  0.543621  1
  Tb  Tb6  1  0.360290  0.994637  0.792072  1
  Tb  Tb7  1  0.645769  0.999351  0.291075  1
  Dy  Dy8  1  0.182889  0.182329  0.999129  1
  Dy  Dy9  1  0.816301  0.820299  0.502447  1
  Dy  Dy10  1  0.320017  0.687045  0.247804  1
  Dy  Dy11  1  0.683145  0.317825  0.750512  1
  Dy  Dy12  1  0.129818  0.998307  0.375152  1
  Dy  Dy13  1  0.861970  0.991409  0.874979  1
  Dy  Dy14  1  0.490352  0.639127  0.626145  1
  Dy  Dy15  1  0.362092  0.507941  0.873843  1
  Dy  Dy16  1  0.508174  0.359509  0.122904  1
  Dy  Dy17  1  0.652033  0.503384  0.376538  1
  Dy  Dy18  1  0.008395  0.139483  0.625109  1
  Dy  Dy19  1  0.990395  0.859262  0.121513  1
  Si  Si20  1  0.653328  0.705392  0.814077  1
  Si  Si21  1  0.203557  0.848265  0.565091  1
  Si  Si22  1  0.153920  0.794436  0.934462  1
  Si  Si23  1  0.796052  0.152734  0.061795  1
  Si  Si24  1  0.844083  0.203718  0.437222  1
  Si  Si25  1  0.294852  0.347288  0.686704  1
  Si  Si26  1  0.704609  0.650364  0.183891  1
  Si  Si27  1  0.295652  0.051047  0.184054  1
  Si  Si28  1  0.703746  0.939918  0.689111  1
  Si  Si29  1  0.439341  0.798302  0.438423  1
  Si  Si30  1  0.203714  0.557927  0.060656  1
  Si  Si31  1  0.560838  0.203748  0.937645  1
  Si  Si32  1  0.793882  0.439422  0.563503  1
  Si  Si33  1  0.060850  0.296440  0.811451  1
  Si  Si34  1  0.941689  0.703598  0.310242  1
  Sn  Sn35  1  0.351485  0.295980  0.323993  1
