# generated using pymatgen
data_P6OsPbO18
_symmetry_space_group_name_H-M   'P 1'
_cell_length_a   6.86539500
_cell_length_b   6.86539484
_cell_length_c   10.60113400
_cell_angle_alpha   90.00000000
_cell_angle_beta   90.00000000
_cell_angle_gamma   120.00000560
_symmetry_Int_Tables_number   1
_chemical_formula_structural   P6OsPbO18
_chemical_formula_sum   'P6 Os1 Pb1 O18'
_cell_volume   432.72698594
_cell_formula_units_Z   1
loop_
 _symmetry_equiv_pos_site_id
 _symmetry_equiv_pos_as_xyz
  1  'x, y, z'
loop_
 _atom_site_type_symbol
 _atom_site_label
 _atom_site_symmetry_multiplicity
 _atom_site_fract_x
 _atom_site_fract_y
 _atom_site_fract_z
 _atom_site_occupancy
  P  P0  1  0.728853  0.123576  0.783188  1
  P  P1  1  0.876424  0.271147  0.216812  1
  P  P2  1  0.728853  0.605276  0.216812  1
  P  P3  1  0.876424  0.605276  0.783188  1
  P  P4  1  0.394724  0.271147  0.783188  1
  P  P5  1  0.394724  0.123576  0.216812  1
  Os  Os6  1  0.000000  0.000000  0.000000  1
  Pb  Pb7  1  0.000000  0.000000  0.500000  1
  O  O8  1  0.900402  0.513102  0.190251  1
  O  O9  1  0.900402  0.387301  0.809749  1
  O  O10  1  0.486898  0.099598  0.809749  1
  O  O11  1  0.612699  0.099598  0.190251  1
  O  O12  1  0.745186  0.054936  0.653017  1
  O  O13  1  0.757021  0.993991  0.892180  1
  O  O14  1  0.486898  0.387301  0.190251  1
  O  O15  1  0.745186  0.690251  0.346983  1
  O  O16  1  0.757021  0.763031  0.107820  1
  O  O17  1  0.612699  0.513102  0.809749  1
  O  O18  1  0.945064  0.254814  0.346983  1
  O  O19  1  0.006009  0.242979  0.107820  1
  O  O20  1  0.236969  0.242979  0.892180  1
  O  O21  1  0.309749  0.254814  0.653017  1
  O  O22  1  0.006009  0.763031  0.892180  1
  O  O23  1  0.945064  0.690251  0.653017  1
  O  O24  1  0.236969  0.993991  0.107820  1
  O  O25  1  0.309749  0.054936  0.346983  1
