# generated using pymatgen
data_Ac7Yb13Si16
_symmetry_space_group_name_H-M   'P 1'
_cell_length_a   8.07477600
_cell_length_b   8.08281107
_cell_length_c   14.94156026
_cell_angle_alpha   90.24481054
_cell_angle_beta   89.77217069
_cell_angle_gamma   90.11636255
_symmetry_Int_Tables_number   1
_chemical_formula_structural   Ac7Yb13Si16
_chemical_formula_sum   'Ac7 Yb13 Si16'
_cell_volume   975.17056350
_cell_formula_units_Z   1
loop_
 _symmetry_equiv_pos_site_id
 _symmetry_equiv_pos_as_xyz
  1  'x, y, z'
loop_
 _atom_site_type_symbol
 _atom_site_label
 _atom_site_symmetry_multiplicity
 _atom_site_fract_x
 _atom_site_fract_y
 _atom_site_fract_z
 _atom_site_occupancy
  Ac  Ac0  1  0.369482  0.008966  0.452315  1
  Ac  Ac1  1  0.486071  0.869751  0.705144  1
  Ac  Ac2  1  0.511636  0.129781  0.203737  1
  Ac  Ac3  1  0.867384  0.487085  0.289854  1
  Ac  Ac4  1  0.127182  0.512966  0.798791  1
  Ac  Ac5  1  0.633194  0.988241  0.957861  1
  Ac  Ac6  1  0.012010  0.367953  0.544028  1
  Yb  Yb7  1  0.310074  0.317406  0.001054  1
  Yb  Yb8  1  0.183235  0.808130  0.246392  1
  Yb  Yb9  1  0.812080  0.187895  0.750985  1
  Yb  Yb10  1  0.688076  0.685766  0.499039  1
  Yb  Yb11  1  0.994798  0.624172  0.048531  1
  Yb  Yb12  1  0.129469  0.993614  0.877670  1
  Yb  Yb13  1  0.506766  0.631337  0.123820  1
  Yb  Yb14  1  0.492523  0.369021  0.624785  1
  Yb  Yb15  1  0.633295  0.507853  0.878138  1
  Yb  Yb16  1  0.369851  0.495120  0.374367  1
  Yb  Yb17  1  0.870155  0.004328  0.373571  1
  Yb  Yb18  1  0.996602  0.130095  0.124697  1
  Yb  Yb19  1  0.005167  0.870075  0.624303  1
  Si  Si20  1  0.205685  0.160779  0.695351  1
  Si  Si21  1  0.337458  0.706751  0.945357  1
  Si  Si22  1  0.659311  0.292627  0.443200  1
  Si  Si23  1  0.711661  0.342613  0.058560  1
  Si  Si24  1  0.291521  0.660147  0.555268  1
  Si  Si25  1  0.796299  0.839103  0.190974  1
  Si  Si26  1  0.159539  0.208646  0.307250  1
  Si  Si27  1  0.836826  0.795382  0.804795  1
  Si  Si28  1  0.286870  0.921109  0.058058  1
  Si  Si29  1  0.582864  0.786426  0.306294  1
  Si  Si30  1  0.419215  0.214651  0.808593  1
  Si  Si31  1  0.785753  0.580357  0.691985  1
  Si  Si32  1  0.216100  0.418761  0.193267  1
  Si  Si33  1  0.711997  0.080636  0.557341  1
  Si  Si34  1  0.920748  0.290347  0.943378  1
  Si  Si35  1  0.079105  0.712110  0.441249  1
