# generated using pymatgen
data_SrCaPuO6
_symmetry_space_group_name_H-M   'P 1'
_cell_length_a   5.76241800
_cell_length_b   5.76241631
_cell_length_c   5.26877200
_cell_angle_alpha   90.00000000
_cell_angle_beta   90.00000000
_cell_angle_gamma   119.99999823
_symmetry_Int_Tables_number   1
_chemical_formula_structural   SrCaPuO6
_chemical_formula_sum   'Sr1 Ca1 Pu1 O6'
_cell_volume   151.51283837
_cell_formula_units_Z   1
loop_
 _symmetry_equiv_pos_site_id
 _symmetry_equiv_pos_as_xyz
  1  'x, y, z'
loop_
 _atom_site_type_symbol
 _atom_site_label
 _atom_site_symmetry_multiplicity
 _atom_site_fract_x
 _atom_site_fract_y
 _atom_site_fract_z
 _atom_site_occupancy
  Sr  Sr0  1  0.000000  0.000000  0.000000  1
  Ca  Ca1  1  0.333334  0.666667  0.500001  1
  Pu  Pu2  1  0.666666  0.333334  0.500001  1
  O  O3  1  0.657820  0.043368  0.291353  1
  O  O4  1  0.385548  0.342180  0.291353  1
  O  O5  1  0.956632  0.614451  0.291353  1
  O  O6  1  0.385547  0.043368  0.708646  1
  O  O7  1  0.956633  0.342180  0.708646  1
  O  O8  1  0.657820  0.614451  0.708646  1
