# generated using pymatgen
data_Er16Ga6FeIr
_symmetry_space_group_name_H-M   'P 1'
_cell_length_a   9.93313000
_cell_length_b   9.93313144
_cell_length_c   6.89723500
_cell_angle_alpha   90.00000000
_cell_angle_beta   90.00000000
_cell_angle_gamma   120.00000188
_symmetry_Int_Tables_number   1
_chemical_formula_structural   Er16Ga6FeIr
_chemical_formula_sum   'Er16 Ga6 Fe1 Ir1'
_cell_volume   589.35632439
_cell_formula_units_Z   1
loop_
 _symmetry_equiv_pos_site_id
 _symmetry_equiv_pos_as_xyz
  1  'x, y, z'
loop_
 _atom_site_type_symbol
 _atom_site_label
 _atom_site_symmetry_multiplicity
 _atom_site_fract_x
 _atom_site_fract_y
 _atom_site_fract_z
 _atom_site_occupancy
  Er  Er0  1  0.000000  0.000000  0.266300  1
  Er  Er1  1  0.000000  0.000000  0.768772  1
  Er  Er2  1  0.173155  0.826845  0.992331  1
  Er  Er3  1  0.829032  0.170968  0.489939  1
  Er  Er4  1  0.173155  0.346311  0.992331  1
  Er  Er5  1  0.653689  0.826845  0.992331  1
  Er  Er6  1  0.341935  0.170968  0.489939  1
  Er  Er7  1  0.829032  0.658065  0.489939  1
  Er  Er8  1  0.333333  0.666667  0.669460  1
  Er  Er9  1  0.666667  0.333333  0.161041  1
  Er  Er10  1  0.463207  0.536793  0.293341  1
  Er  Er11  1  0.533205  0.466795  0.795433  1
  Er  Er12  1  0.463207  0.926416  0.293341  1
  Er  Er13  1  0.073584  0.536793  0.293341  1
  Er  Er14  1  0.933591  0.466795  0.795433  1
  Er  Er15  1  0.533205  0.066409  0.795433  1
  Ga  Ga16  1  0.163871  0.836129  0.542720  1
  Ga  Ga17  1  0.836657  0.163343  0.042089  1
  Ga  Ga18  1  0.163871  0.327743  0.542720  1
  Ga  Ga19  1  0.672257  0.836129  0.542720  1
  Ga  Ga20  1  0.326686  0.163343  0.042089  1
  Ga  Ga21  1  0.836657  0.673314  0.042089  1
  Fe  Fe22  1  0.333333  0.666667  0.055571  1
  Ir  Ir23  1  0.666667  0.333333  0.557413  1
