# generated using pymatgen
data_Tb3Zr5(Nb3Si4)4
_symmetry_space_group_name_H-M   'P 1'
_cell_length_a   6.96096550
_cell_length_b   6.96137220
_cell_length_c   12.91261633
_cell_angle_alpha   89.95381858
_cell_angle_beta   90.10378009
_cell_angle_gamma   89.80938813
_symmetry_Int_Tables_number   1
_chemical_formula_structural   Tb3Zr5(Nb3Si4)4
_chemical_formula_sum   'Tb3 Zr5 Nb12 Si16'
_cell_volume   625.71321043
_cell_formula_units_Z   1
loop_
 _symmetry_equiv_pos_site_id
 _symmetry_equiv_pos_as_xyz
  1  'x, y, z'
loop_
 _atom_site_type_symbol
 _atom_site_label
 _atom_site_symmetry_multiplicity
 _atom_site_fract_x
 _atom_site_fract_y
 _atom_site_fract_z
 _atom_site_occupancy
  Tb  Tb0  1  0.997598  0.658894  0.032288  1
  Tb  Tb1  1  0.002967  0.339970  0.531422  1
  Tb  Tb2  1  0.659056  0.997666  0.967940  1
  Zr  Zr3  1  0.158463  0.497758  0.782522  1
  Zr  Zr4  1  0.841847  0.501906  0.283977  1
  Zr  Zr5  1  0.497945  0.158822  0.217949  1
  Zr  Zr6  1  0.501886  0.842615  0.716697  1
  Zr  Zr7  1  0.345429  0.995458  0.466764  1
  Nb  Nb8  1  0.348090  0.507095  0.375775  1
  Nb  Nb9  1  0.844888  0.996642  0.373615  1
  Nb  Nb10  1  0.005091  0.154913  0.128696  1
  Nb  Nb11  1  0.995372  0.847894  0.625462  1
  Nb  Nb12  1  0.651217  0.492846  0.874007  1
  Nb  Nb13  1  0.503997  0.348414  0.623552  1
  Nb  Nb14  1  0.493198  0.651615  0.126350  1
  Nb  Nb15  1  0.155198  0.004149  0.871734  1
  Nb  Nb16  1  0.668847  0.672565  0.499972  1
  Nb  Nb17  1  0.829169  0.170407  0.748949  1
  Nb  Nb18  1  0.171276  0.830199  0.251374  1
  Nb  Nb19  1  0.329518  0.329694  0.000192  1
  Si  Si20  1  0.046114  0.707595  0.436574  1
  Si  Si21  1  0.956374  0.294410  0.936106  1
  Si  Si22  1  0.700705  0.044866  0.563043  1
  Si  Si23  1  0.204139  0.453119  0.188584  1
  Si  Si24  1  0.795921  0.545888  0.687306  1
  Si  Si25  1  0.453400  0.204203  0.811900  1
  Si  Si26  1  0.544986  0.797501  0.313230  1
  Si  Si27  1  0.294934  0.956256  0.063893  1
  Si  Si28  1  0.866760  0.791900  0.817226  1
  Si  Si29  1  0.137148  0.204970  0.320727  1
  Si  Si30  1  0.791841  0.866835  0.183012  1
  Si  Si31  1  0.295842  0.639312  0.572226  1
  Si  Si32  1  0.704130  0.364477  0.073341  1
  Si  Si33  1  0.632009  0.293087  0.426619  1
  Si  Si34  1  0.364494  0.703828  0.926919  1
  Si  Si35  1  0.210150  0.132228  0.680056  1
