# generated using pymatgen
data_Ho2Tm3Hf3(Co4P3)4
_symmetry_space_group_name_H-M   'P 1'
_cell_length_a   12.27066500
_cell_length_b   12.27066385
_cell_length_c   3.69866500
_cell_angle_alpha   90.00000000
_cell_angle_beta   90.00000000
_cell_angle_gamma   120.00000578
_symmetry_Int_Tables_number   1
_chemical_formula_structural   Ho2Tm3Hf3(Co4P3)4
_chemical_formula_sum   'Ho2 Tm3 Hf3 Co16 P12'
_cell_volume   482.29389304
_cell_formula_units_Z   1
loop_
 _symmetry_equiv_pos_site_id
 _symmetry_equiv_pos_as_xyz
  1  'x, y, z'
loop_
 _atom_site_type_symbol
 _atom_site_label
 _atom_site_symmetry_multiplicity
 _atom_site_fract_x
 _atom_site_fract_y
 _atom_site_fract_z
 _atom_site_occupancy
  Ho  Ho0  1  0.666667  0.333333  0.000000  1
  Ho  Ho1  1  0.333333  0.666667  0.000000  1
  Tm  Tm2  1  0.817576  0.817576  0.500000  1
  Tm  Tm3  1  0.182424  0.000000  0.500000  1
  Tm  Tm4  1  0.000000  0.182424  0.500000  1
  Hf  Hf5  1  0.441332  0.441332  0.000000  1
  Hf  Hf6  1  0.558668  0.000000  0.000000  1
  Hf  Hf7  1  0.000000  0.558668  0.000000  1
  Co  Co8  1  0.875485  0.355874  0.500000  1
  Co  Co9  1  0.644126  0.519611  0.500000  1
  Co  Co10  1  0.480389  0.124515  0.500000  1
  Co  Co11  1  0.355874  0.875485  0.500000  1
  Co  Co12  1  0.519611  0.644126  0.500000  1
  Co  Co13  1  0.124515  0.480389  0.500000  1
  Co  Co14  1  0.805041  0.178037  0.000000  1
  Co  Co15  1  0.821963  0.627003  0.000000  1
  Co  Co16  1  0.372997  0.194959  0.000000  1
  Co  Co17  1  0.178037  0.805041  0.000000  1
  Co  Co18  1  0.627003  0.821963  0.000000  1
  Co  Co19  1  0.194959  0.372997  0.000000  1
  Co  Co20  1  0.277910  0.277910  0.500000  1
  Co  Co21  1  0.722090  0.000000  0.500000  1
  Co  Co22  1  0.000000  0.722090  0.500000  1
  Co  Co23  1  0.000000  0.000000  0.000000  1
  P  P24  1  0.692420  0.171530  0.500000  1
  P  P25  1  0.828470  0.520889  0.500000  1
  P  P26  1  0.479111  0.307580  0.500000  1
  P  P27  1  0.171530  0.692420  0.500000  1
  P  P28  1  0.520889  0.828470  0.500000  1
  P  P29  1  0.307580  0.479111  0.500000  1
  P  P30  1  0.177200  0.177200  0.000000  1
  P  P31  1  0.822800  0.000000  0.000000  1
  P  P32  1  0.000000  0.822800  0.000000  1
  P  P33  1  0.648978  0.648978  0.000000  1
  P  P34  1  0.351022  0.000000  0.000000  1
  P  P35  1  0.000000  0.351022  0.000000  1
