# generated using pymatgen
data_Ce3Ho7Si5Sn
_symmetry_space_group_name_H-M   'P 1'
_cell_length_a   8.56902912
_cell_length_b   8.60676152
_cell_length_c   6.26734026
_cell_angle_alpha   89.93357140
_cell_angle_beta   90.01039579
_cell_angle_gamma   119.83837737
_symmetry_Int_Tables_number   1
_chemical_formula_structural   Ce3Ho7Si5Sn
_chemical_formula_sum   'Ce3 Ho7 Si5 Sn1'
_cell_volume   400.94975713
_cell_formula_units_Z   1
loop_
 _symmetry_equiv_pos_site_id
 _symmetry_equiv_pos_as_xyz
  1  'x, y, z'
loop_
 _atom_site_type_symbol
 _atom_site_label
 _atom_site_symmetry_multiplicity
 _atom_site_fract_x
 _atom_site_fract_y
 _atom_site_fract_z
 _atom_site_occupancy
  Ce  Ce0  1  0.331570  0.656263  0.496007  1
  Ce  Ce1  1  0.673749  0.341579  0.032581  1
  Ce  Ce2  1  0.673530  0.343085  0.467960  1
  Ho  Ho3  1  0.990471  0.744687  0.750815  1
  Ho  Ho4  1  0.994928  0.242712  0.247947  1
  Ho  Ho5  1  0.754599  0.755114  0.247720  1
  Ho  Ho6  1  0.763379  0.999389  0.751224  1
  Ho  Ho7  1  0.244274  0.254600  0.751524  1
  Ho  Ho8  1  0.243783  0.002914  0.249721  1
  Ho  Ho9  1  0.330560  0.658019  0.004691  1
  Si  Si10  1  0.381986  0.388108  0.243153  1
  Si  Si11  1  0.010980  0.620616  0.246439  1
  Si  Si12  1  0.996640  0.390716  0.754799  1
  Si  Si13  1  0.607971  0.607373  0.755827  1
  Si  Si14  1  0.606506  0.992372  0.245878  1
  Sn  Sn15  1  0.395074  0.002453  0.753713  1
