# generated using pymatgen
data_Mg11Al7Pt6
_symmetry_space_group_name_H-M   'P 1'
_cell_length_a   7.58970812
_cell_length_b   7.58970824
_cell_length_c   8.48085237
_cell_angle_alpha   89.95574056
_cell_angle_beta   89.95573591
_cell_angle_gamma   119.51304513
_symmetry_Int_Tables_number   1
_chemical_formula_structural   Mg11Al7Pt6
_chemical_formula_sum   'Mg11 Al7 Pt6'
_cell_volume   425.13803928
_cell_formula_units_Z   1
loop_
 _symmetry_equiv_pos_site_id
 _symmetry_equiv_pos_as_xyz
  1  'x, y, z'
loop_
 _atom_site_type_symbol
 _atom_site_label
 _atom_site_symmetry_multiplicity
 _atom_site_fract_x
 _atom_site_fract_y
 _atom_site_fract_z
 _atom_site_occupancy
  Mg  Mg0  1  0.000241  0.285596  0.584406  1
  Mg  Mg1  1  0.285596  0.000241  0.584406  1
  Mg  Mg2  1  0.711215  0.000812  0.083922  1
  Mg  Mg3  1  0.000812  0.711215  0.083922  1
  Mg  Mg4  1  0.713134  0.713134  0.584326  1
  Mg  Mg5  1  0.370194  0.370194  0.427341  1
  Mg  Mg6  1  0.001919  0.368149  0.926984  1
  Mg  Mg7  1  0.368149  0.001919  0.926984  1
  Mg  Mg8  1  0.629596  0.000881  0.425365  1
  Mg  Mg9  1  0.000881  0.629596  0.425365  1
  Mg  Mg10  1  0.627556  0.627556  0.931465  1
  Al  Al11  1  0.999283  0.999283  0.306117  1
  Al  Al12  1  0.993724  0.993724  0.810562  1
  Al  Al13  1  0.336925  0.671307  0.225907  1
  Al  Al14  1  0.666135  0.333171  0.727710  1
  Al  Al15  1  0.333171  0.666135  0.727710  1
  Al  Al16  1  0.671307  0.336925  0.225907  1
  Al  Al17  1  0.284211  0.284211  0.085685  1
  Pt  Pt18  1  0.326312  0.326312  0.769110  1
  Pt  Pt19  1  0.009915  0.332067  0.250244  1
  Pt  Pt20  1  0.332067  0.009915  0.250244  1
  Pt  Pt21  1  0.667804  0.999526  0.755821  1
  Pt  Pt22  1  0.999526  0.667804  0.755821  1
  Pt  Pt23  1  0.670327  0.670327  0.256274  1
