# generated using pymatgen
data_Lu5RuWC7
_symmetry_space_group_name_H-M   'P 1'
_cell_length_a   8.12638610
_cell_length_b   8.12638580
_cell_length_c   3.39476400
_cell_angle_alpha   90.00000000
_cell_angle_beta   90.00000000
_cell_angle_gamma   121.28623435
_symmetry_Int_Tables_number   1
_chemical_formula_structural   Lu5RuWC7
_chemical_formula_sum   'Lu5 Ru1 W1 C7'
_cell_volume   191.58391488
_cell_formula_units_Z   1
loop_
 _symmetry_equiv_pos_site_id
 _symmetry_equiv_pos_as_xyz
  1  'x, y, z'
loop_
 _atom_site_type_symbol
 _atom_site_label
 _atom_site_symmetry_multiplicity
 _atom_site_fract_x
 _atom_site_fract_y
 _atom_site_fract_z
 _atom_site_occupancy
  Lu  Lu0  1  0.502237  0.497763  0.000000  1
  Lu  Lu1  1  0.076197  0.336127  0.500000  1
  Lu  Lu2  1  0.918644  0.658697  0.500000  1
  Lu  Lu3  1  0.663873  0.923803  0.500000  1
  Lu  Lu4  1  0.341303  0.081356  0.500000  1
  Ru  Ru5  1  0.711749  0.288251  0.000000  1
  W  W6  1  0.285772  0.714228  0.000000  1
  C  C7  1  0.626054  0.373946  0.500000  1
  C  C8  1  0.379068  0.620932  0.500000  1
  C  C9  1  0.999019  0.000981  0.000000  1
  C  C10  1  0.169860  0.170969  0.000000  1
  C  C11  1  0.829031  0.830140  0.000000  1
  C  C12  1  0.000716  0.503520  0.000000  1
  C  C13  1  0.496480  0.999284  0.000000  1
