# generated using pymatgen
data_Pr7SmSc12Si15Os
_symmetry_space_group_name_H-M   'P 1'
_cell_length_a   7.24095864
_cell_length_b   7.59662810
_cell_length_c   14.21565037
_cell_angle_alpha   89.90979718
_cell_angle_beta   90.04222208
_cell_angle_gamma   90.13770554
_symmetry_Int_Tables_number   1
_chemical_formula_structural   Pr7SmSc12Si15Os
_chemical_formula_sum   'Pr7 Sm1 Sc12 Si15 Os1'
_cell_volume   781.95499209
_cell_formula_units_Z   1
loop_
 _symmetry_equiv_pos_site_id
 _symmetry_equiv_pos_as_xyz
  1  'x, y, z'
loop_
 _atom_site_type_symbol
 _atom_site_label
 _atom_site_symmetry_multiplicity
 _atom_site_fract_x
 _atom_site_fract_y
 _atom_site_fract_z
 _atom_site_occupancy
  Pr  Pr0  1  0.011153  0.176414  0.096725  1
  Pr  Pr1  1  0.990654  0.828853  0.902056  1
  Pr  Pr2  1  0.488061  0.672922  0.903643  1
  Pr  Pr3  1  0.990710  0.828334  0.597589  1
  Pr  Pr4  1  0.510884  0.326810  0.096294  1
  Pr  Pr5  1  0.011487  0.176389  0.403550  1
  Pr  Pr6  1  0.510839  0.326651  0.404190  1
  Sm  Sm7  1  0.487616  0.675115  0.597651  1
  Sc  Sc8  1  0.152941  0.487451  0.749684  1
  Sc  Sc9  1  0.840360  0.499435  0.249983  1
  Sc  Sc10  1  0.339775  0.001124  0.249991  1
  Sc  Sc11  1  0.668704  0.003721  0.749663  1
  Sc  Sc12  1  0.318585  0.172013  0.628117  1
  Sc  Sc13  1  0.671226  0.825920  0.373519  1
  Sc  Sc14  1  0.172012  0.677205  0.373947  1
  Sc  Sc15  1  0.671703  0.826469  0.126805  1
  Sc  Sc16  1  0.836948  0.318254  0.628373  1
  Sc  Sc17  1  0.318467  0.171666  0.871482  1
  Sc  Sc18  1  0.836939  0.318274  0.871303  1
  Sc  Sc19  1  0.171488  0.677176  0.126353  1
  Si  Si20  1  0.967710  0.876186  0.250038  1
  Si  Si21  1  0.468050  0.622103  0.250068  1
  Si  Si22  1  0.529719  0.384348  0.749101  1
  Si  Si23  1  0.289448  0.878547  0.749058  1
  Si  Si24  1  0.710975  0.120113  0.250038  1
  Si  Si25  1  0.211686  0.380030  0.250027  1
  Si  Si26  1  0.778604  0.618615  0.748865  1
  Si  Si27  1  0.155901  0.468882  0.537792  1
  Si  Si28  1  0.849642  0.538442  0.461495  1
  Si  Si29  1  0.351156  0.961690  0.460438  1
  Si  Si30  1  0.850444  0.538386  0.038902  1
  Si  Si31  1  0.649553  0.033259  0.538966  1
  Si  Si32  1  0.153214  0.467525  0.962761  1
  Si  Si33  1  0.650279  0.035467  0.961477  1
  Si  Si34  1  0.350626  0.963606  0.040185  1
  Os  Os35  1  0.032443  0.122606  0.749870  1
