# generated using pymatgen
data_YbSnP2O7
_symmetry_space_group_name_H-M   'P 1'
_cell_length_a   6.48057880
_cell_length_b   7.00550257
_cell_length_c   6.97705840
_cell_angle_alpha   87.13823702
_cell_angle_beta   88.50142683
_cell_angle_gamma   67.29235061
_symmetry_Int_Tables_number   1
_chemical_formula_structural   YbSnP2O7
_chemical_formula_sum   'Yb2 Sn2 P4 O14'
_cell_volume   291.83101489
_cell_formula_units_Z   2
loop_
 _symmetry_equiv_pos_site_id
 _symmetry_equiv_pos_as_xyz
  1  'x, y, z'
loop_
 _atom_site_type_symbol
 _atom_site_label
 _atom_site_symmetry_multiplicity
 _atom_site_fract_x
 _atom_site_fract_y
 _atom_site_fract_z
 _atom_site_occupancy
  Yb  Yb0  1  0.311240  0.706552  0.630717  1
  Yb  Yb1  1  0.688760  0.293448  0.369283  1
  Sn  Sn2  1  0.261679  0.113354  0.149376  1
  Sn  Sn3  1  0.738321  0.886646  0.850624  1
  P  P4  1  0.187336  0.661113  0.147366  1
  P  P5  1  0.812664  0.338887  0.852634  1
  P  P6  1  0.222139  0.235576  0.604375  1
  P  P7  1  0.777861  0.764424  0.395625  1
  O  O8  1  0.132911  0.744095  0.937814  1
  O  O9  1  0.867089  0.255905  0.062186  1
  O  O10  1  0.224128  0.818503  0.275614  1
  O  O11  1  0.775872  0.181497  0.724386  1
  O  O12  1  0.366418  0.443741  0.167696  1
  O  O13  1  0.633582  0.556259  0.832304  1
  O  O14  1  0.644450  0.629604  0.435272  1
  O  O15  1  0.355550  0.370396  0.564728  1
  O  O16  1  0.085083  0.223386  0.428171  1
  O  O17  1  0.914917  0.776614  0.571829  1
  O  O18  1  0.045120  0.355159  0.769285  1
  O  O19  1  0.639712  0.985149  0.316876  1
  O  O20  1  0.360288  0.014851  0.683124  1
  O  O21  1  0.954880  0.644841  0.230715  1
