# generated using pymatgen
data_Tb7Ho3(CoBi2)2
_symmetry_space_group_name_H-M   'P 1'
_cell_length_a   8.00158469
_cell_length_b   8.89872557
_cell_length_c   12.42709618
_cell_angle_alpha   90.03093770
_cell_angle_beta   89.96086605
_cell_angle_gamma   90.02705202
_symmetry_Int_Tables_number   1
_chemical_formula_structural   Tb7Ho3(CoBi2)2
_chemical_formula_sum   'Tb14 Ho6 Co4 Bi8'
_cell_volume   884.85735783
_cell_formula_units_Z   2
loop_
 _symmetry_equiv_pos_site_id
 _symmetry_equiv_pos_as_xyz
  1  'x, y, z'
loop_
 _atom_site_type_symbol
 _atom_site_label
 _atom_site_symmetry_multiplicity
 _atom_site_fract_x
 _atom_site_fract_y
 _atom_site_fract_z
 _atom_site_occupancy
  Tb  Tb0  1  0.346429  0.750126  0.700124  1
  Tb  Tb1  1  0.653571  0.249874  0.299876  1
  Tb  Tb2  1  0.846696  0.249954  0.800082  1
  Tb  Tb3  1  0.153304  0.750046  0.199918  1
  Tb  Tb4  1  0.884805  0.749988  0.810741  1
  Tb  Tb5  1  0.115195  0.250012  0.189259  1
  Tb  Tb6  1  0.384655  0.249725  0.689551  1
  Tb  Tb7  1  0.615345  0.750275  0.310449  1
  Tb  Tb8  1  0.676580  0.538061  0.563180  1
  Tb  Tb9  1  0.323420  0.461939  0.436820  1
  Tb  Tb10  1  0.052031  0.750193  0.497954  1
  Tb  Tb11  1  0.947969  0.249807  0.502046  1
  Tb  Tb12  1  0.552168  0.249995  0.002077  1
  Tb  Tb13  1  0.447832  0.750005  0.997923  1
  Ho  Ho14  1  0.175370  0.461953  0.937011  1
  Ho  Ho15  1  0.324556  0.038048  0.436983  1
  Ho  Ho16  1  0.824630  0.538047  0.062989  1
  Ho  Ho17  1  0.675444  0.961952  0.563017  1
  Ho  Ho18  1  0.824642  0.961945  0.062999  1
  Ho  Ho19  1  0.175358  0.038055  0.937001  1
  Co  Co20  1  0.065916  0.749997  0.991804  1
  Co  Co21  1  0.934084  0.250003  0.008196  1
  Co  Co22  1  0.566117  0.249453  0.508318  1
  Co  Co23  1  0.433883  0.750547  0.491682  1
  Bi  Bi24  1  0.571767  0.509736  0.826599  1
  Bi  Bi25  1  0.428233  0.490264  0.173401  1
  Bi  Bi26  1  0.072235  0.490224  0.673660  1
  Bi  Bi27  1  0.428141  0.009731  0.173513  1
  Bi  Bi28  1  0.927765  0.509776  0.326340  1
  Bi  Bi29  1  0.571859  0.990269  0.826487  1
  Bi  Bi30  1  0.928131  0.990262  0.326467  1
  Bi  Bi31  1  0.071869  0.009738  0.673533  1
