# generated using pymatgen
data_Nb6ZnAsC2
_symmetry_space_group_name_H-M   'P 1'
_cell_length_a   5.66793012
_cell_length_b   5.66792924
_cell_length_c   8.35257900
_cell_angle_alpha   90.00000000
_cell_angle_beta   90.00000000
_cell_angle_gamma   145.83758646
_symmetry_Int_Tables_number   1
_chemical_formula_structural   Nb6ZnAsC2
_chemical_formula_sum   'Nb6 Zn1 As1 C2'
_cell_volume   150.67830540
_cell_formula_units_Z   1
loop_
 _symmetry_equiv_pos_site_id
 _symmetry_equiv_pos_as_xyz
  1  'x, y, z'
loop_
 _atom_site_type_symbol
 _atom_site_label
 _atom_site_symmetry_multiplicity
 _atom_site_fract_x
 _atom_site_fract_y
 _atom_site_fract_z
 _atom_site_occupancy
  Nb  Nb0  1  0.872119  0.127879  0.050450  1
  Nb  Nb1  1  0.550663  0.449335  0.250000  1
  Nb  Nb2  1  0.872119  0.127879  0.449550  1
  Nb  Nb3  1  0.131166  0.868832  0.558611  1
  Nb  Nb4  1  0.442077  0.557921  0.750000  1
  Nb  Nb5  1  0.131166  0.868832  0.941389  1
  Zn  Zn6  1  0.244122  0.755876  0.250000  1
  As  As7  1  0.756329  0.243669  0.750000  1
  C  C8  1  0.500114  0.499884  0.998747  1
  C  C9  1  0.500114  0.499884  0.501253  1
