# generated using pymatgen
data_La2Co2GeAsH4
_symmetry_space_group_name_H-M   'P 1'
_cell_length_a   4.18300800
_cell_length_b   4.18300697
_cell_length_c   8.70908800
_cell_angle_alpha   90.00000000
_cell_angle_beta   90.00000000
_cell_angle_gamma   120.00000817
_symmetry_Int_Tables_number   1
_chemical_formula_structural   La2Co2GeAsH4
_chemical_formula_sum   'La2 Co2 Ge1 As1 H4'
_cell_volume   131.97162307
_cell_formula_units_Z   1
loop_
 _symmetry_equiv_pos_site_id
 _symmetry_equiv_pos_as_xyz
  1  'x, y, z'
loop_
 _atom_site_type_symbol
 _atom_site_label
 _atom_site_symmetry_multiplicity
 _atom_site_fract_x
 _atom_site_fract_y
 _atom_site_fract_z
 _atom_site_occupancy
  La  La0  1  0.000000  0.000000  0.505973  1
  La  La1  1  0.000000  0.000000  0.994027  1
  Co  Co2  1  0.333333  0.666667  0.750000  1
  Co  Co3  1  0.666667  0.333333  0.250000  1
  Ge  Ge4  1  0.333333  0.666667  0.250000  1
  As  As5  1  0.666667  0.333333  0.750000  1
  H  H6  1  0.666667  0.333333  0.068220  1
  H  H7  1  0.333333  0.666667  0.935258  1
  H  H8  1  0.666667  0.333333  0.431780  1
  H  H9  1  0.333333  0.666667  0.564742  1
