# generated using pymatgen
data_Li3Pr4Si4AgSn2
_symmetry_space_group_name_H-M   'P 1'
_cell_length_a   9.85127797
_cell_length_b   9.85127851
_cell_length_c   6.96536542
_cell_angle_alpha   90.16533931
_cell_angle_beta   89.83465941
_cell_angle_gamma   153.18851038
_symmetry_Int_Tables_number   1
_chemical_formula_structural   Li3Pr4Si4AgSn2
_chemical_formula_sum   'Li3 Pr4 Si4 Ag1 Sn2'
_cell_volume   304.90049758
_cell_formula_units_Z   1
loop_
 _symmetry_equiv_pos_site_id
 _symmetry_equiv_pos_as_xyz
  1  'x, y, z'
loop_
 _atom_site_type_symbol
 _atom_site_label
 _atom_site_symmetry_multiplicity
 _atom_site_fract_x
 _atom_site_fract_y
 _atom_site_fract_z
 _atom_site_occupancy
  Li  Li0  1  0.183529  0.816471  0.444299  1
  Li  Li1  1  0.180741  0.819259  0.059318  1
  Li  Li2  1  0.819288  0.180712  0.942456  1
  Pr  Pr3  1  0.547868  0.452132  0.249002  1
  Pr  Pr4  1  0.450484  0.549516  0.748569  1
  Pr  Pr5  1  0.349512  0.650488  0.245507  1
  Pr  Pr6  1  0.650038  0.349962  0.747495  1
  Si  Si7  1  0.943718  0.056282  0.074864  1
  Si  Si8  1  0.056101  0.943899  0.922609  1
  Si  Si9  1  0.055943  0.944057  0.576082  1
  Si  Si10  1  0.944537  0.055463  0.420898  1
  Ag  Ag11  1  0.820430  0.179570  0.559931  1
  Sn  Sn12  1  0.719313  0.280687  0.245952  1
  Sn  Sn13  1  0.278500  0.721500  0.763019  1
