# generated using pymatgen
data_VAg2F6
_symmetry_space_group_name_H-M   'P 1'
_cell_length_a   9.94579118
_cell_length_b   9.95381725
_cell_length_c   5.34043100
_cell_angle_alpha   90.14809469
_cell_angle_beta   89.77427949
_cell_angle_gamma   119.96548435
_symmetry_Int_Tables_number   1
_chemical_formula_structural   VAg2F6
_chemical_formula_sum   'V3 Ag6 F18'
_cell_volume   458.01890365
_cell_formula_units_Z   3
loop_
 _symmetry_equiv_pos_site_id
 _symmetry_equiv_pos_as_xyz
  1  'x, y, z'
loop_
 _atom_site_type_symbol
 _atom_site_label
 _atom_site_symmetry_multiplicity
 _atom_site_fract_x
 _atom_site_fract_y
 _atom_site_fract_z
 _atom_site_occupancy
  V  V0  1  0.334107  0.667343  0.501753  1
  V  V1  1  0.999844  0.000161  0.000134  1
  V  V2  1  0.666340  0.332633  0.498068  1
  Ag  Ag3  1  0.001178  0.622947  0.005506  1
  Ag  Ag4  1  0.998953  0.289735  0.504140  1
  Ag  Ag5  1  0.377858  0.376055  0.991138  1
  Ag  Ag6  1  0.288796  0.000487  0.499036  1
  Ag  Ag7  1  0.708886  0.710294  0.496577  1
  Ag  Ag8  1  0.624904  0.999383  0.003710  1
  F  F9  1  0.082698  0.900458  0.803652  1
  F  F10  1  0.228816  0.744727  0.302022  1
  F  F11  1  0.152084  0.557632  0.704468  1
  F  F12  1  0.404061  0.841677  0.706618  1
  F  F13  1  0.260344  0.492913  0.297128  1
  F  F14  1  0.100621  0.183216  0.801601  1
  F  F15  1  0.181669  0.099882  0.195233  1
  F  F16  1  0.444354  0.596906  0.703895  1
  F  F17  1  0.515837  0.772793  0.297602  1
  F  F18  1  0.482215  0.254619  0.698159  1
  F  F19  1  0.594061  0.437997  0.293179  1
  F  F20  1  0.817730  0.918262  0.804963  1
  F  F21  1  0.558984  0.156177  0.293639  1
  F  F22  1  0.768572  0.509261  0.701918  1
  F  F23  1  0.917022  0.817015  0.198197  1
  F  F24  1  0.741442  0.230116  0.703419  1
  F  F25  1  0.849011  0.404654  0.297050  1
  F  F26  1  0.899613  0.082654  0.197197  1
