# generated using pymatgen
data_YbHoIrPtO7
_symmetry_space_group_name_H-M   'P 1'
_cell_length_a   7.24150884
_cell_length_b   7.24151021
_cell_length_c   7.20300000
_cell_angle_alpha   60.17576201
_cell_angle_beta   60.17575580
_cell_angle_gamma   60.16545144
_symmetry_Int_Tables_number   1
_chemical_formula_structural   YbHoIrPtO7
_chemical_formula_sum   'Yb2 Ho2 Ir2 Pt2 O14'
_cell_volume   268.13175770
_cell_formula_units_Z   2
loop_
 _symmetry_equiv_pos_site_id
 _symmetry_equiv_pos_as_xyz
  1  'x, y, z'
loop_
 _atom_site_type_symbol
 _atom_site_label
 _atom_site_symmetry_multiplicity
 _atom_site_fract_x
 _atom_site_fract_y
 _atom_site_fract_z
 _atom_site_occupancy
  Yb  Yb0  1  0.625000  0.625000  0.125000  1
  Yb  Yb1  1  0.625000  0.625000  0.625000  1
  Ho  Ho2  1  0.625000  0.125000  0.625000  1
  Ho  Ho3  1  0.125000  0.625000  0.625000  1
  Ir  Ir4  1  0.125000  0.625000  0.125000  1
  Ir  Ir5  1  0.625000  0.125000  0.125000  1
  Pt  Pt6  1  0.125000  0.125000  0.625000  1
  Pt  Pt7  1  0.125000  0.125000  0.125000  1
  O  O8  1  0.462067  0.040422  0.457793  1
  O  O9  1  0.209578  0.787933  0.792207  1
  O  O10  1  0.787933  0.209578  0.210283  1
  O  O11  1  0.209578  0.787933  0.210283  1
  O  O12  1  0.802901  0.802901  0.197099  1
  O  O13  1  0.217259  0.217259  0.782741  1
  O  O14  1  0.447099  0.447099  0.052901  1
  O  O15  1  0.040422  0.462067  0.457793  1
  O  O16  1  0.462067  0.040422  0.039717  1
  O  O17  1  0.032741  0.032741  0.467259  1
  O  O18  1  0.787933  0.209578  0.792207  1
  O  O19  1  0.040422  0.462067  0.039717  1
  O  O20  1  0.495071  0.495071  0.504929  1
  O  O21  1  0.754929  0.754929  0.745071  1
