# generated using pymatgen
data_Nd4Y2IrI10
_symmetry_space_group_name_H-M   'P 1'
_cell_length_a   7.89420827
_cell_length_b   9.91599744
_cell_length_c   10.02241621
_cell_angle_alpha   107.51384672
_cell_angle_beta   96.74277467
_cell_angle_gamma   104.50563164
_symmetry_Int_Tables_number   1
_chemical_formula_structural   Nd4Y2IrI10
_chemical_formula_sum   'Nd4 Y2 Ir1 I10'
_cell_volume   708.35851540
_cell_formula_units_Z   1
loop_
 _symmetry_equiv_pos_site_id
 _symmetry_equiv_pos_as_xyz
  1  'x, y, z'
loop_
 _atom_site_type_symbol
 _atom_site_label
 _atom_site_symmetry_multiplicity
 _atom_site_fract_x
 _atom_site_fract_y
 _atom_site_fract_z
 _atom_site_occupancy
  Nd  Nd0  1  0.117474  0.042562  0.755028  1
  Nd  Nd1  1  0.882526  0.957438  0.244972  1
  Nd  Nd2  1  0.968101  0.283220  0.085353  1
  Nd  Nd3  1  0.031899  0.716780  0.914647  1
  Y  Y4  1  0.349011  0.125619  0.166118  1
  Y  Y5  1  0.650989  0.874381  0.833882  1
  Ir  Ir6  1  0.000000  0.000000  0.000000  1
  I  I7  1  0.356368  0.446945  0.272409  1
  I  I8  1  0.643632  0.553055  0.727591  1
  I  I9  1  0.265417  0.089512  0.455744  1
  I  I10  1  0.734583  0.910488  0.544256  1
  I  I11  1  0.086703  0.372438  0.819019  1
  I  I12  1  0.913297  0.627562  0.180981  1
  I  I13  1  0.454926  0.820451  0.088377  1
  I  I14  1  0.545074  0.179549  0.911623  1
  I  I15  1  0.769554  0.256821  0.345966  1
  I  I16  1  0.230446  0.743179  0.654034  1
