# generated using pymatgen
data_Ta2H13
_symmetry_space_group_name_H-M   'P 1'
_cell_length_a   4.93186622
_cell_length_b   4.93362655
_cell_length_c   9.17897242
_cell_angle_alpha   80.87028522
_cell_angle_beta   100.80176547
_cell_angle_gamma   120.47570974
_symmetry_Int_Tables_number   1
_chemical_formula_structural   Ta2H13
_chemical_formula_sum   'Ta2 H13'
_cell_volume   188.54132221
_cell_formula_units_Z   1
loop_
 _symmetry_equiv_pos_site_id
 _symmetry_equiv_pos_as_xyz
  1  'x, y, z'
loop_
 _atom_site_type_symbol
 _atom_site_label
 _atom_site_symmetry_multiplicity
 _atom_site_fract_x
 _atom_site_fract_y
 _atom_site_fract_z
 _atom_site_occupancy
  Ta  Ta0  1  0.935758  0.472565  0.639220  1
  Ta  Ta1  1  0.267323  0.140749  0.639140  1
  H  H2  1  0.192856  0.785212  0.782285  1
  H  H3  1  0.311452  0.549493  0.082697  1
  H  H4  1  0.556136  0.151750  0.157454  1
  H  H5  1  0.564475  0.381985  0.495899  1
  H  H6  1  0.086042  0.229769  0.781994  1
  H  H7  1  0.114333  0.830355  0.495828  1
  H  H8  1  0.640823  0.335378  0.782592  1
  H  H9  1  0.642136  0.269282  0.215347  1
  H  H10  1  0.179916  0.486074  0.129932  1
  H  H11  1  0.843355  0.803642  0.639639  1
  H  H12  1  0.598443  0.048483  0.639095  1
  H  H13  1  0.008390  0.274924  0.496369  1
  H  H14  1  0.360129  0.564783  0.638976  1
