# generated using pymatgen
data_Pr4GePPd28
_symmetry_space_group_name_H-M   'P 1'
_cell_length_a   9.00061100
_cell_length_b   9.00061100
_cell_length_c   7.21030600
_cell_angle_alpha   90.00000000
_cell_angle_beta   90.00000000
_cell_angle_gamma   90.00000000
_symmetry_Int_Tables_number   1
_chemical_formula_structural   Pr4GePPd28
_chemical_formula_sum   'Pr4 Ge1 P1 Pd28'
_cell_volume   584.11408764
_cell_formula_units_Z   1
loop_
 _symmetry_equiv_pos_site_id
 _symmetry_equiv_pos_as_xyz
  1  'x, y, z'
loop_
 _atom_site_type_symbol
 _atom_site_label
 _atom_site_symmetry_multiplicity
 _atom_site_fract_x
 _atom_site_fract_y
 _atom_site_fract_z
 _atom_site_occupancy
  Pr  Pr0  1  0.500000  0.000000  0.936445  1
  Pr  Pr1  1  0.000000  0.500000  0.065419  1
  Pr  Pr2  1  0.000000  0.000000  0.499914  1
  Pr  Pr3  1  0.500000  0.500000  0.499914  1
  Ge  Ge4  1  0.000000  0.500000  0.548423  1
  P  P5  1  0.500000  0.000000  0.449043  1
  Pd  Pd6  1  0.336991  0.836991  0.614604  1
  Pd  Pd7  1  0.336991  0.163009  0.614604  1
  Pd  Pd8  1  0.663009  0.836991  0.614604  1
  Pd  Pd9  1  0.663009  0.163009  0.614604  1
  Pd  Pd10  1  0.170386  0.670386  0.379964  1
  Pd  Pd11  1  0.170386  0.329614  0.379964  1
  Pd  Pd12  1  0.829614  0.670386  0.379964  1
  Pd  Pd13  1  0.829614  0.329614  0.379964  1
  Pd  Pd14  1  0.500000  0.772782  0.259264  1
  Pd  Pd15  1  0.500000  0.227218  0.259264  1
  Pd  Pd16  1  0.272782  0.000000  0.259264  1
  Pd  Pd17  1  0.727218  0.000000  0.259264  1
  Pd  Pd18  1  0.000000  0.733025  0.746885  1
  Pd  Pd19  1  0.000000  0.266975  0.746885  1
  Pd  Pd20  1  0.233025  0.500000  0.746885  1
  Pd  Pd21  1  0.766975  0.500000  0.746885  1
  Pd  Pd22  1  0.500000  0.347841  0.856941  1
  Pd  Pd23  1  0.500000  0.652159  0.856941  1
  Pd  Pd24  1  0.847841  0.000000  0.856941  1
  Pd  Pd25  1  0.152159  0.000000  0.856941  1
  Pd  Pd26  1  0.000000  0.150023  0.143164  1
  Pd  Pd27  1  0.000000  0.849977  0.143164  1
  Pd  Pd28  1  0.650023  0.500000  0.143164  1
  Pd  Pd29  1  0.349977  0.500000  0.143164  1
  Pd  Pd30  1  0.249767  0.749767  0.999388  1
  Pd  Pd31  1  0.249767  0.250233  0.999388  1
  Pd  Pd32  1  0.750233  0.749767  0.999388  1
  Pd  Pd33  1  0.750233  0.250233  0.999388  1
