# generated using pymatgen
data_Rb3Al2Bi2As
_symmetry_space_group_name_H-M   'P 1'
_cell_length_a   6.43397900
_cell_length_b   8.48190670
_cell_length_c   11.48012800
_cell_angle_alpha   70.23413084
_cell_angle_beta   90.00000000
_cell_angle_gamma   90.00000000
_symmetry_Int_Tables_number   1
_chemical_formula_structural   Rb3Al2Bi2As
_chemical_formula_sum   'Rb6 Al4 Bi4 As2'
_cell_volume   589.58646579
_cell_formula_units_Z   2
loop_
 _symmetry_equiv_pos_site_id
 _symmetry_equiv_pos_as_xyz
  1  'x, y, z'
loop_
 _atom_site_type_symbol
 _atom_site_label
 _atom_site_symmetry_multiplicity
 _atom_site_fract_x
 _atom_site_fract_y
 _atom_site_fract_z
 _atom_site_occupancy
  Rb  Rb0  1  0.250000  0.477972  0.405582  1
  Rb  Rb1  1  0.750000  0.129982  0.934457  1
  Rb  Rb2  1  0.750000  0.453194  0.162245  1
  Rb  Rb3  1  0.250000  0.546806  0.837755  1
  Rb  Rb4  1  0.750000  0.522028  0.594418  1
  Rb  Rb5  1  0.250000  0.870018  0.065543  1
  Al  Al6  1  0.998962  0.016173  0.361277  1
  Al  Al7  1  0.498962  0.983827  0.638723  1
  Al  Al8  1  0.501038  0.016173  0.361277  1
  Al  Al9  1  0.001038  0.983827  0.638723  1
  Bi  Bi10  1  0.250000  0.240106  0.178371  1
  Bi  Bi11  1  0.750000  0.759894  0.821629  1
  Bi  Bi12  1  0.250000  0.185714  0.729626  1
  Bi  Bi13  1  0.750000  0.814286  0.270374  1
  As  As14  1  0.250000  0.832268  0.530647  1
  As  As15  1  0.750000  0.167732  0.469353  1
