# generated using pymatgen
data_Pr6GdErO12
_symmetry_space_group_name_H-M   'P 1'
_cell_length_a   7.03140917
_cell_length_b   7.03140867
_cell_length_c   7.03140911
_cell_angle_alpha   92.17700058
_cell_angle_beta   92.17700545
_cell_angle_gamma   92.17699543
_symmetry_Int_Tables_number   1
_chemical_formula_structural   Pr6GdErO12
_chemical_formula_sum   'Pr6 Gd1 Er1 O12'
_cell_volume   346.86549936
_cell_formula_units_Z   1
loop_
 _symmetry_equiv_pos_site_id
 _symmetry_equiv_pos_as_xyz
  1  'x, y, z'
loop_
 _atom_site_type_symbol
 _atom_site_label
 _atom_site_symmetry_multiplicity
 _atom_site_fract_x
 _atom_site_fract_y
 _atom_site_fract_z
 _atom_site_occupancy
  Pr  Pr0  1  0.745329  0.934669  0.442044  1
  Pr  Pr1  1  0.442044  0.745329  0.934669  1
  Pr  Pr2  1  0.065331  0.557956  0.254671  1
  Pr  Pr3  1  0.934669  0.442044  0.745329  1
  Pr  Pr4  1  0.557956  0.254671  0.065331  1
  Pr  Pr5  1  0.254671  0.065331  0.557956  1
  Gd  Gd6  1  0.000000  0.000000  0.000000  1
  Er  Er7  1  0.500000  0.500000  0.500000  1
  O  O8  1  0.065421  0.908200  0.311855  1
  O  O9  1  0.688145  0.934579  0.091800  1
  O  O10  1  0.466034  0.806460  0.594961  1
  O  O11  1  0.091800  0.688145  0.934579  1
  O  O12  1  0.806460  0.594961  0.466034  1
  O  O13  1  0.405039  0.533966  0.193540  1
  O  O14  1  0.594961  0.466034  0.806460  1
  O  O15  1  0.193540  0.405039  0.533966  1
  O  O16  1  0.908200  0.311855  0.065421  1
  O  O17  1  0.533966  0.193540  0.405039  1
  O  O18  1  0.311855  0.065421  0.908200  1
  O  O19  1  0.934579  0.091800  0.688145  1
