# generated using pymatgen
data_Ho3ErV4(WO6)4
_symmetry_space_group_name_H-M   'P 1'
_cell_length_a   5.20925303
_cell_length_b   7.42091201
_cell_length_c   11.17545708
_cell_angle_alpha   89.99310596
_cell_angle_beta   90.01137736
_cell_angle_gamma   90.00228691
_symmetry_Int_Tables_number   1
_chemical_formula_structural   Ho3ErV4(WO6)4
_chemical_formula_sum   'Ho3 Er1 V4 W4 O24'
_cell_volume   432.01419594
_cell_formula_units_Z   1
loop_
 _symmetry_equiv_pos_site_id
 _symmetry_equiv_pos_as_xyz
  1  'x, y, z'
loop_
 _atom_site_type_symbol
 _atom_site_label
 _atom_site_symmetry_multiplicity
 _atom_site_fract_x
 _atom_site_fract_y
 _atom_site_fract_z
 _atom_site_occupancy
  Ho  Ho0  1  0.544245  0.250726  0.045575  1
  Ho  Ho1  1  0.044245  0.750730  0.454413  1
  Ho  Ho2  1  0.955753  0.250716  0.545600  1
  Er  Er3  1  0.455399  0.750774  0.954379  1
  V  V4  1  0.051157  0.997883  0.134281  1
  V  V5  1  0.551149  0.497968  0.365690  1
  V  V6  1  0.448842  0.997960  0.634326  1
  V  V7  1  0.948834  0.497990  0.865729  1
  W  W8  1  0.056764  0.506276  0.143183  1
  W  W9  1  0.556862  0.006199  0.356780  1
  W  W10  1  0.443106  0.506219  0.643270  1
  W  W11  1  0.943141  0.006084  0.856809  1
  O  O12  1  0.754710  0.958744  0.020032  1
  O  O13  1  0.762919  0.547586  0.029397  1
  O  O14  1  0.183258  0.749547  0.114655  1
  O  O15  1  0.931544  0.258172  0.142903  1
  O  O16  1  0.376621  0.431678  0.205826  1
  O  O17  1  0.394268  0.069477  0.213482  1
  O  O18  1  0.894348  0.569483  0.286504  1
  O  O19  1  0.876666  0.931685  0.294182  1
  O  O20  1  0.431499  0.758157  0.357076  1
  O  O21  1  0.682749  0.249539  0.385093  1
  O  O22  1  0.263348  0.047313  0.470574  1
  O  O23  1  0.255143  0.459058  0.479915  1
  O  O24  1  0.744878  0.959050  0.520086  1
  O  O25  1  0.736667  0.547308  0.529422  1
  O  O26  1  0.317259  0.749543  0.614895  1
  O  O27  1  0.568510  0.258154  0.642935  1
  O  O28  1  0.123402  0.431675  0.705774  1
  O  O29  1  0.105662  0.069468  0.713472  1
  O  O30  1  0.605640  0.569640  0.786693  1
  O  O31  1  0.623182  0.931467  0.794349  1
  O  O32  1  0.069155  0.758162  0.857207  1
  O  O33  1  0.817307  0.249526  0.885105  1
  O  O34  1  0.236795  0.047128  0.970561  1
  O  O35  1  0.244972  0.459310  0.979829  1
