# generated using pymatgen
data_Nd3GaGeIr2
_symmetry_space_group_name_H-M   'P 1'
_cell_length_a   5.77567500
_cell_length_b   8.15058900
_cell_length_c   13.57116400
_cell_angle_alpha   90.00000000
_cell_angle_beta   90.00000000
_cell_angle_gamma   90.00000000
_symmetry_Int_Tables_number   1
_chemical_formula_structural   Nd3GaGeIr2
_chemical_formula_sum   'Nd12 Ga4 Ge4 Ir8'
_cell_volume   638.86462335
_cell_formula_units_Z   4
loop_
 _symmetry_equiv_pos_site_id
 _symmetry_equiv_pos_as_xyz
  1  'x, y, z'
loop_
 _atom_site_type_symbol
 _atom_site_label
 _atom_site_symmetry_multiplicity
 _atom_site_fract_x
 _atom_site_fract_y
 _atom_site_fract_z
 _atom_site_occupancy
  Nd  Nd0  1  0.150821  0.900124  0.601122  1
  Nd  Nd1  1  0.849179  0.099876  0.101122  1
  Nd  Nd2  1  0.150821  0.599876  0.398878  1
  Nd  Nd3  1  0.849179  0.400124  0.898878  1
  Nd  Nd4  1  0.849179  0.099876  0.398878  1
  Nd  Nd5  1  0.150821  0.900124  0.898878  1
  Nd  Nd6  1  0.849179  0.400124  0.601122  1
  Nd  Nd7  1  0.150821  0.599876  0.101122  1
  Nd  Nd8  1  0.368756  0.259694  0.750000  1
  Nd  Nd9  1  0.631244  0.740306  0.250000  1
  Nd  Nd10  1  0.368756  0.240306  0.250000  1
  Nd  Nd11  1  0.631244  0.759694  0.750000  1
  Ga  Ga12  1  0.381119  0.250000  0.500000  1
  Ga  Ga13  1  0.618881  0.750000  0.000000  1
  Ga  Ga14  1  0.618881  0.750000  0.500000  1
  Ga  Ga15  1  0.381119  0.250000  0.000000  1
  Ge  Ge16  1  0.863075  0.114322  0.750000  1
  Ge  Ge17  1  0.136925  0.885678  0.250000  1
  Ge  Ge18  1  0.863075  0.385678  0.250000  1
  Ge  Ge19  1  0.136925  0.614322  0.750000  1
  Ir  Ir20  1  0.643191  0.027516  0.592493  1
  Ir  Ir21  1  0.356809  0.972484  0.092493  1
  Ir  Ir22  1  0.643191  0.472484  0.407507  1
  Ir  Ir23  1  0.356809  0.527516  0.907507  1
  Ir  Ir24  1  0.356809  0.972484  0.407507  1
  Ir  Ir25  1  0.643191  0.027516  0.907507  1
  Ir  Ir26  1  0.356809  0.527516  0.592493  1
  Ir  Ir27  1  0.643191  0.472484  0.092493  1
