# generated using pymatgen
data_NdHo4(In2Ir)2
_symmetry_space_group_name_H-M   'P 1'
_cell_length_a   3.68253200
_cell_length_b   8.02508000
_cell_length_c   18.40669200
_cell_angle_alpha   90.00000000
_cell_angle_beta   90.00000000
_cell_angle_gamma   90.00000000
_symmetry_Int_Tables_number   1
_chemical_formula_structural   NdHo4(In2Ir)2
_chemical_formula_sum   'Nd2 Ho8 In8 Ir4'
_cell_volume   543.96586190
_cell_formula_units_Z   2
loop_
 _symmetry_equiv_pos_site_id
 _symmetry_equiv_pos_as_xyz
  1  'x, y, z'
loop_
 _atom_site_type_symbol
 _atom_site_label
 _atom_site_symmetry_multiplicity
 _atom_site_fract_x
 _atom_site_fract_y
 _atom_site_fract_z
 _atom_site_occupancy
  Nd  Nd0  1  0.000000  0.000000  0.000000  1
  Nd  Nd1  1  0.000000  0.500000  0.500000  1
  Ho  Ho2  1  0.000000  0.117762  0.409677  1
  Ho  Ho3  1  0.000000  0.882238  0.590323  1
  Ho  Ho4  1  0.000000  0.382238  0.909677  1
  Ho  Ho5  1  0.000000  0.617762  0.090323  1
  Ho  Ho6  1  0.000000  0.244236  0.221089  1
  Ho  Ho7  1  0.000000  0.755764  0.778911  1
  Ho  Ho8  1  0.000000  0.255764  0.721089  1
  Ho  Ho9  1  0.000000  0.744236  0.278911  1
  In  In10  1  0.500000  0.426140  0.347749  1
  In  In11  1  0.500000  0.573860  0.652251  1
  In  In12  1  0.500000  0.073860  0.847749  1
  In  In13  1  0.500000  0.926140  0.152251  1
  In  In14  1  0.500000  0.298595  0.069013  1
  In  In15  1  0.500000  0.701405  0.930987  1
  In  In16  1  0.500000  0.201405  0.569013  1
  In  In17  1  0.500000  0.798595  0.430987  1
  Ir  Ir18  1  0.500000  0.020891  0.304609  1
  Ir  Ir19  1  0.500000  0.979109  0.695391  1
  Ir  Ir20  1  0.500000  0.479109  0.804609  1
  Ir  Ir21  1  0.500000  0.520891  0.195391  1
