# generated using pymatgen
data_Dy3Mg3CuAgOs
_symmetry_space_group_name_H-M   'P 1'
_cell_length_a   7.62450400
_cell_length_b   7.62450387
_cell_length_c   3.94451900
_cell_angle_alpha   90.00000000
_cell_angle_beta   90.00000000
_cell_angle_gamma   120.00000058
_symmetry_Int_Tables_number   1
_chemical_formula_structural   Dy3Mg3CuAgOs
_chemical_formula_sum   'Dy3 Mg3 Cu1 Ag1 Os1'
_cell_volume   198.58565195
_cell_formula_units_Z   1
loop_
 _symmetry_equiv_pos_site_id
 _symmetry_equiv_pos_as_xyz
  1  'x, y, z'
loop_
 _atom_site_type_symbol
 _atom_site_label
 _atom_site_symmetry_multiplicity
 _atom_site_fract_x
 _atom_site_fract_y
 _atom_site_fract_z
 _atom_site_occupancy
  Dy  Dy0  1  0.427647  0.393720  0.500000  1
  Dy  Dy1  1  0.606280  0.033927  0.500000  1
  Dy  Dy2  1  0.966073  0.572353  0.500000  1
  Mg  Mg3  1  0.752513  0.751446  0.000000  1
  Mg  Mg4  1  0.248554  0.001067  0.000000  1
  Mg  Mg5  1  0.998933  0.247487  0.000000  1
  Cu  Cu6  1  0.000000  0.000000  0.500000  1
  Ag  Ag7  1  0.333333  0.666667  0.000000  1
  Os  Os8  1  0.666667  0.333333  0.000000  1
