# generated using pymatgen
data_Dy8Re(B8Ru)3
_symmetry_space_group_name_H-M   'P 1'
_cell_length_a   3.67620300
_cell_length_b   9.16093969
_cell_length_c   11.54271346
_cell_angle_alpha   90.13863620
_cell_angle_beta   90.00000000
_cell_angle_gamma   90.00000000
_symmetry_Int_Tables_number   1
_chemical_formula_structural   Dy8Re(B8Ru)3
_chemical_formula_sum   'Dy8 Re1 B24 Ru3'
_cell_volume   388.72829434
_cell_formula_units_Z   1
loop_
 _symmetry_equiv_pos_site_id
 _symmetry_equiv_pos_as_xyz
  1  'x, y, z'
loop_
 _atom_site_type_symbol
 _atom_site_label
 _atom_site_symmetry_multiplicity
 _atom_site_fract_x
 _atom_site_fract_y
 _atom_site_fract_z
 _atom_site_occupancy
  Dy  Dy0  1  0.000000  0.323007  0.415133  1
  Dy  Dy1  1  0.000000  0.679583  0.587972  1
  Dy  Dy2  1  0.000000  0.823082  0.083533  1
  Dy  Dy3  1  0.000000  0.175861  0.913523  1
  Dy  Dy4  1  0.000000  0.943257  0.370736  1
  Dy  Dy5  1  0.000000  0.056129  0.627864  1
  Dy  Dy6  1  0.000000  0.442821  0.128980  1
  Dy  Dy7  1  0.000000  0.555752  0.872269  1
  Re  Re8  1  0.000000  0.862084  0.821336  1
  B  B9  1  0.500000  0.554371  0.433123  1
  B  B10  1  0.500000  0.445763  0.566994  1
  B  B11  1  0.500000  0.054227  0.067475  1
  B  B12  1  0.500000  0.946770  0.933318  1
  B  B13  1  0.500000  0.748456  0.419391  1
  B  B14  1  0.500000  0.251791  0.580389  1
  B  B15  1  0.500000  0.248232  0.080767  1
  B  B16  1  0.500000  0.751384  0.919295  1
  B  B17  1  0.500000  0.790227  0.265841  1
  B  B18  1  0.500000  0.209243  0.733316  1
  B  B19  1  0.500000  0.290705  0.234198  1
  B  B20  1  0.500000  0.708306  0.765858  1
  B  B21  1  0.500000  0.631363  0.185329  1
  B  B22  1  0.500000  0.368119  0.814224  1
  B  B23  1  0.500000  0.132096  0.314822  1
  B  B24  1  0.500000  0.868469  0.685531  1
  B  B25  1  0.500000  0.984294  0.212258  1
  B  B26  1  0.500000  0.017121  0.787662  1
  B  B27  1  0.500000  0.483983  0.288126  1
  B  B28  1  0.500000  0.516050  0.712300  1
  B  B29  1  0.500000  0.606083  0.030127  1
  B  B30  1  0.500000  0.392201  0.970822  1
  B  B31  1  0.500000  0.107854  0.469705  1
  B  B32  1  0.500000  0.892948  0.528868  1
  Ru  Ru33  1  0.000000  0.637982  0.321280  1
  Ru  Ru34  1  0.000000  0.362079  0.678345  1
  Ru  Ru35  1  0.000000  0.138306  0.179290  1
