# generated using pymatgen
data_KPuO4
_symmetry_space_group_name_H-M   'P 1'
_cell_length_a   6.69200438
_cell_length_b   4.56272000
_cell_length_c   8.02199342
_cell_angle_alpha   90.00000000
_cell_angle_beta   106.51763069
_cell_angle_gamma   90.00000000
_symmetry_Int_Tables_number   1
_chemical_formula_structural   KPuO4
_chemical_formula_sum   'K2 Pu2 O8'
_cell_volume   234.83330630
_cell_formula_units_Z   2
loop_
 _symmetry_equiv_pos_site_id
 _symmetry_equiv_pos_as_xyz
  1  'x, y, z'
loop_
 _atom_site_type_symbol
 _atom_site_label
 _atom_site_symmetry_multiplicity
 _atom_site_fract_x
 _atom_site_fract_y
 _atom_site_fract_z
 _atom_site_occupancy
  K  K0  1  0.144701  0.739434  0.264582  1
  K  K1  1  0.855299  0.239434  0.735419  1
  Pu  Pu2  1  0.627363  0.240166  0.163916  1
  Pu  Pu3  1  0.372637  0.740166  0.836084  1
  O  O4  1  0.853448  0.240146  0.076252  1
  O  O5  1  0.400691  0.239914  0.250460  1
  O  O6  1  0.599309  0.739914  0.749540  1
  O  O7  1  0.146552  0.740145  0.923747  1
  O  O8  1  0.568395  0.739913  0.086726  1
  O  O9  1  0.812448  0.241326  0.388668  1
  O  O10  1  0.187552  0.741325  0.611332  1
  O  O11  1  0.431605  0.239914  0.913274  1
