# generated using pymatgen
data_Y4HfHgPd14
_symmetry_space_group_name_H-M   'P 1'
_cell_length_a   4.15601100
_cell_length_b   4.09394000
_cell_length_c   20.75162400
_cell_angle_alpha   90.00000000
_cell_angle_beta   90.00000000
_cell_angle_gamma   90.00000000
_symmetry_Int_Tables_number   1
_chemical_formula_structural   Y4HfHgPd14
_chemical_formula_sum   'Y4 Hf1 Hg1 Pd14'
_cell_volume   353.07766970
_cell_formula_units_Z   1
loop_
 _symmetry_equiv_pos_site_id
 _symmetry_equiv_pos_as_xyz
  1  'x, y, z'
loop_
 _atom_site_type_symbol
 _atom_site_label
 _atom_site_symmetry_multiplicity
 _atom_site_fract_x
 _atom_site_fract_y
 _atom_site_fract_z
 _atom_site_occupancy
  Y  Y0  1  0.000000  0.000000  0.193449  1
  Y  Y1  1  0.000000  0.000000  0.388340  1
  Y  Y2  1  0.000000  0.000000  0.611660  1
  Y  Y3  1  0.000000  0.000000  0.806551  1
  Hf  Hf4  1  0.000000  0.000000  0.000000  1
  Hg  Hg5  1  0.500000  0.000000  0.500000  1
  Pd  Pd6  1  0.500000  0.500000  0.000000  1
  Pd  Pd7  1  0.500000  0.500000  0.194643  1
  Pd  Pd8  1  0.500000  0.500000  0.396032  1
  Pd  Pd9  1  0.500000  0.500000  0.603968  1
  Pd  Pd10  1  0.500000  0.500000  0.805357  1
  Pd  Pd11  1  0.500000  0.000000  0.092689  1
  Pd  Pd12  1  0.500000  0.000000  0.294637  1
  Pd  Pd13  1  0.500000  0.000000  0.705363  1
  Pd  Pd14  1  0.500000  0.000000  0.907311  1
  Pd  Pd15  1  0.000000  0.500000  0.092274  1
  Pd  Pd16  1  0.000000  0.500000  0.294265  1
  Pd  Pd17  1  0.000000  0.500000  0.500000  1
  Pd  Pd18  1  0.000000  0.500000  0.705735  1
  Pd  Pd19  1  0.000000  0.500000  0.907726  1
