# generated using pymatgen
data_Tm4Ga5Tc3
_symmetry_space_group_name_H-M   'P 1'
_cell_length_a   5.44120744
_cell_length_b   5.49043012
_cell_length_c   8.65381300
_cell_angle_alpha   90.00000000
_cell_angle_beta   90.00000000
_cell_angle_gamma   120.29969425
_symmetry_Int_Tables_number   1
_chemical_formula_structural   Tm4Ga5Tc3
_chemical_formula_sum   'Tm4 Ga5 Tc3'
_cell_volume   223.21342856
_cell_formula_units_Z   1
loop_
 _symmetry_equiv_pos_site_id
 _symmetry_equiv_pos_as_xyz
  1  'x, y, z'
loop_
 _atom_site_type_symbol
 _atom_site_label
 _atom_site_symmetry_multiplicity
 _atom_site_fract_x
 _atom_site_fract_y
 _atom_site_fract_z
 _atom_site_occupancy
  Tm  Tm0  1  0.336200  0.668100  0.443480  1
  Tm  Tm1  1  0.661592  0.330796  0.552565  1
  Tm  Tm2  1  0.661592  0.330796  0.947435  1
  Tm  Tm3  1  0.336200  0.668100  0.056520  1
  Ga  Ga4  1  0.835998  0.164881  0.250000  1
  Ga  Ga5  1  0.835998  0.671117  0.250000  1
  Ga  Ga6  1  0.328631  0.164315  0.250000  1
  Ga  Ga7  1  0.187137  0.839107  0.750000  1
  Ga  Ga8  1  0.187137  0.348030  0.750000  1
  Tc  Tc9  1  0.975947  0.987973  0.509968  1
  Tc  Tc10  1  0.975947  0.987973  0.990032  1
  Tc  Tc11  1  0.677624  0.838812  0.750000  1
