# generated using pymatgen
data_Zr12GaTe3
_symmetry_space_group_name_H-M   'P 1'
_cell_length_a   8.53530891
_cell_length_b   8.52401194
_cell_length_c   8.48625011
_cell_angle_alpha   96.46610991
_cell_angle_beta   96.21187711
_cell_angle_gamma   141.27844930
_symmetry_Int_Tables_number   1
_chemical_formula_structural   Zr12GaTe3
_chemical_formula_sum   'Zr12 Ga1 Te3'
_cell_volume   364.16685005
_cell_formula_units_Z   1
loop_
 _symmetry_equiv_pos_site_id
 _symmetry_equiv_pos_as_xyz
  1  'x, y, z'
loop_
 _atom_site_type_symbol
 _atom_site_label
 _atom_site_symmetry_multiplicity
 _atom_site_fract_x
 _atom_site_fract_y
 _atom_site_fract_z
 _atom_site_occupancy
  Zr  Zr0  1  0.873969  0.685287  0.987362  1
  Zr  Zr1  1  0.332250  0.297419  0.187826  1
  Zr  Zr2  1  0.106368  0.130490  0.812014  1
  Zr  Zr3  1  0.709533  0.895060  0.025744  1
  Zr  Zr4  1  0.370183  0.990792  0.326806  1
  Zr  Zr5  1  0.989712  0.329609  0.380254  1
  Zr  Zr6  1  0.951985  0.617768  0.610926  1
  Zr  Zr7  1  0.665674  0.049102  0.662416  1
  Zr  Zr8  1  0.432279  0.035567  0.972953  1
  Zr  Zr9  1  0.974265  0.939923  0.399004  1
  Zr  Zr10  1  0.547269  0.579702  0.599495  1
  Zr  Zr11  1  0.046905  0.453440  0.032857  1
  Ga  Ga12  1  0.817349  0.488724  0.258312  1
  Te  Te13  1  0.502199  0.756209  0.321718  1
  Te  Te14  1  0.441023  0.187494  0.675152  1
  Te  Te15  1  0.239037  0.563415  0.747157  1
