# generated using pymatgen
data_PrLuB6Os
_symmetry_space_group_name_H-M   'P 1'
_cell_length_a   3.68337600
_cell_length_b   9.19251500
_cell_length_c   11.64704400
_cell_angle_alpha   90.00000000
_cell_angle_beta   90.00000000
_cell_angle_gamma   90.00000000
_symmetry_Int_Tables_number   1
_chemical_formula_structural   PrLuB6Os
_chemical_formula_sum   'Pr4 Lu4 B24 Os4'
_cell_volume   394.36295972
_cell_formula_units_Z   4
loop_
 _symmetry_equiv_pos_site_id
 _symmetry_equiv_pos_as_xyz
  1  'x, y, z'
loop_
 _atom_site_type_symbol
 _atom_site_label
 _atom_site_symmetry_multiplicity
 _atom_site_fract_x
 _atom_site_fract_y
 _atom_site_fract_z
 _atom_site_occupancy
  Pr  Pr0  1  0.000000  0.322268  0.414509  1
  Pr  Pr1  1  0.000000  0.677732  0.585491  1
  Pr  Pr2  1  0.000000  0.822268  0.085491  1
  Pr  Pr3  1  0.000000  0.177732  0.914509  1
  Lu  Lu4  1  0.000000  0.944902  0.372845  1
  Lu  Lu5  1  0.000000  0.055098  0.627155  1
  Lu  Lu6  1  0.000000  0.444902  0.127155  1
  Lu  Lu7  1  0.000000  0.555098  0.872845  1
  B  B8  1  0.500000  0.557134  0.429551  1
  B  B9  1  0.500000  0.442866  0.570449  1
  B  B10  1  0.500000  0.057134  0.070449  1
  B  B11  1  0.500000  0.942866  0.929551  1
  B  B12  1  0.500000  0.751261  0.416724  1
  B  B13  1  0.500000  0.248739  0.583276  1
  B  B14  1  0.500000  0.251261  0.083276  1
  B  B15  1  0.500000  0.748739  0.916724  1
  B  B16  1  0.500000  0.791781  0.266792  1
  B  B17  1  0.500000  0.208219  0.733207  1
  B  B18  1  0.500000  0.291781  0.233208  1
  B  B19  1  0.500000  0.708219  0.766793  1
  B  B20  1  0.500000  0.630102  0.184805  1
  B  B21  1  0.500000  0.369898  0.815195  1
  B  B22  1  0.500000  0.130102  0.315195  1
  B  B23  1  0.500000  0.869898  0.684805  1
  B  B24  1  0.500000  0.985460  0.215054  1
  B  B25  1  0.500000  0.014540  0.784946  1
  B  B26  1  0.500000  0.485460  0.284946  1
  B  B27  1  0.500000  0.514540  0.715054  1
  B  B28  1  0.500000  0.600070  0.027192  1
  B  B29  1  0.500000  0.399930  0.972808  1
  B  B30  1  0.500000  0.100070  0.472808  1
  B  B31  1  0.500000  0.899930  0.527192  1
  Os  Os32  1  0.000000  0.640252  0.318462  1
  Os  Os33  1  0.000000  0.359748  0.681538  1
  Os  Os34  1  0.000000  0.140252  0.181538  1
  Os  Os35  1  0.000000  0.859748  0.818462  1
