# generated using pymatgen
data_Nd5GeBi2
_symmetry_space_group_name_H-M   'P 1'
_cell_length_a   12.55132200
_cell_length_b   9.49982600
_cell_length_c   8.36079300
_cell_angle_alpha   90.00000000
_cell_angle_beta   90.00000000
_cell_angle_gamma   90.00000000
_symmetry_Int_Tables_number   1
_chemical_formula_structural   Nd5GeBi2
_chemical_formula_sum   'Nd20 Ge4 Bi8'
_cell_volume   996.90228924
_cell_formula_units_Z   4
loop_
 _symmetry_equiv_pos_site_id
 _symmetry_equiv_pos_as_xyz
  1  'x, y, z'
loop_
 _atom_site_type_symbol
 _atom_site_label
 _atom_site_symmetry_multiplicity
 _atom_site_fract_x
 _atom_site_fract_y
 _atom_site_fract_z
 _atom_site_occupancy
  Nd  Nd0  1  0.061740  0.552071  0.818961  1
  Nd  Nd1  1  0.561740  0.947929  0.681039  1
  Nd  Nd2  1  0.938260  0.052071  0.181039  1
  Nd  Nd3  1  0.438260  0.447929  0.318961  1
  Nd  Nd4  1  0.938260  0.447929  0.181039  1
  Nd  Nd5  1  0.438260  0.052071  0.318961  1
  Nd  Nd6  1  0.061740  0.947929  0.818961  1
  Nd  Nd7  1  0.561740  0.552071  0.681039  1
  Nd  Nd8  1  0.001249  0.750000  0.464702  1
  Nd  Nd9  1  0.501249  0.750000  0.035298  1
  Nd  Nd10  1  0.998751  0.250000  0.535298  1
  Nd  Nd11  1  0.498751  0.250000  0.964702  1
  Nd  Nd12  1  0.213679  0.750000  0.167295  1
  Nd  Nd13  1  0.713679  0.750000  0.332705  1
  Nd  Nd14  1  0.786321  0.250000  0.832705  1
  Nd  Nd15  1  0.286321  0.250000  0.667295  1
  Nd  Nd16  1  0.293191  0.750000  0.639151  1
  Nd  Nd17  1  0.793191  0.750000  0.860849  1
  Nd  Nd18  1  0.706809  0.250000  0.360849  1
  Nd  Nd19  1  0.206809  0.250000  0.139151  1
  Ge  Ge20  1  0.476370  0.750000  0.409106  1
  Ge  Ge21  1  0.976370  0.750000  0.090894  1
  Ge  Ge22  1  0.523630  0.250000  0.590894  1
  Ge  Ge23  1  0.023630  0.250000  0.909106  1
  Bi  Bi24  1  0.324674  0.510290  0.932777  1
  Bi  Bi25  1  0.824674  0.989710  0.567223  1
  Bi  Bi26  1  0.675326  0.010290  0.067223  1
  Bi  Bi27  1  0.175326  0.489710  0.432777  1
  Bi  Bi28  1  0.675326  0.489710  0.067223  1
  Bi  Bi29  1  0.175326  0.010290  0.432777  1
  Bi  Bi30  1  0.324674  0.989710  0.932777  1
  Bi  Bi31  1  0.824674  0.510290  0.567223  1
