# generated using pymatgen
data_Tl3Ir2Rh2PbO14
_symmetry_space_group_name_H-M   'P 1'
_cell_length_a   7.34042931
_cell_length_b   7.36581998
_cell_length_c   7.34043008
_cell_angle_alpha   59.53682441
_cell_angle_beta   59.66963588
_cell_angle_gamma   59.53682460
_symmetry_Int_Tables_number   1
_chemical_formula_structural   Tl3Ir2Rh2PbO14
_chemical_formula_sum   'Tl3 Ir2 Rh2 Pb1 O14'
_cell_volume   277.96632429
_cell_formula_units_Z   1
loop_
 _symmetry_equiv_pos_site_id
 _symmetry_equiv_pos_as_xyz
  1  'x, y, z'
loop_
 _atom_site_type_symbol
 _atom_site_label
 _atom_site_symmetry_multiplicity
 _atom_site_fract_x
 _atom_site_fract_y
 _atom_site_fract_z
 _atom_site_occupancy
  Tl  Tl0  1  0.625000  0.125000  0.125000  1
  Tl  Tl1  1  0.125000  0.625000  0.125000  1
  Tl  Tl2  1  0.125000  0.125000  0.625000  1
  Ir  Ir3  1  0.125000  0.625000  0.625000  1
  Ir  Ir4  1  0.625000  0.625000  0.125000  1
  Rh  Rh5  1  0.625000  0.125000  0.625000  1
  Rh  Rh6  1  0.625000  0.625000  0.625000  1
  Pb  Pb7  1  0.125000  0.125000  0.125000  1
  O  O8  1  0.706761  0.692215  0.296458  1
  O  O9  1  0.294788  0.300542  0.709231  1
  O  O10  1  0.709832  0.289807  0.709832  1
  O  O11  1  0.299337  0.705592  0.299337  1
  O  O12  1  0.296458  0.692215  0.706761  1
  O  O13  1  0.709231  0.300542  0.294788  1
  O  O14  1  0.543239  0.557785  0.953542  1
  O  O15  1  0.955212  0.949458  0.540769  1
  O  O16  1  0.540168  0.960193  0.540168  1
  O  O17  1  0.950663  0.544408  0.950663  1
  O  O18  1  0.953542  0.557785  0.543239  1
  O  O19  1  0.540769  0.949458  0.955212  1
  O  O20  1  0.251263  0.255986  0.251263  1
  O  O21  1  0.998737  0.994014  0.998737  1
