# generated using pymatgen
data_La3PrCoI5
_symmetry_space_group_name_H-M   'P 1'
_cell_length_a   9.94999272
_cell_length_b   9.94999323
_cell_length_c   9.44959746
_cell_angle_alpha   76.78435111
_cell_angle_beta   76.78435150
_cell_angle_gamma   25.49636691
_symmetry_Int_Tables_number   1
_chemical_formula_structural   La3PrCoI5
_chemical_formula_sum   'La3 Pr1 Co1 I5'
_cell_volume   391.48484177
_cell_formula_units_Z   1
loop_
 _symmetry_equiv_pos_site_id
 _symmetry_equiv_pos_as_xyz
  1  'x, y, z'
loop_
 _atom_site_type_symbol
 _atom_site_label
 _atom_site_symmetry_multiplicity
 _atom_site_fract_x
 _atom_site_fract_y
 _atom_site_fract_z
 _atom_site_occupancy
  La  La0  1  0.867492  0.867492  0.067312  1
  La  La1  1  0.132492  0.132492  0.930585  1
  La  La2  1  0.501124  0.501124  0.218689  1
  Pr  Pr3  1  0.498999  0.498999  0.784987  1
  Co  Co4  1  0.000032  0.000032  0.000014  1
  I  I5  1  0.674705  0.674705  0.167309  1
  I  I6  1  0.326652  0.326652  0.830609  1
  I  I7  1  0.667357  0.667357  0.660986  1
  I  I8  1  0.331169  0.331169  0.338122  1
  I  I9  1  0.999978  0.999978  0.501386  1
