# generated using pymatgen
data_Ba6AsPb8Au
_symmetry_space_group_name_H-M   'P 1'
_cell_length_a   9.41959701
_cell_length_b   9.41959651
_cell_length_c   9.51708100
_cell_angle_alpha   119.66174726
_cell_angle_beta   119.66174555
_cell_angle_gamma   89.99999057
_symmetry_Int_Tables_number   1
_chemical_formula_structural   Ba6AsPb8Au
_chemical_formula_sum   'Ba6 As1 Pb8 Au1'
_cell_volume   603.16277012
_cell_formula_units_Z   1
loop_
 _symmetry_equiv_pos_site_id
 _symmetry_equiv_pos_as_xyz
  1  'x, y, z'
loop_
 _atom_site_type_symbol
 _atom_site_label
 _atom_site_symmetry_multiplicity
 _atom_site_fract_x
 _atom_site_fract_y
 _atom_site_fract_z
 _atom_site_occupancy
  Ba  Ba0  1  0.241253  0.241227  0.482423  1
  Ba  Ba1  1  0.758747  0.758773  0.517577  1
  Ba  Ba2  1  0.679293  0.157745  0.000050  1
  Ba  Ba3  1  0.320707  0.842255  0.999950  1
  Ba  Ba4  1  0.842192  0.679032  0.999820  1
  Ba  Ba5  1  0.157808  0.320968  0.000180  1
  As  As6  1  0.000000  0.000000  0.000000  1
  Pb  Pb7  1  0.335503  0.830384  0.381559  1
  Pb  Pb8  1  0.664497  0.169616  0.618441  1
  Pb  Pb9  1  0.046027  0.551311  0.381678  1
  Pb  Pb10  1  0.551363  0.335582  0.381681  1
  Pb  Pb11  1  0.169636  0.954031  0.618438  1
  Pb  Pb12  1  0.953973  0.448689  0.618322  1
  Pb  Pb13  1  0.448637  0.664418  0.618319  1
  Pb  Pb14  1  0.830364  0.045969  0.381562  1
  Au  Au15  1  0.500000  0.500000  0.000000  1
