# generated using pymatgen
data_Sr8Zn3Si12Ni
_symmetry_space_group_name_H-M   'P 1'
_cell_length_a   8.32236536
_cell_length_b   8.32223146
_cell_length_c   9.37468900
_cell_angle_alpha   89.99991293
_cell_angle_beta   90.00009095
_cell_angle_gamma   120.00109560
_symmetry_Int_Tables_number   1
_chemical_formula_structural   Sr8Zn3Si12Ni
_chemical_formula_sum   'Sr8 Zn3 Si12 Ni1'
_cell_volume   562.30154225
_cell_formula_units_Z   1
loop_
 _symmetry_equiv_pos_site_id
 _symmetry_equiv_pos_as_xyz
  1  'x, y, z'
loop_
 _atom_site_type_symbol
 _atom_site_label
 _atom_site_symmetry_multiplicity
 _atom_site_fract_x
 _atom_site_fract_y
 _atom_site_fract_z
 _atom_site_occupancy
  Sr  Sr0  1  0.501981  0.498017  0.744066  1
  Sr  Sr1  1  0.502348  0.497654  0.255796  1
  Sr  Sr2  1  0.996036  0.498016  0.744076  1
  Sr  Sr3  1  0.995307  0.497652  0.255785  1
  Sr  Sr4  1  0.501984  0.003967  0.744074  1
  Sr  Sr5  1  0.502352  0.004700  0.255790  1
  Sr  Sr6  1  0.000000  0.000000  0.747616  1
  Sr  Sr7  1  0.999998  0.999999  0.252439  1
  Zn  Zn8  1  0.666662  0.333332  0.997279  1
  Zn  Zn9  1  0.333338  0.666665  0.001932  1
  Zn  Zn10  1  0.333333  0.666677  0.499341  1
  Si  Si11  1  0.835050  0.164951  0.001653  1
  Si  Si12  1  0.165179  0.834817  0.998793  1
  Si  Si13  1  0.329897  0.164948  0.001655  1
  Si  Si14  1  0.161952  0.838042  0.500103  1
  Si  Si15  1  0.669647  0.834820  0.998793  1
  Si  Si16  1  0.826334  0.173671  0.499813  1
  Si  Si17  1  0.835051  0.670101  0.001654  1
  Si  Si18  1  0.676086  0.838043  0.500110  1
  Si  Si19  1  0.165178  0.330352  0.998791  1
  Si  Si20  1  0.347337  0.173670  0.499813  1
  Si  Si21  1  0.161960  0.323922  0.500098  1
  Si  Si22  1  0.826329  0.652659  0.499812  1
  Ni  Ni23  1  0.666666  0.333325  0.500721  1
