# generated using pymatgen
data_Cs2BeSe2
_symmetry_space_group_name_H-M   'P 1'
_cell_length_a   8.69274358
_cell_length_b   8.69274259
_cell_length_c   8.69274211
_cell_angle_alpha   137.32886200
_cell_angle_beta   128.86261726
_cell_angle_gamma   68.73320205
_symmetry_Int_Tables_number   1
_chemical_formula_structural   Cs2BeSe2
_chemical_formula_sum   'Cs4 Be2 Se4'
_cell_volume   340.55687385
_cell_formula_units_Z   2
loop_
 _symmetry_equiv_pos_site_id
 _symmetry_equiv_pos_as_xyz
  1  'x, y, z'
loop_
 _atom_site_type_symbol
 _atom_site_label
 _atom_site_symmetry_multiplicity
 _atom_site_fract_x
 _atom_site_fract_y
 _atom_site_fract_z
 _atom_site_occupancy
  Cs  Cs0  1  0.818607  0.646408  0.172200  1
  Cs  Cs1  1  0.181393  0.353592  0.827800  1
  Cs  Cs2  1  0.525792  0.853592  0.672200  1
  Cs  Cs3  1  0.474208  0.146408  0.327800  1
  Be  Be4  1  0.000000  0.750000  0.750000  1
  Be  Be5  1  0.000000  0.250000  0.250000  1
  Se  Se6  1  0.242285  0.586797  0.655487  1
  Se  Se7  1  0.068690  0.913203  0.155487  1
  Se  Se8  1  0.931310  0.086797  0.844513  1
  Se  Se9  1  0.757715  0.413203  0.344513  1
