# generated using pymatgen
data_Er2ScB2Rh5
_symmetry_space_group_name_H-M   'P 1'
_cell_length_a   9.65134300
_cell_length_b   9.65134300
_cell_length_c   3.21493600
_cell_angle_alpha   90.00000000
_cell_angle_beta   90.00000000
_cell_angle_gamma   90.00000000
_symmetry_Int_Tables_number   1
_chemical_formula_structural   Er2ScB2Rh5
_chemical_formula_sum   'Er4 Sc2 B4 Rh10'
_cell_volume   299.46621428
_cell_formula_units_Z   2
loop_
 _symmetry_equiv_pos_site_id
 _symmetry_equiv_pos_as_xyz
  1  'x, y, z'
loop_
 _atom_site_type_symbol
 _atom_site_label
 _atom_site_symmetry_multiplicity
 _atom_site_fract_x
 _atom_site_fract_y
 _atom_site_fract_z
 _atom_site_occupancy
  Er  Er0  1  0.825522  0.325522  0.000000  1
  Er  Er1  1  0.325522  0.174478  0.000000  1
  Er  Er2  1  0.674478  0.825522  0.000000  1
  Er  Er3  1  0.174478  0.674478  0.000000  1
  Sc  Sc4  1  0.000000  0.000000  0.000000  1
  Sc  Sc5  1  0.500000  0.500000  0.000000  1
  B  B6  1  0.620604  0.120604  0.000000  1
  B  B7  1  0.120604  0.379396  0.000000  1
  B  B8  1  0.879396  0.620604  0.000000  1
  B  B9  1  0.379396  0.879396  0.000000  1
  Rh  Rh10  1  0.071349  0.225279  0.500000  1
  Rh  Rh11  1  0.225279  0.928651  0.500000  1
  Rh  Rh12  1  0.774721  0.071349  0.500000  1
  Rh  Rh13  1  0.928651  0.774721  0.500000  1
  Rh  Rh14  1  0.428651  0.725279  0.500000  1
  Rh  Rh15  1  0.571349  0.274721  0.500000  1
  Rh  Rh16  1  0.725279  0.571349  0.500000  1
  Rh  Rh17  1  0.274721  0.428651  0.500000  1
  Rh  Rh18  1  0.500000  0.000000  0.500000  1
  Rh  Rh19  1  0.000000  0.500000  0.500000  1
