# generated using pymatgen
data_TiMn3Nb2Si2B
_symmetry_space_group_name_H-M   'P 1'
_cell_length_a   6.42049423
_cell_length_b   6.38991996
_cell_length_c   3.20349000
_cell_angle_alpha   90.00000000
_cell_angle_beta   90.00000000
_cell_angle_gamma   119.84260046
_symmetry_Int_Tables_number   1
_chemical_formula_structural   TiMn3Nb2Si2B
_chemical_formula_sum   'Ti1 Mn3 Nb2 Si2 B1'
_cell_volume   113.99991239
_cell_formula_units_Z   1
loop_
 _symmetry_equiv_pos_site_id
 _symmetry_equiv_pos_as_xyz
  1  'x, y, z'
loop_
 _atom_site_type_symbol
 _atom_site_label
 _atom_site_symmetry_multiplicity
 _atom_site_fract_x
 _atom_site_fract_y
 _atom_site_fract_z
 _atom_site_occupancy
  Ti  Ti0  1  0.000000  0.616702  0.000000  1
  Mn  Mn1  1  0.233220  0.998143  0.500000  1
  Mn  Mn2  1  0.766780  0.764924  0.500000  1
  Mn  Mn3  1  0.000000  0.233511  0.500000  1
  Nb  Nb4  1  0.611341  0.997476  0.000000  1
  Nb  Nb5  1  0.388659  0.386134  0.000000  1
  Si  Si6  1  0.323952  0.664155  0.500000  1
  Si  Si7  1  0.676048  0.340202  0.500000  1
  B  B8  1  0.000000  0.998752  0.000000  1
