# generated using pymatgen
data_TaAg2AsF12
_symmetry_space_group_name_H-M   'P 1'
_cell_length_a   5.62283727
_cell_length_b   6.02292319
_cell_length_c   8.18096031
_cell_angle_alpha   97.12980768
_cell_angle_beta   89.87917328
_cell_angle_gamma   90.12122358
_symmetry_Int_Tables_number   1
_chemical_formula_structural   TaAg2AsF12
_chemical_formula_sum   'Ta1 Ag2 As1 F12'
_cell_volume   274.91229808
_cell_formula_units_Z   1
loop_
 _symmetry_equiv_pos_site_id
 _symmetry_equiv_pos_as_xyz
  1  'x, y, z'
loop_
 _atom_site_type_symbol
 _atom_site_label
 _atom_site_symmetry_multiplicity
 _atom_site_fract_x
 _atom_site_fract_y
 _atom_site_fract_z
 _atom_site_occupancy
  Ta  Ta0  1  0.000000  0.000000  0.500000  1
  Ag  Ag1  1  0.000000  0.000000  0.000000  1
  Ag  Ag2  1  0.500000  0.500000  0.500000  1
  As  As3  1  0.500000  0.500000  0.000000  1
  F  F4  1  0.883738  0.998590  0.721641  1
  F  F5  1  0.144808  0.288339  0.561110  1
  F  F6  1  0.248336  0.640449  0.930093  1
  F  F7  1  0.361951  0.496265  0.195741  1
  F  F8  1  0.366715  0.237282  0.928658  1
  F  F9  1  0.287594  0.855081  0.558062  1
  F  F10  1  0.712406  0.144919  0.441938  1
  F  F11  1  0.633285  0.762718  0.071342  1
  F  F12  1  0.638049  0.503735  0.804259  1
  F  F13  1  0.751664  0.359551  0.069907  1
  F  F14  1  0.855192  0.711661  0.438890  1
  F  F15  1  0.116262  0.001410  0.278359  1
