# generated using pymatgen
data_Er20Cd5InIr2
_symmetry_space_group_name_H-M   'P 1'
_cell_length_a   9.63740000
_cell_length_b   9.63739923
_cell_length_c   9.68695900
_cell_angle_alpha   90.00000000
_cell_angle_beta   90.00000000
_cell_angle_gamma   120.12806710
_symmetry_Int_Tables_number   1
_chemical_formula_structural   Er20Cd5InIr2
_chemical_formula_sum   'Er20 Cd5 In1 Ir2'
_cell_volume   778.17258787
_cell_formula_units_Z   1
loop_
 _symmetry_equiv_pos_site_id
 _symmetry_equiv_pos_as_xyz
  1  'x, y, z'
loop_
 _atom_site_type_symbol
 _atom_site_label
 _atom_site_symmetry_multiplicity
 _atom_site_fract_x
 _atom_site_fract_y
 _atom_site_fract_z
 _atom_site_occupancy
  Er  Er0  1  0.209543  0.790457  0.940137  1
  Er  Er1  1  0.208737  0.417710  0.939428  1
  Er  Er2  1  0.582290  0.791263  0.939428  1
  Er  Er3  1  0.790818  0.209182  0.059141  1
  Er  Er4  1  0.790029  0.581402  0.060425  1
  Er  Er5  1  0.418598  0.209971  0.060425  1
  Er  Er6  1  0.790818  0.209182  0.440859  1
  Er  Er7  1  0.790029  0.581402  0.439575  1
  Er  Er8  1  0.418598  0.209971  0.439575  1
  Er  Er9  1  0.209543  0.790457  0.559863  1
  Er  Er10  1  0.208737  0.417710  0.560572  1
  Er  Er11  1  0.582290  0.791263  0.560572  1
  Er  Er12  1  0.540109  0.459891  0.750000  1
  Er  Er13  1  0.537806  0.082701  0.750000  1
  Er  Er14  1  0.917299  0.462194  0.750000  1
  Er  Er15  1  0.458137  0.541863  0.250000  1
  Er  Er16  1  0.459079  0.917506  0.250000  1
  Er  Er17  1  0.082494  0.540921  0.250000  1
  Er  Er18  1  0.001635  0.998365  0.002053  1
  Er  Er19  1  0.001635  0.998365  0.497947  1
  Cd  Cd20  1  0.885547  0.769886  0.750000  1
  Cd  Cd21  1  0.230114  0.114453  0.750000  1
  Cd  Cd22  1  0.115652  0.884348  0.250000  1
  Cd  Cd23  1  0.114250  0.229753  0.250000  1
  Cd  Cd24  1  0.770247  0.885750  0.250000  1
  In  In25  1  0.885277  0.114723  0.750000  1
  Ir  Ir26  1  0.333225  0.666775  0.750000  1
  Ir  Ir27  1  0.667459  0.332541  0.250000  1
