# generated using pymatgen
data_CaAg4Pb
_symmetry_space_group_name_H-M   'P 1'
_cell_length_a   5.72096197
_cell_length_b   5.72096156
_cell_length_c   5.71977991
_cell_angle_alpha   120.12018730
_cell_angle_beta   120.12018926
_cell_angle_gamma   89.69235804
_symmetry_Int_Tables_number   1
_chemical_formula_structural   CaAg4Pb
_chemical_formula_sum   'Ca1 Ag4 Pb1'
_cell_volume   132.24646818
_cell_formula_units_Z   1
loop_
 _symmetry_equiv_pos_site_id
 _symmetry_equiv_pos_as_xyz
  1  'x, y, z'
loop_
 _atom_site_type_symbol
 _atom_site_label
 _atom_site_symmetry_multiplicity
 _atom_site_fract_x
 _atom_site_fract_y
 _atom_site_fract_z
 _atom_site_occupancy
  Ca  Ca0  1  0.625045  0.374954  0.750000  1
  Ag  Ag1  1  0.999506  0.000073  0.000615  1
  Ag  Ag2  1  0.501095  0.000518  0.000600  1
  Ag  Ag3  1  0.999927  0.000494  0.499385  1
  Ag  Ag4  1  0.999482  0.498906  0.499400  1
  Pb  Pb5  1  0.374944  0.625055  0.250000  1
