# generated using pymatgen
data_Sc2GeB2IrRh4
_symmetry_space_group_name_H-M   'P 1'
_cell_length_a   9.22103100
_cell_length_b   3.18625400
_cell_length_c   9.22103100
_cell_angle_alpha   90.00000000
_cell_angle_beta   90.00000000
_cell_angle_gamma   90.00000000
_symmetry_Int_Tables_number   1
_chemical_formula_structural   Sc2GeB2IrRh4
_chemical_formula_sum   'Sc4 Ge2 B4 Ir2 Rh8'
_cell_volume   270.91893383
_cell_formula_units_Z   2
loop_
 _symmetry_equiv_pos_site_id
 _symmetry_equiv_pos_as_xyz
  1  'x, y, z'
loop_
 _atom_site_type_symbol
 _atom_site_label
 _atom_site_symmetry_multiplicity
 _atom_site_fract_x
 _atom_site_fract_y
 _atom_site_fract_z
 _atom_site_occupancy
  Sc  Sc0  1  0.324785  0.000000  0.175214  1
  Sc  Sc1  1  0.824786  0.000000  0.324785  1
  Sc  Sc2  1  0.175214  0.000000  0.675214  1
  Sc  Sc3  1  0.675214  0.000000  0.824786  1
  Ge  Ge4  1  0.000000  0.000000  0.000000  1
  Ge  Ge5  1  0.500000  0.000000  0.500000  1
  B  B6  1  0.622645  0.000000  0.122645  1
  B  B7  1  0.122645  0.000000  0.377355  1
  B  B8  1  0.877355  0.000000  0.622645  1
  B  B9  1  0.377355  0.000000  0.877355  1
  Ir  Ir10  1  0.500000  0.500001  0.000000  1
  Ir  Ir11  1  0.000000  0.500001  0.500000  1
  Rh  Rh12  1  0.785105  0.500001  0.071910  1
  Rh  Rh13  1  0.071910  0.500001  0.214894  1
  Rh  Rh14  1  0.571910  0.500001  0.285106  1
  Rh  Rh15  1  0.285106  0.500001  0.428090  1
  Rh  Rh16  1  0.714894  0.500001  0.571910  1
  Rh  Rh17  1  0.428090  0.500001  0.714894  1
  Rh  Rh18  1  0.928090  0.500001  0.785105  1
  Rh  Rh19  1  0.214894  0.500001  0.928090  1
