# generated using pymatgen
data_Y4Al17Si(Ir2Pd)2
_symmetry_space_group_name_H-M   'P 1'
_cell_length_a   7.58486399
_cell_length_b   7.58486501
_cell_length_c   9.41363219
_cell_angle_alpha   89.95805481
_cell_angle_beta   89.95805604
_cell_angle_gamma   119.69936474
_symmetry_Int_Tables_number   1
_chemical_formula_structural   Y4Al17Si(Ir2Pd)2
_chemical_formula_sum   'Y4 Al17 Si1 Ir4 Pd2'
_cell_volume   470.42538135
_cell_formula_units_Z   1
loop_
 _symmetry_equiv_pos_site_id
 _symmetry_equiv_pos_as_xyz
  1  'x, y, z'
loop_
 _atom_site_type_symbol
 _atom_site_label
 _atom_site_symmetry_multiplicity
 _atom_site_fract_x
 _atom_site_fract_y
 _atom_site_fract_z
 _atom_site_occupancy
  Y  Y0  1  0.994418  0.674065  0.251088  1
  Y  Y1  1  0.004319  0.330086  0.748963  1
  Y  Y2  1  0.674065  0.994418  0.251088  1
  Y  Y3  1  0.330086  0.004319  0.748963  1
  Al  Al4  1  0.874049  0.874049  0.748953  1
  Al  Al5  1  0.001717  0.333231  0.078317  1
  Al  Al6  1  0.998398  0.668694  0.923018  1
  Al  Al7  1  0.000237  0.665280  0.573431  1
  Al  Al8  1  0.336691  0.999627  0.425521  1
  Al  Al9  1  0.999627  0.336691  0.425521  1
  Al  Al10  1  0.665280  0.000237  0.573431  1
  Al  Al11  1  0.668694  0.998398  0.923018  1
  Al  Al12  1  0.333231  0.001717  0.078317  1
  Al  Al13  1  0.332208  0.332208  0.552311  1
  Al  Al14  1  0.665645  0.665645  0.450988  1
  Al  Al15  1  0.666245  0.666245  0.057350  1
  Al  Al16  1  0.331146  0.331146  0.939051  1
  Al  Al17  1  0.336820  0.547052  0.252846  1
  Al  Al18  1  0.660520  0.452745  0.747087  1
  Al  Al19  1  0.547052  0.336820  0.252846  1
  Al  Al20  1  0.452745  0.660520  0.747087  1
  Si  Si21  1  0.129555  0.129555  0.250914  1
  Ir  Ir22  1  0.327298  0.670404  0.499448  1
  Ir  Ir23  1  0.670404  0.327298  0.499448  1
  Ir  Ir24  1  0.000940  0.000940  0.006731  1
  Ir  Ir25  1  0.000799  0.000799  0.493061  1
  Pd  Pd26  1  0.671085  0.326728  0.000602  1
  Pd  Pd27  1  0.326728  0.671085  0.000602  1
