# generated using pymatgen
data_K4Ge8IrPt7
_symmetry_space_group_name_H-M   'P 1'
_cell_length_a   6.92591316
_cell_length_b   8.06107606
_cell_length_c   8.38841688
_cell_angle_alpha   88.19081011
_cell_angle_beta   91.80644299
_cell_angle_gamma   85.54033073
_symmetry_Int_Tables_number   1
_chemical_formula_structural   K4Ge8IrPt7
_chemical_formula_sum   'K4 Ge8 Ir1 Pt7'
_cell_volume   466.40585919
_cell_formula_units_Z   1
loop_
 _symmetry_equiv_pos_site_id
 _symmetry_equiv_pos_as_xyz
  1  'x, y, z'
loop_
 _atom_site_type_symbol
 _atom_site_label
 _atom_site_symmetry_multiplicity
 _atom_site_fract_x
 _atom_site_fract_y
 _atom_site_fract_z
 _atom_site_occupancy
  K  K0  1  0.381080  0.002601  0.248789  1
  K  K1  1  0.871734  0.509935  0.758209  1
  K  K2  1  0.128554  0.494085  0.239837  1
  K  K3  1  0.620383  0.997704  0.758084  1
  Ge  Ge4  1  0.408996  0.356625  0.938067  1
  Ge  Ge5  1  0.125820  0.186267  0.566985  1
  Ge  Ge6  1  0.628219  0.324434  0.450056  1
  Ge  Ge7  1  0.856663  0.822575  0.430946  1
  Ge  Ge8  1  0.924832  0.141709  0.084825  1
  Ge  Ge9  1  0.596111  0.642527  0.059011  1
  Ge  Ge10  1  0.083010  0.861523  0.921406  1
  Ge  Ge11  1  0.374758  0.664944  0.549785  1
  Ir  Ir12  1  0.883172  0.116277  0.377791  1
  Pt  Pt13  1  0.368479  0.367973  0.642330  1
  Pt  Pt14  1  0.631649  0.625837  0.356005  1
  Pt  Pt15  1  0.115490  0.881735  0.620394  1
  Pt  Pt16  1  0.157612  0.159408  0.869904  1
  Pt  Pt17  1  0.660650  0.341536  0.150781  1
  Pt  Pt18  1  0.842182  0.842647  0.128904  1
  Pt  Pt19  1  0.340604  0.659655  0.847894  1
