# generated using pymatgen
data_Er13Tm7(Bi2Ru)4
_symmetry_space_group_name_H-M   'P 1'
_cell_length_a   7.88973223
_cell_length_b   8.95482127
_cell_length_c   12.39678733
_cell_angle_alpha   89.99008097
_cell_angle_beta   90.00039470
_cell_angle_gamma   90.00714177
_symmetry_Int_Tables_number   1
_chemical_formula_structural   Er13Tm7(Bi2Ru)4
_chemical_formula_sum   'Er13 Tm7 Bi8 Ru4'
_cell_volume   875.84716172
_cell_formula_units_Z   1
loop_
 _symmetry_equiv_pos_site_id
 _symmetry_equiv_pos_as_xyz
  1  'x, y, z'
loop_
 _atom_site_type_symbol
 _atom_site_label
 _atom_site_symmetry_multiplicity
 _atom_site_fract_x
 _atom_site_fract_y
 _atom_site_fract_z
 _atom_site_occupancy
  Er  Er0  1  0.658174  0.749830  0.706509  1
  Er  Er1  1  0.341767  0.250050  0.293408  1
  Er  Er2  1  0.158106  0.249985  0.793600  1
  Er  Er3  1  0.841808  0.750034  0.206604  1
  Er  Er4  1  0.124230  0.750090  0.811377  1
  Er  Er5  1  0.875946  0.249919  0.188740  1
  Er  Er6  1  0.624412  0.250265  0.688779  1
  Er  Er7  1  0.376166  0.749650  0.311040  1
  Er  Er8  1  0.554776  0.749982  0.995642  1
  Er  Er9  1  0.445412  0.249979  0.004396  1
  Er  Er10  1  0.054103  0.250405  0.504311  1
  Er  Er11  1  0.944913  0.749722  0.495592  1
  Er  Er12  1  0.325460  0.959345  0.565024  1
  Tm  Tm13  1  0.826653  0.459203  0.935003  1
  Tm  Tm14  1  0.173387  0.540834  0.065077  1
  Tm  Tm15  1  0.326637  0.540867  0.564990  1
  Tm  Tm16  1  0.173438  0.959139  0.065091  1
  Tm  Tm17  1  0.673304  0.459028  0.434839  1
  Tm  Tm18  1  0.826621  0.040762  0.935063  1
  Tm  Tm19  1  0.673427  0.040860  0.434896  1
  Bi  Bi20  1  0.933261  0.006361  0.672786  1
  Bi  Bi21  1  0.066471  0.993648  0.327474  1
  Bi  Bi22  1  0.433964  0.993773  0.827368  1
  Bi  Bi23  1  0.066260  0.506292  0.327242  1
  Bi  Bi24  1  0.566276  0.006300  0.172617  1
  Bi  Bi25  1  0.933935  0.493823  0.672795  1
  Bi  Bi26  1  0.566453  0.493575  0.172496  1
  Bi  Bi27  1  0.433746  0.506269  0.827387  1
  Ru  Ru28  1  0.929459  0.750014  0.991473  1
  Ru  Ru29  1  0.070683  0.250000  0.008686  1
  Ru  Ru30  1  0.429536  0.250317  0.508560  1
  Ru  Ru31  1  0.571217  0.749676  0.491137  1
