# generated using pymatgen
data_Li8Tb7SmSn3Sb5
_symmetry_space_group_name_H-M   'P 1'
_cell_length_a   9.44261410
_cell_length_b   9.44504859
_cell_length_c   7.18550902
_cell_angle_alpha   89.99996011
_cell_angle_beta   89.93864513
_cell_angle_gamma   120.00859527
_symmetry_Int_Tables_number   1
_chemical_formula_structural   Li8Tb7SmSn3Sb5
_chemical_formula_sum   'Li8 Tb7 Sm1 Sn3 Sb5'
_cell_volume   554.94079790
_cell_formula_units_Z   1
loop_
 _symmetry_equiv_pos_site_id
 _symmetry_equiv_pos_as_xyz
  1  'x, y, z'
loop_
 _atom_site_type_symbol
 _atom_site_label
 _atom_site_symmetry_multiplicity
 _atom_site_fract_x
 _atom_site_fract_y
 _atom_site_fract_z
 _atom_site_occupancy
  Li  Li0  1  0.832173  0.166529  0.726535  1
  Li  Li1  1  0.832170  0.665642  0.726535  1
  Li  Li2  1  0.335252  0.167627  0.723718  1
  Li  Li3  1  0.167640  0.832779  0.225814  1
  Li  Li4  1  0.167640  0.334859  0.225814  1
  Li  Li5  1  0.664637  0.832318  0.224673  1
  Li  Li6  1  0.666323  0.333161  0.311967  1
  Li  Li7  1  0.334100  0.667051  0.810464  1
  Tb  Tb8  1  0.492038  0.511583  0.506690  1
  Tb  Tb9  1  0.492038  0.980455  0.506690  1
  Tb  Tb10  1  0.017810  0.508905  0.506196  1
  Tb  Tb11  1  0.510138  0.492371  0.004596  1
  Tb  Tb12  1  0.510138  0.017767  0.004596  1
  Tb  Tb13  1  0.982233  0.491117  0.005295  1
  Tb  Tb14  1  0.997320  0.998660  0.499730  1
  Sm  Sm15  1  0.998440  0.999220  0.997997  1
  Sn  Sn16  1  0.665621  0.832810  0.761721  1
  Sn  Sn17  1  0.667260  0.333630  0.740460  1
  Sn  Sn18  1  0.332454  0.666227  0.240266  1
  Sb  Sb19  1  0.833354  0.167480  0.262757  1
  Sb  Sb20  1  0.833354  0.665873  0.262757  1
  Sb  Sb21  1  0.333902  0.166951  0.263285  1
  Sb  Sb22  1  0.166984  0.832459  0.759731  1
  Sb  Sb23  1  0.166985  0.334525  0.759730  1
