# generated using pymatgen
data_Ho2Ni7(P2Ru)3
_symmetry_space_group_name_H-M   'P 1'
_cell_length_a   3.71756800
_cell_length_b   10.55224300
_cell_length_c   11.92323400
_cell_angle_alpha   90.00000000
_cell_angle_beta   90.00000000
_cell_angle_gamma   90.00000000
_symmetry_Int_Tables_number   1
_chemical_formula_structural   Ho2Ni7(P2Ru)3
_chemical_formula_sum   'Ho4 Ni14 P12 Ru6'
_cell_volume   467.73274194
_cell_formula_units_Z   2
loop_
 _symmetry_equiv_pos_site_id
 _symmetry_equiv_pos_as_xyz
  1  'x, y, z'
loop_
 _atom_site_type_symbol
 _atom_site_label
 _atom_site_symmetry_multiplicity
 _atom_site_fract_x
 _atom_site_fract_y
 _atom_site_fract_z
 _atom_site_occupancy
  Ho  Ho0  1  0.250000  0.588967  0.706148  1
  Ho  Ho1  1  0.250000  0.911033  0.206148  1
  Ho  Ho2  1  0.750000  0.412514  0.291246  1
  Ho  Ho3  1  0.750000  0.087486  0.791246  1
  Ni  Ni4  1  0.750000  0.594358  0.512772  1
  Ni  Ni5  1  0.750000  0.905642  0.012772  1
  Ni  Ni6  1  0.250000  0.224055  0.182326  1
  Ni  Ni7  1  0.250000  0.275945  0.682326  1
  Ni  Ni8  1  0.750000  0.778518  0.819582  1
  Ni  Ni9  1  0.750000  0.721482  0.319582  1
  Ni  Ni10  1  0.250000  0.885157  0.701272  1
  Ni  Ni11  1  0.250000  0.614843  0.201272  1
  Ni  Ni12  1  0.750000  0.111712  0.297840  1
  Ni  Ni13  1  0.750000  0.388288  0.797840  1
  Ni  Ni14  1  0.250000  0.466342  0.929447  1
  Ni  Ni15  1  0.250000  0.033658  0.429447  1
  Ni  Ni16  1  0.750000  0.536095  0.068749  1
  Ni  Ni17  1  0.750000  0.963905  0.568749  1
  P  P18  1  0.250000  0.418122  0.111511  1
  P  P19  1  0.250000  0.081878  0.611511  1
  P  P20  1  0.750000  0.583652  0.887703  1
  P  P21  1  0.750000  0.916348  0.387703  1
  P  P22  1  0.250000  0.269933  0.872351  1
  P  P23  1  0.250000  0.230067  0.372351  1
  P  P24  1  0.750000  0.731238  0.128005  1
  P  P25  1  0.750000  0.768762  0.628005  1
  P  P26  1  0.250000  0.599070  0.387279  1
  P  P27  1  0.250000  0.900930  0.887279  1
  P  P28  1  0.750000  0.402699  0.612430  1
  P  P29  1  0.750000  0.097301  0.112430  1
  Ru  Ru30  1  0.250000  0.714296  0.987764  1
  Ru  Ru31  1  0.250000  0.785704  0.487764  1
  Ru  Ru32  1  0.750000  0.289653  0.013647  1
  Ru  Ru33  1  0.750000  0.210347  0.513647  1
  Ru  Ru34  1  0.250000  0.411298  0.489927  1
  Ru  Ru35  1  0.250000  0.088702  0.989927  1
