# generated using pymatgen
data_Tb2Fe7CoB8
_symmetry_space_group_name_H-M   'P 1'
_cell_length_a   6.97315642
_cell_length_b   6.96347068
_cell_length_c   3.80751703
_cell_angle_alpha   90.04384507
_cell_angle_beta   89.93235005
_cell_angle_gamma   90.13495987
_symmetry_Int_Tables_number   1
_chemical_formula_structural   Tb2Fe7CoB8
_chemical_formula_sum   'Tb2 Fe7 Co1 B8'
_cell_volume   184.88231878
_cell_formula_units_Z   1
loop_
 _symmetry_equiv_pos_site_id
 _symmetry_equiv_pos_as_xyz
  1  'x, y, z'
loop_
 _atom_site_type_symbol
 _atom_site_label
 _atom_site_symmetry_multiplicity
 _atom_site_fract_x
 _atom_site_fract_y
 _atom_site_fract_z
 _atom_site_occupancy
  Tb  Tb0  1  0.000822  0.001268  0.000607  1
  Tb  Tb1  1  0.499449  0.499837  0.500284  1
  Fe  Fe2  1  0.386443  0.132636  0.892957  1
  Fe  Fe3  1  0.614268  0.868013  0.892572  1
  Fe  Fe4  1  0.367449  0.885877  0.392910  1
  Fe  Fe5  1  0.633313  0.114377  0.392456  1
  Fe  Fe6  1  0.112772  0.367963  0.606900  1
  Fe  Fe7  1  0.884885  0.631322  0.607448  1
  Fe  Fe8  1  0.131459  0.613733  0.108032  1
  Co  Co9  1  0.864675  0.386214  0.108092  1
  B  B10  1  0.800817  0.669329  0.105345  1
  B  B11  1  0.206012  0.335473  0.104408  1
  B  B12  1  0.835351  0.297297  0.604255  1
  B  B13  1  0.165699  0.700992  0.606068  1
  B  B14  1  0.699606  0.833603  0.394557  1
  B  B15  1  0.298131  0.165534  0.394894  1
  B  B16  1  0.665353  0.197361  0.893352  1
  B  B17  1  0.333495  0.799171  0.894865  1
