# generated using pymatgen
data_Li2Tm6Co15NiP12
_symmetry_space_group_name_H-M   'P 1'
_cell_length_a   3.69710000
_cell_length_b   10.52073200
_cell_length_c   12.13334500
_cell_angle_alpha   90.00000000
_cell_angle_beta   90.00000000
_cell_angle_gamma   90.00000000
_symmetry_Int_Tables_number   1
_chemical_formula_structural   Li2Tm6Co15NiP12
_chemical_formula_sum   'Li2 Tm6 Co15 Ni1 P12'
_cell_volume   471.94099289
_cell_formula_units_Z   1
loop_
 _symmetry_equiv_pos_site_id
 _symmetry_equiv_pos_as_xyz
  1  'x, y, z'
loop_
 _atom_site_type_symbol
 _atom_site_label
 _atom_site_symmetry_multiplicity
 _atom_site_fract_x
 _atom_site_fract_y
 _atom_site_fract_z
 _atom_site_occupancy
  Li  Li0  1  0.500000  0.500000  0.153870  1
  Li  Li1  1  0.000000  0.000000  0.846043  1
  Tm  Tm2  1  0.000000  0.500000  0.521331  1
  Tm  Tm3  1  0.500000  0.000000  0.476821  1
  Tm  Tm4  1  0.500000  0.819588  0.206296  1
  Tm  Tm5  1  0.500000  0.180412  0.206296  1
  Tm  Tm6  1  0.000000  0.681769  0.794910  1
  Tm  Tm7  1  0.000000  0.318231  0.794910  1
  Co  Co8  1  0.000000  0.000000  0.295863  1
  Co  Co9  1  0.000000  0.500000  0.986872  1
  Co  Co10  1  0.500000  0.000000  0.013367  1
  Co  Co11  1  0.500000  0.332627  0.996517  1
  Co  Co12  1  0.500000  0.667373  0.996517  1
  Co  Co13  1  0.000000  0.167016  0.003238  1
  Co  Co14  1  0.000000  0.832984  0.003238  1
  Co  Co15  1  0.500000  0.297139  0.431377  1
  Co  Co16  1  0.500000  0.702861  0.431377  1
  Co  Co17  1  0.000000  0.202871  0.568539  1
  Co  Co18  1  0.000000  0.797129  0.568539  1
  Co  Co19  1  0.500000  0.877485  0.707070  1
  Co  Co20  1  0.500000  0.122515  0.707070  1
  Co  Co21  1  0.000000  0.622096  0.293376  1
  Co  Co22  1  0.000000  0.377904  0.293376  1
  Ni  Ni23  1  0.500000  0.500000  0.703407  1
  P  P24  1  0.500000  0.500000  0.885167  1
  P  P25  1  0.000000  0.000000  0.116227  1
  P  P26  1  0.500000  0.500000  0.347117  1
  P  P27  1  0.000000  0.000000  0.652371  1
  P  P28  1  0.500000  0.310040  0.615496  1
  P  P29  1  0.500000  0.689960  0.615496  1
  P  P30  1  0.000000  0.188886  0.383549  1
  P  P31  1  0.000000  0.811114  0.383549  1
  P  P32  1  0.500000  0.843192  0.892767  1
  P  P33  1  0.500000  0.156808  0.892767  1
  P  P34  1  0.000000  0.656975  0.107637  1
  P  P35  1  0.000000  0.343025  0.107637  1
