# generated using pymatgen
data_Nb3Tc6Sn2W
_symmetry_space_group_name_H-M   'P 1'
_cell_length_a   4.52065801
_cell_length_b   6.43335500
_cell_length_c   13.59891802
_cell_angle_alpha   90.00026420
_cell_angle_beta   89.99972223
_cell_angle_gamma   90.00002159
_symmetry_Int_Tables_number   1
_chemical_formula_structural   Nb3Tc6Sn2W
_chemical_formula_sum   'Nb6 Tc12 Sn4 W2'
_cell_volume   395.49730254
_cell_formula_units_Z   2
loop_
 _symmetry_equiv_pos_site_id
 _symmetry_equiv_pos_as_xyz
  1  'x, y, z'
loop_
 _atom_site_type_symbol
 _atom_site_label
 _atom_site_symmetry_multiplicity
 _atom_site_fract_x
 _atom_site_fract_y
 _atom_site_fract_z
 _atom_site_occupancy
  Nb  Nb0  1  0.999997  0.000009  0.998412  1
  Nb  Nb1  1  0.499989  0.499989  0.168260  1
  Nb  Nb2  1  0.999989  0.000008  0.335938  1
  Nb  Nb3  1  0.500000  0.499995  0.500413  1
  Nb  Nb4  1  0.000012  0.000004  0.666220  1
  Nb  Nb5  1  0.500012  0.499993  0.830729  1
  Tc  Tc6  1  0.499998  0.254337  0.005192  1
  Tc  Tc7  1  0.499999  0.745661  0.005192  1
  Tc  Tc8  1  0.999990  0.245654  0.161472  1
  Tc  Tc9  1  0.999990  0.754346  0.161472  1
  Tc  Tc10  1  0.499987  0.241798  0.324166  1
  Tc  Tc11  1  0.499987  0.758203  0.324164  1
  Tc  Tc12  1  0.000001  0.249024  0.499498  1
  Tc  Tc13  1  0.000000  0.750975  0.499499  1
  Tc  Tc14  1  0.500012  0.250999  0.667175  1
  Tc  Tc15  1  0.500013  0.749001  0.667175  1
  Tc  Tc16  1  0.000011  0.258202  0.842504  1
  Tc  Tc17  1  0.000011  0.741797  0.842504  1
  Sn  Sn18  1  0.999988  0.499993  0.332807  1
  Sn  Sn19  1  0.500001  0.000004  0.499129  1
  Sn  Sn20  1  0.000011  0.499996  0.667581  1
  Sn  Sn21  1  0.500009  0.000005  0.833808  1
  W  W22  1  0.000000  0.499997  0.000172  1
  W  W23  1  0.499990  0.000002  0.166521  1
