# generated using pymatgen
data_TiV3(GaOs3)2
_symmetry_space_group_name_H-M   'P 1'
_cell_length_a   4.28289201
_cell_length_b   6.07561800
_cell_length_c   12.91353402
_cell_angle_alpha   90.00000000
_cell_angle_beta   89.99311881
_cell_angle_gamma   90.00000000
_symmetry_Int_Tables_number   1
_chemical_formula_structural   TiV3(GaOs3)2
_chemical_formula_sum   'Ti2 V6 Ga4 Os12'
_cell_volume   336.02585280
_cell_formula_units_Z   2
loop_
 _symmetry_equiv_pos_site_id
 _symmetry_equiv_pos_as_xyz
  1  'x, y, z'
loop_
 _atom_site_type_symbol
 _atom_site_label
 _atom_site_symmetry_multiplicity
 _atom_site_fract_x
 _atom_site_fract_y
 _atom_site_fract_z
 _atom_site_occupancy
  Ti  Ti0  1  0.999993  0.499999  0.999466  1
  Ti  Ti1  1  0.499639  0.000000  0.167269  1
  V  V2  1  0.999954  0.000000  0.999056  1
  V  V3  1  0.499543  0.499999  0.167631  1
  V  V4  1  0.999511  0.000000  0.335487  1
  V  V5  1  0.500015  0.499999  0.501022  1
  V  V6  1  0.000562  0.000000  0.665617  1
  V  V7  1  0.500439  0.499999  0.831137  1
  Ga  Ga8  1  0.999670  0.499999  0.334630  1
  Ga  Ga9  1  0.500001  0.000000  0.500301  1
  Ga  Ga10  1  0.000337  0.499999  0.666342  1
  Ga  Ga11  1  0.500328  0.000000  0.832041  1
  Os  Os12  1  0.499996  0.249675  0.000299  1
  Os  Os13  1  0.499996  0.750325  0.000299  1
  Os  Os14  1  0.999690  0.250316  0.166407  1
  Os  Os15  1  0.999690  0.749683  0.166407  1
  Os  Os16  1  0.499694  0.249603  0.332427  1
  Os  Os17  1  0.499694  0.750396  0.332427  1
  Os  Os18  1  0.000000  0.248868  0.499855  1
  Os  Os19  1  0.000000  0.751133  0.499855  1
  Os  Os20  1  0.500318  0.251085  0.666763  1
  Os  Os21  1  0.500318  0.748914  0.666763  1
  Os  Os22  1  0.000303  0.250351  0.834250  1
  Os  Os23  1  0.000303  0.749648  0.834250  1
