# generated using pymatgen
data_Dy2UPt4
_symmetry_space_group_name_H-M   'P 1'
_cell_length_a   7.91259767
_cell_length_b   7.89980019
_cell_length_c   7.87240063
_cell_angle_alpha   114.62457227
_cell_angle_beta   114.01830149
_cell_angle_gamma   114.60162446
_symmetry_Int_Tables_number   1
_chemical_formula_structural   Dy2UPt4
_chemical_formula_sum   'Dy4 U2 Pt8'
_cell_volume   289.53558782
_cell_formula_units_Z   2
loop_
 _symmetry_equiv_pos_site_id
 _symmetry_equiv_pos_as_xyz
  1  'x, y, z'
loop_
 _atom_site_type_symbol
 _atom_site_label
 _atom_site_symmetry_multiplicity
 _atom_site_fract_x
 _atom_site_fract_y
 _atom_site_fract_z
 _atom_site_occupancy
  Dy  Dy0  1  0.599085  0.723650  0.974031  1
  Dy  Dy1  1  0.018419  0.399873  0.277603  1
  Dy  Dy2  1  0.273583  0.022534  0.408384  1
  Dy  Dy3  1  0.407819  0.279262  0.015478  1
  U  U4  1  0.968641  0.592113  0.719978  1
  U  U5  1  0.716377  0.965914  0.595949  1
  Pt  Pt6  1  0.009707  0.004231  0.997602  1
  Pt  Pt7  1  0.501290  0.498032  0.490851  1
  Pt  Pt8  1  0.937341  0.771670  0.460017  1
  Pt  Pt9  1  0.453018  0.936424  0.769134  1
  Pt  Pt10  1  0.781316  0.448110  0.930632  1
  Pt  Pt11  1  0.047949  0.227720  0.560257  1
  Pt  Pt12  1  0.549807  0.065046  0.229353  1
  Pt  Pt13  1  0.235648  0.565419  0.070730  1
