# generated using pymatgen
data_Sr(BiPd2)2
_symmetry_space_group_name_H-M   'P 1'
_cell_length_a   7.41559873
_cell_length_b   7.41559897
_cell_length_c   7.41559889
_cell_angle_alpha   111.00133967
_cell_angle_beta   111.00134718
_cell_angle_gamma   106.45250195
_symmetry_Int_Tables_number   1
_chemical_formula_structural   Sr(BiPd2)2
_chemical_formula_sum   'Sr2 Bi4 Pd8'
_cell_volume   313.26923056
_cell_formula_units_Z   2
loop_
 _symmetry_equiv_pos_site_id
 _symmetry_equiv_pos_as_xyz
  1  'x, y, z'
loop_
 _atom_site_type_symbol
 _atom_site_label
 _atom_site_symmetry_multiplicity
 _atom_site_fract_x
 _atom_site_fract_y
 _atom_site_fract_z
 _atom_site_occupancy
  Sr  Sr0  1  0.000000  0.000000  0.000000  1
  Sr  Sr1  1  0.500000  0.500000  0.000000  1
  Bi  Bi2  1  0.597190  0.402810  0.500000  1
  Bi  Bi3  1  0.902810  0.097190  0.500000  1
  Bi  Bi4  1  0.097190  0.597190  0.194380  1
  Bi  Bi5  1  0.402810  0.902810  0.805620  1
  Pd  Pd6  1  0.939752  0.730789  0.499559  1
  Pd  Pd7  1  0.231231  0.440193  0.500441  1
  Pd  Pd8  1  0.440193  0.939752  0.208962  1
  Pd  Pd9  1  0.730789  0.231231  0.791038  1
  Pd  Pd10  1  0.559807  0.768769  0.499559  1
  Pd  Pd11  1  0.269211  0.060248  0.500441  1
  Pd  Pd12  1  0.060248  0.559807  0.791038  1
  Pd  Pd13  1  0.768769  0.269211  0.208962  1
