# generated using pymatgen
data_Y2Tm2Al17GeIr6
_symmetry_space_group_name_H-M   'P 1'
_cell_length_a   7.54547603
_cell_length_b   7.54547437
_cell_length_c   9.45490300
_cell_angle_alpha   90.00000000
_cell_angle_beta   90.00000000
_cell_angle_gamma   119.59799125
_symmetry_Int_Tables_number   1
_chemical_formula_structural   Y2Tm2Al17GeIr6
_chemical_formula_sum   'Y2 Tm2 Al17 Ge1 Ir6'
_cell_volume   468.06478956
_cell_formula_units_Z   1
loop_
 _symmetry_equiv_pos_site_id
 _symmetry_equiv_pos_as_xyz
  1  'x, y, z'
loop_
 _atom_site_type_symbol
 _atom_site_label
 _atom_site_symmetry_multiplicity
 _atom_site_fract_x
 _atom_site_fract_y
 _atom_site_fract_z
 _atom_site_occupancy
  Y  Y0  1  0.994557  0.676658  0.250000  1
  Y  Y1  1  0.676658  0.994557  0.250000  1
  Tm  Tm2  1  0.003274  0.328303  0.750000  1
  Tm  Tm3  1  0.328303  0.003274  0.750000  1
  Al  Al4  1  0.872293  0.872293  0.750000  1
  Al  Al5  1  0.000714  0.338032  0.072987  1
  Al  Al6  1  0.998573  0.664596  0.923686  1
  Al  Al7  1  0.998573  0.664596  0.576314  1
  Al  Al8  1  0.338032  0.000714  0.427013  1
  Al  Al9  1  0.000714  0.338032  0.427013  1
  Al  Al10  1  0.664596  0.998573  0.576314  1
  Al  Al11  1  0.664596  0.998573  0.923686  1
  Al  Al12  1  0.338032  0.000714  0.072987  1
  Al  Al13  1  0.331878  0.331878  0.560470  1
  Al  Al14  1  0.663228  0.663228  0.449442  1
  Al  Al15  1  0.663228  0.663228  0.050558  1
  Al  Al16  1  0.331878  0.331878  0.939530  1
  Al  Al17  1  0.337283  0.554081  0.250000  1
  Al  Al18  1  0.660769  0.450233  0.750000  1
  Al  Al19  1  0.554081  0.337283  0.250000  1
  Al  Al20  1  0.450233  0.660769  0.750000  1
  Ge  Ge21  1  0.137138  0.137138  0.250000  1
  Ir  Ir22  1  0.669487  0.326332  0.999255  1
  Ir  Ir23  1  0.326332  0.669487  0.999255  1
  Ir  Ir24  1  0.326332  0.669487  0.500745  1
  Ir  Ir25  1  0.669487  0.326332  0.500745  1
  Ir  Ir26  1  0.999865  0.999865  0.000119  1
  Ir  Ir27  1  0.999865  0.999865  0.499881  1
