# generated using pymatgen
data_Hf3ReTc2Ge3
_symmetry_space_group_name_H-M   'P 1'
_cell_length_a   7.07476902
_cell_length_b   7.07476797
_cell_length_c   3.44894100
_cell_angle_alpha   90.00000000
_cell_angle_beta   90.00000000
_cell_angle_gamma   119.94620036
_symmetry_Int_Tables_number   1
_chemical_formula_structural   Hf3ReTc2Ge3
_chemical_formula_sum   'Hf3 Re1 Tc2 Ge3'
_cell_volume   149.58086757
_cell_formula_units_Z   1
loop_
 _symmetry_equiv_pos_site_id
 _symmetry_equiv_pos_as_xyz
  1  'x, y, z'
loop_
 _atom_site_type_symbol
 _atom_site_label
 _atom_site_symmetry_multiplicity
 _atom_site_fract_x
 _atom_site_fract_y
 _atom_site_fract_z
 _atom_site_occupancy
  Hf  Hf0  1  0.402244  0.001264  0.500000  1
  Hf  Hf1  1  0.001264  0.402244  0.500000  1
  Hf  Hf2  1  0.595750  0.595750  0.500000  1
  Re  Re3  1  0.258316  0.258316  0.000000  1
  Tc  Tc4  1  0.742654  0.000689  0.000000  1
  Tc  Tc5  1  0.000689  0.742654  0.000000  1
  Ge  Ge6  1  0.333793  0.668288  0.000000  1
  Ge  Ge7  1  0.668288  0.333793  0.000000  1
  Ge  Ge8  1  0.997001  0.997001  0.500000  1
