# generated using pymatgen
data_LiAg2B5(PO7)2
_symmetry_space_group_name_H-M   'P 1'
_cell_length_a   9.36283200
_cell_length_b   8.53061107
_cell_length_c   8.54102750
_cell_angle_alpha   63.68444031
_cell_angle_beta   90.00000000
_cell_angle_gamma   90.00000000
_symmetry_Int_Tables_number   1
_chemical_formula_structural   LiAg2B5(PO7)2
_chemical_formula_sum   'Li2 Ag4 B10 P4 O28'
_cell_volume   611.48091009
_cell_formula_units_Z   2
loop_
 _symmetry_equiv_pos_site_id
 _symmetry_equiv_pos_as_xyz
  1  'x, y, z'
loop_
 _atom_site_type_symbol
 _atom_site_label
 _atom_site_symmetry_multiplicity
 _atom_site_fract_x
 _atom_site_fract_y
 _atom_site_fract_z
 _atom_site_occupancy
  Li  Li0  1  0.250000  0.983827  0.717853  1
  Li  Li1  1  0.750000  0.016173  0.282147  1
  Ag  Ag2  1  0.250000  0.400261  0.547321  1
  Ag  Ag3  1  0.750000  0.599739  0.452679  1
  Ag  Ag4  1  0.250000  0.205663  0.929687  1
  Ag  Ag5  1  0.750000  0.794337  0.070313  1
  B  B6  1  0.250000  0.750053  0.545981  1
  B  B7  1  0.750000  0.249947  0.454019  1
  B  B8  1  0.250000  0.716921  0.108581  1
  B  B9  1  0.750000  0.283079  0.891419  1
  B  B10  1  0.250000  0.057594  0.341288  1
  B  B11  1  0.750000  0.942406  0.658712  1
  B  B12  1  0.250000  0.600965  0.885564  1
  B  B13  1  0.750000  0.399035  0.114436  1
  B  B14  1  0.250000  0.393459  0.196231  1
  B  B15  1  0.750000  0.606541  0.803769  1
  P  P16  1  0.060839  0.850862  0.275982  1
  P  P17  1  0.560839  0.149138  0.724018  1
  P  P18  1  0.939161  0.149138  0.724018  1
  P  P19  1  0.439161  0.850862  0.275982  1
  O  O20  1  0.118677  0.714370  0.457984  1
  O  O21  1  0.618677  0.285630  0.542016  1
  O  O22  1  0.881323  0.285630  0.542016  1
  O  O23  1  0.381323  0.714370  0.457984  1
  O  O24  1  0.620314  0.964934  0.756661  1
  O  O25  1  0.120314  0.035066  0.243339  1
  O  O26  1  0.379686  0.035066  0.243339  1
  O  O27  1  0.879686  0.964934  0.756661  1
  O  O28  1  0.118135  0.803844  0.130106  1
  O  O29  1  0.618135  0.196156  0.869894  1
  O  O30  1  0.881865  0.196156  0.869894  1
  O  O31  1  0.381865  0.803844  0.130106  1
  O  O32  1  0.600827  0.855786  0.268925  1
  O  O33  1  0.100827  0.144214  0.731075  1
  O  O34  1  0.399173  0.144214  0.731075  1
  O  O35  1  0.899173  0.855786  0.268925  1
  O  O36  1  0.250000  0.614060  0.722004  1
  O  O37  1  0.750000  0.385940  0.277996  1
  O  O38  1  0.250000  0.927135  0.521212  1
  O  O39  1  0.750000  0.072865  0.478788  1
  O  O40  1  0.250000  0.739314  0.926523  1
  O  O41  1  0.750000  0.260686  0.073477  1
  O  O42  1  0.250000  0.532377  0.236162  1
  O  O43  1  0.750000  0.467623  0.763838  1
  O  O44  1  0.250000  0.230404  0.328998  1
  O  O45  1  0.750000  0.769596  0.671002  1
  O  O46  1  0.250000  0.427564  0.019848  1
  O  O47  1  0.750000  0.572436  0.980152  1
