# generated using pymatgen
data_Tm17Lu3(Ir3Os)3
_symmetry_space_group_name_H-M   'P 1'
_cell_length_a   10.70326301
_cell_length_b   10.70316601
_cell_length_c   6.32955300
_cell_angle_alpha   90.00000000
_cell_angle_beta   90.00000000
_cell_angle_gamma   90.00403627
_symmetry_Int_Tables_number   1
_chemical_formula_structural   Tm17Lu3(Ir3Os)3
_chemical_formula_sum   'Tm17 Lu3 Ir9 Os3'
_cell_volume   725.10599931
_cell_formula_units_Z   1
loop_
 _symmetry_equiv_pos_site_id
 _symmetry_equiv_pos_as_xyz
  1  'x, y, z'
loop_
 _atom_site_type_symbol
 _atom_site_label
 _atom_site_symmetry_multiplicity
 _atom_site_fract_x
 _atom_site_fract_y
 _atom_site_fract_z
 _atom_site_occupancy
  Tm  Tm0  1  0.293522  0.086011  0.376085  1
  Tm  Tm1  1  0.293542  0.914168  0.876221  1
  Tm  Tm2  1  0.706458  0.085832  0.876221  1
  Tm  Tm3  1  0.706478  0.913989  0.376085  1
  Tm  Tm4  1  0.585808  0.793589  0.876308  1
  Tm  Tm5  1  0.586054  0.206316  0.376090  1
  Tm  Tm6  1  0.413946  0.793684  0.376090  1
  Tm  Tm7  1  0.414192  0.206411  0.876308  1
  Tm  Tm8  1  0.208156  0.413486  0.625543  1
  Tm  Tm9  1  0.207782  0.586642  0.121349  1
  Tm  Tm10  1  0.792218  0.413358  0.121349  1
  Tm  Tm11  1  0.791844  0.586514  0.625543  1
  Tm  Tm12  1  0.913356  0.707823  0.121402  1
  Tm  Tm13  1  0.913535  0.291672  0.625523  1
  Tm  Tm14  1  0.086465  0.708328  0.625523  1
  Tm  Tm15  1  0.086644  0.292177  0.121402  1
  Tm  Tm16  1  0.500000  0.500000  0.499895  1
  Lu  Lu17  1  0.000000  0.000000  0.499973  1
  Lu  Lu18  1  0.000000  0.000000  0.000034  1
  Lu  Lu19  1  0.500000  0.500000  0.000061  1
  Ir  Ir20  1  0.848662  0.152676  0.250338  1
  Ir  Ir21  1  0.848415  0.847603  0.749788  1
  Ir  Ir22  1  0.151585  0.152397  0.749788  1
  Ir  Ir23  1  0.151338  0.847324  0.250338  1
  Ir  Ir24  1  0.652684  0.348137  0.750258  1
  Ir  Ir25  1  0.652968  0.651633  0.249856  1
  Ir  Ir26  1  0.347032  0.348367  0.249856  1
  Ir  Ir27  1  0.347316  0.651863  0.750258  1
  Ir  Ir28  1  0.000000  0.500000  0.378081  1
  Os  Os29  1  0.500000  0.000000  0.124115  1
  Os  Os30  1  0.500000  0.000000  0.623952  1
  Os  Os31  1  0.000000  0.500000  0.876368  1
