# generated using pymatgen
data_Yb4Gd2Al17Si7Os8
_symmetry_space_group_name_H-M   'P 1'
_cell_length_a   8.69467091
_cell_length_b   8.67549269
_cell_length_c   9.58936600
_cell_angle_alpha   90.00000000
_cell_angle_beta   90.00000000
_cell_angle_gamma   120.20403408
_symmetry_Int_Tables_number   1
_chemical_formula_structural   Yb4Gd2Al17Si7Os8
_chemical_formula_sum   'Yb4 Gd2 Al17 Si7 Os8'
_cell_volume   625.13130079
_cell_formula_units_Z   1
loop_
 _symmetry_equiv_pos_site_id
 _symmetry_equiv_pos_as_xyz
  1  'x, y, z'
loop_
 _atom_site_type_symbol
 _atom_site_label
 _atom_site_symmetry_multiplicity
 _atom_site_fract_x
 _atom_site_fract_y
 _atom_site_fract_z
 _atom_site_occupancy
  Yb  Yb0  1  0.192481  0.387923  0.250000  1
  Yb  Yb1  1  0.805897  0.611780  0.750000  1
  Yb  Yb2  1  0.390592  0.191914  0.750000  1
  Yb  Yb3  1  0.800515  0.192501  0.750000  1
  Gd  Gd4  1  0.613714  0.808506  0.250000  1
  Gd  Gd5  1  0.193936  0.805670  0.250000  1
  Al  Al6  1  0.165829  0.332595  0.576365  1
  Al  Al7  1  0.833340  0.669383  0.421652  1
  Al  Al8  1  0.668704  0.834367  0.577142  1
  Al  Al9  1  0.833340  0.669383  0.078348  1
  Al  Al10  1  0.331625  0.166962  0.423979  1
  Al  Al11  1  0.165829  0.332595  0.923635  1
  Al  Al12  1  0.165388  0.833473  0.576213  1
  Al  Al13  1  0.331625  0.166962  0.076021  1
  Al  Al14  1  0.834952  0.165394  0.423444  1
  Al  Al15  1  0.668704  0.834367  0.922858  1
  Al  Al16  1  0.834952  0.165394  0.076556  1
  Al  Al17  1  0.165388  0.833473  0.923787  1
  Al  Al18  1  0.125651  0.565665  0.750000  1
  Al  Al19  1  0.563108  0.433257  0.250000  1
  Al  Al20  1  0.438538  0.566219  0.750000  1
  Al  Al21  1  0.000412  0.000362  0.250000  1
  Al  Al22  1  0.000330  0.001764  0.750000  1
  Si  Si23  1  0.332944  0.663297  0.038833  1
  Si  Si24  1  0.666068  0.335245  0.963815  1
  Si  Si25  1  0.666068  0.335245  0.536185  1
  Si  Si26  1  0.332944  0.663297  0.461167  1
  Si  Si27  1  0.566225  0.127102  0.250000  1
  Si  Si28  1  0.435055  0.871859  0.750000  1
  Si  Si29  1  0.873751  0.431579  0.250000  1
  Os  Os30  1  0.500805  0.000615  0.002626  1
  Os  Os31  1  0.998051  0.499613  0.008161  1
  Os  Os32  1  0.500805  0.000615  0.497374  1
  Os  Os33  1  0.501400  0.500457  0.001444  1
  Os  Os34  1  0.998051  0.499613  0.491839  1
  Os  Os35  1  0.501400  0.500457  0.498556  1
  Os  Os36  1  0.000793  0.000548  0.998495  1
  Os  Os37  1  0.000793  0.000548  0.501505  1
