# generated using pymatgen
data_TbEr5(AlAu)6
_symmetry_space_group_name_H-M   'P 1'
_cell_length_a   7.38231217
_cell_length_b   7.38245179
_cell_length_c   7.93929300
_cell_angle_alpha   90.00000003
_cell_angle_beta   89.99962622
_cell_angle_gamma   120.05794081
_symmetry_Int_Tables_number   1
_chemical_formula_structural   TbEr5(AlAu)6
_chemical_formula_sum   'Tb1 Er5 Al6 Au6'
_cell_volume   374.49983291
_cell_formula_units_Z   1
loop_
 _symmetry_equiv_pos_site_id
 _symmetry_equiv_pos_as_xyz
  1  'x, y, z'
loop_
 _atom_site_type_symbol
 _atom_site_label
 _atom_site_symmetry_multiplicity
 _atom_site_fract_x
 _atom_site_fract_y
 _atom_site_fract_z
 _atom_site_occupancy
  Tb  Tb0  1  0.414423  0.408953  0.249999  1
  Er  Er1  1  0.586030  0.994930  0.750016  1
  Er  Er2  1  0.004958  0.591009  0.749997  1
  Er  Er3  1  0.409441  0.414415  0.749997  1
  Er  Er4  1  0.995387  0.586693  0.249990  1
  Er  Er5  1  0.591794  0.005440  0.250006  1
  Al  Al6  1  0.752266  0.752511  0.999628  1
  Al  Al7  1  0.247648  0.999253  0.999223  1
  Al  Al8  1  0.999618  0.247781  0.999339  1
  Al  Al9  1  0.752264  0.752511  0.500372  1
  Al  Al10  1  0.247654  0.999255  0.500777  1
  Al  Al11  1  0.999614  0.247783  0.500660  1
  Au  Au12  1  0.998951  0.998901  0.750006  1
  Au  Au13  1  0.998781  0.998754  0.250003  1
  Au  Au14  1  0.667747  0.332977  0.991967  1
  Au  Au15  1  0.667744  0.332982  0.508025  1
  Au  Au16  1  0.332842  0.667927  0.494379  1
  Au  Au17  1  0.332836  0.667925  0.005615  1
