# generated using pymatgen
data_AcHo(BIr)8
_symmetry_space_group_name_H-M   'P 1'
_cell_length_a   7.72983400
_cell_length_b   7.72983400
_cell_length_c   3.99882400
_cell_angle_alpha   90.00000000
_cell_angle_beta   90.00000000
_cell_angle_gamma   90.00000000
_symmetry_Int_Tables_number   1
_chemical_formula_structural   AcHo(BIr)8
_chemical_formula_sum   'Ac1 Ho1 B8 Ir8'
_cell_volume   238.93106828
_cell_formula_units_Z   1
loop_
 _symmetry_equiv_pos_site_id
 _symmetry_equiv_pos_as_xyz
  1  'x, y, z'
loop_
 _atom_site_type_symbol
 _atom_site_label
 _atom_site_symmetry_multiplicity
 _atom_site_fract_x
 _atom_site_fract_y
 _atom_site_fract_z
 _atom_site_occupancy
  Ac  Ac0  1  0.000000  0.000000  0.500000  1
  Ho  Ho1  1  0.500000  0.500000  0.000000  1
  B  B2  1  0.656306  0.773917  0.613146  1
  B  B3  1  0.159703  0.284583  0.896642  1
  B  B4  1  0.284583  0.840297  0.103358  1
  B  B5  1  0.715417  0.159703  0.103358  1
  B  B6  1  0.343694  0.226083  0.613146  1
  B  B7  1  0.840297  0.715417  0.896642  1
  B  B8  1  0.226083  0.656306  0.386854  1
  B  B9  1  0.773917  0.343694  0.386854  1
  Ir  Ir10  1  0.346037  0.111173  0.109341  1
  Ir  Ir11  1  0.653963  0.888827  0.109341  1
  Ir  Ir12  1  0.607575  0.165090  0.608290  1
  Ir  Ir13  1  0.111173  0.653963  0.890659  1
  Ir  Ir14  1  0.165090  0.392425  0.391710  1
  Ir  Ir15  1  0.834910  0.607575  0.391710  1
  Ir  Ir16  1  0.888827  0.346037  0.890659  1
  Ir  Ir17  1  0.392425  0.834910  0.608290  1
