# generated using pymatgen
data_LaEu5Sc2Bi3Sb7
_symmetry_space_group_name_H-M   'P 1'
_cell_length_a   9.76633783
_cell_length_b   9.70742684
_cell_length_c   6.45016060
_cell_angle_alpha   89.91320962
_cell_angle_beta   89.97262140
_cell_angle_gamma   119.94318534
_symmetry_Int_Tables_number   1
_chemical_formula_structural   LaEu5Sc2Bi3Sb7
_chemical_formula_sum   'La1 Eu5 Sc2 Bi3 Sb7'
_cell_volume   529.88843371
_cell_formula_units_Z   1
loop_
 _symmetry_equiv_pos_site_id
 _symmetry_equiv_pos_as_xyz
  1  'x, y, z'
loop_
 _atom_site_type_symbol
 _atom_site_label
 _atom_site_symmetry_multiplicity
 _atom_site_fract_x
 _atom_site_fract_y
 _atom_site_fract_z
 _atom_site_occupancy
  La  La0  1  0.005603  0.381238  0.747158  1
  Eu  Eu1  1  0.006078  0.623999  0.253365  1
  Eu  Eu2  1  0.378834  0.382495  0.253381  1
  Eu  Eu3  1  0.376892  0.995692  0.746504  1
  Eu  Eu4  1  0.616605  0.624366  0.746474  1
  Eu  Eu5  1  0.615139  0.991762  0.253380  1
  Sc  Sc6  1  0.999917  0.999511  0.000451  1
  Sc  Sc7  1  0.999942  0.999471  0.499304  1
  Bi  Bi8  1  0.669445  0.336281  0.999070  1
  Bi  Bi9  1  0.331938  0.666831  0.999409  1
  Bi  Bi10  1  0.669489  0.335959  0.500769  1
  Sb  Sb11  1  0.997419  0.258126  0.248544  1
  Sb  Sb12  1  0.330737  0.665815  0.501747  1
  Sb  Sb13  1  0.259250  0.256150  0.750828  1
  Sb  Sb14  1  0.743107  0.002341  0.750799  1
  Sb  Sb15  1  0.997050  0.738067  0.751076  1
  Sb  Sb16  1  0.741758  0.739002  0.248928  1
  Sb  Sb17  1  0.260796  0.002893  0.248813  1
