# generated using pymatgen
data_KCuPS4
_symmetry_space_group_name_H-M   'P 1'
_cell_length_a   8.51515600
_cell_length_b   8.51515600
_cell_length_c   11.08855800
_cell_angle_alpha   90.00000000
_cell_angle_beta   90.00000000
_cell_angle_gamma   90.00000000
_symmetry_Int_Tables_number   1
_chemical_formula_structural   KCuPS4
_chemical_formula_sum   'K4 Cu4 P4 S16'
_cell_volume   804.00785174
_cell_formula_units_Z   4
loop_
 _symmetry_equiv_pos_site_id
 _symmetry_equiv_pos_as_xyz
  1  'x, y, z'
loop_
 _atom_site_type_symbol
 _atom_site_label
 _atom_site_symmetry_multiplicity
 _atom_site_fract_x
 _atom_site_fract_y
 _atom_site_fract_z
 _atom_site_occupancy
  K  K0  1  0.000000  0.500000  0.250000  1
  K  K1  1  0.500000  0.000000  0.750000  1
  K  K2  1  0.500000  0.000000  0.250000  1
  K  K3  1  0.000000  0.500000  0.750000  1
  Cu  Cu4  1  0.500000  0.500000  0.500000  1
  Cu  Cu5  1  0.000000  0.000000  0.000000  1
  Cu  Cu6  1  0.000000  0.000000  0.500000  1
  Cu  Cu7  1  0.500000  0.500000  0.000000  1
  P  P8  1  0.249812  0.750188  0.500000  1
  P  P9  1  0.750188  0.249812  0.500000  1
  P  P10  1  0.250188  0.250188  0.000000  1
  P  P11  1  0.749812  0.749812  0.000000  1
  S  S12  1  0.272311  0.009811  0.000000  1
  S  S13  1  0.990189  0.727689  0.000000  1
  S  S14  1  0.509811  0.227689  0.500000  1
  S  S15  1  0.009811  0.272311  0.000000  1
  S  S16  1  0.490189  0.772311  0.500000  1
  S  S17  1  0.858168  0.141832  0.643228  1
  S  S18  1  0.727689  0.990189  0.000000  1
  S  S19  1  0.358168  0.358168  0.143228  1
  S  S20  1  0.227689  0.509811  0.500000  1
  S  S21  1  0.858168  0.141832  0.356772  1
  S  S22  1  0.772311  0.490189  0.500000  1
  S  S23  1  0.358168  0.358168  0.856772  1
  S  S24  1  0.641832  0.641832  0.856772  1
  S  S25  1  0.641832  0.641832  0.143228  1
  S  S26  1  0.141832  0.858168  0.356772  1
  S  S27  1  0.141832  0.858168  0.643228  1
