# generated using pymatgen
data_Ho3Zn3(Ni5B)2
_symmetry_space_group_name_H-M   'P 1'
_cell_length_a   5.05562500
_cell_length_b   5.05562553
_cell_length_c   10.81455100
_cell_angle_alpha   90.00000000
_cell_angle_beta   90.00000000
_cell_angle_gamma   120.00000311
_symmetry_Int_Tables_number   1
_chemical_formula_structural   Ho3Zn3(Ni5B)2
_chemical_formula_sum   'Ho3 Zn3 Ni10 B2'
_cell_volume   239.38055073
_cell_formula_units_Z   1
loop_
 _symmetry_equiv_pos_site_id
 _symmetry_equiv_pos_as_xyz
  1  'x, y, z'
loop_
 _atom_site_type_symbol
 _atom_site_label
 _atom_site_symmetry_multiplicity
 _atom_site_fract_x
 _atom_site_fract_y
 _atom_site_fract_z
 _atom_site_occupancy
  Ho  Ho0  1  0.000000  0.000000  0.998609  1
  Ho  Ho1  1  0.000000  0.000000  0.656145  1
  Ho  Ho2  1  0.000000  0.000000  0.329322  1
  Zn  Zn3  1  0.666667  0.333333  0.685446  1
  Zn  Zn4  1  0.333333  0.666667  0.685399  1
  Zn  Zn5  1  0.333333  0.666667  0.317081  1
  Ni  Ni6  1  0.501364  0.498636  0.500145  1
  Ni  Ni7  1  0.501364  0.002728  0.500145  1
  Ni  Ni8  1  0.997272  0.498636  0.500145  1
  Ni  Ni9  1  0.666667  0.333333  0.318566  1
  Ni  Ni10  1  0.499856  0.500144  0.872254  1
  Ni  Ni11  1  0.499856  0.999710  0.872254  1
  Ni  Ni12  1  0.000290  0.500144  0.872254  1
  Ni  Ni13  1  0.501441  0.498559  0.130201  1
  Ni  Ni14  1  0.501441  0.002883  0.130201  1
  Ni  Ni15  1  0.997117  0.498559  0.130201  1
  B  B16  1  0.666667  0.333333  0.001002  1
  B  B17  1  0.333333  0.666667  0.000626  1
