# generated using pymatgen
data_Li6Dy2YIn3
_symmetry_space_group_name_H-M   'P 1'
_cell_length_a   4.85707800
_cell_length_b   6.84090600
_cell_length_c   14.52239200
_cell_angle_alpha   90.00000000
_cell_angle_beta   90.00000000
_cell_angle_gamma   90.00000000
_symmetry_Int_Tables_number   1
_chemical_formula_structural   Li6Dy2YIn3
_chemical_formula_sum   'Li12 Dy4 Y2 In6'
_cell_volume   482.53281829
_cell_formula_units_Z   2
loop_
 _symmetry_equiv_pos_site_id
 _symmetry_equiv_pos_as_xyz
  1  'x, y, z'
loop_
 _atom_site_type_symbol
 _atom_site_label
 _atom_site_symmetry_multiplicity
 _atom_site_fract_x
 _atom_site_fract_y
 _atom_site_fract_z
 _atom_site_occupancy
  Li  Li0  1  0.500065  0.250171  0.999945  1
  Li  Li1  1  0.500065  0.749829  0.999945  1
  Li  Li2  1  0.000657  0.249240  0.166462  1
  Li  Li3  1  0.000657  0.750759  0.166462  1
  Li  Li4  1  0.500653  0.250758  0.333538  1
  Li  Li5  1  0.500653  0.749241  0.333538  1
  Li  Li6  1  0.000065  0.249828  0.500055  1
  Li  Li7  1  0.000065  0.750171  0.500055  1
  Li  Li8  1  0.499426  0.251078  0.666658  1
  Li  Li9  1  0.499426  0.748921  0.666658  1
  Li  Li10  1  0.999428  0.248920  0.833341  1
  Li  Li11  1  0.999428  0.751079  0.833341  1
  Dy  Dy12  1  0.999440  0.000000  0.999990  1
  Dy  Dy13  1  0.500896  0.500000  0.166513  1
  Dy  Dy14  1  0.000894  0.000000  0.333487  1
  Dy  Dy15  1  0.499440  0.500000  0.500010  1
  Y  Y16  1  0.999177  0.000000  0.666459  1
  Y  Y17  1  0.499177  0.500000  0.833542  1
  In  In18  1  0.000498  0.500000  0.000035  1
  In  In19  1  0.500806  0.000000  0.166269  1
  In  In20  1  0.000803  0.500000  0.333731  1
  In  In21  1  0.500498  0.000000  0.499965  1
  In  In22  1  0.998894  0.500000  0.666447  1
  In  In23  1  0.498893  0.000000  0.833552  1
