# generated using pymatgen
data_La3PrAl18(Pt2Rh)2
_symmetry_space_group_name_H-M   'P 1'
_cell_length_a   7.70541414
_cell_length_b   7.70602597
_cell_length_c   9.62574600
_cell_angle_alpha   90.00000000
_cell_angle_beta   90.00000000
_cell_angle_gamma   119.59421574
_symmetry_Int_Tables_number   1
_chemical_formula_structural   La3PrAl18(Pt2Rh)2
_chemical_formula_sum   'La3 Pr1 Al18 Pt4 Rh2'
_cell_volume   496.99590401
_cell_formula_units_Z   1
loop_
 _symmetry_equiv_pos_site_id
 _symmetry_equiv_pos_as_xyz
  1  'x, y, z'
loop_
 _atom_site_type_symbol
 _atom_site_label
 _atom_site_symmetry_multiplicity
 _atom_site_fract_x
 _atom_site_fract_y
 _atom_site_fract_z
 _atom_site_occupancy
  La  La0  1  0.993995  0.666606  0.750000  1
  La  La1  1  0.005932  0.333297  0.250000  1
  La  La2  1  0.666654  0.994006  0.750000  1
  Pr  Pr3  1  0.333550  0.006192  0.250000  1
  Al  Al4  1  0.129156  0.128931  0.750000  1
  Al  Al5  1  0.872052  0.871542  0.250000  1
  Al  Al6  1  0.002374  0.330271  0.573454  1
  Al  Al7  1  0.998296  0.670420  0.426211  1
  Al  Al8  1  0.998296  0.670420  0.073789  1
  Al  Al9  1  0.330240  0.002233  0.927019  1
  Al  Al10  1  0.002374  0.330271  0.926546  1
  Al  Al11  1  0.669075  0.997629  0.073752  1
  Al  Al12  1  0.669075  0.997629  0.426248  1
  Al  Al13  1  0.330240  0.002233  0.572981  1
  Al  Al14  1  0.331297  0.330727  0.050108  1
  Al  Al15  1  0.668663  0.668677  0.950425  1
  Al  Al16  1  0.668663  0.668677  0.549575  1
  Al  Al17  1  0.331297  0.330727  0.449892  1
  Al  Al18  1  0.340955  0.542759  0.750000  1
  Al  Al19  1  0.658517  0.456353  0.250000  1
  Al  Al20  1  0.542459  0.340738  0.750000  1
  Al  Al21  1  0.457028  0.659672  0.250000  1
  Pt  Pt22  1  0.670769  0.328963  0.499991  1
  Pt  Pt23  1  0.329074  0.670999  0.499998  1
  Pt  Pt24  1  0.329074  0.670999  0.000002  1
  Pt  Pt25  1  0.670769  0.328963  0.000009  1
  Rh  Rh26  1  0.000064  0.000035  0.499981  1
  Rh  Rh27  1  0.000064  0.000035  0.000019  1
