# generated using pymatgen
data_Nd2YEr5(WO6)4
_symmetry_space_group_name_H-M   'P 1'
_cell_length_a   5.43031400
_cell_length_b   7.74503384
_cell_length_c   11.50033536
_cell_angle_alpha   75.52286900
_cell_angle_beta   90.00000000
_cell_angle_gamma   90.00000000
_symmetry_Int_Tables_number   1
_chemical_formula_structural   Nd2YEr5(WO6)4
_chemical_formula_sum   'Nd2 Y1 Er5 W4 O24'
_cell_volume   468.32263858
_cell_formula_units_Z   1
loop_
 _symmetry_equiv_pos_site_id
 _symmetry_equiv_pos_as_xyz
  1  'x, y, z'
loop_
 _atom_site_type_symbol
 _atom_site_label
 _atom_site_symmetry_multiplicity
 _atom_site_fract_x
 _atom_site_fract_y
 _atom_site_fract_z
 _atom_site_occupancy
  Nd  Nd0  1  0.685360  0.500000  0.250000  1
  Nd  Nd1  1  0.314354  0.500000  0.750000  1
  Y  Y2  1  0.743120  0.000000  0.250000  1
  Er  Er3  1  0.185105  0.203404  0.423049  1
  Er  Er4  1  0.185105  0.796596  0.076951  1
  Er  Er5  1  0.815136  0.796766  0.577419  1
  Er  Er6  1  0.815136  0.203234  0.922581  1
  Er  Er7  1  0.257346  0.000000  0.750000  1
  W  W8  1  0.254527  0.272444  0.115515  1
  W  W9  1  0.254527  0.727556  0.384485  1
  W  W10  1  0.745375  0.728210  0.884196  1
  W  W11  1  0.745375  0.271790  0.615804  1
  O  O12  1  0.454346  0.205154  0.273919  1
  O  O13  1  0.454346  0.794846  0.226081  1
  O  O14  1  0.543832  0.796334  0.726100  1
  O  O15  1  0.543832  0.203666  0.773900  1
  O  O16  1  0.044947  0.058286  0.103115  1
  O  O17  1  0.044947  0.941714  0.396885  1
  O  O18  1  0.957065  0.942044  0.895858  1
  O  O19  1  0.957065  0.057956  0.604142  1
  O  O20  1  0.986006  0.280682  0.230810  1
  O  O21  1  0.986006  0.719318  0.269190  1
  O  O22  1  0.014289  0.720145  0.769065  1
  O  O23  1  0.014289  0.279855  0.730935  1
  O  O24  1  0.854411  0.358727  0.453974  1
  O  O25  1  0.854411  0.641273  0.046026  1
  O  O26  1  0.145239  0.640831  0.546215  1
  O  O27  1  0.145239  0.359169  0.953785  1
  O  O28  1  0.651518  0.507395  0.612873  1
  O  O29  1  0.651518  0.492605  0.887127  1
  O  O30  1  0.348703  0.492207  0.387353  1
  O  O31  1  0.348703  0.507793  0.112647  1
  O  O32  1  0.463132  0.154667  0.569687  1
  O  O33  1  0.463132  0.845333  0.930313  1
  O  O34  1  0.536279  0.844460  0.431155  1
  O  O35  1  0.536279  0.155540  0.068845  1
