# generated using pymatgen
data_DyTm3Co5(Ni3B2)3
_symmetry_space_group_name_H-M   'P 1'
_cell_length_a   4.95192633
_cell_length_b   4.95192519
_cell_length_c   13.00887500
_cell_angle_alpha   90.00000000
_cell_angle_beta   90.00000000
_cell_angle_gamma   119.75238568
_symmetry_Int_Tables_number   1
_chemical_formula_structural   DyTm3Co5(Ni3B2)3
_chemical_formula_sum   'Dy1 Tm3 Co5 Ni9 B6'
_cell_volume   276.94711385
_cell_formula_units_Z   1
loop_
 _symmetry_equiv_pos_site_id
 _symmetry_equiv_pos_as_xyz
  1  'x, y, z'
loop_
 _atom_site_type_symbol
 _atom_site_label
 _atom_site_symmetry_multiplicity
 _atom_site_fract_x
 _atom_site_fract_y
 _atom_site_fract_z
 _atom_site_occupancy
  Dy  Dy0  1  0.000000  0.000000  0.000970  1
  Tm  Tm1  1  0.000000  0.000000  0.498532  1
  Tm  Tm2  1  0.000000  0.000000  0.738225  1
  Tm  Tm3  1  0.000000  0.000000  0.262861  1
  Co  Co4  1  0.500000  0.000000  0.616427  1
  Co  Co5  1  0.000000  0.500000  0.616427  1
  Co  Co6  1  0.500000  0.500000  0.382708  1
  Co  Co7  1  0.500000  0.000000  0.383177  1
  Co  Co8  1  0.000000  0.500000  0.383177  1
  Ni  Ni9  1  0.666277  0.333723  0.000198  1
  Ni  Ni10  1  0.333723  0.666277  0.000198  1
  Ni  Ni11  1  0.500000  0.500000  0.843573  1
  Ni  Ni12  1  0.500000  0.000000  0.844061  1
  Ni  Ni13  1  0.000000  0.500000  0.844061  1
  Ni  Ni14  1  0.500000  0.500000  0.156955  1
  Ni  Ni15  1  0.500000  0.000000  0.156608  1
  Ni  Ni16  1  0.000000  0.500000  0.156608  1
  Ni  Ni17  1  0.500000  0.500000  0.616465  1
  B  B18  1  0.669109  0.330891  0.498542  1
  B  B19  1  0.330891  0.669109  0.498542  1
  B  B20  1  0.669960  0.330040  0.731302  1
  B  B21  1  0.330040  0.669960  0.731302  1
  B  B22  1  0.332973  0.667027  0.269542  1
  B  B23  1  0.667027  0.332973  0.269542  1
