# generated using pymatgen
data_TbTh(ZnGa)2
_symmetry_space_group_name_H-M   'P 1'
_cell_length_a   4.42146700
_cell_length_b   4.42146697
_cell_length_c   7.55716500
_cell_angle_alpha   90.00000000
_cell_angle_beta   90.00000000
_cell_angle_gamma   119.99999273
_symmetry_Int_Tables_number   1
_chemical_formula_structural   TbTh(ZnGa)2
_chemical_formula_sum   'Tb1 Th1 Zn2 Ga2'
_cell_volume   127.94471204
_cell_formula_units_Z   1
loop_
 _symmetry_equiv_pos_site_id
 _symmetry_equiv_pos_as_xyz
  1  'x, y, z'
loop_
 _atom_site_type_symbol
 _atom_site_label
 _atom_site_symmetry_multiplicity
 _atom_site_fract_x
 _atom_site_fract_y
 _atom_site_fract_z
 _atom_site_occupancy
  Tb  Tb0  1  0.000000  0.000000  0.000000  1
  Th  Th1  1  0.000000  0.000000  0.500000  1
  Zn  Zn2  1  0.333333  0.666667  0.768102  1
  Zn  Zn3  1  0.666667  0.333333  0.231898  1
  Ga  Ga4  1  0.333333  0.666667  0.236431  1
  Ga  Ga5  1  0.666667  0.333333  0.763569  1
