# generated using pymatgen
data_Zr6Ti4Sn3B2Sb3
_symmetry_space_group_name_H-M   'P 1'
_cell_length_a   8.38768600
_cell_length_b   8.38768587
_cell_length_c   5.62662900
_cell_angle_alpha   90.00000000
_cell_angle_beta   90.00000000
_cell_angle_gamma   120.00000053
_symmetry_Int_Tables_number   1
_chemical_formula_structural   Zr6Ti4Sn3B2Sb3
_chemical_formula_sum   'Zr6 Ti4 Sn3 B2 Sb3'
_cell_volume   342.81769500
_cell_formula_units_Z   1
loop_
 _symmetry_equiv_pos_site_id
 _symmetry_equiv_pos_as_xyz
  1  'x, y, z'
loop_
 _atom_site_type_symbol
 _atom_site_label
 _atom_site_symmetry_multiplicity
 _atom_site_fract_x
 _atom_site_fract_y
 _atom_site_fract_z
 _atom_site_occupancy
  Zr  Zr0  1  0.765359  0.765359  0.750000  1
  Zr  Zr1  1  0.234641  0.000000  0.750000  1
  Zr  Zr2  1  0.000000  0.234641  0.750000  1
  Zr  Zr3  1  0.235879  0.235879  0.250000  1
  Zr  Zr4  1  0.764121  0.000000  0.250000  1
  Zr  Zr5  1  0.000000  0.764121  0.250000  1
  Ti  Ti6  1  0.666667  0.333333  0.999215  1
  Ti  Ti7  1  0.333333  0.666667  0.999215  1
  Ti  Ti8  1  0.333333  0.666667  0.500785  1
  Ti  Ti9  1  0.666667  0.333333  0.500785  1
  Sn  Sn10  1  0.596791  0.596791  0.250000  1
  Sn  Sn11  1  0.403209  0.000000  0.250000  1
  Sn  Sn12  1  0.000000  0.403209  0.250000  1
  B  B13  1  0.000000  0.000000  0.001625  1
  B  B14  1  0.000000  0.000000  0.498375  1
  Sb  Sb15  1  0.404821  0.404821  0.750000  1
  Sb  Sb16  1  0.595179  0.000000  0.750000  1
  Sb  Sb17  1  0.000000  0.595179  0.750000  1
