# generated using pymatgen
data_Sm3Tm(B4Ru)4
_symmetry_space_group_name_H-M   'P 1'
_cell_length_a   3.58918600
_cell_length_b   5.99994116
_cell_length_c   11.60592318
_cell_angle_alpha   90.09726686
_cell_angle_beta   90.00000000
_cell_angle_gamma   90.00000000
_symmetry_Int_Tables_number   1
_chemical_formula_structural   Sm3Tm(B4Ru)4
_chemical_formula_sum   'Sm3 Tm1 B16 Ru4'
_cell_volume   249.93209088
_cell_formula_units_Z   1
loop_
 _symmetry_equiv_pos_site_id
 _symmetry_equiv_pos_as_xyz
  1  'x, y, z'
loop_
 _atom_site_type_symbol
 _atom_site_label
 _atom_site_symmetry_multiplicity
 _atom_site_fract_x
 _atom_site_fract_y
 _atom_site_fract_z
 _atom_site_occupancy
  Sm  Sm0  1  0.500000  0.128076  0.150405  1
  Sm  Sm1  1  0.500000  0.872021  0.848908  1
  Sm  Sm2  1  0.500000  0.628041  0.350297  1
  Tm  Tm3  1  0.500000  0.371946  0.650112  1
  B  B4  1  0.000000  0.475844  0.190373  1
  B  B5  1  0.000000  0.522536  0.806835  1
  B  B6  1  0.000000  0.976112  0.310629  1
  B  B7  1  0.000000  0.026685  0.690627  1
  B  B8  1  0.000000  0.286027  0.316398  1
  B  B9  1  0.000000  0.709199  0.684189  1
  B  B10  1  0.000000  0.786201  0.184533  1
  B  B11  1  0.000000  0.213995  0.813260  1
  B  B12  1  0.000000  0.363417  0.471555  1
  B  B13  1  0.000000  0.636388  0.532157  1
  B  B14  1  0.000000  0.861946  0.030104  1
  B  B15  1  0.000000  0.138195  0.968184  1
  B  B16  1  0.000000  0.388890  0.045161  1
  B  B17  1  0.000000  0.610405  0.952734  1
  B  B18  1  0.000000  0.889754  0.455571  1
  B  B19  1  0.000000  0.114076  0.547868  1
  Ru  Ru20  1  0.500000  0.140080  0.410370  1
  Ru  Ru21  1  0.500000  0.860508  0.592642  1
  Ru  Ru22  1  0.500000  0.638089  0.091194  1
  Ru  Ru23  1  0.500000  0.361571  0.905895  1
