# generated using pymatgen
data_Tb4Ho4B24OsRu3
_symmetry_space_group_name_H-M   'P 1'
_cell_length_a   3.66086300
_cell_length_b   9.14642050
_cell_length_c   11.52968511
_cell_angle_alpha   89.95939109
_cell_angle_beta   90.00000000
_cell_angle_gamma   90.00000000
_symmetry_Int_Tables_number   1
_chemical_formula_structural   Tb4Ho4B24OsRu3
_chemical_formula_sum   'Tb4 Ho4 B24 Os1 Ru3'
_cell_volume   386.05748533
_cell_formula_units_Z   1
loop_
 _symmetry_equiv_pos_site_id
 _symmetry_equiv_pos_as_xyz
  1  'x, y, z'
loop_
 _atom_site_type_symbol
 _atom_site_label
 _atom_site_symmetry_multiplicity
 _atom_site_fract_x
 _atom_site_fract_y
 _atom_site_fract_z
 _atom_site_occupancy
  Tb  Tb0  1  0.000000  0.322854  0.414004  1
  Tb  Tb1  1  0.000000  0.677364  0.585873  1
  Tb  Tb2  1  0.000000  0.822441  0.086321  1
  Tb  Tb3  1  0.000000  0.177017  0.914048  1
  Ho  Ho4  1  0.000000  0.944434  0.372649  1
  Ho  Ho5  1  0.000000  0.056289  0.627866  1
  Ho  Ho6  1  0.000000  0.443587  0.127084  1
  Ho  Ho7  1  0.000000  0.556179  0.872138  1
  B  B8  1  0.500000  0.554171  0.432714  1
  B  B9  1  0.500000  0.445630  0.567456  1
  B  B10  1  0.500000  0.054244  0.067337  1
  B  B11  1  0.500000  0.945550  0.932683  1
  B  B12  1  0.500000  0.748398  0.419446  1
  B  B13  1  0.500000  0.251704  0.580571  1
  B  B14  1  0.500000  0.248065  0.080364  1
  B  B15  1  0.500000  0.751680  0.919510  1
  B  B16  1  0.500000  0.791247  0.266468  1
  B  B17  1  0.500000  0.209024  0.733615  1
  B  B18  1  0.500000  0.291008  0.233410  1
  B  B19  1  0.500000  0.709075  0.766439  1
  B  B20  1  0.500000  0.631651  0.185278  1
  B  B21  1  0.500000  0.368200  0.814796  1
  B  B22  1  0.500000  0.131934  0.314832  1
  B  B23  1  0.500000  0.868283  0.685229  1
  B  B24  1  0.500000  0.983979  0.213196  1
  B  B25  1  0.500000  0.016065  0.786920  1
  B  B26  1  0.500000  0.483661  0.286751  1
  B  B27  1  0.500000  0.516066  0.713161  1
  B  B28  1  0.500000  0.607146  0.029440  1
  B  B29  1  0.500000  0.392438  0.970142  1
  B  B30  1  0.500000  0.107518  0.470504  1
  B  B31  1  0.500000  0.892988  0.529734  1
  Os  Os32  1  0.000000  0.638117  0.320949  1
  Ru  Ru33  1  0.000000  0.361959  0.679005  1
  Ru  Ru34  1  0.000000  0.138089  0.179178  1
  Ru  Ru35  1  0.000000  0.861942  0.820893  1
