# generated using pymatgen
data_Hf6Al16Co4Cu3
_symmetry_space_group_name_H-M   'P 1'
_cell_length_a   8.55320998
_cell_length_b   8.53541886
_cell_length_c   8.55590133
_cell_angle_alpha   59.85306008
_cell_angle_beta   59.85205809
_cell_angle_gamma   60.08962511
_symmetry_Int_Tables_number   1
_chemical_formula_structural   Hf6Al16Co4Cu3
_chemical_formula_sum   'Hf6 Al16 Co4 Cu3'
_cell_volume   440.98646940
_cell_formula_units_Z   1
loop_
 _symmetry_equiv_pos_site_id
 _symmetry_equiv_pos_as_xyz
  1  'x, y, z'
loop_
 _atom_site_type_symbol
 _atom_site_label
 _atom_site_symmetry_multiplicity
 _atom_site_fract_x
 _atom_site_fract_y
 _atom_site_fract_z
 _atom_site_occupancy
  Hf  Hf0  1  0.684295  0.682867  0.317133  1
  Hf  Hf1  1  0.307507  0.691873  0.308127  1
  Hf  Hf2  1  0.689088  0.310912  0.310912  1
  Hf  Hf3  1  0.315705  0.317133  0.682867  1
  Hf  Hf4  1  0.692493  0.308127  0.691873  1
  Hf  Hf5  1  0.310912  0.689088  0.689088  1
  Al  Al6  1  0.879224  0.876036  0.353995  1
  Al  Al7  1  0.890743  0.353995  0.876036  1
  Al  Al8  1  0.351568  0.886517  0.872938  1
  Al  Al9  1  0.888975  0.872938  0.886517  1
  Al  Al10  1  0.120776  0.123964  0.646005  1
  Al  Al11  1  0.109257  0.646005  0.123964  1
  Al  Al12  1  0.648432  0.113483  0.127062  1
  Al  Al13  1  0.111025  0.127062  0.113483  1
  Al  Al14  1  0.671906  0.662855  0.000909  1
  Al  Al15  1  0.664330  0.000909  0.662855  1
  Al  Al16  1  0.002621  0.661063  0.667625  1
  Al  Al17  1  0.668691  0.667625  0.661063  1
  Al  Al18  1  0.328094  0.337145  0.999091  1
  Al  Al19  1  0.335670  0.999091  0.337145  1
  Al  Al20  1  0.997379  0.338937  0.332375  1
  Al  Al21  1  0.331309  0.332375  0.338937  1
  Co  Co22  1  0.000000  0.000000  0.000000  1
  Co  Co23  1  0.500000  0.000000  0.500000  1
  Co  Co24  1  0.000000  0.500000  0.500000  1
  Co  Co25  1  0.000000  0.500000  0.000000  1
  Cu  Cu26  1  0.000000  0.000000  0.500000  1
  Cu  Cu27  1  0.500000  0.500000  0.000000  1
  Cu  Cu28  1  0.500000  0.000000  0.000000  1
