# generated using pymatgen
data_Ho16In6PtAu
_symmetry_space_group_name_H-M   'P 1'
_cell_length_a   10.52883200
_cell_length_b   10.52883251
_cell_length_c   6.93941000
_cell_angle_alpha   90.00000000
_cell_angle_beta   90.00000000
_cell_angle_gamma   120.00000467
_symmetry_Int_Tables_number   1
_chemical_formula_structural   Ho16In6PtAu
_chemical_formula_sum   'Ho16 In6 Pt1 Au1'
_cell_volume   666.21371978
_cell_formula_units_Z   1
loop_
 _symmetry_equiv_pos_site_id
 _symmetry_equiv_pos_as_xyz
  1  'x, y, z'
loop_
 _atom_site_type_symbol
 _atom_site_label
 _atom_site_symmetry_multiplicity
 _atom_site_fract_x
 _atom_site_fract_y
 _atom_site_fract_z
 _atom_site_occupancy
  Ho  Ho0  1  0.526410  0.052819  0.510957  1
  Ho  Ho1  1  0.947181  0.473590  0.510957  1
  Ho  Ho2  1  0.526410  0.473590  0.510957  1
  Ho  Ho3  1  0.468523  0.937046  0.009968  1
  Ho  Ho4  1  0.062954  0.531477  0.009968  1
  Ho  Ho5  1  0.468523  0.531477  0.009968  1
  Ho  Ho6  1  0.174945  0.349889  0.718443  1
  Ho  Ho7  1  0.650111  0.825055  0.718443  1
  Ho  Ho8  1  0.174945  0.825055  0.718443  1
  Ho  Ho9  1  0.827058  0.654117  0.216700  1
  Ho  Ho10  1  0.345883  0.172942  0.216700  1
  Ho  Ho11  1  0.827058  0.172942  0.216700  1
  Ho  Ho12  1  0.666667  0.333333  0.869912  1
  Ho  Ho13  1  0.333333  0.666667  0.385215  1
  Ho  Ho14  1  0.000000  0.000000  0.488657  1
  Ho  Ho15  1  0.000000  0.000000  0.989763  1
  In  In16  1  0.836890  0.673781  0.746707  1
  In  In17  1  0.326219  0.163110  0.746707  1
  In  In18  1  0.836890  0.163110  0.746707  1
  In  In19  1  0.162928  0.325854  0.251026  1
  In  In20  1  0.674146  0.837072  0.251026  1
  In  In21  1  0.162928  0.837072  0.251026  1
  Pt  Pt22  1  0.333333  0.666667  0.784063  1
  Au  Au23  1  0.666667  0.333333  0.279031  1
