# generated using pymatgen
data_RbP2PtO8
_symmetry_space_group_name_H-M   'P 1'
_cell_length_a   4.87036398
_cell_length_b   4.87036451
_cell_length_c   8.50753474
_cell_angle_alpha   85.95691012
_cell_angle_beta   85.95690799
_cell_angle_gamma   65.22305685
_symmetry_Int_Tables_number   1
_chemical_formula_structural   RbP2PtO8
_chemical_formula_sum   'Rb1 P2 Pt1 O8'
_cell_volume   182.58285870
_cell_formula_units_Z   1
loop_
 _symmetry_equiv_pos_site_id
 _symmetry_equiv_pos_as_xyz
  1  'x, y, z'
loop_
 _atom_site_type_symbol
 _atom_site_label
 _atom_site_symmetry_multiplicity
 _atom_site_fract_x
 _atom_site_fract_y
 _atom_site_fract_z
 _atom_site_occupancy
  Rb  Rb0  1  0.000000  0.000000  0.000000  1
  P  P1  1  0.368186  0.368186  0.315849  1
  P  P2  1  0.631814  0.631814  0.684151  1
  Pt  Pt3  1  0.000000  0.000000  0.500000  1
  O  O4  1  0.723538  0.243311  0.330176  1
  O  O5  1  0.243311  0.723538  0.330176  1
  O  O6  1  0.276462  0.756689  0.669824  1
  O  O7  1  0.756689  0.276462  0.669824  1
  O  O8  1  0.243446  0.243446  0.465338  1
  O  O9  1  0.756554  0.756554  0.534662  1
  O  O10  1  0.309153  0.309153  0.153950  1
  O  O11  1  0.690847  0.690847  0.846050  1
