# generated using pymatgen
data_Nd3Pa(Al3Ir)6
_symmetry_space_group_name_H-M   'P 1'
_cell_length_a   7.62948964
_cell_length_b   7.61942590
_cell_length_c   9.52974500
_cell_angle_alpha   90.00000000
_cell_angle_beta   90.00000000
_cell_angle_gamma   119.58119118
_symmetry_Int_Tables_number   1
_chemical_formula_structural   Nd3Pa(Al3Ir)6
_chemical_formula_sum   'Nd3 Pa1 Al18 Ir6'
_cell_volume   481.77807350
_cell_formula_units_Z   1
loop_
 _symmetry_equiv_pos_site_id
 _symmetry_equiv_pos_as_xyz
  1  'x, y, z'
loop_
 _atom_site_type_symbol
 _atom_site_label
 _atom_site_symmetry_multiplicity
 _atom_site_fract_x
 _atom_site_fract_y
 _atom_site_fract_z
 _atom_site_occupancy
  Nd  Nd0  1  0.004978  0.330128  0.750000  1
  Nd  Nd1  1  0.670939  0.995047  0.250000  1
  Nd  Nd2  1  0.330348  0.004500  0.750000  1
  Pa  Pa3  1  0.996299  0.670891  0.250000  1
  Al  Al4  1  0.132366  0.129921  0.250000  1
  Al  Al5  1  0.871084  0.871496  0.750000  1
  Al  Al6  1  0.002028  0.333624  0.074981  1
  Al  Al7  1  0.997668  0.665111  0.925455  1
  Al  Al8  1  0.997668  0.665111  0.574545  1
  Al  Al9  1  0.336448  0.003526  0.424998  1
  Al  Al10  1  0.002028  0.333624  0.425019  1
  Al  Al11  1  0.665409  0.998131  0.573727  1
  Al  Al12  1  0.665409  0.998131  0.926273  1
  Al  Al13  1  0.336448  0.003526  0.075002  1
  Al  Al14  1  0.334076  0.334121  0.550188  1
  Al  Al15  1  0.663776  0.665029  0.449137  1
  Al  Al16  1  0.663776  0.665029  0.050863  1
  Al  Al17  1  0.334076  0.334121  0.949812  1
  Al  Al18  1  0.337404  0.544634  0.250000  1
  Al  Al19  1  0.660070  0.452972  0.750000  1
  Al  Al20  1  0.546754  0.343487  0.250000  1
  Al  Al21  1  0.453378  0.660494  0.750000  1
  Ir  Ir22  1  0.673771  0.331413  0.003345  1
  Ir  Ir23  1  0.326097  0.671284  0.003492  1
  Ir  Ir24  1  0.326097  0.671284  0.496508  1
  Ir  Ir25  1  0.673771  0.331413  0.496655  1
  Ir  Ir26  1  0.998919  0.995976  0.004285  1
  Ir  Ir27  1  0.998919  0.995976  0.495715  1
