# generated using pymatgen
data_Ni10AsP7
_symmetry_space_group_name_H-M   'P 1'
_cell_length_a   6.80035200
_cell_length_b   6.80035149
_cell_length_c   11.06980500
_cell_angle_alpha   90.00000000
_cell_angle_beta   90.00000000
_cell_angle_gamma   120.00000247
_symmetry_Int_Tables_number   1
_chemical_formula_structural   Ni10AsP7
_chemical_formula_sum   'Ni20 As2 P14'
_cell_volume   443.33635426
_cell_formula_units_Z   2
loop_
 _symmetry_equiv_pos_site_id
 _symmetry_equiv_pos_as_xyz
  1  'x, y, z'
loop_
 _atom_site_type_symbol
 _atom_site_label
 _atom_site_symmetry_multiplicity
 _atom_site_fract_x
 _atom_site_fract_y
 _atom_site_fract_z
 _atom_site_occupancy
  Ni  Ni0  1  0.922751  0.461375  0.377292  1
  Ni  Ni1  1  0.461375  0.538625  0.877292  1
  Ni  Ni2  1  0.000000  0.000000  0.198882  1
  Ni  Ni3  1  0.000000  0.000000  0.698882  1
  Ni  Ni4  1  0.538625  0.077249  0.377292  1
  Ni  Ni5  1  0.461375  0.922751  0.877292  1
  Ni  Ni6  1  0.077249  0.538625  0.877292  1
  Ni  Ni7  1  0.538625  0.461375  0.377292  1
  Ni  Ni8  1  0.794474  0.205526  0.740875  1
  Ni  Ni9  1  0.588948  0.794474  0.240875  1
  Ni  Ni10  1  0.205526  0.411052  0.240875  1
  Ni  Ni11  1  0.794474  0.588948  0.740875  1
  Ni  Ni12  1  0.411052  0.205526  0.740875  1
  Ni  Ni13  1  0.205526  0.794474  0.240875  1
  Ni  Ni14  1  0.459422  0.540578  0.588882  1
  Ni  Ni15  1  0.918845  0.459422  0.088882  1
  Ni  Ni16  1  0.540578  0.081155  0.088882  1
  Ni  Ni17  1  0.459422  0.918845  0.588882  1
  Ni  Ni18  1  0.081155  0.540578  0.588882  1
  Ni  Ni19  1  0.540578  0.459422  0.088882  1
  As  As20  1  0.666667  0.333333  0.557474  1
  As  As21  1  0.333333  0.666667  0.057474  1
  P  P22  1  0.000000  0.000000  0.500460  1
  P  P23  1  0.000000  0.000000  0.000460  1
  P  P24  1  0.821160  0.178840  0.942679  1
  P  P25  1  0.642318  0.821160  0.442679  1
  P  P26  1  0.178840  0.357682  0.442679  1
  P  P27  1  0.821160  0.642318  0.942679  1
  P  P28  1  0.357682  0.178840  0.942679  1
  P  P29  1  0.178840  0.821160  0.442679  1
  P  P30  1  0.181553  0.818447  0.731224  1
  P  P31  1  0.363107  0.181553  0.231224  1
  P  P32  1  0.818447  0.636893  0.231224  1
  P  P33  1  0.181553  0.363107  0.731224  1
  P  P34  1  0.636893  0.818447  0.731224  1
  P  P35  1  0.818447  0.181553  0.231224  1
