# generated using pymatgen
data_Ce4Fe3Si4Rh
_symmetry_space_group_name_H-M   'P 1'
_cell_length_a   7.30598833
_cell_length_b   4.31842400
_cell_length_c   6.52974534
_cell_angle_alpha   90.00000000
_cell_angle_beta   90.03553162
_cell_angle_gamma   90.00000000
_symmetry_Int_Tables_number   1
_chemical_formula_structural   Ce4Fe3Si4Rh
_chemical_formula_sum   'Ce4 Fe3 Si4 Rh1'
_cell_volume   206.01574600
_cell_formula_units_Z   1
loop_
 _symmetry_equiv_pos_site_id
 _symmetry_equiv_pos_as_xyz
  1  'x, y, z'
loop_
 _atom_site_type_symbol
 _atom_site_label
 _atom_site_symmetry_multiplicity
 _atom_site_fract_x
 _atom_site_fract_y
 _atom_site_fract_z
 _atom_site_occupancy
  Ce  Ce0  1  0.021860  0.250001  0.167483  1
  Ce  Ce1  1  0.521466  0.250001  0.341057  1
  Ce  Ce2  1  0.468632  0.750001  0.660959  1
  Ce  Ce3  1  0.983445  0.750001  0.827964  1
  Fe  Fe4  1  0.135023  0.750001  0.438114  1
  Fe  Fe5  1  0.867783  0.250001  0.565821  1
  Fe  Fe6  1  0.367232  0.250001  0.933844  1
  Si  Si7  1  0.306516  0.750001  0.115055  1
  Si  Si8  1  0.815708  0.750001  0.397540  1
  Si  Si9  1  0.187012  0.250001  0.614784  1
  Si  Si10  1  0.686113  0.250001  0.870203  1
  Rh  Rh11  1  0.639215  0.750001  0.067177  1
