# generated using pymatgen
data_LiNd3Mg2Si2Ag
_symmetry_space_group_name_H-M   'P 1'
_cell_length_a   7.35526300
_cell_length_b   7.40723899
_cell_length_c   4.45283400
_cell_angle_alpha   90.00000000
_cell_angle_beta   90.00000000
_cell_angle_gamma   119.76815687
_symmetry_Int_Tables_number   1
_chemical_formula_structural   LiNd3Mg2Si2Ag
_chemical_formula_sum   'Li1 Nd3 Mg2 Si2 Ag1'
_cell_volume   210.58700489
_cell_formula_units_Z   1
loop_
 _symmetry_equiv_pos_site_id
 _symmetry_equiv_pos_as_xyz
  1  'x, y, z'
loop_
 _atom_site_type_symbol
 _atom_site_label
 _atom_site_symmetry_multiplicity
 _atom_site_fract_x
 _atom_site_fract_y
 _atom_site_fract_z
 _atom_site_occupancy
  Li  Li0  1  0.248986  0.000000  0.500000  1
  Nd  Nd1  1  0.574336  0.000000  0.000000  1
  Nd  Nd2  1  0.004377  0.583697  0.000000  1
  Nd  Nd3  1  0.420680  0.416303  0.000000  1
  Mg  Mg4  1  0.000871  0.246971  0.500000  1
  Mg  Mg5  1  0.753900  0.753029  0.500000  1
  Si  Si6  1  0.332007  0.665962  0.500000  1
  Si  Si7  1  0.666046  0.334038  0.500000  1
  Ag  Ag8  1  0.998797  0.000000  0.000000  1
