# generated using pymatgen
data_CeGeF7
_symmetry_space_group_name_H-M   'P 1'
_cell_length_a   5.63698900
_cell_length_b   9.07198311
_cell_length_c   12.14288946
_cell_angle_alpha   62.10432003
_cell_angle_beta   90.00000000
_cell_angle_gamma   90.00000000
_symmetry_Int_Tables_number   1
_chemical_formula_structural   CeGeF7
_chemical_formula_sum   'Ce4 Ge4 F28'
_cell_volume   548.81491542
_cell_formula_units_Z   4
loop_
 _symmetry_equiv_pos_site_id
 _symmetry_equiv_pos_as_xyz
  1  'x, y, z'
loop_
 _atom_site_type_symbol
 _atom_site_label
 _atom_site_symmetry_multiplicity
 _atom_site_fract_x
 _atom_site_fract_y
 _atom_site_fract_z
 _atom_site_occupancy
  Ce  Ce0  1  0.759401  0.807839  0.763897  1
  Ce  Ce1  1  0.259401  0.192161  0.736103  1
  Ce  Ce2  1  0.240599  0.192161  0.236103  1
  Ce  Ce3  1  0.740599  0.807839  0.263897  1
  Ge  Ge4  1  0.757813  0.274147  0.957396  1
  Ge  Ge5  1  0.257813  0.725853  0.542604  1
  Ge  Ge6  1  0.242187  0.725853  0.042604  1
  Ge  Ge7  1  0.742187  0.274147  0.457396  1
  F  F8  1  0.425723  0.707866  0.925714  1
  F  F9  1  0.925723  0.292134  0.574286  1
  F  F10  1  0.574277  0.292134  0.074286  1
  F  F11  1  0.074277  0.707866  0.425714  1
  F  F12  1  0.468181  0.280569  0.537567  1
  F  F13  1  0.968181  0.719431  0.962433  1
  F  F14  1  0.531819  0.719431  0.462433  1
  F  F15  1  0.031819  0.280569  0.037567  1
  F  F16  1  0.770866  0.501836  0.866183  1
  F  F17  1  0.270866  0.498164  0.633817  1
  F  F18  1  0.229134  0.498164  0.133817  1
  F  F19  1  0.729134  0.501836  0.366183  1
  F  F20  1  0.758226  0.046528  0.044941  1
  F  F21  1  0.258226  0.953472  0.455059  1
  F  F22  1  0.241774  0.953472  0.955059  1
  F  F23  1  0.741774  0.046528  0.544941  1
  F  F24  1  0.991874  0.727681  0.629079  1
  F  F25  1  0.491874  0.272319  0.870921  1
  F  F26  1  0.008126  0.272319  0.370921  1
  F  F27  1  0.508126  0.727681  0.129079  1
  F  F28  1  0.060071  0.740412  0.163843  1
  F  F29  1  0.560071  0.259588  0.336157  1
  F  F30  1  0.939929  0.259588  0.836157  1
  F  F31  1  0.439929  0.740412  0.663843  1
  F  F32  1  0.401766  0.968912  0.227044  1
  F  F33  1  0.901766  0.031088  0.272956  1
  F  F34  1  0.598234  0.031088  0.772956  1
  F  F35  1  0.098234  0.968912  0.727044  1
