# generated using pymatgen
data_TmPuB6W
_symmetry_space_group_name_H-M   'P 1'
_cell_length_a   3.63124100
_cell_length_b   9.22760700
_cell_length_c   11.57589900
_cell_angle_alpha   90.00000000
_cell_angle_beta   90.00000000
_cell_angle_gamma   90.00000000
_symmetry_Int_Tables_number   1
_chemical_formula_structural   TmPuB6W
_chemical_formula_sum   'Tm4 Pu4 B24 W4'
_cell_volume   387.88134426
_cell_formula_units_Z   4
loop_
 _symmetry_equiv_pos_site_id
 _symmetry_equiv_pos_as_xyz
  1  'x, y, z'
loop_
 _atom_site_type_symbol
 _atom_site_label
 _atom_site_symmetry_multiplicity
 _atom_site_fract_x
 _atom_site_fract_y
 _atom_site_fract_z
 _atom_site_occupancy
  Tm  Tm0  1  0.000000  0.944376  0.372734  1
  Tm  Tm1  1  0.000000  0.055624  0.627266  1
  Tm  Tm2  1  0.000000  0.444376  0.127266  1
  Tm  Tm3  1  0.000000  0.555624  0.872734  1
  Pu  Pu4  1  0.000000  0.320963  0.413527  1
  Pu  Pu5  1  0.000000  0.679037  0.586473  1
  Pu  Pu6  1  0.000000  0.820963  0.086473  1
  Pu  Pu7  1  0.000000  0.179037  0.913527  1
  B  B8  1  0.500000  0.551559  0.434941  1
  B  B9  1  0.500000  0.448441  0.565059  1
  B  B10  1  0.500000  0.051559  0.065059  1
  B  B11  1  0.500000  0.948441  0.934941  1
  B  B12  1  0.500000  0.750852  0.421769  1
  B  B13  1  0.500000  0.249148  0.578231  1
  B  B14  1  0.500000  0.250852  0.078231  1
  B  B15  1  0.500000  0.749148  0.921769  1
  B  B16  1  0.500000  0.794851  0.263683  1
  B  B17  1  0.500000  0.205149  0.736317  1
  B  B18  1  0.500000  0.294851  0.236317  1
  B  B19  1  0.500000  0.705149  0.763683  1
  B  B20  1  0.500000  0.632579  0.183047  1
  B  B21  1  0.500000  0.367421  0.816953  1
  B  B22  1  0.500000  0.132579  0.316953  1
  B  B23  1  0.500000  0.867421  0.683047  1
  B  B24  1  0.500000  0.978952  0.212364  1
  B  B25  1  0.500000  0.021048  0.787636  1
  B  B26  1  0.500000  0.478952  0.287636  1
  B  B27  1  0.500000  0.521048  0.712364  1
  B  B28  1  0.500000  0.605113  0.029408  1
  B  B29  1  0.500000  0.394887  0.970592  1
  B  B30  1  0.500000  0.105113  0.470592  1
  B  B31  1  0.500000  0.894887  0.529408  1
  W  W32  1  0.000000  0.638887  0.321428  1
  W  W33  1  0.000000  0.361113  0.678572  1
  W  W34  1  0.000000  0.138887  0.178572  1
  W  W35  1  0.000000  0.861113  0.821428  1
