# generated using pymatgen
data_La2Zn2Ni7Pt
_symmetry_space_group_name_H-M   'P 1'
_cell_length_a   4.09953400
_cell_length_b   5.16466793
_cell_length_c   8.70420519
_cell_angle_alpha   88.66096407
_cell_angle_beta   90.00000000
_cell_angle_gamma   90.00000000
_symmetry_Int_Tables_number   1
_chemical_formula_structural   La2Zn2Ni7Pt
_chemical_formula_sum   'La2 Zn2 Ni7 Pt1'
_cell_volume   184.24147544
_cell_formula_units_Z   1
loop_
 _symmetry_equiv_pos_site_id
 _symmetry_equiv_pos_as_xyz
  1  'x, y, z'
loop_
 _atom_site_type_symbol
 _atom_site_label
 _atom_site_symmetry_multiplicity
 _atom_site_fract_x
 _atom_site_fract_y
 _atom_site_fract_z
 _atom_site_occupancy
  La  La0  1  0.000000  0.242883  0.749323  1
  La  La1  1  0.000000  0.757117  0.250677  1
  Zn  Zn2  1  0.500000  0.260078  0.255635  1
  Zn  Zn3  1  0.500000  0.739922  0.744365  1
  Ni  Ni4  1  0.500000  0.500000  0.500000  1
  Ni  Ni5  1  0.500000  0.500000  0.000000  1
  Ni  Ni6  1  0.500000  0.000000  0.500000  1
  Ni  Ni7  1  0.000000  0.277008  0.082086  1
  Ni  Ni8  1  0.000000  0.750013  0.573708  1
  Ni  Ni9  1  0.000000  0.722992  0.917914  1
  Ni  Ni10  1  0.000000  0.249987  0.426292  1
  Pt  Pt11  1  0.500000  0.000000  0.000000  1
