# generated using pymatgen
data_Zr3PN
_symmetry_space_group_name_H-M   'P 1'
_cell_length_a   5.79680246
_cell_length_b   5.79680345
_cell_length_c   8.46714800
_cell_angle_alpha   90.00000000
_cell_angle_beta   90.00000000
_cell_angle_gamma   145.21870422
_symmetry_Int_Tables_number   1
_chemical_formula_structural   Zr3PN
_chemical_formula_sum   'Zr6 P2 N2'
_cell_volume   162.30367936
_cell_formula_units_Z   2
loop_
 _symmetry_equiv_pos_site_id
 _symmetry_equiv_pos_as_xyz
  1  'x, y, z'
loop_
 _atom_site_type_symbol
 _atom_site_label
 _atom_site_symmetry_multiplicity
 _atom_site_fract_x
 _atom_site_fract_y
 _atom_site_fract_z
 _atom_site_occupancy
  Zr  Zr0  1  0.935697  0.064303  0.750000  1
  Zr  Zr1  1  0.064162  0.935838  0.250000  1
  Zr  Zr2  1  0.634644  0.365356  0.557758  1
  Zr  Zr3  1  0.365427  0.634573  0.442458  1
  Zr  Zr4  1  0.365427  0.634573  0.057542  1
  Zr  Zr5  1  0.634644  0.365356  0.942242  1
  P  P6  1  0.255096  0.744904  0.750000  1
  P  P7  1  0.744925  0.255075  0.250000  1
  N  N8  1  0.999988  0.000012  0.499975  1
  N  N9  1  0.999988  0.000012  0.000025  1
