# generated using pymatgen
data_LiCa7(PbN)2
_symmetry_space_group_name_H-M   'P 1'
_cell_length_a   12.35442277
_cell_length_b   12.35442149
_cell_length_c   4.97765500
_cell_angle_alpha   90.00000000
_cell_angle_beta   90.00000000
_cell_angle_gamma   156.42709647
_symmetry_Int_Tables_number   1
_chemical_formula_structural   LiCa7(PbN)2
_chemical_formula_sum   'Li1 Ca7 Pb2 N2'
_cell_volume   303.83516147
_cell_formula_units_Z   1
loop_
 _symmetry_equiv_pos_site_id
 _symmetry_equiv_pos_as_xyz
  1  'x, y, z'
loop_
 _atom_site_type_symbol
 _atom_site_label
 _atom_site_symmetry_multiplicity
 _atom_site_fract_x
 _atom_site_fract_y
 _atom_site_fract_z
 _atom_site_occupancy
  Li  Li0  1  0.721409  0.278592  0.499999  1
  Ca  Ca1  1  0.997523  0.002477  0.000000  1
  Ca  Ca2  1  0.804482  0.195519  0.000000  1
  Ca  Ca3  1  0.592235  0.407766  0.000000  1
  Ca  Ca4  1  0.400299  0.599702  0.000000  1
  Ca  Ca5  1  0.197995  0.802006  0.000000  1
  Ca  Ca6  1  0.900456  0.099545  0.499999  1
  Ca  Ca7  1  0.094576  0.905425  0.499999  1
  Pb  Pb8  1  0.500294  0.499706  0.499999  1
  Pb  Pb9  1  0.289436  0.710565  0.499999  1
  N  N10  1  0.897924  0.102077  0.000000  1
  N  N11  1  0.103375  0.896626  0.000000  1
