# generated using pymatgen
data_Mn6FeCoMo4
_symmetry_space_group_name_H-M   'P 1'
_cell_length_a   4.66755500
_cell_length_b   4.66755410
_cell_length_c   7.83323600
_cell_angle_alpha   89.99982584
_cell_angle_beta   90.00017370
_cell_angle_gamma   119.99885653
_symmetry_Int_Tables_number   1
_chemical_formula_structural   Mn6FeCoMo4
_chemical_formula_sum   'Mn6 Fe1 Co1 Mo4'
_cell_volume   147.79360800
_cell_formula_units_Z   1
loop_
 _symmetry_equiv_pos_site_id
 _symmetry_equiv_pos_as_xyz
  1  'x, y, z'
loop_
 _atom_site_type_symbol
 _atom_site_label
 _atom_site_symmetry_multiplicity
 _atom_site_fract_x
 _atom_site_fract_y
 _atom_site_fract_z
 _atom_site_occupancy
  Mn  Mn0  1  0.827257  0.654624  0.750330  1
  Mn  Mn1  1  0.827263  0.172737  0.750334  1
  Mn  Mn2  1  0.345376  0.172743  0.750330  1
  Mn  Mn3  1  0.172743  0.345376  0.249670  1
  Mn  Mn4  1  0.172737  0.827263  0.249666  1
  Mn  Mn5  1  0.654624  0.827257  0.249670  1
  Fe  Fe6  1  0.000000  0.000000  0.000000  1
  Co  Co7  1  0.000000  0.000000  0.500000  1
  Mo  Mo8  1  0.666681  0.333319  0.066005  1
  Mo  Mo9  1  0.333319  0.666681  0.933995  1
  Mo  Mo10  1  0.333318  0.666682  0.566862  1
  Mo  Mo11  1  0.666682  0.333318  0.433138  1
