# generated using pymatgen
data_Ba4ErIn(FeO5)2
_symmetry_space_group_name_H-M   'P 1'
_cell_length_a   6.06128800
_cell_length_b   7.92787042
_cell_length_c   12.63954281
_cell_angle_alpha   91.99363759
_cell_angle_beta   90.00000000
_cell_angle_gamma   90.00000000
_symmetry_Int_Tables_number   1
_chemical_formula_structural   Ba4ErIn(FeO5)2
_chemical_formula_sum   'Ba8 Er2 In2 Fe4 O20'
_cell_volume   607.00164569
_cell_formula_units_Z   2
loop_
 _symmetry_equiv_pos_site_id
 _symmetry_equiv_pos_as_xyz
  1  'x, y, z'
loop_
 _atom_site_type_symbol
 _atom_site_label
 _atom_site_symmetry_multiplicity
 _atom_site_fract_x
 _atom_site_fract_y
 _atom_site_fract_z
 _atom_site_occupancy
  Ba  Ba0  1  0.758928  0.489244  0.350695  1
  Ba  Ba1  1  0.741072  0.989244  0.850695  1
  Ba  Ba2  1  0.243668  0.512036  0.650721  1
  Ba  Ba3  1  0.256332  0.012036  0.150721  1
  Ba  Ba4  1  0.756188  0.992469  0.380288  1
  Ba  Ba5  1  0.743812  0.492469  0.880288  1
  Ba  Ba6  1  0.245598  0.006396  0.619163  1
  Ba  Ba7  1  0.254402  0.506396  0.119163  1
  Er  Er8  1  0.751189  0.265311  0.631137  1
  Er  Er9  1  0.748811  0.765311  0.131137  1
  In  In10  1  0.250192  0.734535  0.369508  1
  In  In11  1  0.249808  0.234535  0.869508  1
  Fe  Fe12  1  0.738675  0.743100  0.582168  1
  Fe  Fe13  1  0.761325  0.243100  0.082168  1
  Fe  Fe14  1  0.263196  0.257812  0.416808  1
  Fe  Fe15  1  0.236804  0.757812  0.916808  1
  O  O16  1  0.758657  0.972475  0.631164  1
  O  O17  1  0.741343  0.472475  0.131164  1
  O  O18  1  0.238914  0.029785  0.366664  1
  O  O19  1  0.261086  0.529785  0.866664  1
  O  O20  1  0.738761  0.059675  0.173269  1
  O  O21  1  0.761239  0.559675  0.673269  1
  O  O22  1  0.264446  0.937471  0.823268  1
  O  O23  1  0.235554  0.437471  0.323268  1
  O  O24  1  0.533285  0.746772  0.270297  1
  O  O25  1  0.966715  0.246772  0.770297  1
  O  O26  1  0.465858  0.252036  0.734940  1
  O  O27  1  0.034142  0.752036  0.234940  1
  O  O28  1  0.534557  0.224411  0.977219  1
  O  O29  1  0.965443  0.724411  0.477219  1
  O  O30  1  0.457012  0.776751  0.024023  1
  O  O31  1  0.042988  0.276751  0.524023  1
  O  O32  1  0.042176  0.229297  0.012869  1
  O  O33  1  0.457824  0.729297  0.512869  1
  O  O34  1  0.957694  0.770423  0.985800  1
  O  O35  1  0.542306  0.270423  0.485800  1
