# generated using pymatgen
data_CeYTh2(ReC2)2
_symmetry_space_group_name_H-M   'P 1'
_cell_length_a   5.31070300
_cell_length_b   6.68356400
_cell_length_c   9.93357100
_cell_angle_alpha   90.00000000
_cell_angle_beta   90.00000000
_cell_angle_gamma   90.00000000
_symmetry_Int_Tables_number   1
_chemical_formula_structural   CeYTh2(ReC2)2
_chemical_formula_sum   'Ce2 Y2 Th4 Re4 C8'
_cell_volume   352.58637480
_cell_formula_units_Z   2
loop_
 _symmetry_equiv_pos_site_id
 _symmetry_equiv_pos_as_xyz
  1  'x, y, z'
loop_
 _atom_site_type_symbol
 _atom_site_label
 _atom_site_symmetry_multiplicity
 _atom_site_fract_x
 _atom_site_fract_y
 _atom_site_fract_z
 _atom_site_occupancy
  Ce  Ce0  1  0.250000  0.816433  0.452896  1
  Ce  Ce1  1  0.750000  0.683567  0.952896  1
  Y  Y2  1  0.250000  0.319616  0.051849  1
  Y  Y3  1  0.750000  0.180384  0.551849  1
  Th  Th4  1  0.250000  0.973891  0.780922  1
  Th  Th5  1  0.750000  0.526109  0.280922  1
  Th  Th6  1  0.250000  0.471701  0.715779  1
  Th  Th7  1  0.750000  0.028299  0.215779  1
  Re  Re8  1  0.250000  0.769992  0.137254  1
  Re  Re9  1  0.750000  0.730008  0.637254  1
  Re  Re10  1  0.250000  0.271266  0.362482  1
  Re  Re11  1  0.750000  0.228734  0.862482  1
  C  C12  1  0.250000  0.169241  0.551367  1
  C  C13  1  0.750000  0.330759  0.051367  1
  C  C14  1  0.250000  0.670040  0.948105  1
  C  C15  1  0.750000  0.829960  0.448105  1
  C  C16  1  0.250000  0.534588  0.258795  1
  C  C17  1  0.750000  0.965412  0.758795  1
  C  C18  1  0.250000  0.036402  0.240551  1
  C  C19  1  0.750000  0.463598  0.740551  1
