# generated using pymatgen
data_Dy7Tm2LuSn6
_symmetry_space_group_name_H-M   'P 1'
_cell_length_a   8.93322100
_cell_length_b   8.93321997
_cell_length_c   6.49242100
_cell_angle_alpha   90.00000000
_cell_angle_beta   90.00000000
_cell_angle_gamma   119.99999271
_symmetry_Int_Tables_number   1
_chemical_formula_structural   Dy7Tm2LuSn6
_chemical_formula_sum   'Dy7 Tm2 Lu1 Sn6'
_cell_volume   448.69728710
_cell_formula_units_Z   1
loop_
 _symmetry_equiv_pos_site_id
 _symmetry_equiv_pos_as_xyz
  1  'x, y, z'
loop_
 _atom_site_type_symbol
 _atom_site_label
 _atom_site_symmetry_multiplicity
 _atom_site_fract_x
 _atom_site_fract_y
 _atom_site_fract_z
 _atom_site_occupancy
  Dy  Dy0  1  0.999885  0.760952  0.749764  1
  Dy  Dy1  1  0.999885  0.238933  0.250236  1
  Dy  Dy2  1  0.761067  0.760952  0.250236  1
  Dy  Dy3  1  0.761067  0.000115  0.749764  1
  Dy  Dy4  1  0.239048  0.238933  0.749764  1
  Dy  Dy5  1  0.239048  0.000115  0.250236  1
  Dy  Dy6  1  0.333333  0.666667  0.000000  1
  Tm  Tm7  1  0.333333  0.666667  0.500000  1
  Tm  Tm8  1  0.666667  0.333333  0.000000  1
  Lu  Lu9  1  0.666667  0.333333  0.500000  1
  Sn  Sn10  1  0.397256  0.001484  0.748626  1
  Sn  Sn11  1  0.397256  0.395773  0.251374  1
  Sn  Sn12  1  0.998516  0.602744  0.251374  1
  Sn  Sn13  1  0.998516  0.395773  0.748626  1
  Sn  Sn14  1  0.604227  0.602744  0.748626  1
  Sn  Sn15  1  0.604227  0.001484  0.251374  1
