# generated using pymatgen
data_Dy4Zn8Cd3Ag
_symmetry_space_group_name_H-M   'P 1'
_cell_length_a   4.36599500
_cell_length_b   7.22480844
_cell_length_c   10.14822754
_cell_angle_alpha   89.78604316
_cell_angle_beta   90.00000000
_cell_angle_gamma   90.00000000
_symmetry_Int_Tables_number   1
_chemical_formula_structural   Dy4Zn8Cd3Ag
_chemical_formula_sum   'Dy4 Zn8 Cd3 Ag1'
_cell_volume   320.10815538
_cell_formula_units_Z   1
loop_
 _symmetry_equiv_pos_site_id
 _symmetry_equiv_pos_as_xyz
  1  'x, y, z'
loop_
 _atom_site_type_symbol
 _atom_site_label
 _atom_site_symmetry_multiplicity
 _atom_site_fract_x
 _atom_site_fract_y
 _atom_site_fract_z
 _atom_site_occupancy
  Dy  Dy0  1  0.250000  0.296192  0.675288  1
  Dy  Dy1  1  0.750000  0.698290  0.326487  1
  Dy  Dy2  1  0.250000  0.807249  0.818184  1
  Dy  Dy3  1  0.750000  0.196297  0.178529  1
  Zn  Zn4  1  0.750000  0.310297  0.467366  1
  Zn  Zn5  1  0.250000  0.686382  0.534564  1
  Zn  Zn6  1  0.750000  0.815761  0.032560  1
  Zn  Zn7  1  0.250000  0.184157  0.967369  1
  Zn  Zn8  1  0.750000  0.589782  0.644326  1
  Zn  Zn9  1  0.250000  0.414210  0.357144  1
  Zn  Zn10  1  0.750000  0.087610  0.851345  1
  Zn  Zn11  1  0.250000  0.913526  0.144815  1
  Cd  Cd12  1  0.250000  0.533644  0.098807  1
  Cd  Cd13  1  0.750000  0.468184  0.901649  1
  Cd  Cd14  1  0.250000  0.032293  0.404533  1
  Ag  Ag15  1  0.750000  0.966127  0.597033  1
