# generated using pymatgen
data_Y7Sn22Os6Au
_symmetry_space_group_name_H-M   'P 1'
_cell_length_a   9.82962200
_cell_length_b   9.82962219
_cell_length_c   10.12066100
_cell_angle_alpha   90.00000000
_cell_angle_beta   90.00000000
_cell_angle_gamma   120.00000610
_symmetry_Int_Tables_number   1
_chemical_formula_structural   Y7Sn22Os6Au
_chemical_formula_sum   'Y7 Sn22 Os6 Au1'
_cell_volume   846.86293599
_cell_formula_units_Z   1
loop_
 _symmetry_equiv_pos_site_id
 _symmetry_equiv_pos_as_xyz
  1  'x, y, z'
loop_
 _atom_site_type_symbol
 _atom_site_label
 _atom_site_symmetry_multiplicity
 _atom_site_fract_x
 _atom_site_fract_y
 _atom_site_fract_z
 _atom_site_occupancy
  Y  Y0  1  0.000000  0.000000  0.000000  1
  Y  Y1  1  0.033400  0.516699  0.304506  1
  Y  Y2  1  0.483301  0.966600  0.304506  1
  Y  Y3  1  0.483301  0.516699  0.304506  1
  Y  Y4  1  0.966600  0.483301  0.695494  1
  Y  Y5  1  0.516699  0.033400  0.695494  1
  Y  Y6  1  0.516699  0.483301  0.695494  1
  Sn  Sn7  1  0.117947  0.882053  0.278642  1
  Sn  Sn8  1  0.764105  0.882053  0.278642  1
  Sn  Sn9  1  0.117947  0.235895  0.278642  1
  Sn  Sn10  1  0.882053  0.117947  0.721358  1
  Sn  Sn11  1  0.235895  0.117947  0.721358  1
  Sn  Sn12  1  0.882053  0.764105  0.721358  1
  Sn  Sn13  1  0.349413  0.000000  0.000000  1
  Sn  Sn14  1  0.650587  0.650587  0.000000  1
  Sn  Sn15  1  0.000000  0.349413  0.000000  1
  Sn  Sn16  1  0.349413  0.349413  0.000000  1
  Sn  Sn17  1  0.000000  0.650587  0.000000  1
  Sn  Sn18  1  0.650587  0.000000  0.000000  1
  Sn  Sn19  1  0.779376  0.558752  0.461896  1
  Sn  Sn20  1  0.779376  0.220624  0.461896  1
  Sn  Sn21  1  0.441248  0.220624  0.461896  1
  Sn  Sn22  1  0.220624  0.441248  0.538104  1
  Sn  Sn23  1  0.220624  0.779376  0.538104  1
  Sn  Sn24  1  0.558752  0.779376  0.538104  1
  Sn  Sn25  1  0.666667  0.333333  0.173924  1
  Sn  Sn26  1  0.333333  0.666667  0.826076  1
  Sn  Sn27  1  0.666667  0.333333  0.874123  1
  Sn  Sn28  1  0.333333  0.666667  0.125877  1
  Os  Os29  1  0.168640  0.831360  0.795535  1
  Os  Os30  1  0.662720  0.831360  0.795535  1
  Os  Os31  1  0.168640  0.337280  0.795535  1
  Os  Os32  1  0.831360  0.168640  0.204465  1
  Os  Os33  1  0.337280  0.168640  0.204465  1
  Os  Os34  1  0.831360  0.662720  0.204465  1
  Au  Au35  1  0.000000  0.000000  0.500000  1
