# generated using pymatgen
data_LiY4Ho12Cd3Co4
_symmetry_space_group_name_H-M   'P 1'
_cell_length_a   9.46366957
_cell_length_b   9.45540495
_cell_length_c   9.48502028
_cell_angle_alpha   60.03346887
_cell_angle_beta   59.99631302
_cell_angle_gamma   59.94705345
_symmetry_Int_Tables_number   1
_chemical_formula_structural   LiY4Ho12Cd3Co4
_chemical_formula_sum   'Li1 Y4 Ho12 Cd3 Co4'
_cell_volume   600.04860368
_cell_formula_units_Z   1
loop_
 _symmetry_equiv_pos_site_id
 _symmetry_equiv_pos_as_xyz
  1  'x, y, z'
loop_
 _atom_site_type_symbol
 _atom_site_label
 _atom_site_symmetry_multiplicity
 _atom_site_fract_x
 _atom_site_fract_y
 _atom_site_fract_z
 _atom_site_occupancy
  Li  Li0  1  0.571070  0.571015  0.286099  1
  Y  Y1  1  0.937139  0.937503  0.563227  1
  Y  Y2  1  0.812145  0.185726  0.186360  1
  Y  Y3  1  0.937789  0.563385  0.562328  1
  Y  Y4  1  0.939521  0.561539  0.939235  1
  Ho  Ho5  1  0.813353  0.813979  0.184326  1
  Ho  Ho6  1  0.343229  0.343036  0.345906  1
  Ho  Ho7  1  0.559597  0.940674  0.939364  1
  Ho  Ho8  1  0.562128  0.937975  0.563569  1
  Ho  Ho9  1  0.188669  0.811998  0.810177  1
  Ho  Ho10  1  0.189936  0.187951  0.808926  1
  Ho  Ho11  1  0.347970  0.347489  0.957793  1
  Ho  Ho12  1  0.345295  0.965716  0.347137  1
  Ho  Ho13  1  0.811486  0.187808  0.810447  1
  Ho  Ho14  1  0.559430  0.561913  0.939305  1
  Ho  Ho15  1  0.186748  0.812506  0.185160  1
  Ho  Ho16  1  0.965960  0.344850  0.347483  1
  Cd  Cd17  1  0.258955  0.581387  0.577267  1
  Cd  Cd18  1  0.581619  0.581880  0.576656  1
  Cd  Cd19  1  0.581396  0.258001  0.577586  1
  Co  Co20  1  0.576117  0.142510  0.138380  1
  Co  Co21  1  0.145136  0.141786  0.136928  1
  Co  Co22  1  0.143282  0.577672  0.138751  1
  Co  Co23  1  0.142031  0.141705  0.577597  1
