# generated using pymatgen
data_Nd8Ho11ScPb16
_symmetry_space_group_name_H-M   'P 1'
_cell_length_a   8.27816925
_cell_length_b   8.36553805
_cell_length_c   15.79433900
_cell_angle_alpha   90.00325329
_cell_angle_beta   90.09855951
_cell_angle_gamma   90.06285468
_symmetry_Int_Tables_number   1
_chemical_formula_structural   Nd8Ho11ScPb16
_chemical_formula_sum   'Nd8 Ho11 Sc1 Pb16'
_cell_volume   1093.77685887
_cell_formula_units_Z   1
loop_
 _symmetry_equiv_pos_site_id
 _symmetry_equiv_pos_as_xyz
  1  'x, y, z'
loop_
 _atom_site_type_symbol
 _atom_site_label
 _atom_site_symmetry_multiplicity
 _atom_site_fract_x
 _atom_site_fract_y
 _atom_site_fract_z
 _atom_site_occupancy
  Nd  Nd0  1  0.476473  0.676069  0.597826  1
  Nd  Nd1  1  0.977567  0.822144  0.901705  1
  Nd  Nd2  1  0.522909  0.322098  0.097067  1
  Nd  Nd3  1  0.022410  0.178804  0.404431  1
  Nd  Nd4  1  0.524040  0.322086  0.402977  1
  Nd  Nd5  1  0.022755  0.177627  0.096958  1
  Nd  Nd6  1  0.476870  0.677387  0.902374  1
  Nd  Nd7  1  0.977171  0.821810  0.597085  1
  Ho  Ho8  1  0.633885  0.157516  0.621901  1
  Ho  Ho9  1  0.134865  0.341213  0.876903  1
  Ho  Ho10  1  0.364751  0.841346  0.122583  1
  Ho  Ho11  1  0.865166  0.658884  0.377442  1
  Ho  Ho12  1  0.363675  0.841364  0.379722  1
  Ho  Ho13  1  0.865069  0.658556  0.122659  1
  Ho  Ho14  1  0.635504  0.159078  0.876035  1
  Ho  Ho15  1  0.802165  0.493992  0.748921  1
  Ho  Ho16  1  0.300277  0.005460  0.749058  1
  Ho  Ho17  1  0.198788  0.504942  0.250880  1
  Ho  Ho18  1  0.698588  0.994738  0.250150  1
  Sc  Sc19  1  0.135783  0.342274  0.624760  1
  Pb  Pb20  1  0.704792  0.959077  0.456821  1
  Pb  Pb21  1  0.204996  0.540611  0.043182  1
  Pb  Pb22  1  0.295668  0.040880  0.956392  1
  Pb  Pb23  1  0.801966  0.457617  0.543930  1
  Pb  Pb24  1  0.290632  0.048472  0.544238  1
  Pb  Pb25  1  0.794805  0.459413  0.956494  1
  Pb  Pb26  1  0.704793  0.959094  0.042527  1
  Pb  Pb27  1  0.203684  0.536946  0.460596  1
  Pb  Pb28  1  0.436263  0.371758  0.747612  1
  Pb  Pb29  1  0.941243  0.131393  0.747058  1
  Pb  Pb30  1  0.560384  0.628299  0.250611  1
  Pb  Pb31  1  0.061422  0.872699  0.250407  1
  Pb  Pb32  1  0.665664  0.849171  0.749741  1
  Pb  Pb33  1  0.165096  0.647831  0.748682  1
  Pb  Pb34  1  0.334835  0.150553  0.250251  1
  Pb  Pb35  1  0.835041  0.348795  0.250024  1
