# generated using pymatgen
data_Tm3(Zn2Pt)2
_symmetry_space_group_name_H-M   'P 1'
_cell_length_a   7.48065600
_cell_length_b   7.48065452
_cell_length_c   3.60366300
_cell_angle_alpha   90.00000000
_cell_angle_beta   90.00000000
_cell_angle_gamma   119.99999771
_symmetry_Int_Tables_number   1
_chemical_formula_structural   Tm3(Zn2Pt)2
_chemical_formula_sum   'Tm3 Zn4 Pt2'
_cell_volume   174.64417083
_cell_formula_units_Z   1
loop_
 _symmetry_equiv_pos_site_id
 _symmetry_equiv_pos_as_xyz
  1  'x, y, z'
loop_
 _atom_site_type_symbol
 _atom_site_label
 _atom_site_symmetry_multiplicity
 _atom_site_fract_x
 _atom_site_fract_y
 _atom_site_fract_z
 _atom_site_occupancy
  Tm  Tm0  1  0.408913  0.408913  0.000000  1
  Tm  Tm1  1  0.591087  0.000000  0.000000  1
  Tm  Tm2  1  0.000000  0.591087  0.000000  1
  Zn  Zn3  1  0.741373  0.741373  0.500000  1
  Zn  Zn4  1  0.258627  0.000000  0.500000  1
  Zn  Zn5  1  0.000000  0.258627  0.500000  1
  Zn  Zn6  1  0.000000  0.000000  0.000000  1
  Pt  Pt7  1  0.666667  0.333333  0.500000  1
  Pt  Pt8  1  0.333333  0.666667  0.500000  1
