# generated using pymatgen
data_Sc8Re(B8Os)3
_symmetry_space_group_name_H-M   'P 1'
_cell_length_a   3.50881000
_cell_length_b   8.87599175
_cell_length_c   11.19797694
_cell_angle_alpha   90.04707638
_cell_angle_beta   90.00000000
_cell_angle_gamma   90.00000000
_symmetry_Int_Tables_number   1
_chemical_formula_structural   Sc8Re(B8Os)3
_chemical_formula_sum   'Sc8 Re1 B24 Os3'
_cell_volume   348.75156433
_cell_formula_units_Z   1
loop_
 _symmetry_equiv_pos_site_id
 _symmetry_equiv_pos_as_xyz
  1  'x, y, z'
loop_
 _atom_site_type_symbol
 _atom_site_label
 _atom_site_symmetry_multiplicity
 _atom_site_fract_x
 _atom_site_fract_y
 _atom_site_fract_z
 _atom_site_occupancy
  Sc  Sc0  1  0.000000  0.317926  0.415036  1
  Sc  Sc1  1  0.000000  0.684939  0.588931  1
  Sc  Sc2  1  0.000000  0.818515  0.083574  1
  Sc  Sc3  1  0.000000  0.179564  0.912943  1
  Sc  Sc4  1  0.000000  0.943809  0.372850  1
  Sc  Sc5  1  0.000000  0.055453  0.627088  1
  Sc  Sc6  1  0.000000  0.443442  0.126999  1
  Sc  Sc7  1  0.000000  0.556019  0.873215  1
  Re  Re8  1  0.000000  0.862228  0.820568  1
  B  B9  1  0.500000  0.553131  0.435280  1
  B  B10  1  0.500000  0.447107  0.564878  1
  B  B11  1  0.500000  0.052951  0.065389  1
  B  B12  1  0.500000  0.947747  0.935292  1
  B  B13  1  0.500000  0.751952  0.421549  1
  B  B14  1  0.500000  0.248139  0.578283  1
  B  B15  1  0.500000  0.251449  0.078480  1
  B  B16  1  0.500000  0.747784  0.921505  1
  B  B17  1  0.500000  0.793288  0.264470  1
  B  B18  1  0.500000  0.206624  0.734868  1
  B  B19  1  0.500000  0.293690  0.235447  1
  B  B20  1  0.500000  0.705758  0.764470  1
  B  B21  1  0.500000  0.629320  0.182291  1
  B  B22  1  0.500000  0.370381  0.817198  1
  B  B23  1  0.500000  0.129505  0.317632  1
  B  B24  1  0.500000  0.870907  0.682501  1
  B  B25  1  0.500000  0.978938  0.212826  1
  B  B26  1  0.500000  0.022061  0.787111  1
  B  B27  1  0.500000  0.478852  0.287458  1
  B  B28  1  0.500000  0.521065  0.712687  1
  B  B29  1  0.500000  0.600626  0.028164  1
  B  B30  1  0.500000  0.397851  0.972071  1
  B  B31  1  0.500000  0.101775  0.471752  1
  B  B32  1  0.500000  0.898864  0.527497  1
  Os  Os33  1  0.000000  0.637818  0.320375  1
  Os  Os34  1  0.000000  0.362104  0.679010  1
  Os  Os35  1  0.000000  0.138421  0.180313  1
