# generated using pymatgen
data_DyY9(In2Ir)4
_symmetry_space_group_name_H-M   'P 1'
_cell_length_a   3.66906400
_cell_length_b   8.04724015
_cell_length_c   18.31663041
_cell_angle_alpha   90.10219575
_cell_angle_beta   90.00000000
_cell_angle_gamma   90.00000000
_symmetry_Int_Tables_number   1
_chemical_formula_structural   DyY9(In2Ir)4
_chemical_formula_sum   'Dy1 Y9 In8 Ir4'
_cell_volume   540.81302239
_cell_formula_units_Z   1
loop_
 _symmetry_equiv_pos_site_id
 _symmetry_equiv_pos_as_xyz
  1  'x, y, z'
loop_
 _atom_site_type_symbol
 _atom_site_label
 _atom_site_symmetry_multiplicity
 _atom_site_fract_x
 _atom_site_fract_y
 _atom_site_fract_z
 _atom_site_occupancy
  Dy  Dy0  1  0.000000  0.743615  0.277996  1
  Y  Y1  1  0.000000  0.114778  0.410551  1
  Y  Y2  1  0.000000  0.884589  0.589098  1
  Y  Y3  1  0.000000  0.384741  0.910909  1
  Y  Y4  1  0.000000  0.615595  0.089173  1
  Y  Y5  1  0.000000  0.243566  0.221759  1
  Y  Y6  1  0.000000  0.756772  0.778374  1
  Y  Y7  1  0.000000  0.256686  0.721756  1
  Y  Y8  1  0.000000  0.000171  0.999990  1
  Y  Y9  1  0.000000  0.499747  0.499936  1
  In  In10  1  0.500000  0.428978  0.350264  1
  In  In11  1  0.500000  0.571431  0.649668  1
  In  In12  1  0.500000  0.071392  0.850260  1
  In  In13  1  0.500000  0.928776  0.149535  1
  In  In14  1  0.500000  0.293432  0.068084  1
  In  In15  1  0.500000  0.707033  0.932237  1
  In  In16  1  0.500000  0.206753  0.567686  1
  In  In17  1  0.500000  0.792485  0.432156  1
  Ir  Ir18  1  0.500000  0.015115  0.303964  1
  Ir  Ir19  1  0.500000  0.981916  0.695857  1
  Ir  Ir20  1  0.500000  0.482325  0.804137  1
  Ir  Ir21  1  0.500000  0.520104  0.196611  1
