# generated using pymatgen
data_CaCdMo4(PO4)6
_symmetry_space_group_name_H-M   'P 1'
_cell_length_a   8.82544844
_cell_length_b   8.83042462
_cell_length_c   9.08580815
_cell_angle_alpha   60.63512708
_cell_angle_beta   60.61223901
_cell_angle_gamma   60.29417778
_symmetry_Int_Tables_number   1
_chemical_formula_structural   CaCdMo4(PO4)6
_chemical_formula_sum   'Ca1 Cd1 Mo4 P6 O24'
_cell_volume   506.49061463
_cell_formula_units_Z   1
loop_
 _symmetry_equiv_pos_site_id
 _symmetry_equiv_pos_as_xyz
  1  'x, y, z'
loop_
 _atom_site_type_symbol
 _atom_site_label
 _atom_site_symmetry_multiplicity
 _atom_site_fract_x
 _atom_site_fract_y
 _atom_site_fract_z
 _atom_site_occupancy
  Ca  Ca0  1  0.007108  0.495768  0.748852  1
  Cd  Cd1  1  0.506010  0.990641  0.251872  1
  Mo  Mo2  1  0.648809  0.138679  0.817625  1
  Mo  Mo3  1  0.861584  0.351417  0.181662  1
  Mo  Mo4  1  0.149535  0.641885  0.313213  1
  Mo  Mo5  1  0.357571  0.850605  0.687084  1
  P  P6  1  0.257179  0.451724  0.002317  1
  P  P7  1  0.458912  0.245091  0.502655  1
  P  P8  1  0.049339  0.952272  0.498376  1
  P  P9  1  0.961286  0.036656  0.001673  1
  P  P10  1  0.546477  0.743994  0.999970  1
  P  P11  1  0.754735  0.542325  0.494967  1
  O  O12  1  0.024667  0.108714  0.327491  1
  O  O13  1  0.798963  0.517422  0.322901  1
  O  O14  1  0.418182  0.264879  0.014257  1
  O  O15  1  0.321057  0.604798  0.829015  1
  O  O16  1  0.239868  0.925013  0.500257  1
  O  O17  1  0.616488  0.285804  0.332458  1
  O  O18  1  0.481771  0.201401  0.676141  1
  O  O19  1  0.096765  0.442019  0.984664  1
  O  O20  1  0.434224  0.077187  0.504626  1
  O  O21  1  0.269794  0.405688  0.500376  1
  O  O22  1  0.893679  0.974554  0.671378  1
  O  O23  1  0.078117  0.762065  0.496797  1
  O  O24  1  0.949104  0.225399  0.984835  1
  O  O25  1  0.110384  0.993085  0.830474  1
  O  O26  1  0.555812  0.906059  0.015959  1
  O  O27  1  0.733415  0.584471  0.987216  1
  O  O28  1  0.920639  0.568249  0.494299  1
  O  O29  1  0.506448  0.803264  0.829377  1
  O  O30  1  0.393806  0.680246  0.172472  1
  O  O31  1  0.772698  0.047636  0.017211  1
  O  O32  1  0.713045  0.385923  0.666884  1
  O  O33  1  0.592300  0.731611  0.497329  1
  O  O34  1  0.197789  0.492706  0.171867  1
  O  O35  1  0.005714  0.887474  0.171451  1
