# generated using pymatgen
data_Sr3TcBr2O5
_symmetry_space_group_name_H-M   'P 1'
_cell_length_a   7.38463720
_cell_length_b   7.38463675
_cell_length_c   11.34946300
_cell_angle_alpha   90.00000000
_cell_angle_beta   90.00000000
_cell_angle_gamma   134.19916692
_symmetry_Int_Tables_number   1
_chemical_formula_structural   Sr3TcBr2O5
_chemical_formula_sum   'Sr6 Tc2 Br4 O10'
_cell_volume   443.71566497
_cell_formula_units_Z   2
loop_
 _symmetry_equiv_pos_site_id
 _symmetry_equiv_pos_as_xyz
  1  'x, y, z'
loop_
 _atom_site_type_symbol
 _atom_site_label
 _atom_site_symmetry_multiplicity
 _atom_site_fract_x
 _atom_site_fract_y
 _atom_site_fract_z
 _atom_site_occupancy
  Sr  Sr0  1  0.660802  0.339198  0.535269  1
  Sr  Sr1  1  0.339198  0.660802  0.035269  1
  Sr  Sr2  1  0.660802  0.339198  0.964731  1
  Sr  Sr3  1  0.888866  0.111134  0.750000  1
  Sr  Sr4  1  0.339198  0.660802  0.464731  1
  Sr  Sr5  1  0.111134  0.888866  0.250000  1
  Tc  Tc6  1  0.765243  0.234757  0.250000  1
  Tc  Tc7  1  0.234757  0.765243  0.750000  1
  Br  Br8  1  0.498148  0.501852  0.250000  1
  Br  Br9  1  0.000000  0.000000  0.500000  1
  Br  Br10  1  0.501852  0.498148  0.750000  1
  Br  Br11  1  0.000000  0.000000  0.000000  1
  O  O12  1  0.496454  0.049347  0.365051  1
  O  O13  1  0.049347  0.496454  0.634949  1
  O  O14  1  0.503546  0.950653  0.865051  1
  O  O15  1  0.503546  0.950653  0.634949  1
  O  O16  1  0.109374  0.890626  0.750000  1
  O  O17  1  0.049347  0.496454  0.865051  1
  O  O18  1  0.496454  0.049347  0.134949  1
  O  O19  1  0.950653  0.503546  0.365051  1
  O  O20  1  0.890626  0.109374  0.250000  1
  O  O21  1  0.950653  0.503546  0.134949  1
