# generated using pymatgen
data_Y(ReO4)3
_symmetry_space_group_name_H-M   'P 1'
_cell_length_a   10.26126600
_cell_length_b   10.26126597
_cell_length_c   6.21406200
_cell_angle_alpha   90.00000000
_cell_angle_beta   90.00000000
_cell_angle_gamma   120.00000009
_symmetry_Int_Tables_number   1
_chemical_formula_structural   Y(ReO4)3
_chemical_formula_sum   'Y2 Re6 O24'
_cell_volume   566.64114185
_cell_formula_units_Z   2
loop_
 _symmetry_equiv_pos_site_id
 _symmetry_equiv_pos_as_xyz
  1  'x, y, z'
loop_
 _atom_site_type_symbol
 _atom_site_label
 _atom_site_symmetry_multiplicity
 _atom_site_fract_x
 _atom_site_fract_y
 _atom_site_fract_z
 _atom_site_occupancy
  Y  Y0  1  0.666667  0.333333  0.750000  1
  Y  Y1  1  0.333333  0.666667  0.250000  1
  Re  Re2  1  0.092034  0.396272  0.750000  1
  Re  Re3  1  0.396272  0.304239  0.250000  1
  Re  Re4  1  0.603728  0.695761  0.750000  1
  Re  Re5  1  0.907966  0.603728  0.250000  1
  Re  Re6  1  0.304239  0.907966  0.750000  1
  Re  Re7  1  0.695761  0.092034  0.250000  1
  O  O8  1  0.488094  0.647979  0.519561  1
  O  O9  1  0.352021  0.840115  0.519561  1
  O  O10  1  0.842853  0.729562  0.250000  1
  O  O11  1  0.113291  0.842853  0.750000  1
  O  O12  1  0.270438  0.113291  0.250000  1
  O  O13  1  0.157147  0.270438  0.750000  1
  O  O14  1  0.511906  0.352021  0.019561  1
  O  O15  1  0.886709  0.157147  0.250000  1
  O  O16  1  0.105541  0.700462  0.250000  1
  O  O17  1  0.159885  0.511906  0.980439  1
  O  O18  1  0.159885  0.511906  0.519561  1
  O  O19  1  0.894459  0.299538  0.750000  1
  O  O20  1  0.299538  0.405080  0.250000  1
  O  O21  1  0.700462  0.594920  0.750000  1
  O  O22  1  0.840115  0.488094  0.480439  1
  O  O23  1  0.405080  0.105541  0.750000  1
  O  O24  1  0.647979  0.159885  0.019561  1
  O  O25  1  0.488094  0.647979  0.980439  1
  O  O26  1  0.352021  0.840115  0.980439  1
  O  O27  1  0.647979  0.159885  0.480439  1
  O  O28  1  0.511906  0.352021  0.480439  1
  O  O29  1  0.840115  0.488094  0.019561  1
  O  O30  1  0.729562  0.886709  0.750000  1
  O  O31  1  0.594920  0.894459  0.250000  1
