# generated using pymatgen
data_DyY15MgAg3Rh4
_symmetry_space_group_name_H-M   'P 1'
_cell_length_a   9.57974727
_cell_length_b   9.60852966
_cell_length_c   9.60853069
_cell_angle_alpha   60.25821223
_cell_angle_beta   60.25393620
_cell_angle_gamma   60.25393638
_symmetry_Int_Tables_number   1
_chemical_formula_structural   DyY15MgAg3Rh4
_chemical_formula_sum   'Dy1 Y15 Mg1 Ag3 Rh4'
_cell_volume   629.00788735
_cell_formula_units_Z   1
loop_
 _symmetry_equiv_pos_site_id
 _symmetry_equiv_pos_as_xyz
  1  'x, y, z'
loop_
 _atom_site_type_symbol
 _atom_site_label
 _atom_site_symmetry_multiplicity
 _atom_site_fract_x
 _atom_site_fract_y
 _atom_site_fract_z
 _atom_site_occupancy
  Dy  Dy0  1  0.648428  0.651038  0.651038  1
  Y  Y1  1  0.065802  0.436013  0.436013  1
  Y  Y2  1  0.649081  0.049505  0.650375  1
  Y  Y3  1  0.813722  0.812742  0.187462  1
  Y  Y4  1  0.435198  0.064753  0.064753  1
  Y  Y5  1  0.436820  0.435343  0.063522  1
  Y  Y6  1  0.190153  0.189095  0.811388  1
  Y  Y7  1  0.814197  0.187165  0.187165  1
  Y  Y8  1  0.066311  0.435701  0.063054  1
  Y  Y9  1  0.436820  0.063522  0.435343  1
  Y  Y10  1  0.063177  0.645503  0.645503  1
  Y  Y11  1  0.190148  0.811448  0.811448  1
  Y  Y12  1  0.649081  0.650375  0.049505  1
  Y  Y13  1  0.190153  0.811388  0.189095  1
  Y  Y14  1  0.066311  0.063054  0.435701  1
  Y  Y15  1  0.813722  0.187462  0.812742  1
  Mg  Mg16  1  0.713359  0.428529  0.428529  1
  Ag  Ag17  1  0.417441  0.415577  0.749634  1
  Ag  Ag18  1  0.417868  0.416020  0.416020  1
  Ag  Ag19  1  0.417441  0.749634  0.415577  1
  Rh  Rh20  1  0.857945  0.429878  0.854004  1
  Rh  Rh21  1  0.428799  0.856088  0.856088  1
  Rh  Rh22  1  0.857945  0.854004  0.429878  1
  Rh  Rh23  1  0.860085  0.856165  0.856165  1
