# generated using pymatgen
data_ScNb2Co(BRu2)2
_symmetry_space_group_name_H-M   'P 1'
_cell_length_a   9.29135887
_cell_length_b   9.29135887
_cell_length_c   3.07945800
_cell_angle_alpha   90.00000000
_cell_angle_beta   90.00000000
_cell_angle_gamma   90.14913228
_symmetry_Int_Tables_number   1
_chemical_formula_structural   ScNb2Co(BRu2)2
_chemical_formula_sum   'Sc2 Nb4 Co2 B4 Ru8'
_cell_volume   265.84670579
_cell_formula_units_Z   2
loop_
 _symmetry_equiv_pos_site_id
 _symmetry_equiv_pos_as_xyz
  1  'x, y, z'
loop_
 _atom_site_type_symbol
 _atom_site_label
 _atom_site_symmetry_multiplicity
 _atom_site_fract_x
 _atom_site_fract_y
 _atom_site_fract_z
 _atom_site_occupancy
  Sc  Sc0  1  0.824585  0.675415  0.000000  1
  Sc  Sc1  1  0.175415  0.324585  0.000000  1
  Nb  Nb2  1  0.324031  0.824031  0.000000  1
  Nb  Nb3  1  0.675969  0.175969  0.000000  1
  Nb  Nb4  1  0.500000  0.500000  0.000000  1
  Nb  Nb5  1  0.000000  0.000000  0.000000  1
  Co  Co6  1  0.500000  0.000000  0.500000  1
  Co  Co7  1  0.000000  0.500000  0.500000  1
  B  B8  1  0.611404  0.888596  0.000000  1
  B  B9  1  0.388596  0.111404  0.000000  1
  B  B10  1  0.109864  0.609864  0.000000  1
  B  B11  1  0.890136  0.390136  0.000000  1
  Ru  Ru12  1  0.558821  0.727379  0.500000  1
  Ru  Ru13  1  0.441179  0.272621  0.500000  1
  Ru  Ru14  1  0.069536  0.777191  0.500000  1
  Ru  Ru15  1  0.930464  0.222809  0.500000  1
  Ru  Ru16  1  0.277191  0.569536  0.500000  1
  Ru  Ru17  1  0.722809  0.430464  0.500000  1
  Ru  Ru18  1  0.227379  0.058821  0.500000  1
  Ru  Ru19  1  0.772621  0.941179  0.500000  1
