# generated using pymatgen
data_Sr12Mg2Zn3Co7(TeO6)8
_symmetry_space_group_name_H-M   'P 1'
_cell_length_a   11.28386783
_cell_length_b   11.28533416
_cell_length_c   11.28443100
_cell_angle_alpha   109.44249938
_cell_angle_beta   109.43720134
_cell_angle_gamma   109.53482430
_symmetry_Int_Tables_number   1
_chemical_formula_structural   Sr12Mg2Zn3Co7(TeO6)8
_chemical_formula_sum   'Sr12 Mg2 Zn3 Co7 Te8 O48'
_cell_volume   1106.17862733
_cell_formula_units_Z   1
loop_
 _symmetry_equiv_pos_site_id
 _symmetry_equiv_pos_as_xyz
  1  'x, y, z'
loop_
 _atom_site_type_symbol
 _atom_site_label
 _atom_site_symmetry_multiplicity
 _atom_site_fract_x
 _atom_site_fract_y
 _atom_site_fract_z
 _atom_site_occupancy
  Sr  Sr0  1  0.374776  0.750051  0.124771  1
  Sr  Sr1  1  0.250018  0.374724  0.124789  1
  Sr  Sr2  1  0.874908  0.624904  0.249865  1
  Sr  Sr3  1  0.374679  0.124670  0.249298  1
  Sr  Sr4  1  0.126248  0.250020  0.376335  1
  Sr  Sr5  1  0.750056  0.126315  0.376314  1
  Sr  Sr6  1  0.875452  0.750358  0.625058  1
  Sr  Sr7  1  0.249639  0.874685  0.625086  1
  Sr  Sr8  1  0.125403  0.375411  0.750806  1
  Sr  Sr9  1  0.624978  0.875000  0.749976  1
  Sr  Sr10  1  0.623490  0.249535  0.873850  1
  Sr  Sr11  1  0.750355  0.624307  0.873830  1
  Mg  Mg12  1  0.749810  0.874774  0.125041  1
  Mg  Mg13  1  0.875200  0.250286  0.125083  1
  Zn  Zn14  1  0.374700  0.624931  0.749877  1
  Zn  Zn15  1  0.124945  0.750126  0.874898  1
  Zn  Zn16  1  0.249922  0.124742  0.874890  1
  Co  Co17  1  0.624711  0.374964  0.249914  1
  Co  Co18  1  0.125153  0.874957  0.249879  1
  Co  Co19  1  0.624804  0.749882  0.375031  1
  Co  Co20  1  0.250248  0.625162  0.375035  1
  Co  Co21  1  0.375015  0.249933  0.625182  1
  Co  Co22  1  0.750125  0.375226  0.625160  1
  Co  Co23  1  0.875159  0.124915  0.749848  1
  Te  Te24  1  0.999745  0.000005  0.000148  1
  Te  Te25  1  0.500493  0.000254  0.000270  1
  Te  Te26  1  0.999440  0.499694  0.999937  1
  Te  Te27  1  0.500536  0.500154  0.999967  1
  Te  Te28  1  0.999705  0.000354  0.499874  1
  Te  Te29  1  0.499996  0.500045  0.499897  1
  Te  Te30  1  0.500038  0.999945  0.500024  1
  Te  Te31  1  0.000048  0.499531  0.499859  1
  O  O32  1  0.330560  0.905807  0.017807  1
  O  O33  1  0.187338  0.112062  0.017835  1
  O  O34  1  0.685616  0.669838  0.073885  1
  O  O35  1  0.888216  0.404015  0.073890  1
  O  O36  1  0.982244  0.669752  0.094358  1
  O  O37  1  0.612111  0.424582  0.094407  1
  O  O38  1  0.596325  0.926557  0.111547  1
  O  O39  1  0.015199  0.185016  0.111530  1
  O  O40  1  0.187079  0.575263  0.169744  1
  O  O41  1  0.482667  0.594453  0.169640  1
  O  O42  1  0.575197  0.169903  0.187415  1
  O  O43  1  0.112291  0.017631  0.187455  1
  O  O44  1  0.330356  0.924305  0.312556  1
  O  O45  1  0.482284  0.388256  0.312532  1
  O  O46  1  0.903910  0.015730  0.330127  1
  O  O47  1  0.926249  0.314494  0.330216  1
  O  O48  1  0.575591  0.905745  0.387953  1
  O  O49  1  0.312402  0.482200  0.387950  1
  O  O50  1  0.830232  0.517021  0.405466  1
  O  O51  1  0.075218  0.888390  0.405541  1
  O  O52  1  0.830023  0.812479  0.424520  1
  O  O53  1  0.094430  0.611962  0.424519  1
  O  O54  1  0.594217  0.170096  0.482637  1
  O  O55  1  0.388510  0.312619  0.482629  1
  O  O56  1  0.611992  0.687658  0.517784  1
  O  O57  1  0.405760  0.830094  0.517819  1
  O  O58  1  0.170020  0.187594  0.575739  1
  O  O59  1  0.905743  0.388209  0.575747  1
  O  O60  1  0.924621  0.112203  0.594479  1
  O  O61  1  0.169652  0.481965  0.594203  1
  O  O62  1  0.687403  0.517558  0.611459  1
  O  O63  1  0.424018  0.093905  0.611493  1
  O  O64  1  0.093887  0.982187  0.669403  1
  O  O65  1  0.075491  0.687192  0.669362  1
  O  O66  1  0.517904  0.611911  0.687479  1
  O  O67  1  0.669773  0.075486  0.687371  1
  O  O68  1  0.888135  0.982728  0.813095  1
  O  O69  1  0.424862  0.830581  0.812945  1
  O  O70  1  0.517554  0.405603  0.829984  1
  O  O71  1  0.812387  0.424328  0.829909  1
  O  O72  1  0.982193  0.812678  0.887817  1
  O  O73  1  0.405675  0.075073  0.887861  1
  O  O74  1  0.017538  0.330284  0.905793  1
  O  O75  1  0.388218  0.575613  0.906100  1
  O  O76  1  0.111817  0.594165  0.924582  1
  O  O77  1  0.312826  0.330460  0.924584  1
  O  O78  1  0.669981  0.096278  0.984526  1
  O  O79  1  0.814483  0.888201  0.984511  1
