# generated using pymatgen
data_Dy3YVRe3B16
_symmetry_space_group_name_H-M   'P 1'
_cell_length_a   3.58664800
_cell_length_b   5.98014340
_cell_length_c   11.56490700
_cell_angle_alpha   89.88881581
_cell_angle_beta   90.00000000
_cell_angle_gamma   90.00000000
_symmetry_Int_Tables_number   1
_chemical_formula_structural   Dy3YVRe3B16
_chemical_formula_sum   'Dy3 Y1 V1 Re3 B16'
_cell_volume   248.05139940
_cell_formula_units_Z   1
loop_
 _symmetry_equiv_pos_site_id
 _symmetry_equiv_pos_as_xyz
  1  'x, y, z'
loop_
 _atom_site_type_symbol
 _atom_site_label
 _atom_site_symmetry_multiplicity
 _atom_site_fract_x
 _atom_site_fract_y
 _atom_site_fract_z
 _atom_site_occupancy
  Dy  Dy0  1  0.000000  0.375165  0.649372  1
  Dy  Dy1  1  0.000000  0.126255  0.151069  1
  Dy  Dy2  1  0.000000  0.873238  0.847725  1
  Y  Y3  1  0.000000  0.625822  0.351088  1
  V  V4  1  0.000000  0.872131  0.582736  1
  Re  Re5  1  0.000000  0.632863  0.086810  1
  Re  Re6  1  0.000000  0.367141  0.914138  1
  Re  Re7  1  0.000000  0.126775  0.416128  1
  B  B8  1  0.500000  0.785524  0.185618  1
  B  B9  1  0.500000  0.214660  0.814447  1
  B  B10  1  0.500000  0.285722  0.315431  1
  B  B11  1  0.500000  0.714261  0.684784  1
  B  B12  1  0.500000  0.863968  0.031617  1
  B  B13  1  0.500000  0.136152  0.968310  1
  B  B14  1  0.500000  0.364372  0.467947  1
  B  B15  1  0.500000  0.635394  0.532583  1
  B  B16  1  0.500000  0.885932  0.453252  1
  B  B17  1  0.500000  0.114221  0.547171  1
  B  B18  1  0.500000  0.386123  0.047310  1
  B  B19  1  0.500000  0.614367  0.952601  1
  B  B20  1  0.500000  0.976647  0.307873  1
  B  B21  1  0.500000  0.023207  0.692206  1
  B  B22  1  0.500000  0.476038  0.192271  1
  B  B23  1  0.500000  0.524021  0.807511  1
