# generated using pymatgen
data_Tm4Ga20Tc5Pt
_symmetry_space_group_name_H-M   'P 1'
_cell_length_a   9.05487400
_cell_length_b   9.05487400
_cell_length_c   6.29501400
_cell_angle_alpha   90.00000000
_cell_angle_beta   90.00000000
_cell_angle_gamma   90.00000000
_symmetry_Int_Tables_number   1
_chemical_formula_structural   Tm4Ga20Tc5Pt
_chemical_formula_sum   'Tm4 Ga20 Tc5 Pt1'
_cell_volume   516.13287604
_cell_formula_units_Z   1
loop_
 _symmetry_equiv_pos_site_id
 _symmetry_equiv_pos_as_xyz
  1  'x, y, z'
loop_
 _atom_site_type_symbol
 _atom_site_label
 _atom_site_symmetry_multiplicity
 _atom_site_fract_x
 _atom_site_fract_y
 _atom_site_fract_z
 _atom_site_occupancy
  Tm  Tm0  1  0.185688  0.320804  0.000000  1
  Tm  Tm1  1  0.679196  0.185688  0.000000  1
  Tm  Tm2  1  0.814312  0.679196  0.000000  1
  Tm  Tm3  1  0.320804  0.814312  0.000000  1
  Ga  Ga4  1  0.500000  0.000000  0.284417  1
  Ga  Ga5  1  0.500000  0.000000  0.715583  1
  Ga  Ga6  1  0.294589  0.559365  0.708127  1
  Ga  Ga7  1  0.000000  0.500000  0.284417  1
  Ga  Ga8  1  0.000000  0.500000  0.715583  1
  Ga  Ga9  1  0.062107  0.789755  0.707137  1
  Ga  Ga10  1  0.210245  0.062107  0.292863  1
  Ga  Ga11  1  0.062107  0.789755  0.292863  1
  Ga  Ga12  1  0.705411  0.440635  0.708127  1
  Ga  Ga13  1  0.210245  0.062107  0.707137  1
  Ga  Ga14  1  0.937893  0.210245  0.707137  1
  Ga  Ga15  1  0.705411  0.440635  0.291873  1
  Ga  Ga16  1  0.559365  0.705411  0.291873  1
  Ga  Ga17  1  0.937893  0.210245  0.292863  1
  Ga  Ga18  1  0.559365  0.705411  0.708127  1
  Ga  Ga19  1  0.789755  0.937893  0.292863  1
  Ga  Ga20  1  0.440635  0.294589  0.708127  1
  Ga  Ga21  1  0.789755  0.937893  0.707137  1
  Ga  Ga22  1  0.440635  0.294589  0.291873  1
  Ga  Ga23  1  0.294589  0.559365  0.291873  1
  Tc  Tc24  1  0.176347  0.318237  0.500000  1
  Tc  Tc25  1  0.318237  0.823653  0.500000  1
  Tc  Tc26  1  0.823653  0.681763  0.500000  1
  Tc  Tc27  1  0.681763  0.176347  0.500000  1
  Tc  Tc28  1  0.500000  0.500000  0.000000  1
  Pt  Pt29  1  0.000000  0.000000  0.000000  1
