# generated using pymatgen
data_TmNb5Fe2(BRu2)4
_symmetry_space_group_name_H-M   'P 1'
_cell_length_a   9.37333391
_cell_length_b   9.37333418
_cell_length_c   3.07321600
_cell_angle_alpha   90.00000000
_cell_angle_beta   90.00000000
_cell_angle_gamma   90.36864237
_symmetry_Int_Tables_number   1
_chemical_formula_structural   TmNb5Fe2(BRu2)4
_chemical_formula_sum   'Tm1 Nb5 Fe2 B4 Ru8'
_cell_volume   270.00529780
_cell_formula_units_Z   1
loop_
 _symmetry_equiv_pos_site_id
 _symmetry_equiv_pos_as_xyz
  1  'x, y, z'
loop_
 _atom_site_type_symbol
 _atom_site_label
 _atom_site_symmetry_multiplicity
 _atom_site_fract_x
 _atom_site_fract_y
 _atom_site_fract_z
 _atom_site_occupancy
  Tm  Tm0  1  0.825380  0.674620  0.000000  1
  Nb  Nb1  1  0.171945  0.328055  0.000000  1
  Nb  Nb2  1  0.326856  0.829223  0.000000  1
  Nb  Nb3  1  0.670777  0.173144  0.000000  1
  Nb  Nb4  1  0.502002  0.500195  0.000000  1
  Nb  Nb5  1  0.999805  0.997998  0.000000  1
  Fe  Fe6  1  0.496288  0.003712  0.500000  1
  Fe  Fe7  1  0.009971  0.490029  0.500000  1
  B  B8  1  0.610088  0.889912  0.000000  1
  B  B9  1  0.386373  0.113627  0.000000  1
  B  B10  1  0.116250  0.610045  0.000000  1
  B  B11  1  0.889955  0.383750  0.000000  1
  Ru  Ru12  1  0.556040  0.729161  0.500000  1
  Ru  Ru13  1  0.430593  0.278244  0.500000  1
  Ru  Ru14  1  0.076996  0.776731  0.500000  1
  Ru  Ru15  1  0.934763  0.219947  0.500000  1
  Ru  Ru16  1  0.280053  0.565237  0.500000  1
  Ru  Ru17  1  0.723269  0.423004  0.500000  1
  Ru  Ru18  1  0.221756  0.069407  0.500000  1
  Ru  Ru19  1  0.770839  0.943960  0.500000  1
