# generated using pymatgen
data_Pr3YSi2(P4O15)2
_symmetry_space_group_name_H-M   'P 1'
_cell_length_a   5.71395157
_cell_length_b   7.23612414
_cell_length_c   16.71722443
_cell_angle_alpha   90.41586833
_cell_angle_beta   90.08848094
_cell_angle_gamma   89.93689938
_symmetry_Int_Tables_number   1
_chemical_formula_structural   Pr3YSi2(P4O15)2
_chemical_formula_sum   'Pr3 Y1 Si2 P8 O30'
_cell_volume   691.18534357
_cell_formula_units_Z   1
loop_
 _symmetry_equiv_pos_site_id
 _symmetry_equiv_pos_as_xyz
  1  'x, y, z'
loop_
 _atom_site_type_symbol
 _atom_site_label
 _atom_site_symmetry_multiplicity
 _atom_site_fract_x
 _atom_site_fract_y
 _atom_site_fract_z
 _atom_site_occupancy
  Pr  Pr0  1  0.864997  0.405344  0.782824  1
  Pr  Pr1  1  0.865594  0.592839  0.215247  1
  Pr  Pr2  1  0.140353  0.092962  0.284480  1
  Y  Y3  1  0.136545  0.903908  0.716058  1
  Si  Si4  1  0.456584  0.502583  0.501590  1
  Si  Si5  1  0.540206  0.998225  0.997532  1
  P  P6  1  0.693083  0.913239  0.827555  1
  P  P7  1  0.696642  0.086007  0.165677  1
  P  P8  1  0.309736  0.587931  0.333377  1
  P  P9  1  0.305763  0.411811  0.667555  1
  P  P10  1  0.648276  0.142173  0.433020  1
  P  P11  1  0.636865  0.861852  0.575962  1
  P  P12  1  0.354250  0.356726  0.929581  1
  P  P13  1  0.354718  0.640967  0.068833  1
  O  O14  1  0.639743  0.339881  0.474856  1
  O  O15  1  0.631935  0.669993  0.529440  1
  O  O16  1  0.357598  0.163296  0.973976  1
  O  O17  1  0.362146  0.831777  0.022624  1
  O  O18  1  0.717103  0.060738  0.070215  1
  O  O19  1  0.709961  0.936521  0.923173  1
  O  O20  1  0.279091  0.433516  0.572070  1
  O  O21  1  0.284785  0.568846  0.428661  1
  O  O22  1  0.840579  0.070457  0.790339  1
  O  O23  1  0.835541  0.925807  0.204482  1
  O  O24  1  0.173278  0.425164  0.294820  1
  O  O25  1  0.172288  0.577005  0.706227  1
  O  O26  1  0.434955  0.913483  0.805710  1
  O  O27  1  0.438654  0.090064  0.186307  1
  O  O28  1  0.568491  0.590904  0.314142  1
  O  O29  1  0.565545  0.408000  0.685418  1
  O  O30  1  0.832161  0.738578  0.803801  1
  O  O31  1  0.835449  0.260331  0.190255  1
  O  O32  1  0.169924  0.760103  0.307409  1
  O  O33  1  0.168090  0.238075  0.693196  1
  O  O34  1  0.439858  0.116498  0.379420  1
  O  O35  1  0.420329  0.882451  0.625930  1
  O  O36  1  0.554003  0.367362  0.871720  1
  O  O37  1  0.552575  0.630569  0.127673  1
  O  O38  1  0.885028  0.115160  0.396336  1
  O  O39  1  0.869336  0.881648  0.617025  1
  O  O40  1  0.112680  0.390432  0.897920  1
  O  O41  1  0.112290  0.612089  0.100473  1
  O  O42  1  0.614551  0.008475  0.506800  1
  O  O43  1  0.418419  0.496212  0.000291  1
