# generated using pymatgen
data_Ti5Al16AsRh7
_symmetry_space_group_name_H-M   'P 1'
_cell_length_a   8.62335543
_cell_length_b   8.62335611
_cell_length_c   8.52979300
_cell_angle_alpha   60.35827341
_cell_angle_beta   60.35827084
_cell_angle_gamma   59.28346963
_symmetry_Int_Tables_number   1
_chemical_formula_structural   Ti5Al16AsRh7
_chemical_formula_sum   'Ti5 Al16 As1 Rh7'
_cell_volume   448.40968065
_cell_formula_units_Z   1
loop_
 _symmetry_equiv_pos_site_id
 _symmetry_equiv_pos_as_xyz
  1  'x, y, z'
loop_
 _atom_site_type_symbol
 _atom_site_label
 _atom_site_symmetry_multiplicity
 _atom_site_fract_x
 _atom_site_fract_y
 _atom_site_fract_z
 _atom_site_occupancy
  Ti  Ti0  1  0.290127  0.709402  0.290598  1
  Ti  Ti1  1  0.709402  0.290127  0.290598  1
  Ti  Ti2  1  0.313851  0.313851  0.686149  1
  Ti  Ti3  1  0.709402  0.290127  0.709873  1
  Ti  Ti4  1  0.290127  0.709402  0.709873  1
  Al  Al5  1  0.883608  0.883608  0.351559  1
  Al  Al6  1  0.883494  0.375149  0.870679  1
  Al  Al7  1  0.375149  0.883494  0.870679  1
  Al  Al8  1  0.883608  0.883608  0.881227  1
  Al  Al9  1  0.129321  0.129321  0.624851  1
  Al  Al10  1  0.118773  0.648441  0.116392  1
  Al  Al11  1  0.648441  0.118773  0.116392  1
  Al  Al12  1  0.129321  0.129321  0.116506  1
  Al  Al13  1  0.660975  0.660975  0.056896  1
  Al  Al14  1  0.670292  0.030852  0.649427  1
  Al  Al15  1  0.030852  0.670292  0.649427  1
  Al  Al16  1  0.660975  0.660975  0.621152  1
  Al  Al17  1  0.350573  0.350573  0.969148  1
  Al  Al18  1  0.378848  0.943104  0.339025  1
  Al  Al19  1  0.943104  0.378848  0.339025  1
  Al  Al20  1  0.350573  0.350573  0.329708  1
  As  As21  1  0.526430  0.526430  0.473570  1
  Rh  Rh22  1  0.012384  0.012384  0.987616  1
  Rh  Rh23  1  0.011161  0.011161  0.488839  1
  Rh  Rh24  1  0.503534  0.010489  0.496466  1
  Rh  Rh25  1  0.010489  0.503534  0.496466  1
  Rh  Rh26  1  0.511161  0.511161  0.988839  1
  Rh  Rh27  1  0.010489  0.503534  0.989511  1
  Rh  Rh28  1  0.503534  0.010489  0.989511  1
