# generated using pymatgen
data_Tm8Sc12Si15B
_symmetry_space_group_name_H-M   'P 1'
_cell_length_a   6.98269610
_cell_length_b   7.33418684
_cell_length_c   13.85527700
_cell_angle_alpha   90.00000000
_cell_angle_beta   90.00000000
_cell_angle_gamma   89.40421248
_symmetry_Int_Tables_number   1
_chemical_formula_structural   Tm8Sc12Si15B
_chemical_formula_sum   'Tm8 Sc12 Si15 B1'
_cell_volume   709.52359601
_cell_formula_units_Z   1
loop_
 _symmetry_equiv_pos_site_id
 _symmetry_equiv_pos_as_xyz
  1  'x, y, z'
loop_
 _atom_site_type_symbol
 _atom_site_label
 _atom_site_symmetry_multiplicity
 _atom_site_fract_x
 _atom_site_fract_y
 _atom_site_fract_z
 _atom_site_occupancy
  Tm  Tm0  1  0.010143  0.178657  0.096412  1
  Tm  Tm1  1  0.988539  0.828769  0.902841  1
  Tm  Tm2  1  0.489036  0.678630  0.902173  1
  Tm  Tm3  1  0.988539  0.828769  0.597159  1
  Tm  Tm4  1  0.511285  0.324221  0.095014  1
  Tm  Tm5  1  0.010143  0.178657  0.403588  1
  Tm  Tm6  1  0.511285  0.324221  0.404986  1
  Tm  Tm7  1  0.489036  0.678630  0.597827  1
  Sc  Sc8  1  0.167298  0.510667  0.750000  1
  Sc  Sc9  1  0.838398  0.497020  0.250000  1
  Sc  Sc10  1  0.338092  0.003833  0.250000  1
  Sc  Sc11  1  0.673196  0.997179  0.750000  1
  Sc  Sc12  1  0.314773  0.174370  0.629327  1
  Sc  Sc13  1  0.669161  0.823358  0.375771  1
  Sc  Sc14  1  0.168223  0.677148  0.375777  1
  Sc  Sc15  1  0.669161  0.823358  0.124229  1
  Sc  Sc16  1  0.849265  0.309766  0.631996  1
  Sc  Sc17  1  0.314773  0.174370  0.870673  1
  Sc  Sc18  1  0.849265  0.309766  0.868004  1
  Sc  Sc19  1  0.168223  0.677148  0.124223  1
  Si  Si20  1  0.966290  0.885252  0.250000  1
  Si  Si21  1  0.467232  0.614579  0.250000  1
  Si  Si22  1  0.538259  0.381850  0.750000  1
  Si  Si23  1  0.267984  0.883549  0.750000  1
  Si  Si24  1  0.712203  0.131072  0.250000  1
  Si  Si25  1  0.214840  0.370701  0.250000  1
  Si  Si26  1  0.787455  0.625268  0.750000  1
  Si  Si27  1  0.160750  0.467442  0.539997  1
  Si  Si28  1  0.838349  0.533925  0.465203  1
  Si  Si29  1  0.338208  0.965308  0.463148  1
  Si  Si30  1  0.838349  0.533925  0.034797  1
  Si  Si31  1  0.655889  0.037249  0.540868  1
  Si  Si32  1  0.160750  0.467442  0.960003  1
  Si  Si33  1  0.655889  0.037249  0.959132  1
  Si  Si34  1  0.338208  0.965308  0.036852  1
  B  B35  1  0.041509  0.101344  0.750000  1
