# generated using pymatgen
data_Pr3DyO6
_symmetry_space_group_name_H-M   'P 1'
_cell_length_a   7.01988317
_cell_length_b   7.01988274
_cell_length_c   7.01988245
_cell_angle_alpha   92.05762485
_cell_angle_beta   92.05762229
_cell_angle_gamma   92.05763361
_symmetry_Int_Tables_number   1
_chemical_formula_structural   Pr3DyO6
_chemical_formula_sum   'Pr6 Dy2 O12'
_cell_volume   345.24545578
_cell_formula_units_Z   2
loop_
 _symmetry_equiv_pos_site_id
 _symmetry_equiv_pos_as_xyz
  1  'x, y, z'
loop_
 _atom_site_type_symbol
 _atom_site_label
 _atom_site_symmetry_multiplicity
 _atom_site_fract_x
 _atom_site_fract_y
 _atom_site_fract_z
 _atom_site_occupancy
  Pr  Pr0  1  0.557767  0.064181  0.253072  1
  Pr  Pr1  1  0.064181  0.253072  0.557767  1
  Pr  Pr2  1  0.746928  0.442233  0.935819  1
  Pr  Pr3  1  0.253072  0.557767  0.064181  1
  Pr  Pr4  1  0.935819  0.746928  0.442233  1
  Pr  Pr5  1  0.442233  0.935819  0.746928  1
  Dy  Dy6  1  0.000000  0.000000  0.000000  1
  Dy  Dy7  1  0.500000  0.500000  0.500000  1
  O  O8  1  0.691468  0.088714  0.933959  1
  O  O9  1  0.911286  0.066041  0.308532  1
  O  O10  1  0.403498  0.191067  0.534348  1
  O  O11  1  0.066041  0.308532  0.911286  1
  O  O12  1  0.534348  0.403498  0.191067  1
  O  O13  1  0.808933  0.465652  0.596502  1
  O  O14  1  0.191067  0.534348  0.403498  1
  O  O15  1  0.465652  0.596502  0.808933  1
  O  O16  1  0.933959  0.691468  0.088714  1
  O  O17  1  0.596502  0.808933  0.465652  1
  O  O18  1  0.088714  0.933959  0.691468  1
  O  O19  1  0.308532  0.911286  0.066041  1
