# generated using pymatgen
data_Yb7HoAsPd24
_symmetry_space_group_name_H-M   'P 1'
_cell_length_a   8.28974935
_cell_length_b   8.28974869
_cell_length_c   8.28974900
_cell_angle_alpha   89.98343970
_cell_angle_beta   90.01656029
_cell_angle_gamma   90.01655817
_symmetry_Int_Tables_number   1
_chemical_formula_structural   Yb7HoAsPd24
_chemical_formula_sum   'Yb7 Ho1 As1 Pd24'
_cell_volume   569.67097260
_cell_formula_units_Z   1
loop_
 _symmetry_equiv_pos_site_id
 _symmetry_equiv_pos_as_xyz
  1  'x, y, z'
loop_
 _atom_site_type_symbol
 _atom_site_label
 _atom_site_symmetry_multiplicity
 _atom_site_fract_x
 _atom_site_fract_y
 _atom_site_fract_z
 _atom_site_occupancy
  Yb  Yb0  1  0.252698  0.252830  0.252830  1
  Yb  Yb1  1  0.746957  0.747161  0.747161  1
  Yb  Yb2  1  0.747170  0.747302  0.252830  1
  Yb  Yb3  1  0.747170  0.252830  0.747302  1
  Yb  Yb4  1  0.252839  0.253043  0.747161  1
  Yb  Yb5  1  0.252839  0.747161  0.253043  1
  Yb  Yb6  1  0.253029  0.746971  0.746971  1
  Ho  Ho7  1  0.745851  0.254149  0.254149  1
  As  As8  1  0.000644  0.999356  0.999356  1
  Pd  Pd9  1  0.259815  0.500226  0.000205  1
  Pd  Pd10  1  0.740406  0.499641  0.000406  1
  Pd  Pd11  1  0.999594  0.259594  0.499641  1
  Pd  Pd12  1  0.500359  0.259594  0.000406  1
  Pd  Pd13  1  0.999795  0.740185  0.500226  1
  Pd  Pd14  1  0.499774  0.740185  0.000205  1
  Pd  Pd15  1  0.500359  0.000406  0.259594  1
  Pd  Pd16  1  0.259815  0.000205  0.500226  1
  Pd  Pd17  1  0.499774  0.000205  0.740185  1
  Pd  Pd18  1  0.740406  0.000406  0.499641  1
  Pd  Pd19  1  0.999594  0.499641  0.259594  1
  Pd  Pd20  1  0.999795  0.500226  0.740185  1
  Pd  Pd21  1  0.252601  0.499816  0.499816  1
  Pd  Pd22  1  0.747353  0.500133  0.500133  1
  Pd  Pd23  1  0.499867  0.252647  0.500133  1
  Pd  Pd24  1  0.500184  0.747399  0.499816  1
  Pd  Pd25  1  0.499867  0.500133  0.252647  1
  Pd  Pd26  1  0.500184  0.499816  0.747399  1
  Pd  Pd27  1  0.290488  0.000006  0.000006  1
  Pd  Pd28  1  0.710021  0.999618  0.999618  1
  Pd  Pd29  1  0.000382  0.289979  0.999618  1
  Pd  Pd30  1  0.999994  0.709512  0.000006  1
  Pd  Pd31  1  0.000382  0.999618  0.289979  1
  Pd  Pd32  1  0.999994  0.000006  0.709512  1
