# generated using pymatgen
data_La3TiAgS7
_symmetry_space_group_name_H-M   'P 1'
_cell_length_a   10.44669603
_cell_length_b   10.44849647
_cell_length_c   5.95671700
_cell_angle_alpha   90.00000000
_cell_angle_beta   90.00000000
_cell_angle_gamma   120.00277408
_symmetry_Int_Tables_number   1
_chemical_formula_structural   La3TiAgS7
_chemical_formula_sum   'La6 Ti2 Ag2 S14'
_cell_volume   563.06459100
_cell_formula_units_Z   2
loop_
 _symmetry_equiv_pos_site_id
 _symmetry_equiv_pos_as_xyz
  1  'x, y, z'
loop_
 _atom_site_type_symbol
 _atom_site_label
 _atom_site_symmetry_multiplicity
 _atom_site_fract_x
 _atom_site_fract_y
 _atom_site_fract_z
 _atom_site_occupancy
  La  La0  1  0.639287  0.870285  0.121335  1
  La  La1  1  0.129491  0.768783  0.121378  1
  La  La2  1  0.230922  0.360648  0.121351  1
  La  La3  1  0.360712  0.129714  0.621334  1
  La  La4  1  0.870509  0.231217  0.621378  1
  La  La5  1  0.769078  0.639352  0.621350  1
  Ti  Ti6  1  0.666736  0.333411  0.202038  1
  Ti  Ti7  1  0.333264  0.666589  0.702039  1
  Ag  Ag8  1  0.999992  0.999911  0.052674  1
  Ag  Ag9  1  0.000008  0.000089  0.552673  1
  S  S10  1  0.903585  0.170805  0.099171  1
  S  S11  1  0.829093  0.732672  0.099203  1
  S  S12  1  0.267275  0.096399  0.099122  1
  S  S13  1  0.333256  0.666582  0.322676  1
  S  S14  1  0.894542  0.478177  0.353215  1
  S  S15  1  0.521976  0.416405  0.353131  1
  S  S16  1  0.583737  0.105730  0.352967  1
  S  S17  1  0.170906  0.267327  0.599204  1
  S  S18  1  0.096415  0.829195  0.599172  1
  S  S19  1  0.732726  0.903602  0.599121  1
  S  S20  1  0.666745  0.333419  0.822675  1
  S  S21  1  0.105458  0.521822  0.853215  1
  S  S22  1  0.478025  0.583595  0.853131  1
  S  S23  1  0.416263  0.894270  0.852968  1
