# generated using pymatgen
data_Dy2Mn6P7Ir6
_symmetry_space_group_name_H-M   'P 1'
_cell_length_a   9.40593400
_cell_length_b   9.40593382
_cell_length_c   3.85276600
_cell_angle_alpha   90.00000000
_cell_angle_beta   90.00000000
_cell_angle_gamma   120.00000768
_symmetry_Int_Tables_number   1
_chemical_formula_structural   Dy2Mn6P7Ir6
_chemical_formula_sum   'Dy2 Mn6 P7 Ir6'
_cell_volume   295.19369440
_cell_formula_units_Z   1
loop_
 _symmetry_equiv_pos_site_id
 _symmetry_equiv_pos_as_xyz
  1  'x, y, z'
loop_
 _atom_site_type_symbol
 _atom_site_label
 _atom_site_symmetry_multiplicity
 _atom_site_fract_x
 _atom_site_fract_y
 _atom_site_fract_z
 _atom_site_occupancy
  Dy  Dy0  1  0.666667  0.333333  0.000000  1
  Dy  Dy1  1  0.333333  0.666667  0.500000  1
  Mn  Mn2  1  0.889096  0.730131  0.000000  1
  Mn  Mn3  1  0.269869  0.158966  0.000000  1
  Mn  Mn4  1  0.841035  0.110904  0.000000  1
  Mn  Mn5  1  0.119032  0.904640  0.500000  1
  Mn  Mn6  1  0.095360  0.214392  0.500000  1
  Mn  Mn7  1  0.785608  0.880968  0.500000  1
  P  P8  1  0.111051  0.701011  0.000000  1
  P  P9  1  0.298989  0.410040  0.000000  1
  P  P10  1  0.589960  0.888949  0.000000  1
  P  P11  1  0.721299  0.603481  0.500000  1
  P  P12  1  0.396519  0.117819  0.500000  1
  P  P13  1  0.882181  0.278701  0.500000  1
  P  P14  1  0.000000  0.000000  0.000000  1
  Ir  Ir15  1  0.362296  0.936205  0.000000  1
  Ir  Ir16  1  0.063795  0.426091  0.000000  1
  Ir  Ir17  1  0.573909  0.637704  0.000000  1
  Ir  Ir18  1  0.944823  0.558590  0.500000  1
  Ir  Ir19  1  0.441410  0.386233  0.500000  1
  Ir  Ir20  1  0.613767  0.055177  0.500000  1
