# generated using pymatgen
data_Dy6Al24Ru4PtRh3
_symmetry_space_group_name_H-M   'P 1'
_cell_length_a   8.80848158
_cell_length_b   8.78705146
_cell_length_c   9.55302426
_cell_angle_alpha   90.00638515
_cell_angle_beta   89.97427015
_cell_angle_gamma   119.55534895
_symmetry_Int_Tables_number   1
_chemical_formula_structural   Dy6Al24Ru4PtRh3
_chemical_formula_sum   'Dy6 Al24 Ru4 Pt1 Rh3'
_cell_volume   643.19727952
_cell_formula_units_Z   1
loop_
 _symmetry_equiv_pos_site_id
 _symmetry_equiv_pos_as_xyz
  1  'x, y, z'
loop_
 _atom_site_type_symbol
 _atom_site_label
 _atom_site_symmetry_multiplicity
 _atom_site_fract_x
 _atom_site_fract_y
 _atom_site_fract_z
 _atom_site_occupancy
  Dy  Dy0  1  0.190728  0.805186  0.249094  1
  Dy  Dy1  1  0.188591  0.386941  0.250212  1
  Dy  Dy2  1  0.615795  0.809295  0.250413  1
  Dy  Dy3  1  0.809272  0.194814  0.750906  1
  Dy  Dy4  1  0.811409  0.613059  0.749788  1
  Dy  Dy5  1  0.384205  0.190705  0.749587  1
  Al  Al6  1  0.562335  0.437262  0.247318  1
  Al  Al7  1  0.560314  0.123388  0.250183  1
  Al  Al8  1  0.875541  0.439438  0.250210  1
  Al  Al9  1  0.437665  0.562738  0.752682  1
  Al  Al10  1  0.439686  0.876612  0.749817  1
  Al  Al11  1  0.124459  0.560562  0.749790  1
  Al  Al12  1  0.324187  0.160295  0.422505  1
  Al  Al13  1  0.837468  0.165248  0.422120  1
  Al  Al14  1  0.840696  0.674631  0.423008  1
  Al  Al15  1  0.675813  0.839705  0.577495  1
  Al  Al16  1  0.162532  0.834752  0.577880  1
  Al  Al17  1  0.159304  0.325369  0.576992  1
  Al  Al18  1  0.674779  0.836042  0.923692  1
  Al  Al19  1  0.162765  0.834661  0.922708  1
  Al  Al20  1  0.162848  0.326369  0.924038  1
  Al  Al21  1  0.325221  0.163958  0.076308  1
  Al  Al22  1  0.837235  0.165339  0.077292  1
  Al  Al23  1  0.837152  0.673631  0.075962  1
  Al  Al24  1  0.670596  0.331136  0.527038  1
  Al  Al25  1  0.329404  0.668864  0.472962  1
  Al  Al26  1  0.331353  0.666935  0.026652  1
  Al  Al27  1  0.668647  0.333065  0.973348  1
  Al  Al28  1  0.997249  0.001067  0.249848  1
  Al  Al29  1  0.002751  0.998933  0.750152  1
  Ru  Ru30  1  0.000000  0.000000  0.500000  1
  Ru  Ru31  1  0.000000  0.000000  0.000000  1
  Ru  Ru32  1  0.000000  0.500000  0.500000  1
  Ru  Ru33  1  0.000000  0.500000  0.000000  1
  Pt  Pt34  1  0.500000  0.500000  0.500000  1
  Rh  Rh35  1  0.500000  0.000000  0.500000  1
  Rh  Rh36  1  0.500000  0.500000  0.000000  1
  Rh  Rh37  1  0.500000  0.000000  0.000000  1
