# generated using pymatgen
data_CaMnSb12Os2Ru
_symmetry_space_group_name_H-M   'P 1'
_cell_length_a   8.17739976
_cell_length_b   8.16963150
_cell_length_c   8.17040754
_cell_angle_alpha   109.49053500
_cell_angle_beta   109.53709205
_cell_angle_gamma   109.36504360
_symmetry_Int_Tables_number   1
_chemical_formula_structural   CaMnSb12Os2Ru
_chemical_formula_sum   'Ca1 Mn1 Sb12 Os2 Ru1'
_cell_volume   420.29207191
_cell_formula_units_Z   1
loop_
 _symmetry_equiv_pos_site_id
 _symmetry_equiv_pos_as_xyz
  1  'x, y, z'
loop_
 _atom_site_type_symbol
 _atom_site_label
 _atom_site_symmetry_multiplicity
 _atom_site_fract_x
 _atom_site_fract_y
 _atom_site_fract_z
 _atom_site_occupancy
  Ca  Ca0  1  0.000000  0.000000  0.000000  1
  Mn  Mn1  1  0.000000  0.500000  0.000000  1
  Sb  Sb2  1  0.842857  0.661614  0.504460  1
  Sb  Sb3  1  0.157143  0.338386  0.495540  1
  Sb  Sb4  1  0.158125  0.661851  0.814731  1
  Sb  Sb5  1  0.841875  0.338149  0.185269  1
  Sb  Sb6  1  0.657143  0.503714  0.842562  1
  Sb  Sb7  1  0.342857  0.496286  0.157438  1
  Sb  Sb8  1  0.661336  0.819717  0.156828  1
  Sb  Sb9  1  0.338664  0.180283  0.843172  1
  Sb  Sb10  1  0.504170  0.842897  0.662490  1
  Sb  Sb11  1  0.495830  0.157103  0.337510  1
  Sb  Sb12  1  0.185315  0.846616  0.343022  1
  Sb  Sb13  1  0.814685  0.153384  0.656978  1
  Os  Os14  1  0.500000  0.500000  0.500000  1
  Os  Os15  1  0.000000  0.000000  0.500000  1
  Ru  Ru16  1  0.500000  0.000000  0.000000  1
