# generated using pymatgen
data_Zn2Sn3PdRh6
_symmetry_space_group_name_H-M   'P 1'
_cell_length_a   4.45419600
_cell_length_b   6.30339800
_cell_length_c   13.41887000
_cell_angle_alpha   90.00000000
_cell_angle_beta   89.99751402
_cell_angle_gamma   90.00000000
_symmetry_Int_Tables_number   1
_chemical_formula_structural   Zn2Sn3PdRh6
_chemical_formula_sum   'Zn4 Sn6 Pd2 Rh12'
_cell_volume   376.75584482
_cell_formula_units_Z   2
loop_
 _symmetry_equiv_pos_site_id
 _symmetry_equiv_pos_as_xyz
  1  'x, y, z'
loop_
 _atom_site_type_symbol
 _atom_site_label
 _atom_site_symmetry_multiplicity
 _atom_site_fract_x
 _atom_site_fract_y
 _atom_site_fract_z
 _atom_site_occupancy
  Zn  Zn0  1  0.000009  0.000000  0.336522  1
  Zn  Zn1  1  0.499992  0.500000  0.500469  1
  Zn  Zn2  1  0.999973  0.000000  0.666193  1
  Zn  Zn3  1  0.499960  0.500000  0.830168  1
  Sn  Sn4  1  0.999995  0.500000  0.008893  1
  Sn  Sn5  1  0.500090  0.000000  0.157756  1
  Sn  Sn6  1  0.000025  0.500000  0.330953  1
  Sn  Sn7  1  0.499993  0.000000  0.501760  1
  Sn  Sn8  1  0.999973  0.500000  0.665040  1
  Sn  Sn9  1  0.499965  0.000000  0.835563  1
  Pd  Pd10  1  0.999976  0.000000  0.000052  1
  Pd  Pd11  1  0.500066  0.500000  0.166595  1
  Rh  Rh12  1  0.499977  0.262972  0.991143  1
  Rh  Rh13  1  0.499977  0.737028  0.991143  1
  Rh  Rh14  1  0.000088  0.236895  0.175471  1
  Rh  Rh15  1  0.000088  0.763104  0.175471  1
  Rh  Rh16  1  0.500016  0.247013  0.339002  1
  Rh  Rh17  1  0.500016  0.752986  0.339002  1
  Rh  Rh18  1  0.999990  0.251425  0.500494  1
  Rh  Rh19  1  0.999990  0.748574  0.500494  1
  Rh  Rh20  1  0.499971  0.248668  0.666174  1
  Rh  Rh21  1  0.499971  0.751331  0.666174  1
  Rh  Rh22  1  0.999953  0.252929  0.827732  1
  Rh  Rh23  1  0.999953  0.747070  0.827732  1
