# generated using pymatgen
data_Hf4VCuRh10
_symmetry_space_group_name_H-M   'P 1'
_cell_length_a   4.05593100
_cell_length_b   5.54165160
_cell_length_c   10.97342276
_cell_angle_alpha   88.27717135
_cell_angle_beta   90.00000000
_cell_angle_gamma   90.00000000
_symmetry_Int_Tables_number   1
_chemical_formula_structural   Hf4VCuRh10
_chemical_formula_sum   'Hf4 V1 Cu1 Rh10'
_cell_volume   246.53326360
_cell_formula_units_Z   1
loop_
 _symmetry_equiv_pos_site_id
 _symmetry_equiv_pos_as_xyz
  1  'x, y, z'
loop_
 _atom_site_type_symbol
 _atom_site_label
 _atom_site_symmetry_multiplicity
 _atom_site_fract_x
 _atom_site_fract_y
 _atom_site_fract_z
 _atom_site_occupancy
  Hf  Hf0  1  0.500000  0.212672  0.630894  1
  Hf  Hf1  1  0.500000  0.787328  0.369106  1
  Hf  Hf2  1  0.500000  0.681871  0.857634  1
  Hf  Hf3  1  0.500000  0.318129  0.142366  1
  V  V4  1  0.000000  0.000000  0.000000  1
  Cu  Cu5  1  0.000000  0.500000  0.500000  1
  Rh  Rh6  1  0.500000  0.187390  0.897494  1
  Rh  Rh7  1  0.500000  0.812610  0.102506  1
  Rh  Rh8  1  0.500000  0.717710  0.616910  1
  Rh  Rh9  1  0.500000  0.282290  0.383090  1
  Rh  Rh10  1  0.000000  0.447948  0.746929  1
  Rh  Rh11  1  0.000000  0.552052  0.253071  1
  Rh  Rh12  1  0.000000  0.000000  0.500000  1
  Rh  Rh13  1  0.000000  0.500000  0.000000  1
  Rh  Rh14  1  0.000000  0.051168  0.240780  1
  Rh  Rh15  1  0.000000  0.948832  0.759220  1
