# generated using pymatgen
data_Zr6Sc4SnSb5
_symmetry_space_group_name_H-M   'P 1'
_cell_length_a   8.53935977
_cell_length_b   8.53935936
_cell_length_c   5.83162600
_cell_angle_alpha   90.00000000
_cell_angle_beta   90.00000000
_cell_angle_gamma   119.96669223
_symmetry_Int_Tables_number   1
_chemical_formula_structural   Zr6Sc4SnSb5
_chemical_formula_sum   'Zr6 Sc4 Sn1 Sb5'
_cell_volume   368.39740432
_cell_formula_units_Z   1
loop_
 _symmetry_equiv_pos_site_id
 _symmetry_equiv_pos_as_xyz
  1  'x, y, z'
loop_
 _atom_site_type_symbol
 _atom_site_label
 _atom_site_symmetry_multiplicity
 _atom_site_fract_x
 _atom_site_fract_y
 _atom_site_fract_z
 _atom_site_occupancy
  Zr  Zr0  1  0.741527  0.997805  0.250000  1
  Zr  Zr1  1  0.997805  0.741527  0.250000  1
  Zr  Zr2  1  0.668804  0.333010  0.000405  1
  Zr  Zr3  1  0.333010  0.668804  0.000405  1
  Zr  Zr4  1  0.333010  0.668804  0.499595  1
  Zr  Zr5  1  0.668804  0.333010  0.499595  1
  Sc  Sc6  1  0.749099  0.749099  0.750000  1
  Sc  Sc7  1  0.254544  0.000729  0.750000  1
  Sc  Sc8  1  0.000729  0.254544  0.750000  1
  Sc  Sc9  1  0.253074  0.253074  0.250000  1
  Sn  Sn10  1  0.611320  0.611320  0.250000  1
  Sb  Sb11  1  0.386631  0.386631  0.750000  1
  Sb  Sb12  1  0.615639  0.999635  0.750000  1
  Sb  Sb13  1  0.999635  0.615639  0.750000  1
  Sb  Sb14  1  0.384118  0.002253  0.250000  1
  Sb  Sb15  1  0.002253  0.384118  0.250000  1
