# generated using pymatgen
data_LiHo2Si4Pd
_symmetry_space_group_name_H-M   'P 1'
_cell_length_a   3.83484200
_cell_length_b   7.34156700
_cell_length_c   10.06677100
_cell_angle_alpha   90.00000000
_cell_angle_beta   90.00000000
_cell_angle_gamma   90.00000000
_symmetry_Int_Tables_number   1
_chemical_formula_structural   LiHo2Si4Pd
_chemical_formula_sum   'Li2 Ho4 Si8 Pd2'
_cell_volume   283.41734878
_cell_formula_units_Z   2
loop_
 _symmetry_equiv_pos_site_id
 _symmetry_equiv_pos_as_xyz
  1  'x, y, z'
loop_
 _atom_site_type_symbol
 _atom_site_label
 _atom_site_symmetry_multiplicity
 _atom_site_fract_x
 _atom_site_fract_y
 _atom_site_fract_z
 _atom_site_occupancy
  Li  Li0  1  0.750000  0.004961  0.604807  1
  Li  Li1  1  0.750000  0.504961  0.895193  1
  Ho  Ho2  1  0.250000  0.143347  0.871355  1
  Ho  Ho3  1  0.250000  0.643347  0.628645  1
  Ho  Ho4  1  0.750000  0.862216  0.132802  1
  Ho  Ho5  1  0.750000  0.362216  0.367198  1
  Si  Si6  1  0.250000  0.225426  0.569985  1
  Si  Si7  1  0.250000  0.725426  0.930015  1
  Si  Si8  1  0.750000  0.769490  0.430117  1
  Si  Si9  1  0.750000  0.269490  0.069883  1
  Si  Si10  1  0.250000  0.657741  0.317075  1
  Si  Si11  1  0.250000  0.157741  0.182925  1
  Si  Si12  1  0.750000  0.342292  0.679523  1
  Si  Si13  1  0.750000  0.842292  0.820477  1
  Pd  Pd14  1  0.250000  0.994526  0.391729  1
  Pd  Pd15  1  0.250000  0.494526  0.108271  1
