# generated using pymatgen
data_Ta12Al8Re3IrC4
_symmetry_space_group_name_H-M   'P 1'
_cell_length_a   8.31517328
_cell_length_b   8.31517370
_cell_length_c   8.31517349
_cell_angle_alpha   60.27326988
_cell_angle_beta   60.27327429
_cell_angle_gamma   60.27326954
_symmetry_Int_Tables_number   1
_chemical_formula_structural   Ta12Al8Re3IrC4
_chemical_formula_sum   'Ta12 Al8 Re3 Ir1 C4'
_cell_volume   409.05035694
_cell_formula_units_Z   1
loop_
 _symmetry_equiv_pos_site_id
 _symmetry_equiv_pos_as_xyz
  1  'x, y, z'
loop_
 _atom_site_type_symbol
 _atom_site_label
 _atom_site_symmetry_multiplicity
 _atom_site_fract_x
 _atom_site_fract_y
 _atom_site_fract_z
 _atom_site_occupancy
  Ta  Ta0  1  0.556968  0.943225  0.556968  1
  Ta  Ta1  1  0.306775  0.693032  0.693032  1
  Ta  Ta2  1  0.685753  0.309355  0.309355  1
  Ta  Ta3  1  0.309355  0.685753  0.309355  1
  Ta  Ta4  1  0.693032  0.693032  0.306775  1
  Ta  Ta5  1  0.309355  0.309355  0.685753  1
  Ta  Ta6  1  0.556968  0.556968  0.943225  1
  Ta  Ta7  1  0.943225  0.556968  0.556968  1
  Ta  Ta8  1  0.564247  0.940645  0.940645  1
  Ta  Ta9  1  0.940645  0.940645  0.564247  1
  Ta  Ta10  1  0.693032  0.306775  0.693032  1
  Ta  Ta11  1  0.940645  0.564247  0.940645  1
  Al  Al12  1  0.916770  0.916770  0.916770  1
  Al  Al13  1  0.996142  0.332850  0.332850  1
  Al  Al14  1  0.332850  0.996142  0.332850  1
  Al  Al15  1  0.332850  0.332850  0.996142  1
  Al  Al16  1  0.917150  0.253858  0.917150  1
  Al  Al17  1  0.917150  0.917150  0.253858  1
  Al  Al18  1  0.253858  0.917150  0.917150  1
  Al  Al19  1  0.333230  0.333230  0.333230  1
  Re  Re20  1  0.625000  0.125000  0.125000  1
  Re  Re21  1  0.125000  0.625000  0.125000  1
  Re  Re22  1  0.125000  0.125000  0.625000  1
  Ir  Ir23  1  0.125000  0.125000  0.125000  1
  C  C24  1  0.625000  0.625000  0.625000  1
  C  C25  1  0.125000  0.625000  0.625000  1
  C  C26  1  0.625000  0.125000  0.625000  1
  C  C27  1  0.625000  0.625000  0.125000  1
