# generated using pymatgen
data_CaLu2Al2GaNi6
_symmetry_space_group_name_H-M   'P 1'
_cell_length_a   5.19851200
_cell_length_b   5.19851111
_cell_length_c   15.68292300
_cell_angle_alpha   90.00000000
_cell_angle_beta   90.00000000
_cell_angle_gamma   119.99999296
_symmetry_Int_Tables_number   1
_chemical_formula_structural   CaLu2Al2GaNi6
_chemical_formula_sum   'Ca2 Lu4 Al4 Ga2 Ni12'
_cell_volume   367.04194677
_cell_formula_units_Z   2
loop_
 _symmetry_equiv_pos_site_id
 _symmetry_equiv_pos_as_xyz
  1  'x, y, z'
loop_
 _atom_site_type_symbol
 _atom_site_label
 _atom_site_symmetry_multiplicity
 _atom_site_fract_x
 _atom_site_fract_y
 _atom_site_fract_z
 _atom_site_occupancy
  Ca  Ca0  1  0.333333  0.666667  0.750000  1
  Ca  Ca1  1  0.666667  0.333333  0.250000  1
  Lu  Lu2  1  0.333333  0.666667  0.543182  1
  Lu  Lu3  1  0.666667  0.333333  0.456818  1
  Lu  Lu4  1  0.666667  0.333333  0.043182  1
  Lu  Lu5  1  0.333333  0.666667  0.956818  1
  Al  Al6  1  0.000000  0.000000  0.250000  1
  Al  Al7  1  0.000000  0.000000  0.750000  1
  Al  Al8  1  0.333333  0.666667  0.250000  1
  Al  Al9  1  0.666667  0.333333  0.750000  1
  Ga  Ga10  1  0.000000  0.000000  0.000000  1
  Ga  Ga11  1  0.000000  0.000000  0.500000  1
  Ni  Ni12  1  0.169131  0.338260  0.124040  1
  Ni  Ni13  1  0.830869  0.661740  0.875960  1
  Ni  Ni14  1  0.661740  0.830869  0.124040  1
  Ni  Ni15  1  0.830869  0.661740  0.624040  1
  Ni  Ni16  1  0.338260  0.169131  0.875960  1
  Ni  Ni17  1  0.169131  0.338260  0.375960  1
  Ni  Ni18  1  0.169131  0.830869  0.124040  1
  Ni  Ni19  1  0.338260  0.169131  0.624040  1
  Ni  Ni20  1  0.830869  0.169131  0.875960  1
  Ni  Ni21  1  0.661740  0.830869  0.375960  1
  Ni  Ni22  1  0.830869  0.169131  0.624040  1
  Ni  Ni23  1  0.169131  0.830869  0.375960  1
