# generated using pymatgen
data_TiNb2Re3Si2Ge
_symmetry_space_group_name_H-M   'P 1'
_cell_length_a   6.94730878
_cell_length_b   6.85820617
_cell_length_c   3.30118600
_cell_angle_alpha   90.00000000
_cell_angle_beta   90.00000000
_cell_angle_gamma   119.78103273
_symmetry_Int_Tables_number   1
_chemical_formula_structural   TiNb2Re3Si2Ge
_chemical_formula_sum   'Ti1 Nb2 Re3 Si2 Ge1'
_cell_volume   136.51544696
_cell_formula_units_Z   1
loop_
 _symmetry_equiv_pos_site_id
 _symmetry_equiv_pos_as_xyz
  1  'x, y, z'
loop_
 _atom_site_type_symbol
 _atom_site_label
 _atom_site_symmetry_multiplicity
 _atom_site_fract_x
 _atom_site_fract_y
 _atom_site_fract_z
 _atom_site_occupancy
  Ti  Ti0  1  0.008833  0.604095  0.500000  1
  Nb  Nb1  1  0.397429  0.403600  0.500000  1
  Nb  Nb2  1  0.594277  0.989490  0.500000  1
  Re  Re3  1  0.743919  0.747249  0.000000  1
  Re  Re4  1  0.251252  0.993773  0.000000  1
  Re  Re5  1  0.004040  0.260139  0.000000  1
  Si  Si6  1  0.328904  0.665291  0.000000  1
  Si  Si7  1  0.000178  0.999844  0.500000  1
  Ge  Ge8  1  0.671168  0.336518  0.000000  1
