# generated using pymatgen
data_TbHg3(Ir2O7)2
_symmetry_space_group_name_H-M   'P 1'
_cell_length_a   7.26074593
_cell_length_b   7.26074602
_cell_length_c   7.37322931
_cell_angle_alpha   60.50338673
_cell_angle_beta   60.50338431
_cell_angle_gamma   60.00000655
_symmetry_Int_Tables_number   1
_chemical_formula_structural   TbHg3(Ir2O7)2
_chemical_formula_sum   'Tb1 Hg3 Ir4 O14'
_cell_volume   276.92877565
_cell_formula_units_Z   1
loop_
 _symmetry_equiv_pos_site_id
 _symmetry_equiv_pos_as_xyz
  1  'x, y, z'
loop_
 _atom_site_type_symbol
 _atom_site_label
 _atom_site_symmetry_multiplicity
 _atom_site_fract_x
 _atom_site_fract_y
 _atom_site_fract_z
 _atom_site_occupancy
  Tb  Tb0  1  0.125000  0.125000  0.625000  1
  Hg  Hg1  1  0.625000  0.125000  0.125000  1
  Hg  Hg2  1  0.125000  0.625000  0.125000  1
  Hg  Hg3  1  0.125000  0.125000  0.125000  1
  Ir  Ir4  1  0.125000  0.625000  0.625000  1
  Ir  Ir5  1  0.625000  0.125000  0.625000  1
  Ir  Ir6  1  0.625000  0.625000  0.125000  1
  Ir  Ir7  1  0.625000  0.625000  0.625000  1
  O  O8  1  0.695184  0.695184  0.307415  1
  O  O9  1  0.297532  0.297532  0.688363  1
  O  O10  1  0.716574  0.297532  0.688363  1
  O  O11  1  0.302218  0.695184  0.307415  1
  O  O12  1  0.297532  0.716574  0.688363  1
  O  O13  1  0.695184  0.302218  0.307415  1
  O  O14  1  0.554816  0.554816  0.942585  1
  O  O15  1  0.952468  0.952468  0.561637  1
  O  O16  1  0.533426  0.952468  0.561637  1
  O  O17  1  0.947782  0.554816  0.942585  1
  O  O18  1  0.952468  0.533426  0.561637  1
  O  O19  1  0.554816  0.947782  0.942585  1
  O  O20  1  0.251871  0.251871  0.244387  1
  O  O21  1  0.998129  0.998129  0.005613  1
