# generated using pymatgen
data_Be8V3Fe
_symmetry_space_group_name_H-M   'P 1'
_cell_length_a   4.29439100
_cell_length_b   4.29439151
_cell_length_c   6.96986400
_cell_angle_alpha   90.00000000
_cell_angle_beta   90.00000000
_cell_angle_gamma   120.00000377
_symmetry_Int_Tables_number   1
_chemical_formula_structural   Be8V3Fe
_chemical_formula_sum   'Be8 V3 Fe1'
_cell_volume   111.31614009
_cell_formula_units_Z   1
loop_
 _symmetry_equiv_pos_site_id
 _symmetry_equiv_pos_as_xyz
  1  'x, y, z'
loop_
 _atom_site_type_symbol
 _atom_site_label
 _atom_site_symmetry_multiplicity
 _atom_site_fract_x
 _atom_site_fract_y
 _atom_site_fract_z
 _atom_site_occupancy
  Be  Be0  1  0.000000  0.000000  0.999923  1
  Be  Be1  1  0.000000  0.000000  0.498887  1
  Be  Be2  1  0.830193  0.660386  0.248438  1
  Be  Be3  1  0.170069  0.829931  0.751399  1
  Be  Be4  1  0.659862  0.829931  0.751399  1
  Be  Be5  1  0.339614  0.169807  0.248438  1
  Be  Be6  1  0.830193  0.169807  0.248438  1
  Be  Be7  1  0.170069  0.340138  0.751399  1
  V  V8  1  0.666667  0.333333  0.567532  1
  V  V9  1  0.666667  0.333333  0.939136  1
  V  V10  1  0.333333  0.666667  0.428322  1
  Fe  Fe11  1  0.333333  0.666667  0.066689  1
