# generated using pymatgen
data_CeHo7Lu2(Ga2Ru3)2
_symmetry_space_group_name_H-M   'P 1'
_cell_length_a   8.35143766
_cell_length_b   8.35072325
_cell_length_c   8.22254279
_cell_angle_alpha   110.06105569
_cell_angle_beta   109.18798197
_cell_angle_gamma   109.79990899
_symmetry_Int_Tables_number   1
_chemical_formula_structural   CeHo7Lu2(Ga2Ru3)2
_chemical_formula_sum   'Ce1 Ho7 Lu2 Ga4 Ru6'
_cell_volume   437.92268248
_cell_formula_units_Z   1
loop_
 _symmetry_equiv_pos_site_id
 _symmetry_equiv_pos_as_xyz
  1  'x, y, z'
loop_
 _atom_site_type_symbol
 _atom_site_label
 _atom_site_symmetry_multiplicity
 _atom_site_fract_x
 _atom_site_fract_y
 _atom_site_fract_z
 _atom_site_occupancy
  Ce  Ce0  1  0.194379  0.945319  0.249599  1
  Ho  Ho1  1  0.779890  0.786241  0.783620  1
  Ho  Ho2  1  0.316501  0.565884  0.749440  1
  Ho  Ho3  1  0.754342  0.319779  0.569035  1
  Ho  Ho4  1  0.568876  0.747485  0.316565  1
  Ho  Ho5  1  0.716875  0.499171  0.997896  1
  Ho  Ho6  1  0.002685  0.719527  0.502302  1
  Ho  Ho7  1  0.502127  0.996435  0.718286  1
  Lu  Lu8  1  0.250163  0.182906  0.929788  1
  Lu  Lu9  1  0.929393  0.252157  0.181145  1
  Ga  Ga10  1  0.413686  0.415286  0.408570  1
  Ga  Ga11  1  0.091381  0.496691  0.004818  1
  Ga  Ga12  1  0.992967  0.087322  0.496374  1
  Ga  Ga13  1  0.506901  0.005616  0.089895  1
  Ru  Ru14  1  0.874914  0.124188  0.752316  1
  Ru  Ru15  1  0.741091  0.870255  0.116928  1
  Ru  Ru16  1  0.127572  0.763197  0.903606  1
  Ru  Ru17  1  0.250914  0.622631  0.383599  1
  Ru  Ru18  1  0.359294  0.223446  0.597695  1
  Ru  Ru19  1  0.626053  0.376464  0.248525  1
