# generated using pymatgen
data_Sm3MgIn2Ga2Pd
_symmetry_space_group_name_H-M   'P 1'
_cell_length_a   7.33049700
_cell_length_b   7.35264342
_cell_length_c   4.50874500
_cell_angle_alpha   90.00000000
_cell_angle_beta   90.00000000
_cell_angle_gamma   119.90041708
_symmetry_Int_Tables_number   1
_chemical_formula_structural   Sm3MgIn2Ga2Pd
_chemical_formula_sum   'Sm3 Mg1 In2 Ga2 Pd1'
_cell_volume   210.66779771
_cell_formula_units_Z   1
loop_
 _symmetry_equiv_pos_site_id
 _symmetry_equiv_pos_as_xyz
  1  'x, y, z'
loop_
 _atom_site_type_symbol
 _atom_site_label
 _atom_site_symmetry_multiplicity
 _atom_site_fract_x
 _atom_site_fract_y
 _atom_site_fract_z
 _atom_site_occupancy
  Sm  Sm0  1  0.589935  0.000000  0.500000  1
  Sm  Sm1  1  0.001232  0.587710  0.500000  1
  Sm  Sm2  1  0.413522  0.412290  0.500000  1
  Mg  Mg3  1  0.236673  0.000000  0.000000  1
  In  In4  1  0.003808  0.246747  0.000000  1
  In  In5  1  0.757061  0.753253  0.000000  1
  Ga  Ga6  1  0.334721  0.672119  0.000000  1
  Ga  Ga7  1  0.662603  0.327881  0.000000  1
  Pd  Pd8  1  0.000444  0.000000  0.500000  1
