# generated using pymatgen
data_K10BaCa(TaAs4)2
_symmetry_space_group_name_H-M   'P 1'
_cell_length_a   10.53613124
_cell_length_b   10.40211585
_cell_length_c   8.02405468
_cell_angle_alpha   87.83755580
_cell_angle_beta   89.37660133
_cell_angle_gamma   120.54641372
_symmetry_Int_Tables_number   1
_chemical_formula_structural   K10BaCa(TaAs4)2
_chemical_formula_sum   'K10 Ba1 Ca1 Ta2 As8'
_cell_volume   756.37170525
_cell_formula_units_Z   1
loop_
 _symmetry_equiv_pos_site_id
 _symmetry_equiv_pos_as_xyz
  1  'x, y, z'
loop_
 _atom_site_type_symbol
 _atom_site_label
 _atom_site_symmetry_multiplicity
 _atom_site_fract_x
 _atom_site_fract_y
 _atom_site_fract_z
 _atom_site_occupancy
  K  K0  1  0.467323  0.529318  0.607320  1
  K  K1  1  0.061397  0.530625  0.607276  1
  K  K2  1  0.525036  0.465028  0.108795  1
  K  K3  1  0.525647  0.056152  0.113448  1
  K  K4  1  0.864748  0.142720  0.787957  1
  K  K5  1  0.294246  0.153512  0.815864  1
  K  K6  1  0.854561  0.717657  0.766788  1
  K  K7  1  0.144032  0.863379  0.286614  1
  K  K8  1  0.711717  0.854210  0.271605  1
  K  K9  1  0.153794  0.291286  0.321690  1
  Ba  Ba10  1  0.935387  0.463646  0.102999  1
  Ca  Ca11  1  0.465579  0.938503  0.608316  1
  Ta  Ta12  1  0.665343  0.326787  0.505208  1
  Ta  Ta13  1  0.335310  0.673352  0.996238  1
  As  As14  1  0.677898  0.334197  0.815399  1
  As  As15  1  0.339995  0.687800  0.310110  1
  As  As16  1  0.204467  0.801764  0.881419  1
  As  As17  1  0.590865  0.806374  0.869701  1
  As  As18  1  0.196020  0.403008  0.923256  1
  As  As19  1  0.788642  0.188638  0.404518  1
  As  As20  1  0.400142  0.181878  0.427019  1
  As  As21  1  0.797851  0.590165  0.382858  1
