# generated using pymatgen
data_SrLa5PrPtI12
_symmetry_space_group_name_H-M   'P 1'
_cell_length_a   10.16462869
_cell_length_b   10.30188713
_cell_length_c   10.16190700
_cell_angle_alpha   106.72353182
_cell_angle_beta   106.47454897
_cell_angle_gamma   106.24763975
_symmetry_Int_Tables_number   1
_chemical_formula_structural   SrLa5PrPtI12
_chemical_formula_sum   'Sr1 La5 Pr1 Pt1 I12'
_cell_volume   898.41320720
_cell_formula_units_Z   1
loop_
 _symmetry_equiv_pos_site_id
 _symmetry_equiv_pos_as_xyz
  1  'x, y, z'
loop_
 _atom_site_type_symbol
 _atom_site_label
 _atom_site_symmetry_multiplicity
 _atom_site_fract_x
 _atom_site_fract_y
 _atom_site_fract_z
 _atom_site_occupancy
  Sr  Sr0  1  0.499507  0.499999  0.499184  1
  La  La1  1  0.304980  0.022584  0.100239  1
  La  La2  1  0.023560  0.101046  0.306103  1
  La  La3  1  0.976926  0.900637  0.694721  1
  La  La4  1  0.695069  0.977282  0.899850  1
  La  La5  1  0.899531  0.691626  0.977317  1
  Pr  Pr6  1  0.099833  0.303750  0.023077  1
  Pt  Pt7  1  0.999815  0.999237  0.000293  1
  I  I8  1  0.225919  0.678683  0.073401  1
  I  I9  1  0.454376  0.372760  0.146283  1
  I  I10  1  0.677209  0.073793  0.226070  1
  I  I11  1  0.927987  0.778580  0.323773  1
  I  I12  1  0.147075  0.454840  0.372828  1
  I  I13  1  0.377264  0.152392  0.458949  1
  I  I14  1  0.622878  0.848230  0.541266  1
  I  I15  1  0.852413  0.545558  0.624309  1
  I  I16  1  0.073001  0.224097  0.679316  1
  I  I17  1  0.322971  0.926843  0.774008  1
  I  I18  1  0.543176  0.627334  0.851918  1
  I  I19  1  0.776510  0.320728  0.927096  1
