# generated using pymatgen
data_Ti3Be4VSi4
_symmetry_space_group_name_H-M   'P 1'
_cell_length_a   3.64266200
_cell_length_b   5.84878570
_cell_length_c   6.82235200
_cell_angle_alpha   89.99942971
_cell_angle_beta   90.00000000
_cell_angle_gamma   90.00000000
_symmetry_Int_Tables_number   1
_chemical_formula_structural   Ti3Be4VSi4
_chemical_formula_sum   'Ti3 Be4 V1 Si4'
_cell_volume   145.35122871
_cell_formula_units_Z   1
loop_
 _symmetry_equiv_pos_site_id
 _symmetry_equiv_pos_as_xyz
  1  'x, y, z'
loop_
 _atom_site_type_symbol
 _atom_site_label
 _atom_site_symmetry_multiplicity
 _atom_site_fract_x
 _atom_site_fract_y
 _atom_site_fract_z
 _atom_site_occupancy
  Ti  Ti0  1  0.250000  0.497275  0.693363  1
  Ti  Ti1  1  0.750000  0.001960  0.191632  1
  Ti  Ti2  1  0.750000  0.502145  0.309301  1
  Be  Be3  1  0.250000  0.207365  0.405647  1
  Be  Be4  1  0.250000  0.707173  0.090566  1
  Be  Be5  1  0.750000  0.796472  0.594991  1
  Be  Be6  1  0.750000  0.288069  0.904780  1
  V  V7  1  0.250000  0.998346  0.812553  1
  Si  Si8  1  0.250000  0.800637  0.416694  1
  Si  Si9  1  0.250000  0.298000  0.081837  1
  Si  Si10  1  0.750000  0.196985  0.585740  1
  Si  Si11  1  0.750000  0.705572  0.912896  1
