# generated using pymatgen
data_KTlInAg3Te8
_symmetry_space_group_name_H-M   'P 1'
_cell_length_a   12.95855405
_cell_length_b   12.95855303
_cell_length_c   10.75193720
_cell_angle_alpha   82.85912347
_cell_angle_beta   82.85912467
_cell_angle_gamma   13.83096860
_symmetry_Int_Tables_number   1
_chemical_formula_structural   KTlInAg3Te8
_chemical_formula_sum   'K1 Tl1 In1 Ag3 Te8'
_cell_volume   428.22475356
_cell_formula_units_Z   1
loop_
 _symmetry_equiv_pos_site_id
 _symmetry_equiv_pos_as_xyz
  1  'x, y, z'
loop_
 _atom_site_type_symbol
 _atom_site_label
 _atom_site_symmetry_multiplicity
 _atom_site_fract_x
 _atom_site_fract_y
 _atom_site_fract_z
 _atom_site_occupancy
  K  K0  1  0.956548  0.956548  0.064675  1
  Tl  Tl1  1  0.191461  0.191461  0.081791  1
  In  In2  1  0.510680  0.510680  0.533536  1
  Ag  Ag3  1  0.836671  0.836671  0.479435  1
  Ag  Ag4  1  0.172914  0.172914  0.461558  1
  Ag  Ag5  1  0.834152  0.834152  0.802636  1
  Te  Te6  1  0.945514  0.945514  0.747033  1
  Te  Te7  1  0.085893  0.085893  0.315923  1
  Te  Te8  1  0.606520  0.606520  0.676231  1
  Te  Te9  1  0.427917  0.427917  0.366431  1
  Te  Te10  1  0.582915  0.582915  0.957921  1
  Te  Te11  1  0.327860  0.327860  0.034882  1
  Te  Te12  1  0.757412  0.757412  0.312195  1
  Te  Te13  1  0.263543  0.263543  0.665752  1
