# generated using pymatgen
data_Sm2Ga9Ru2Au
_symmetry_space_group_name_H-M   'P 1'
_cell_length_a   7.67640103
_cell_length_b   7.67640177
_cell_length_c   9.66512900
_cell_angle_alpha   90.00000000
_cell_angle_beta   90.00000000
_cell_angle_gamma   119.75499448
_symmetry_Int_Tables_number   1
_chemical_formula_structural   Sm2Ga9Ru2Au
_chemical_formula_sum   'Sm4 Ga18 Ru4 Au2'
_cell_volume   494.44792213
_cell_formula_units_Z   2
loop_
 _symmetry_equiv_pos_site_id
 _symmetry_equiv_pos_as_xyz
  1  'x, y, z'
loop_
 _atom_site_type_symbol
 _atom_site_label
 _atom_site_symmetry_multiplicity
 _atom_site_fract_x
 _atom_site_fract_y
 _atom_site_fract_z
 _atom_site_occupancy
  Sm  Sm0  1  0.996236  0.676470  0.250000  1
  Sm  Sm1  1  0.003764  0.323530  0.750000  1
  Sm  Sm2  1  0.676470  0.996236  0.250000  1
  Sm  Sm3  1  0.323530  0.003764  0.750000  1
  Ga  Ga4  1  0.146841  0.146841  0.250000  1
  Ga  Ga5  1  0.853159  0.853159  0.750000  1
  Ga  Ga6  1  0.001621  0.347244  0.078728  1
  Ga  Ga7  1  0.998380  0.652756  0.921272  1
  Ga  Ga8  1  0.998380  0.652756  0.578728  1
  Ga  Ga9  1  0.347244  0.001621  0.421272  1
  Ga  Ga10  1  0.001621  0.347244  0.421272  1
  Ga  Ga11  1  0.652756  0.998379  0.578728  1
  Ga  Ga12  1  0.652756  0.998379  0.921272  1
  Ga  Ga13  1  0.347244  0.001621  0.078728  1
  Ga  Ga14  1  0.348748  0.348748  0.566500  1
  Ga  Ga15  1  0.651252  0.651252  0.433500  1
  Ga  Ga16  1  0.651252  0.651252  0.066500  1
  Ga  Ga17  1  0.348748  0.348748  0.933500  1
  Ga  Ga18  1  0.332719  0.551888  0.250000  1
  Ga  Ga19  1  0.667281  0.448112  0.750000  1
  Ga  Ga20  1  0.551888  0.332719  0.250000  1
  Ga  Ga21  1  0.448112  0.667281  0.750000  1
  Ru  Ru22  1  0.672235  0.327765  0.000000  1
  Ru  Ru23  1  0.327765  0.672235  0.000000  1
  Ru  Ru24  1  0.327765  0.672235  0.500000  1
  Ru  Ru25  1  0.672235  0.327765  0.500000  1
  Au  Au26  1  0.000000  0.000000  0.000000  1
  Au  Au27  1  0.000000  0.000000  0.500000  1
