# generated using pymatgen
data_Nb9Ga2SiRh2
_symmetry_space_group_name_H-M   'P 1'
_cell_length_a   5.18947405
_cell_length_b   9.85891626
_cell_length_c   9.85891664
_cell_angle_alpha   86.02809205
_cell_angle_beta   74.74074684
_cell_angle_gamma   74.74075763
_symmetry_Int_Tables_number   1
_chemical_formula_structural   Nb9Ga2SiRh2
_chemical_formula_sum   'Nb18 Ga4 Si2 Rh4'
_cell_volume   469.46871956
_cell_formula_units_Z   2
loop_
 _symmetry_equiv_pos_site_id
 _symmetry_equiv_pos_as_xyz
  1  'x, y, z'
loop_
 _atom_site_type_symbol
 _atom_site_label
 _atom_site_symmetry_multiplicity
 _atom_site_fract_x
 _atom_site_fract_y
 _atom_site_fract_z
 _atom_site_occupancy
  Nb  Nb0  1  0.750000  0.500000  0.500000  1
  Nb  Nb1  1  0.250000  0.500000  0.500000  1
  Nb  Nb2  1  0.793912  0.772939  0.639237  1
  Nb  Nb3  1  0.206088  0.227061  0.360763  1
  Nb  Nb4  1  0.706088  0.360763  0.227061  1
  Nb  Nb5  1  0.293912  0.639237  0.772939  1
  Nb  Nb6  1  0.566852  0.639237  0.227061  1
  Nb  Nb7  1  0.433148  0.360763  0.772939  1
  Nb  Nb8  1  0.066852  0.227061  0.639237  1
  Nb  Nb9  1  0.933148  0.772939  0.360763  1
  Nb  Nb10  1  0.580148  0.076721  0.762984  1
  Nb  Nb11  1  0.419852  0.923279  0.237016  1
  Nb  Nb12  1  0.919852  0.237016  0.923279  1
  Nb  Nb13  1  0.080148  0.762984  0.076721  1
  Nb  Nb14  1  0.656869  0.762984  0.923279  1
  Nb  Nb15  1  0.343131  0.237016  0.076721  1
  Nb  Nb16  1  0.156869  0.923279  0.762984  1
  Nb  Nb17  1  0.843131  0.076721  0.237016  1
  Ga  Ga18  1  0.500000  0.000000  0.500000  1
  Ga  Ga19  1  0.000000  0.000000  0.500000  1
  Ga  Ga20  1  0.500000  0.500000  0.000000  1
  Ga  Ga21  1  0.000000  0.500000  0.000000  1
  Si  Si22  1  0.250000  0.000000  0.000000  1
  Si  Si23  1  0.750000  0.000000  0.000000  1
  Rh  Rh24  1  0.129138  0.500000  0.241724  1
  Rh  Rh25  1  0.870862  0.500000  0.758276  1
  Rh  Rh26  1  0.370862  0.758276  0.500000  1
  Rh  Rh27  1  0.629138  0.241724  0.500000  1
