# generated using pymatgen
data_Rb6MoAs4
_symmetry_space_group_name_H-M   'P 1'
_cell_length_a   10.73217100
_cell_length_b   10.73217049
_cell_length_c   8.59609300
_cell_angle_alpha   90.00000000
_cell_angle_beta   90.00000000
_cell_angle_gamma   119.99999233
_symmetry_Int_Tables_number   1
_chemical_formula_structural   Rb6MoAs4
_chemical_formula_sum   'Rb12 Mo2 As8'
_cell_volume   857.44627446
_cell_formula_units_Z   2
loop_
 _symmetry_equiv_pos_site_id
 _symmetry_equiv_pos_as_xyz
  1  'x, y, z'
loop_
 _atom_site_type_symbol
 _atom_site_label
 _atom_site_symmetry_multiplicity
 _atom_site_fract_x
 _atom_site_fract_y
 _atom_site_fract_z
 _atom_site_occupancy
  Rb  Rb0  1  0.146578  0.293157  0.287403  1
  Rb  Rb1  1  0.853422  0.146578  0.787403  1
  Rb  Rb2  1  0.532652  0.467348  0.104638  1
  Rb  Rb3  1  0.065304  0.532652  0.604638  1
  Rb  Rb4  1  0.467348  0.934696  0.604638  1
  Rb  Rb5  1  0.532652  0.065304  0.104638  1
  Rb  Rb6  1  0.934696  0.467348  0.104638  1
  Rb  Rb7  1  0.467348  0.532652  0.604638  1
  Rb  Rb8  1  0.146578  0.853422  0.287403  1
  Rb  Rb9  1  0.706843  0.853422  0.287403  1
  Rb  Rb10  1  0.853422  0.706843  0.787403  1
  Rb  Rb11  1  0.293157  0.146578  0.787403  1
  Mo  Mo12  1  0.666667  0.333333  0.497047  1
  Mo  Mo13  1  0.333333  0.666667  0.997047  1
  As  As14  1  0.791540  0.583081  0.407477  1
  As  As15  1  0.416919  0.208460  0.407477  1
  As  As16  1  0.333333  0.666667  0.279297  1
  As  As17  1  0.666667  0.333333  0.779297  1
  As  As18  1  0.791540  0.208460  0.407477  1
  As  As19  1  0.208460  0.791540  0.907477  1
  As  As20  1  0.208460  0.416919  0.907477  1
  As  As21  1  0.583081  0.791540  0.907477  1
