# generated using pymatgen
data_Rb2Cd(HgSe2)2
_symmetry_space_group_name_H-M   'P 1'
_cell_length_a   10.03062254
_cell_length_b   10.03062114
_cell_length_c   10.03062100
_cell_angle_alpha   141.61361987
_cell_angle_beta   108.70548241
_cell_angle_gamma   83.99906819
_symmetry_Int_Tables_number   1
_chemical_formula_structural   Rb2Cd(HgSe2)2
_chemical_formula_sum   'Rb4 Cd2 Hg4 Se8'
_cell_volume   574.78627659
_cell_formula_units_Z   2
loop_
 _symmetry_equiv_pos_site_id
 _symmetry_equiv_pos_as_xyz
  1  'x, y, z'
loop_
 _atom_site_type_symbol
 _atom_site_label
 _atom_site_symmetry_multiplicity
 _atom_site_fract_x
 _atom_site_fract_y
 _atom_site_fract_z
 _atom_site_occupancy
  Rb  Rb0  1  0.123412  0.774282  0.897694  1
  Rb  Rb1  1  0.876588  0.225718  0.102306  1
  Rb  Rb2  1  0.623412  0.725720  0.349132  1
  Rb  Rb3  1  0.376588  0.274280  0.650868  1
  Cd  Cd4  1  0.250000  0.750000  0.500000  1
  Cd  Cd5  1  0.750000  0.250000  0.500000  1
  Hg  Hg6  1  0.915017  0.750000  0.165017  1
  Hg  Hg7  1  0.584983  0.750000  0.834983  1
  Hg  Hg8  1  0.084983  0.250000  0.834983  1
  Hg  Hg9  1  0.415017  0.250000  0.165017  1
  Se  Se10  1  0.232641  0.642259  0.148794  1
  Se  Se11  1  0.493465  0.083847  0.851206  1
  Se  Se12  1  0.006535  0.857741  0.590381  1
  Se  Se13  1  0.267360  0.416153  0.409619  1
  Se  Se14  1  0.767359  0.357741  0.851206  1
  Se  Se15  1  0.506535  0.916153  0.148794  1
  Se  Se16  1  0.993465  0.142259  0.409619  1
  Se  Se17  1  0.732640  0.583847  0.590381  1
