# generated using pymatgen
data_EuPRh3
_symmetry_space_group_name_H-M   'P 1'
_cell_length_a   4.13812200
_cell_length_b   4.13812200
_cell_length_c   5.11062300
_cell_angle_alpha   90.00000000
_cell_angle_beta   90.00000000
_cell_angle_gamma   90.00000000
_symmetry_Int_Tables_number   1
_chemical_formula_structural   EuPRh3
_chemical_formula_sum   'Eu1 P1 Rh3'
_cell_volume   87.51458263
_cell_formula_units_Z   1
loop_
 _symmetry_equiv_pos_site_id
 _symmetry_equiv_pos_as_xyz
  1  'x, y, z'
loop_
 _atom_site_type_symbol
 _atom_site_label
 _atom_site_symmetry_multiplicity
 _atom_site_fract_x
 _atom_site_fract_y
 _atom_site_fract_z
 _atom_site_occupancy
  Eu  Eu0  1  0.500000  0.500000  0.685039  1
  P  P1  1  0.000000  0.000000  0.986619  1
  Rh  Rh2  1  0.500000  0.000000  0.192181  1
  Rh  Rh3  1  0.000000  0.500000  0.192181  1
  Rh  Rh4  1  0.000000  0.000000  0.552181  1
