# generated using pymatgen
data_Ho3Tm(Ir3Ru)2
_symmetry_space_group_name_H-M   'P 1'
_cell_length_a   5.35265981
_cell_length_b   5.35268678
_cell_length_c   8.66479117
_cell_angle_alpha   90.00000096
_cell_angle_beta   90.02161041
_cell_angle_gamma   59.99981836
_symmetry_Int_Tables_number   1
_chemical_formula_structural   Ho3Tm(Ir3Ru)2
_chemical_formula_sum   'Ho3 Tm1 Ir6 Ru2'
_cell_volume   214.99549938
_cell_formula_units_Z   1
loop_
 _symmetry_equiv_pos_site_id
 _symmetry_equiv_pos_as_xyz
  1  'x, y, z'
loop_
 _atom_site_type_symbol
 _atom_site_label
 _atom_site_symmetry_multiplicity
 _atom_site_fract_x
 _atom_site_fract_y
 _atom_site_fract_z
 _atom_site_occupancy
  Ho  Ho0  1  0.666705  0.666648  0.434162  1
  Ho  Ho1  1  0.666776  0.666612  0.066703  1
  Ho  Ho2  1  0.333261  0.333369  0.933119  1
  Tm  Tm3  1  0.333353  0.333323  0.565991  1
  Ir  Ir4  1  0.830596  0.338787  0.749359  1
  Ir  Ir5  1  0.338862  0.830569  0.749547  1
  Ir  Ir6  1  0.830596  0.830618  0.749359  1
  Ir  Ir7  1  0.169474  0.661061  0.250584  1
  Ir  Ir8  1  0.660931  0.169534  0.250424  1
  Ir  Ir9  1  0.169474  0.169464  0.250584  1
  Ru  Ru10  1  0.000009  0.999996  0.500102  1
  Ru  Ru11  1  0.999964  0.000019  0.000063  1
