# generated using pymatgen
data_Y4GaSn5Ir7
_symmetry_space_group_name_H-M   'P 1'
_cell_length_a   7.55523886
_cell_length_b   7.55523715
_cell_length_c   7.55523900
_cell_angle_alpha   109.40149447
_cell_angle_beta   109.50610183
_cell_angle_gamma   109.50608363
_symmetry_Int_Tables_number   1
_chemical_formula_structural   Y4GaSn5Ir7
_chemical_formula_sum   'Y4 Ga1 Sn5 Ir7'
_cell_volume   331.98782590
_cell_formula_units_Z   1
loop_
 _symmetry_equiv_pos_site_id
 _symmetry_equiv_pos_as_xyz
  1  'x, y, z'
loop_
 _atom_site_type_symbol
 _atom_site_label
 _atom_site_symmetry_multiplicity
 _atom_site_fract_x
 _atom_site_fract_y
 _atom_site_fract_z
 _atom_site_occupancy
  Y  Y0  1  0.999998  0.988828  0.524003  1
  Y  Y1  1  0.999998  0.524003  0.988828  1
  Y  Y2  1  0.464845  0.988844  0.988844  1
  Y  Y3  1  0.535179  0.524016  0.524016  1
  Ga  Ga4  1  0.000001  0.662247  0.662247  1
  Sn  Sn5  1  0.686521  0.698709  0.012215  1
  Sn  Sn6  1  0.313477  0.012190  0.325691  1
  Sn  Sn7  1  0.000001  0.297322  0.297322  1
  Sn  Sn8  1  0.313477  0.325691  0.012190  1
  Sn  Sn9  1  0.686521  0.012215  0.698709  1
  Ir  Ir10  1  0.753539  0.247668  0.494117  1
  Ir  Ir11  1  0.753539  0.494117  0.247668  1
  Ir  Ir12  1  0.500001  0.258662  0.758663  1
  Ir  Ir13  1  0.246455  0.494130  0.740575  1
  Ir  Ir14  1  0.246455  0.740575  0.494130  1
  Ir  Ir15  1  0.500001  0.758663  0.258662  1
  Ir  Ir16  1  0.999992  0.972127  0.972127  1
