# generated using pymatgen
data_Cs4Hf6FeBr18
_symmetry_space_group_name_H-M   'P 1'
_cell_length_a   10.86494232
_cell_length_b   11.25273180
_cell_length_c   11.35401011
_cell_angle_alpha   118.19552050
_cell_angle_beta   100.60630259
_cell_angle_gamma   104.41126463
_symmetry_Int_Tables_number   1
_chemical_formula_structural   Cs4Hf6FeBr18
_chemical_formula_sum   'Cs4 Hf6 Fe1 Br18'
_cell_volume   1108.47831024
_cell_formula_units_Z   1
loop_
 _symmetry_equiv_pos_site_id
 _symmetry_equiv_pos_as_xyz
  1  'x, y, z'
loop_
 _atom_site_type_symbol
 _atom_site_label
 _atom_site_symmetry_multiplicity
 _atom_site_fract_x
 _atom_site_fract_y
 _atom_site_fract_z
 _atom_site_occupancy
  Cs  Cs0  1  0.664585  0.537876  0.231577  1
  Cs  Cs1  1  0.335415  0.462124  0.768423  1
  Cs  Cs2  1  0.698428  0.228604  0.564481  1
  Cs  Cs3  1  0.301572  0.771396  0.435519  1
  Hf  Hf4  1  0.148776  0.055610  0.222939  1
  Hf  Hf5  1  0.851224  0.944390  0.777061  1
  Hf  Hf6  1  0.862930  0.117310  0.123584  1
  Hf  Hf7  1  0.137070  0.882690  0.876416  1
  Hf  Hf8  1  0.143001  0.231382  0.044348  1
  Hf  Hf9  1  0.856999  0.768618  0.955652  1
  Fe  Fe10  1  0.000000  0.000000  0.000000  1
  Br  Br11  1  0.007112  0.388998  0.186061  1
  Br  Br12  1  0.992888  0.611002  0.813939  1
  Br  Br13  1  0.322670  0.321647  0.299688  1
  Br  Br14  1  0.677330  0.678353  0.700312  1
  Br  Br15  1  0.312338  0.499212  0.098652  1
  Br  Br16  1  0.687662  0.500788  0.901348  1
  Br  Br17  1  0.004259  0.804799  0.200836  1
  Br  Br18  1  0.995741  0.195201  0.799164  1
  Br  Br19  1  0.709644  0.251516  0.265360  1
  Br  Br20  1  0.290356  0.748484  0.734640  1
  Br  Br21  1  0.309882  0.127637  0.912201  1
  Br  Br22  1  0.690118  0.872363  0.087799  1
  Br  Br23  1  0.014759  0.193619  0.387601  1
  Br  Br24  1  0.985241  0.806381  0.612399  1
  Br  Br25  1  0.314285  0.931529  0.110424  1
  Br  Br26  1  0.685715  0.068471  0.889576  1
  Br  Br27  1  0.324983  0.120396  0.480098  1
  Br  Br28  1  0.675017  0.879604  0.519902  1
