# generated using pymatgen
data_Sr6Li(TcO6)2
_symmetry_space_group_name_H-M   'P 1'
_cell_length_a   8.74325006
_cell_length_b   8.74324925
_cell_length_c   7.00039500
_cell_angle_alpha   68.04713306
_cell_angle_beta   68.04713520
_cell_angle_gamma   36.84667876
_symmetry_Int_Tables_number   1
_chemical_formula_structural   Sr6Li(TcO6)2
_chemical_formula_sum   'Sr6 Li1 Tc2 O12'
_cell_volume   294.94737573
_cell_formula_units_Z   1
loop_
 _symmetry_equiv_pos_site_id
 _symmetry_equiv_pos_as_xyz
  1  'x, y, z'
loop_
 _atom_site_type_symbol
 _atom_site_label
 _atom_site_symmetry_multiplicity
 _atom_site_fract_x
 _atom_site_fract_y
 _atom_site_fract_z
 _atom_site_occupancy
  Sr  Sr0  1  0.200928  0.200928  0.703974  1
  Sr  Sr1  1  0.892799  0.892799  0.712671  1
  Sr  Sr2  1  0.549017  0.549017  0.711294  1
  Sr  Sr3  1  0.799072  0.799072  0.296026  1
  Sr  Sr4  1  0.450983  0.450983  0.288706  1
  Sr  Sr5  1  0.107201  0.107201  0.287329  1
  Li  Li6  1  0.000000  0.000000  0.000000  1
  Tc  Tc7  1  0.665457  0.665457  0.001509  1
  Tc  Tc8  1  0.334543  0.334543  0.998491  1
  O  O9  1  0.282580  0.282580  0.314396  1
  O  O10  1  0.940146  0.940146  0.347882  1
  O  O11  1  0.613710  0.613710  0.311935  1
  O  O12  1  0.717420  0.717420  0.685604  1
  O  O13  1  0.386290  0.386290  0.688065  1
  O  O14  1  0.059854  0.059854  0.652118  1
  O  O15  1  0.000000  0.500000  0.000000  1
  O  O16  1  0.655098  0.172684  0.001369  1
  O  O17  1  0.344902  0.827316  0.998631  1
  O  O18  1  0.500000  0.000000  0.000000  1
  O  O19  1  0.172684  0.655098  0.001369  1
  O  O20  1  0.827316  0.344902  0.998631  1
