# generated using pymatgen
data_Dy3HoMoRu7
_symmetry_space_group_name_H-M   'P 1'
_cell_length_a   5.47153409
_cell_length_b   5.19511251
_cell_length_c   9.03927900
_cell_angle_alpha   90.00286292
_cell_angle_beta   90.00035516
_cell_angle_gamma   121.90656779
_symmetry_Int_Tables_number   1
_chemical_formula_structural   Dy3HoMoRu7
_chemical_formula_sum   'Dy3 Ho1 Mo1 Ru7'
_cell_volume   218.12230282
_cell_formula_units_Z   1
loop_
 _symmetry_equiv_pos_site_id
 _symmetry_equiv_pos_as_xyz
  1  'x, y, z'
loop_
 _atom_site_type_symbol
 _atom_site_label
 _atom_site_symmetry_multiplicity
 _atom_site_fract_x
 _atom_site_fract_y
 _atom_site_fract_z
 _atom_site_occupancy
  Dy  Dy0  1  0.672566  0.345315  0.563329  1
  Dy  Dy1  1  0.334507  0.669119  0.431914  1
  Dy  Dy2  1  0.334490  0.669082  0.068043  1
  Ho  Ho3  1  0.672618  0.345434  0.936645  1
  Mo  Mo4  1  0.159802  0.320268  0.750098  1
  Ru  Ru5  1  0.009266  0.018881  0.498261  1
  Ru  Ru6  1  0.009217  0.018797  0.001703  1
  Ru  Ru7  1  0.171468  0.820984  0.750122  1
  Ru  Ru8  1  0.650055  0.821178  0.750119  1
  Ru  Ru9  1  0.822820  0.645513  0.249902  1
  Ru  Ru10  1  0.830385  0.162364  0.249931  1
  Ru  Ru11  1  0.332804  0.163066  0.249934  1
