# generated using pymatgen
data_Dy3Ho9InCo5
_symmetry_space_group_name_H-M   'P 1'
_cell_length_a   8.27158631
_cell_length_b   8.27172333
_cell_length_c   8.26566000
_cell_angle_alpha   110.69764450
_cell_angle_beta   110.70203872
_cell_angle_gamma   107.07080255
_symmetry_Int_Tables_number   1
_chemical_formula_structural   Dy3Ho9InCo5
_chemical_formula_sum   'Dy3 Ho9 In1 Co5'
_cell_volume   434.61442622
_cell_formula_units_Z   1
loop_
 _symmetry_equiv_pos_site_id
 _symmetry_equiv_pos_as_xyz
  1  'x, y, z'
loop_
 _atom_site_type_symbol
 _atom_site_label
 _atom_site_symmetry_multiplicity
 _atom_site_fract_x
 _atom_site_fract_y
 _atom_site_fract_z
 _atom_site_occupancy
  Dy  Dy0  1  0.812038  0.705968  0.518011  1
  Dy  Dy1  1  0.187265  0.293339  0.480610  1
  Dy  Dy2  1  0.187377  0.705569  0.892957  1
  Ho  Ho3  1  0.812968  0.293509  0.106508  1
  Ho  Ho4  1  0.686297  0.379963  0.694704  1
  Ho  Ho5  1  0.314077  0.619751  0.306006  1
  Ho  Ho6  1  0.686307  0.992075  0.306093  1
  Ho  Ho7  1  0.314789  0.008527  0.694785  1
  Ho  Ho8  1  0.603179  0.794267  0.809476  1
  Ho  Ho9  1  0.399809  0.207329  0.191748  1
  Ho  Ho10  1  0.984422  0.791951  0.191747  1
  Ho  Ho11  1  0.015219  0.206311  0.809468  1
  In  In12  1  0.499563  0.500385  0.999872  1
  Co  Co13  1  0.620591  0.000261  0.620859  1
  Co  Co14  1  0.379305  0.000215  0.379524  1
  Co  Co15  1  0.110162  0.611963  0.497398  1
  Co  Co16  1  0.885307  0.387105  0.497400  1
  Co  Co17  1  0.001325  0.001512  0.002834  1
