# generated using pymatgen
data_Tb4DySiPb3
_symmetry_space_group_name_H-M   'P 1'
_cell_length_a   9.37650000
_cell_length_b   9.37649983
_cell_length_c   6.53563700
_cell_angle_alpha   90.00000000
_cell_angle_beta   90.00000000
_cell_angle_gamma   120.00000061
_symmetry_Int_Tables_number   1
_chemical_formula_structural   Tb4DySiPb3
_chemical_formula_sum   'Tb8 Dy2 Si2 Pb6'
_cell_volume   497.62255845
_cell_formula_units_Z   2
loop_
 _symmetry_equiv_pos_site_id
 _symmetry_equiv_pos_as_xyz
  1  'x, y, z'
loop_
 _atom_site_type_symbol
 _atom_site_label
 _atom_site_symmetry_multiplicity
 _atom_site_fract_x
 _atom_site_fract_y
 _atom_site_fract_z
 _atom_site_occupancy
  Tb  Tb0  1  0.248547  0.000000  0.250018  1
  Tb  Tb1  1  0.000000  0.751453  0.749982  1
  Tb  Tb2  1  0.000000  0.248547  0.250018  1
  Tb  Tb3  1  0.333333  0.666667  0.500000  1
  Tb  Tb4  1  0.751453  0.000000  0.749982  1
  Tb  Tb5  1  0.666667  0.333333  0.500000  1
  Tb  Tb6  1  0.248547  0.248547  0.749982  1
  Tb  Tb7  1  0.751453  0.751453  0.250018  1
  Dy  Dy8  1  0.333333  0.666667  0.000000  1
  Dy  Dy9  1  0.666667  0.333333  0.000000  1
  Si  Si10  1  0.000000  0.000000  0.000000  1
  Si  Si11  1  0.000000  0.000000  0.500000  1
  Pb  Pb12  1  0.607649  0.000000  0.249961  1
  Pb  Pb13  1  0.392351  0.000000  0.750039  1
  Pb  Pb14  1  0.000000  0.607649  0.249961  1
  Pb  Pb15  1  0.607649  0.607649  0.750039  1
  Pb  Pb16  1  0.392351  0.392351  0.249961  1
  Pb  Pb17  1  0.000000  0.392351  0.750039  1
