# generated using pymatgen
data_Ho4Er12Cd4Ir3Ru
_symmetry_space_group_name_H-M   'P 1'
_cell_length_a   9.58418965
_cell_length_b   9.58317246
_cell_length_c   9.58317211
_cell_angle_alpha   59.70632544
_cell_angle_beta   59.69888933
_cell_angle_gamma   59.69889247
_symmetry_Int_Tables_number   1
_chemical_formula_structural   Ho4Er12Cd4Ir3Ru
_chemical_formula_sum   'Ho4 Er12 Cd4 Ir3 Ru1'
_cell_volume   618.16298374
_cell_formula_units_Z   1
loop_
 _symmetry_equiv_pos_site_id
 _symmetry_equiv_pos_as_xyz
  1  'x, y, z'
loop_
 _atom_site_type_symbol
 _atom_site_label
 _atom_site_symmetry_multiplicity
 _atom_site_fract_x
 _atom_site_fract_y
 _atom_site_fract_z
 _atom_site_occupancy
  Ho  Ho0  1  0.811745  0.188698  0.811720  1
  Ho  Ho1  1  0.188091  0.810133  0.188108  1
  Ho  Ho2  1  0.811745  0.811720  0.188698  1
  Ho  Ho3  1  0.188091  0.188108  0.810133  1
  Er  Er4  1  0.599062  0.598982  0.598982  1
  Er  Er5  1  0.598578  0.598528  0.205844  1
  Er  Er6  1  0.598578  0.205844  0.598528  1
  Er  Er7  1  0.205803  0.598499  0.598499  1
  Er  Er8  1  0.061881  0.438636  0.438636  1
  Er  Er9  1  0.438102  0.060221  0.060221  1
  Er  Er10  1  0.438646  0.061917  0.438737  1
  Er  Er11  1  0.060149  0.438205  0.060129  1
  Er  Er12  1  0.438646  0.438737  0.061917  1
  Er  Er13  1  0.060149  0.060129  0.438205  1
  Er  Er14  1  0.188878  0.811524  0.811524  1
  Er  Er15  1  0.809983  0.188233  0.188233  1
  Cd  Cd16  1  0.830091  0.829926  0.829926  1
  Cd  Cd17  1  0.830651  0.830844  0.506983  1
  Cd  Cd18  1  0.830651  0.506983  0.830844  1
  Cd  Cd19  1  0.507028  0.830644  0.830644  1
  Ir  Ir20  1  0.393009  0.393191  0.825989  1
  Ir  Ir21  1  0.393009  0.825989  0.393191  1
  Ir  Ir22  1  0.825987  0.393072  0.393072  1
  Ru  Ru23  1  0.391450  0.391241  0.391241  1
