# generated using pymatgen
data_Yb2CdBi2
_symmetry_space_group_name_H-M   'P 1'
_cell_length_a   9.17467600
_cell_length_b   9.17467559
_cell_length_c   7.24952800
_cell_angle_alpha   90.00000000
_cell_angle_beta   90.00000000
_cell_angle_gamma   149.21324966
_symmetry_Int_Tables_number   1
_chemical_formula_structural   Yb2CdBi2
_chemical_formula_sum   'Yb4 Cd2 Bi4'
_cell_volume   312.34099166
_cell_formula_units_Z   2
loop_
 _symmetry_equiv_pos_site_id
 _symmetry_equiv_pos_as_xyz
  1  'x, y, z'
loop_
 _atom_site_type_symbol
 _atom_site_label
 _atom_site_symmetry_multiplicity
 _atom_site_fract_x
 _atom_site_fract_y
 _atom_site_fract_z
 _atom_site_occupancy
  Yb  Yb0  1  0.481760  0.518240  0.717810  1
  Yb  Yb1  1  0.518240  0.481760  0.217810  1
  Yb  Yb2  1  0.698483  0.301517  0.535804  1
  Yb  Yb3  1  0.301517  0.698483  0.035804  1
  Cd  Cd4  1  0.902287  0.097713  0.398466  1
  Cd  Cd5  1  0.097713  0.902287  0.898466  1
  Bi  Bi6  1  0.319084  0.680916  0.519565  1
  Bi  Bi7  1  0.680916  0.319084  0.019565  1
  Bi  Bi8  1  0.071790  0.928210  0.485865  1
  Bi  Bi9  1  0.928210  0.071790  0.985865  1
