# generated using pymatgen
data_Nd4MgP12Ru19
_symmetry_space_group_name_H-M   'P 1'
_cell_length_a   12.55309175
_cell_length_b   12.60196280
_cell_length_c   4.02355400
_cell_angle_alpha   90.00000000
_cell_angle_beta   90.00000000
_cell_angle_gamma   120.12887628
_symmetry_Int_Tables_number   1
_chemical_formula_structural   Nd4MgP12Ru19
_chemical_formula_sum   'Nd4 Mg1 P12 Ru19'
_cell_volume   550.50834022
_cell_formula_units_Z   1
loop_
 _symmetry_equiv_pos_site_id
 _symmetry_equiv_pos_as_xyz
  1  'x, y, z'
loop_
 _atom_site_type_symbol
 _atom_site_label
 _atom_site_symmetry_multiplicity
 _atom_site_fract_x
 _atom_site_fract_y
 _atom_site_fract_z
 _atom_site_occupancy
  Nd  Nd0  1  0.816111  0.815797  0.500000  1
  Nd  Nd1  1  0.183889  0.999686  0.500000  1
  Nd  Nd2  1  0.671849  0.331735  0.000000  1
  Nd  Nd3  1  0.328151  0.659887  0.000000  1
  Mg  Mg4  1  0.000000  0.189608  0.500000  1
  P  P5  1  0.000000  0.823154  0.000000  1
  P  P6  1  0.193632  0.183847  0.000000  1
  P  P7  1  0.806368  0.990215  0.000000  1
  P  P8  1  0.698345  0.168841  0.500000  1
  P  P9  1  0.830564  0.525133  0.500000  1
  P  P10  1  0.478257  0.305401  0.500000  1
  P  P11  1  0.169436  0.694569  0.500000  1
  P  P12  1  0.521743  0.827144  0.500000  1
  P  P13  1  0.301655  0.470496  0.500000  1
  P  P14  1  0.000000  0.381830  0.000000  1
  P  P15  1  0.623381  0.624379  0.000000  1
  P  P16  1  0.376619  0.000998  0.000000  1
  Ru  Ru17  1  0.000000  0.559936  0.000000  1
  Ru  Ru18  1  0.438576  0.445970  0.000000  1
  Ru  Ru19  1  0.561424  0.007394  0.000000  1
  Ru  Ru20  1  0.000000  0.718599  0.500000  1
  Ru  Ru21  1  0.282710  0.281123  0.500000  1
  Ru  Ru22  1  0.717290  0.998413  0.500000  1
  Ru  Ru23  1  0.826140  0.183632  0.000000  1
  Ru  Ru24  1  0.815319  0.625090  0.000000  1
  Ru  Ru25  1  0.383346  0.196027  0.000000  1
  Ru  Ru26  1  0.184681  0.809771  0.000000  1
  Ru  Ru27  1  0.616654  0.812680  0.000000  1
  Ru  Ru28  1  0.173860  0.357492  0.000000  1
  Ru  Ru29  1  0.875355  0.364612  0.500000  1
  Ru  Ru30  1  0.632059  0.508142  0.500000  1
  Ru  Ru31  1  0.494117  0.125114  0.500000  1
  Ru  Ru32  1  0.367941  0.876083  0.500000  1
  Ru  Ru33  1  0.505883  0.630997  0.500000  1
  Ru  Ru34  1  0.124645  0.489256  0.500000  1
  Ru  Ru35  1  0.000000  0.016949  0.000000  1
