# generated using pymatgen
data_Rb6CdTe4
_symmetry_space_group_name_H-M   'P 1'
_cell_length_a   11.53658000
_cell_length_b   11.53657969
_cell_length_c   8.90058300
_cell_angle_alpha   90.00000000
_cell_angle_beta   90.00000000
_cell_angle_gamma   120.00000088
_symmetry_Int_Tables_number   1
_chemical_formula_structural   Rb6CdTe4
_chemical_formula_sum   'Rb12 Cd2 Te8'
_cell_volume   1025.89575988
_cell_formula_units_Z   2
loop_
 _symmetry_equiv_pos_site_id
 _symmetry_equiv_pos_as_xyz
  1  'x, y, z'
loop_
 _atom_site_type_symbol
 _atom_site_label
 _atom_site_symmetry_multiplicity
 _atom_site_fract_x
 _atom_site_fract_y
 _atom_site_fract_z
 _atom_site_occupancy
  Rb  Rb0  1  0.147656  0.852344  0.545223  1
  Rb  Rb1  1  0.295312  0.147656  0.045223  1
  Rb  Rb2  1  0.852344  0.704688  0.045223  1
  Rb  Rb3  1  0.147656  0.295312  0.545223  1
  Rb  Rb4  1  0.704688  0.852344  0.545223  1
  Rb  Rb5  1  0.852344  0.147656  0.045223  1
  Rb  Rb6  1  0.525969  0.474031  0.364664  1
  Rb  Rb7  1  0.051937  0.525969  0.864664  1
  Rb  Rb8  1  0.474031  0.948063  0.864664  1
  Rb  Rb9  1  0.525969  0.051937  0.364664  1
  Rb  Rb10  1  0.948063  0.474031  0.364664  1
  Rb  Rb11  1  0.474031  0.525969  0.864664  1
  Cd  Cd12  1  0.333333  0.666667  0.249462  1
  Cd  Cd13  1  0.666667  0.333333  0.749462  1
  Te  Te14  1  0.333333  0.666667  0.579149  1
  Te  Te15  1  0.666667  0.333333  0.079149  1
  Te  Te16  1  0.193787  0.806213  0.147742  1
  Te  Te17  1  0.387574  0.193787  0.647742  1
  Te  Te18  1  0.806213  0.612426  0.647742  1
  Te  Te19  1  0.193787  0.387574  0.147742  1
  Te  Te20  1  0.612426  0.806213  0.147742  1
  Te  Te21  1  0.806213  0.193787  0.647742  1
