# generated using pymatgen
data_Hf9Ta2Re2Ge
_symmetry_space_group_name_H-M   'P 1'
_cell_length_a   8.70325602
_cell_length_b   8.70325627
_cell_length_c   8.78694600
_cell_angle_alpha   90.00000000
_cell_angle_beta   90.00000000
_cell_angle_gamma   120.24888212
_symmetry_Int_Tables_number   1
_chemical_formula_structural   Hf9Ta2Re2Ge
_chemical_formula_sum   'Hf18 Ta4 Re4 Ge2'
_cell_volume   574.95979902
_cell_formula_units_Z   2
loop_
 _symmetry_equiv_pos_site_id
 _symmetry_equiv_pos_as_xyz
  1  'x, y, z'
loop_
 _atom_site_type_symbol
 _atom_site_label
 _atom_site_symmetry_multiplicity
 _atom_site_fract_x
 _atom_site_fract_y
 _atom_site_fract_z
 _atom_site_occupancy
  Hf  Hf0  1  0.196855  0.803145  0.455903  1
  Hf  Hf1  1  0.196418  0.392540  0.459417  1
  Hf  Hf2  1  0.607460  0.803582  0.459417  1
  Hf  Hf3  1  0.805650  0.194350  0.551222  1
  Hf  Hf4  1  0.804181  0.609215  0.548963  1
  Hf  Hf5  1  0.390785  0.195819  0.548963  1
  Hf  Hf6  1  0.805650  0.194350  0.948778  1
  Hf  Hf7  1  0.804181  0.609215  0.951037  1
  Hf  Hf8  1  0.390785  0.195819  0.951037  1
  Hf  Hf9  1  0.196855  0.803145  0.044097  1
  Hf  Hf10  1  0.196418  0.392540  0.040583  1
  Hf  Hf11  1  0.607460  0.803582  0.040583  1
  Hf  Hf12  1  0.536387  0.463613  0.250000  1
  Hf  Hf13  1  0.538462  0.075236  0.250000  1
  Hf  Hf14  1  0.924764  0.461538  0.250000  1
  Hf  Hf15  1  0.460315  0.539685  0.750000  1
  Hf  Hf16  1  0.463679  0.922951  0.750000  1
  Hf  Hf17  1  0.077049  0.536321  0.750000  1
  Ta  Ta18  1  0.889615  0.110385  0.250000  1
  Ta  Ta19  1  0.888937  0.778126  0.250000  1
  Ta  Ta20  1  0.221874  0.111063  0.250000  1
  Ta  Ta21  1  0.107129  0.892871  0.750000  1
  Re  Re22  1  0.108597  0.219931  0.750000  1
  Re  Re23  1  0.780069  0.891403  0.750000  1
  Re  Re24  1  0.999474  0.000526  0.498387  1
  Re  Re25  1  0.999474  0.000526  0.001613  1
  Ge  Ge26  1  0.334267  0.665733  0.250000  1
  Ge  Ge27  1  0.667209  0.332791  0.750000  1
