# generated using pymatgen
data_Tb2ErPa(Pd2Pb)2
_symmetry_space_group_name_H-M   'P 1'
_cell_length_a   7.97142410
_cell_length_b   7.97142369
_cell_length_c   3.59913100
_cell_angle_alpha   90.00000000
_cell_angle_beta   90.00000000
_cell_angle_gamma   91.80588531
_symmetry_Int_Tables_number   1
_chemical_formula_structural   Tb2ErPa(Pd2Pb)2
_chemical_formula_sum   'Tb2 Er1 Pa1 Pd4 Pb2'
_cell_volume   228.58814723
_cell_formula_units_Z   1
loop_
 _symmetry_equiv_pos_site_id
 _symmetry_equiv_pos_as_xyz
  1  'x, y, z'
loop_
 _atom_site_type_symbol
 _atom_site_label
 _atom_site_symmetry_multiplicity
 _atom_site_fract_x
 _atom_site_fract_y
 _atom_site_fract_z
 _atom_site_occupancy
  Tb  Tb0  1  0.170051  0.330998  0.500000  1
  Tb  Tb1  1  0.830998  0.670051  0.500000  1
  Er  Er2  1  0.327731  0.827731  0.500000  1
  Pa  Pa3  1  0.668500  0.168500  0.500000  1
  Pd  Pd4  1  0.382142  0.127916  0.000000  1
  Pd  Pd5  1  0.124291  0.624291  0.000000  1
  Pd  Pd6  1  0.627916  0.882142  0.000000  1
  Pd  Pd7  1  0.866029  0.366029  0.000000  1
  Pb  Pb8  1  0.005819  0.996523  0.000000  1
  Pb  Pb9  1  0.496523  0.505819  0.000000  1
