# generated using pymatgen
data_LiLa8(IrRh)3
_symmetry_space_group_name_H-M   'P 1'
_cell_length_a   7.74334379
_cell_length_b   7.74334226
_cell_length_c   7.74334331
_cell_angle_alpha   69.76409468
_cell_angle_beta   69.76409231
_cell_angle_gamma   69.76407784
_symmetry_Int_Tables_number   1
_chemical_formula_structural   LiLa8(IrRh)3
_chemical_formula_sum   'Li1 La8 Ir3 Rh3'
_cell_volume   395.01148859
_cell_formula_units_Z   1
loop_
 _symmetry_equiv_pos_site_id
 _symmetry_equiv_pos_as_xyz
  1  'x, y, z'
loop_
 _atom_site_type_symbol
 _atom_site_label
 _atom_site_symmetry_multiplicity
 _atom_site_fract_x
 _atom_site_fract_y
 _atom_site_fract_z
 _atom_site_occupancy
  Li  Li0  1  0.000414  0.000414  0.000414  1
  La  La1  1  0.812229  0.812229  0.812229  1
  La  La2  1  0.185664  0.185664  0.185664  1
  La  La3  1  0.138901  0.382022  0.684500  1
  La  La4  1  0.684500  0.138901  0.382022  1
  La  La5  1  0.382022  0.684500  0.138901  1
  La  La6  1  0.858899  0.619771  0.316166  1
  La  La7  1  0.316166  0.858899  0.619771  1
  La  La8  1  0.619771  0.316166  0.858899  1
  Ir  Ir9  1  0.052159  0.814686  0.426364  1
  Ir  Ir10  1  0.426364  0.052159  0.814686  1
  Ir  Ir11  1  0.814686  0.426364  0.052159  1
  Rh  Rh12  1  0.948639  0.186551  0.573035  1
  Rh  Rh13  1  0.573035  0.948639  0.186551  1
  Rh  Rh14  1  0.186551  0.573035  0.948639  1
