# generated using pymatgen
data_Dy3ErCSe3
_symmetry_space_group_name_H-M   'P 1'
_cell_length_a   6.88102215
_cell_length_b   6.88102307
_cell_length_c   6.88456400
_cell_angle_alpha   79.89079356
_cell_angle_beta   79.89078374
_cell_angle_gamma   32.72722696
_symmetry_Int_Tables_number   1
_chemical_formula_structural   Dy3ErCSe3
_chemical_formula_sum   'Dy3 Er1 C1 Se3'
_cell_volume   173.26044920
_cell_formula_units_Z   1
loop_
 _symmetry_equiv_pos_site_id
 _symmetry_equiv_pos_as_xyz
  1  'x, y, z'
loop_
 _atom_site_type_symbol
 _atom_site_label
 _atom_site_symmetry_multiplicity
 _atom_site_fract_x
 _atom_site_fract_y
 _atom_site_fract_z
 _atom_site_occupancy
  Dy  Dy0  1  0.230433  0.230433  0.225441  1
  Dy  Dy1  1  0.512103  0.512103  0.455063  1
  Dy  Dy2  1  0.737929  0.737929  0.794550  1
  Er  Er3  1  0.019894  0.019894  0.025459  1
  C  C4  1  0.623957  0.623957  0.123858  1
  Se  Se5  1  0.866018  0.866018  0.377099  1
  Se  Se6  1  0.124274  0.124274  0.626672  1
  Se  Se7  1  0.385391  0.385391  0.871858  1
