# generated using pymatgen
data_TbEr15Cd4(OsPd)2
_symmetry_space_group_name_H-M   'P 1'
_cell_length_a   9.58561924
_cell_length_b   9.58561906
_cell_length_c   9.67805300
_cell_angle_alpha   59.68049334
_cell_angle_beta   59.68049395
_cell_angle_gamma   59.34057283
_symmetry_Int_Tables_number   1
_chemical_formula_structural   TbEr15Cd4(OsPd)2
_chemical_formula_sum   'Tb1 Er15 Cd4 Os2 Pd2'
_cell_volume   622.59942495
_cell_formula_units_Z   1
loop_
 _symmetry_equiv_pos_site_id
 _symmetry_equiv_pos_as_xyz
  1  'x, y, z'
loop_
 _atom_site_type_symbol
 _atom_site_label
 _atom_site_symmetry_multiplicity
 _atom_site_fract_x
 _atom_site_fract_y
 _atom_site_fract_z
 _atom_site_occupancy
  Tb  Tb0  1  0.939281  0.939281  0.560719  1
  Er  Er1  1  0.350340  0.350340  0.354371  1
  Er  Er2  1  0.350340  0.350340  0.944949  1
  Er  Er3  1  0.346306  0.953498  0.350099  1
  Er  Er4  1  0.953498  0.346306  0.350099  1
  Er  Er5  1  0.815721  0.187454  0.190251  1
  Er  Er6  1  0.187454  0.815721  0.806575  1
  Er  Er7  1  0.187454  0.815721  0.190251  1
  Er  Er8  1  0.815721  0.187454  0.806575  1
  Er  Er9  1  0.187992  0.187992  0.812008  1
  Er  Er10  1  0.809151  0.809151  0.190849  1
  Er  Er11  1  0.937135  0.556592  0.567970  1
  Er  Er12  1  0.556592  0.937135  0.938304  1
  Er  Er13  1  0.556592  0.937135  0.567970  1
  Er  Er14  1  0.937135  0.556592  0.938304  1
  Er  Er15  1  0.564626  0.564626  0.935374  1
  Cd  Cd16  1  0.580227  0.580227  0.581505  1
  Cd  Cd17  1  0.580227  0.580227  0.258039  1
  Cd  Cd18  1  0.580558  0.255371  0.582035  1
  Cd  Cd19  1  0.255371  0.580558  0.582035  1
  Os  Os20  1  0.144992  0.144992  0.137444  1
  Os  Os21  1  0.144992  0.144992  0.572573  1
  Pd  Pd22  1  0.145893  0.572403  0.140853  1
  Pd  Pd23  1  0.572403  0.145893  0.140853  1
