# generated using pymatgen
data_PrEr(RuO4)2
_symmetry_space_group_name_H-M   'P 1'
_cell_length_a   5.45533445
_cell_length_b   7.49427958
_cell_length_c   7.70142300
_cell_angle_alpha   80.25068674
_cell_angle_beta   93.17436547
_cell_angle_gamma   90.66469105
_symmetry_Int_Tables_number   1
_chemical_formula_structural   PrEr(RuO4)2
_chemical_formula_sum   'Pr2 Er2 Ru4 O16'
_cell_volume   309.83929164
_cell_formula_units_Z   2
loop_
 _symmetry_equiv_pos_site_id
 _symmetry_equiv_pos_as_xyz
  1  'x, y, z'
loop_
 _atom_site_type_symbol
 _atom_site_label
 _atom_site_symmetry_multiplicity
 _atom_site_fract_x
 _atom_site_fract_y
 _atom_site_fract_z
 _atom_site_occupancy
  Pr  Pr0  1  0.738200  0.891534  0.366423  1
  Pr  Pr1  1  0.261800  0.108466  0.633577  1
  Er  Er2  1  0.810289  0.396898  0.327691  1
  Er  Er3  1  0.189711  0.603102  0.672309  1
  Ru  Ru4  1  0.754572  0.298635  0.838336  1
  Ru  Ru5  1  0.245428  0.701365  0.161664  1
  Ru  Ru6  1  0.285110  0.204431  0.161784  1
  Ru  Ru7  1  0.714890  0.795569  0.838216  1
  O  O8  1  0.931266  0.794584  0.044318  1
  O  O9  1  0.068734  0.205416  0.955682  1
  O  O10  1  0.364429  0.948988  0.170570  1
  O  O11  1  0.635571  0.051012  0.829430  1
  O  O12  1  0.148120  0.447131  0.165554  1
  O  O13  1  0.851880  0.552869  0.834446  1
  O  O14  1  0.598264  0.299183  0.064071  1
  O  O15  1  0.401736  0.700817  0.935929  1
  O  O16  1  0.941670  0.336059  0.612790  1
  O  O17  1  0.058330  0.663941  0.387210  1
  O  O18  1  0.508127  0.187650  0.385698  1
  O  O19  1  0.491873  0.812350  0.614302  1
  O  O20  1  0.543822  0.620729  0.289658  1
  O  O21  1  0.456178  0.379271  0.710342  1
  O  O22  1  0.027226  0.132462  0.333795  1
  O  O23  1  0.972774  0.867538  0.666205  1
