# generated using pymatgen
data_NdEr3SiBr6
_symmetry_space_group_name_H-M   'P 1'
_cell_length_a   4.06494200
_cell_length_b   13.34768508
_cell_length_c   14.08556461
_cell_angle_alpha   88.83260778
_cell_angle_beta   90.00000000
_cell_angle_gamma   90.00000000
_symmetry_Int_Tables_number   1
_chemical_formula_structural   NdEr3SiBr6
_chemical_formula_sum   'Nd2 Er6 Si2 Br12'
_cell_volume   764.08981991
_cell_formula_units_Z   2
loop_
 _symmetry_equiv_pos_site_id
 _symmetry_equiv_pos_as_xyz
  1  'x, y, z'
loop_
 _atom_site_type_symbol
 _atom_site_label
 _atom_site_symmetry_multiplicity
 _atom_site_fract_x
 _atom_site_fract_y
 _atom_site_fract_z
 _atom_site_occupancy
  Nd  Nd0  1  0.000000  0.122404  0.581368  1
  Nd  Nd1  1  0.000000  0.877596  0.418632  1
  Er  Er2  1  0.500000  0.118304  0.341159  1
  Er  Er3  1  0.500000  0.881696  0.658841  1
  Er  Er4  1  0.500000  0.615553  0.155935  1
  Er  Er5  1  0.500000  0.384447  0.844065  1
  Er  Er6  1  0.000000  0.615850  0.922536  1
  Er  Er7  1  0.000000  0.384150  0.077464  1
  Si  Si8  1  0.500000  0.000000  0.500000  1
  Si  Si9  1  0.500000  0.500000  0.000000  1
  Br  Br10  1  0.500000  0.249225  0.161926  1
  Br  Br11  1  0.500000  0.750775  0.838074  1
  Br  Br12  1  0.500000  0.732171  0.329238  1
  Br  Br13  1  0.500000  0.267829  0.670762  1
  Br  Br14  1  0.000000  0.254990  0.401171  1
  Br  Br15  1  0.000000  0.745010  0.598829  1
  Br  Br16  1  0.000000  0.750729  0.086638  1
  Br  Br17  1  0.000000  0.249271  0.913362  1
  Br  Br18  1  0.000000  0.012918  0.239379  1
  Br  Br19  1  0.000000  0.987082  0.760621  1
  Br  Br20  1  0.000000  0.500582  0.252457  1
  Br  Br21  1  0.000000  0.499418  0.747543  1
