# generated using pymatgen
data_TaNb4B2As
_symmetry_space_group_name_H-M   'P 1'
_cell_length_a   7.36445223
_cell_length_b   7.36445285
_cell_length_c   7.36445260
_cell_angle_alpha   129.48303695
_cell_angle_beta   129.48304049
_cell_angle_gamma   74.23458181
_symmetry_Int_Tables_number   1
_chemical_formula_structural   TaNb4B2As
_chemical_formula_sum   'Ta2 Nb8 B4 As2'
_cell_volume   231.95793501
_cell_formula_units_Z   2
loop_
 _symmetry_equiv_pos_site_id
 _symmetry_equiv_pos_as_xyz
  1  'x, y, z'
loop_
 _atom_site_type_symbol
 _atom_site_label
 _atom_site_symmetry_multiplicity
 _atom_site_fract_x
 _atom_site_fract_y
 _atom_site_fract_z
 _atom_site_occupancy
  Ta  Ta0  1  0.500000  0.500000  0.000000  1
  Ta  Ta1  1  0.000000  0.000000  0.000000  1
  Nb  Nb2  1  0.528573  0.696353  0.500000  1
  Nb  Nb3  1  0.196353  0.028573  0.500000  1
  Nb  Nb4  1  0.028573  0.528573  0.832221  1
  Nb  Nb5  1  0.696353  0.196353  0.167779  1
  Nb  Nb6  1  0.471427  0.303647  0.500000  1
  Nb  Nb7  1  0.803647  0.971427  0.500000  1
  Nb  Nb8  1  0.971427  0.471427  0.167779  1
  Nb  Nb9  1  0.303647  0.803647  0.832221  1
  B  B10  1  0.882079  0.617921  0.500000  1
  B  B11  1  0.117921  0.382079  0.500000  1
  B  B12  1  0.382079  0.882079  0.264156  1
  B  B13  1  0.617921  0.117921  0.735844  1
  As  As14  1  0.250000  0.250000  0.000000  1
  As  As15  1  0.750000  0.750000  0.000000  1
