# generated using pymatgen
data_Ba5Tb7YNi4O21
_symmetry_space_group_name_H-M   'P 1'
_cell_length_a   10.23683358
_cell_length_b   10.23683285
_cell_length_c   10.23792500
_cell_angle_alpha   94.53670608
_cell_angle_beta   94.53723629
_cell_angle_gamma   147.32838472
_symmetry_Int_Tables_number   1
_chemical_formula_structural   Ba5Tb7YNi4O21
_chemical_formula_sum   'Ba5 Tb7 Y1 Ni4 O21'
_cell_volume   555.77954195
_cell_formula_units_Z   1
loop_
 _symmetry_equiv_pos_site_id
 _symmetry_equiv_pos_as_xyz
  1  'x, y, z'
loop_
 _atom_site_type_symbol
 _atom_site_label
 _atom_site_symmetry_multiplicity
 _atom_site_fract_x
 _atom_site_fract_y
 _atom_site_fract_z
 _atom_site_occupancy
  Ba  Ba0  1  0.999985  0.000017  0.000002  1
  Ba  Ba1  1  0.138263  0.534859  0.673120  1
  Ba  Ba2  1  0.861754  0.465149  0.326904  1
  Ba  Ba3  1  0.465149  0.138252  0.603401  1
  Ba  Ba4  1  0.534851  0.861742  0.396593  1
  Tb  Tb5  1  0.166760  0.249792  0.416553  1
  Tb  Tb6  1  0.833234  0.750217  0.583450  1
  Tb  Tb7  1  0.750235  0.166757  0.916992  1
  Tb  Tb8  1  0.249795  0.833206  0.083000  1
  Tb  Tb9  1  0.357492  0.410660  0.768152  1
  Tb  Tb10  1  0.642483  0.589390  0.231872  1
  Tb  Tb11  1  0.589377  0.357487  0.946864  1
  Y  Y12  1  0.410605  0.642411  0.053015  1
  Ni  Ni13  1  0.246443  0.040930  0.287374  1
  Ni  Ni14  1  0.753546  0.959067  0.712612  1
  Ni  Ni15  1  0.959068  0.246444  0.205513  1
  Ni  Ni16  1  0.040933  0.753556  0.794489  1
  O  O17  1  0.499937  0.500100  0.000036  1
  O  O18  1  0.963067  0.630060  0.593127  1
  O  O19  1  0.036938  0.369939  0.406877  1
  O  O20  1  0.369935  0.963071  0.333008  1
  O  O21  1  0.630077  0.036936  0.667011  1
  O  O22  1  0.295174  0.427537  0.225674  1
  O  O23  1  0.201709  0.069406  0.774253  1
  O  O24  1  0.069592  0.295341  0.867806  1
  O  O25  1  0.427463  0.201712  0.132299  1
  O  O26  1  0.704846  0.572544  0.774253  1
  O  O27  1  0.798137  0.930501  0.225674  1
  O  O28  1  0.930589  0.704836  0.132299  1
  O  O29  1  0.572465  0.798212  0.867806  1
  O  O30  1  0.496862  0.607912  0.595002  1
  O  O31  1  0.012903  0.901861  0.404996  1
  O  O32  1  0.901841  0.496851  0.888959  1
  O  O33  1  0.607766  0.012634  0.111029  1
  O  O34  1  0.503136  0.392094  0.404996  1
  O  O35  1  0.987090  0.098139  0.595002  1
  O  O36  1  0.098395  0.503263  0.111029  1
  O  O37  1  0.392107  0.987118  0.888959  1
