# generated using pymatgen
data_Lu5InAu4
_symmetry_space_group_name_H-M   'P 1'
_cell_length_a   7.97990900
_cell_length_b   7.97990900
_cell_length_c   3.65384700
_cell_angle_alpha   90.00000000
_cell_angle_beta   90.00000000
_cell_angle_gamma   90.00000000
_symmetry_Int_Tables_number   1
_chemical_formula_structural   Lu5InAu4
_chemical_formula_sum   'Lu5 In1 Au4'
_cell_volume   232.67313183
_cell_formula_units_Z   1
loop_
 _symmetry_equiv_pos_site_id
 _symmetry_equiv_pos_as_xyz
  1  'x, y, z'
loop_
 _atom_site_type_symbol
 _atom_site_label
 _atom_site_symmetry_multiplicity
 _atom_site_fract_x
 _atom_site_fract_y
 _atom_site_fract_z
 _atom_site_occupancy
  Lu  Lu0  1  0.683836  0.141993  0.500000  1
  Lu  Lu1  1  0.316164  0.858007  0.500000  1
  Lu  Lu2  1  0.141993  0.316164  0.500000  1
  Lu  Lu3  1  0.858007  0.683836  0.500000  1
  Lu  Lu4  1  0.500000  0.500000  0.000000  1
  In  In5  1  0.000000  0.000000  0.000000  1
  Au  Au6  1  0.147109  0.619140  0.000000  1
  Au  Au7  1  0.852891  0.380860  0.000000  1
  Au  Au8  1  0.619140  0.852891  0.000000  1
  Au  Au9  1  0.380860  0.147109  0.000000  1
