# generated using pymatgen
data_Sc3Fe8CoP6
_symmetry_space_group_name_H-M   'P 1'
_cell_length_a   3.60595200
_cell_length_b   10.34268700
_cell_length_c   11.93306200
_cell_angle_alpha   90.00000000
_cell_angle_beta   90.00000000
_cell_angle_gamma   90.00000000
_symmetry_Int_Tables_number   1
_chemical_formula_structural   Sc3Fe8CoP6
_chemical_formula_sum   'Sc6 Fe16 Co2 P12'
_cell_volume   445.04632618
_cell_formula_units_Z   2
loop_
 _symmetry_equiv_pos_site_id
 _symmetry_equiv_pos_as_xyz
  1  'x, y, z'
loop_
 _atom_site_type_symbol
 _atom_site_label
 _atom_site_symmetry_multiplicity
 _atom_site_fract_x
 _atom_site_fract_y
 _atom_site_fract_z
 _atom_site_occupancy
  Sc  Sc0  1  0.750000  0.250000  0.473354  1
  Sc  Sc1  1  0.250000  0.750000  0.526646  1
  Sc  Sc2  1  0.250000  0.929823  0.793048  1
  Sc  Sc3  1  0.250000  0.570177  0.793048  1
  Sc  Sc4  1  0.750000  0.070177  0.206952  1
  Sc  Sc5  1  0.750000  0.429823  0.206952  1
  Fe  Fe6  1  0.250000  0.250000  0.846187  1
  Fe  Fe7  1  0.750000  0.750000  0.153813  1
  Fe  Fe8  1  0.750000  0.250000  0.012526  1
  Fe  Fe9  1  0.250000  0.750000  0.987474  1
  Fe  Fe10  1  0.250000  0.421402  0.005131  1
  Fe  Fe11  1  0.250000  0.078598  0.005131  1
  Fe  Fe12  1  0.750000  0.578598  0.994869  1
  Fe  Fe13  1  0.750000  0.921402  0.994869  1
  Fe  Fe14  1  0.250000  0.450812  0.569082  1
  Fe  Fe15  1  0.250000  0.049188  0.569082  1
  Fe  Fe16  1  0.750000  0.549188  0.430918  1
  Fe  Fe17  1  0.750000  0.950812  0.430918  1
  Fe  Fe18  1  0.250000  0.869624  0.292843  1
  Fe  Fe19  1  0.250000  0.630376  0.292843  1
  Fe  Fe20  1  0.750000  0.130376  0.707157  1
  Fe  Fe21  1  0.750000  0.369624  0.707157  1
  Co  Co22  1  0.250000  0.250000  0.301360  1
  Co  Co23  1  0.750000  0.750000  0.698640  1
  P  P24  1  0.250000  0.250000  0.120530  1
  P  P25  1  0.750000  0.750000  0.879470  1
  P  P26  1  0.250000  0.250000  0.654287  1
  P  P27  1  0.750000  0.750000  0.345713  1
  P  P28  1  0.250000  0.439427  0.383524  1
  P  P29  1  0.250000  0.060573  0.383524  1
  P  P30  1  0.750000  0.560573  0.616476  1
  P  P31  1  0.750000  0.939427  0.616476  1
  P  P32  1  0.250000  0.901263  0.113628  1
  P  P33  1  0.250000  0.598737  0.113628  1
  P  P34  1  0.750000  0.098737  0.886372  1
  P  P35  1  0.750000  0.401263  0.886372  1
