# generated using pymatgen
data_ErLu3Tc2Pt2F28
_symmetry_space_group_name_H-M   'P 1'
_cell_length_a   5.48899293
_cell_length_b   8.77301374
_cell_length_c   11.86614681
_cell_angle_alpha   62.63688576
_cell_angle_beta   90.01217591
_cell_angle_gamma   90.05720133
_symmetry_Int_Tables_number   1
_chemical_formula_structural   ErLu3Tc2Pt2F28
_chemical_formula_sum   'Er1 Lu3 Tc2 Pt2 F28'
_cell_volume   507.47942938
_cell_formula_units_Z   1
loop_
 _symmetry_equiv_pos_site_id
 _symmetry_equiv_pos_as_xyz
  1  'x, y, z'
loop_
 _atom_site_type_symbol
 _atom_site_label
 _atom_site_symmetry_multiplicity
 _atom_site_fract_x
 _atom_site_fract_y
 _atom_site_fract_z
 _atom_site_occupancy
  Er  Er0  1  0.259356  0.815957  0.264671  1
  Lu  Lu1  1  0.740457  0.184149  0.735845  1
  Lu  Lu2  1  0.760826  0.185184  0.236792  1
  Lu  Lu3  1  0.239462  0.817358  0.762803  1
  Tc  Tc4  1  0.758266  0.726052  0.041874  1
  Tc  Tc5  1  0.241025  0.274691  0.956148  1
  Pt  Pt6  1  0.259965  0.271214  0.457792  1
  Pt  Pt7  1  0.740354  0.727148  0.544100  1
  F  F8  1  0.937290  0.703360  0.414879  1
  F  F9  1  0.060714  0.295476  0.586235  1
  F  F10  1  0.445507  0.292389  0.084538  1
  F  F11  1  0.553495  0.707872  0.913884  1
  F  F12  1  0.470169  0.728513  0.138282  1
  F  F13  1  0.529270  0.270214  0.859687  1
  F  F14  1  0.965117  0.273560  0.362553  1
  F  F15  1  0.035718  0.726430  0.638337  1
  F  F16  1  0.954509  0.744685  0.173812  1
  F  F17  1  0.041299  0.254100  0.825410  1
  F  F18  1  0.453921  0.255410  0.323419  1
  F  F19  1  0.546449  0.744063  0.677781  1
  F  F20  1  0.773363  0.475064  0.141644  1
  F  F21  1  0.226587  0.525531  0.857592  1
  F  F22  1  0.272185  0.522454  0.357769  1
  F  F23  1  0.728340  0.475042  0.643440  1
  F  F24  1  0.941353  0.276961  0.047760  1
  F  F25  1  0.059398  0.723702  0.951289  1
  F  F26  1  0.438111  0.719831  0.457285  1
  F  F27  1  0.562443  0.277959  0.545573  1
  F  F28  1  0.741019  0.978819  0.448839  1
  F  F29  1  0.258593  0.019647  0.552380  1
  F  F30  1  0.240755  0.024615  0.053266  1
  F  F31  1  0.758932  0.976317  0.944692  1
  F  F32  1  0.587786  0.972390  0.232295  1
  F  F33  1  0.417919  0.029514  0.766902  1
  F  F34  1  0.082068  0.032594  0.268925  1
  F  F35  1  0.917979  0.971736  0.731506  1
