# generated using pymatgen
data_Tb3Nd2GdTa2O14
_symmetry_space_group_name_H-M   'P 1'
_cell_length_a   6.53046872
_cell_length_b   6.55266864
_cell_length_c   7.63731800
_cell_angle_alpha   90.00000000
_cell_angle_beta   90.00000000
_cell_angle_gamma   109.41654796
_symmetry_Int_Tables_number   1
_chemical_formula_structural   Tb3Nd2GdTa2O14
_chemical_formula_sum   'Tb3 Nd2 Gd1 Ta2 O14'
_cell_volume   308.22897884
_cell_formula_units_Z   1
loop_
 _symmetry_equiv_pos_site_id
 _symmetry_equiv_pos_as_xyz
  1  'x, y, z'
loop_
 _atom_site_type_symbol
 _atom_site_label
 _atom_site_symmetry_multiplicity
 _atom_site_fract_x
 _atom_site_fract_y
 _atom_site_fract_z
 _atom_site_occupancy
  Tb  Tb0  1  0.999838  0.465155  0.750000  1
  Tb  Tb1  1  0.533998  0.000421  0.750000  1
  Tb  Tb2  1  0.465684  0.999192  0.250000  1
  Nd  Nd3  1  0.499202  0.499382  0.500825  1
  Nd  Nd4  1  0.499202  0.499382  0.999175  1
  Gd  Gd5  1  0.999970  0.532612  0.250000  1
  Ta  Ta6  1  0.999995  0.999502  0.500564  1
  Ta  Ta7  1  0.999995  0.999502  0.999436  1
  O  O8  1  0.935922  0.062601  0.750000  1
  O  O9  1  0.062876  0.940044  0.250000  1
  O  O10  1  0.359866  0.641177  0.250000  1
  O  O11  1  0.640809  0.357803  0.750000  1
  O  O12  1  0.365815  0.635658  0.750000  1
  O  O13  1  0.632004  0.363667  0.250000  1
  O  O14  1  0.319271  0.067811  0.968040  1
  O  O15  1  0.681359  0.931922  0.467824  1
  O  O16  1  0.319271  0.067811  0.531960  1
  O  O17  1  0.681359  0.931922  0.032176  1
  O  O18  1  0.070934  0.319780  0.471033  1
  O  O19  1  0.930848  0.682438  0.966108  1
  O  O20  1  0.930848  0.682438  0.533892  1
  O  O21  1  0.070934  0.319780  0.028967  1
