# generated using pymatgen
data_Dy3Tm(CuP)6
_symmetry_space_group_name_H-M   'P 1'
_cell_length_a   3.84102300
_cell_length_b   10.65742900
_cell_length_c   12.96416700
_cell_angle_alpha   90.00000000
_cell_angle_beta   90.00000000
_cell_angle_gamma   90.00000000
_symmetry_Int_Tables_number   1
_chemical_formula_structural   Dy3Tm(CuP)6
_chemical_formula_sum   'Dy6 Tm2 Cu12 P12'
_cell_volume   530.69374957
_cell_formula_units_Z   2
loop_
 _symmetry_equiv_pos_site_id
 _symmetry_equiv_pos_as_xyz
  1  'x, y, z'
loop_
 _atom_site_type_symbol
 _atom_site_label
 _atom_site_symmetry_multiplicity
 _atom_site_fract_x
 _atom_site_fract_y
 _atom_site_fract_z
 _atom_site_occupancy
  Dy  Dy0  1  0.250000  0.931608  0.792801  1
  Dy  Dy1  1  0.750000  0.431608  0.707199  1
  Dy  Dy2  1  0.250000  0.568545  0.291552  1
  Dy  Dy3  1  0.750000  0.068545  0.208448  1
  Dy  Dy4  1  0.250000  0.840924  0.503571  1
  Dy  Dy5  1  0.750000  0.340924  0.996429  1
  Tm  Tm6  1  0.250000  0.659255  0.003066  1
  Tm  Tm7  1  0.750000  0.159255  0.496934  1
  Cu  Cu8  1  0.250000  0.405114  0.513200  1
  Cu  Cu9  1  0.750000  0.905114  0.986800  1
  Cu  Cu10  1  0.250000  0.093939  0.013727  1
  Cu  Cu11  1  0.750000  0.593939  0.486273  1
  Cu  Cu12  1  0.250000  0.271510  0.330952  1
  Cu  Cu13  1  0.750000  0.771510  0.169048  1
  Cu  Cu14  1  0.250000  0.228223  0.831829  1
  Cu  Cu15  1  0.750000  0.728223  0.668171  1
  Cu  Cu16  1  0.250000  0.859889  0.281557  1
  Cu  Cu17  1  0.750000  0.359889  0.218443  1
  Cu  Cu18  1  0.250000  0.641843  0.781870  1
  Cu  Cu19  1  0.750000  0.141843  0.718130  1
  P  P20  1  0.250000  0.242089  0.641338  1
  P  P21  1  0.750000  0.742089  0.858662  1
  P  P22  1  0.250000  0.256943  0.142719  1
  P  P23  1  0.750000  0.756943  0.357281  1
  P  P24  1  0.250000  0.604845  0.602241  1
  P  P25  1  0.750000  0.104845  0.897759  1
  P  P26  1  0.250000  0.893630  0.101911  1
  P  P27  1  0.750000  0.393630  0.398089  1
  P  P28  1  0.250000  0.057159  0.371199  1
  P  P29  1  0.750000  0.557159  0.128801  1
  P  P30  1  0.250000  0.444483  0.869155  1
  P  P31  1  0.750000  0.944483  0.630845  1
