# generated using pymatgen
data_Hf5Np(GaRu2)6
_symmetry_space_group_name_H-M   'P 1'
_cell_length_a   4.45332900
_cell_length_b   6.31687700
_cell_length_c   13.31780600
_cell_angle_alpha   89.99926673
_cell_angle_beta   89.99982385
_cell_angle_gamma   90.00010588
_symmetry_Int_Tables_number   1
_chemical_formula_structural   Hf5Np(GaRu2)6
_chemical_formula_sum   'Hf5 Np1 Ga6 Ru12'
_cell_volume   374.64495231
_cell_formula_units_Z   1
loop_
 _symmetry_equiv_pos_site_id
 _symmetry_equiv_pos_as_xyz
  1  'x, y, z'
loop_
 _atom_site_type_symbol
 _atom_site_label
 _atom_site_symmetry_multiplicity
 _atom_site_fract_x
 _atom_site_fract_y
 _atom_site_fract_z
 _atom_site_occupancy
  Hf  Hf0  1  0.499990  0.999999  0.169946  1
  Hf  Hf1  1  0.999990  0.499999  0.336377  1
  Hf  Hf2  1  0.499999  0.999999  0.500000  1
  Hf  Hf3  1  0.000010  0.500000  0.663623  1
  Hf  Hf4  1  0.500010  0.000001  0.830053  1
  Np  Np5  1  0.000000  0.500001  0.999999  1
  Ga  Ga6  1  0.000000  0.000002  0.000001  1
  Ga  Ga7  1  0.499989  0.500001  0.174950  1
  Ga  Ga8  1  0.999991  0.999999  0.335623  1
  Ga  Ga9  1  0.499999  0.500000  0.500001  1
  Ga  Ga10  1  0.000008  0.999999  0.664376  1
  Ga  Ga11  1  0.500010  0.499999  0.825048  1
  Ru  Ru12  1  0.500001  0.253834  0.000002  1
  Ru  Ru13  1  0.499999  0.746170  0.000001  1
  Ru  Ru14  1  0.999996  0.256518  0.160007  1
  Ru  Ru15  1  0.999995  0.743476  0.160006  1
  Ru  Ru16  1  0.499999  0.249095  0.331826  1
  Ru  Ru17  1  0.499997  0.750901  0.331828  1
  Ru  Ru18  1  0.000000  0.250320  0.500001  1
  Ru  Ru19  1  0.999998  0.749678  0.499999  1
  Ru  Ru20  1  0.500006  0.249096  0.668170  1
  Ru  Ru21  1  0.500001  0.750903  0.668174  1
  Ru  Ru22  1  0.000006  0.256524  0.839994  1
  Ru  Ru23  1  0.000004  0.743484  0.839994  1
