# generated using pymatgen
data_Dy5Co16(P4Ru)3
_symmetry_space_group_name_H-M   'P 1'
_cell_length_a   12.02221900
_cell_length_b   12.02221906
_cell_length_c   3.70512100
_cell_angle_alpha   90.00000000
_cell_angle_beta   90.00000000
_cell_angle_gamma   119.99999158
_symmetry_Int_Tables_number   1
_chemical_formula_structural   Dy5Co16(P4Ru)3
_chemical_formula_sum   'Dy5 Co16 P12 Ru3'
_cell_volume   463.76966279
_cell_formula_units_Z   1
loop_
 _symmetry_equiv_pos_site_id
 _symmetry_equiv_pos_as_xyz
  1  'x, y, z'
loop_
 _atom_site_type_symbol
 _atom_site_label
 _atom_site_symmetry_multiplicity
 _atom_site_fract_x
 _atom_site_fract_y
 _atom_site_fract_z
 _atom_site_occupancy
  Dy  Dy0  1  0.666667  0.333333  0.000000  1
  Dy  Dy1  1  0.333333  0.666667  0.000000  1
  Dy  Dy2  1  0.184906  0.184906  0.500000  1
  Dy  Dy3  1  0.815094  0.000000  0.500000  1
  Dy  Dy4  1  0.000000  0.815094  0.500000  1
  Co  Co5  1  0.820591  0.196602  0.000000  1
  Co  Co6  1  0.803398  0.623990  0.000000  1
  Co  Co7  1  0.376010  0.179409  0.000000  1
  Co  Co8  1  0.196602  0.820591  0.000000  1
  Co  Co9  1  0.623990  0.803398  0.000000  1
  Co  Co10  1  0.179409  0.376010  0.000000  1
  Co  Co11  1  0.642938  0.125976  0.500000  1
  Co  Co12  1  0.874024  0.516961  0.500000  1
  Co  Co13  1  0.483039  0.357062  0.500000  1
  Co  Co14  1  0.125976  0.642938  0.500000  1
  Co  Co15  1  0.516961  0.874024  0.500000  1
  Co  Co16  1  0.357062  0.483039  0.500000  1
  Co  Co17  1  0.717040  0.717040  0.500000  1
  Co  Co18  1  0.282960  0.000000  0.500000  1
  Co  Co19  1  0.000000  0.282960  0.500000  1
  Co  Co20  1  0.000000  0.000000  0.000000  1
  P  P21  1  0.363241  0.363241  0.000000  1
  P  P22  1  0.636759  0.000000  0.000000  1
  P  P23  1  0.000000  0.636759  0.000000  1
  P  P24  1  0.834634  0.313540  0.500000  1
  P  P25  1  0.686460  0.521094  0.500000  1
  P  P26  1  0.478906  0.165366  0.500000  1
  P  P27  1  0.313540  0.834634  0.500000  1
  P  P28  1  0.521094  0.686460  0.500000  1
  P  P29  1  0.165366  0.478906  0.500000  1
  P  P30  1  0.819962  0.819962  0.000000  1
  P  P31  1  0.180038  0.000000  0.000000  1
  P  P32  1  0.000000  0.180038  0.000000  1
  Ru  Ru33  1  0.553672  0.553672  0.000000  1
  Ru  Ru34  1  0.446328  0.000000  0.000000  1
  Ru  Ru35  1  0.000000  0.446328  0.000000  1
