# generated using pymatgen
data_AcEu(AlAu2)3
_symmetry_space_group_name_H-M   'P 1'
_cell_length_a   8.87368787
_cell_length_b   8.87368838
_cell_length_c   8.87368921
_cell_angle_alpha   57.97829389
_cell_angle_beta   57.97829215
_cell_angle_gamma   57.97829473
_symmetry_Int_Tables_number   1
_chemical_formula_structural   AcEu(AlAu2)3
_chemical_formula_sum   'Ac2 Eu2 Al6 Au12'
_cell_volume   471.16433524
_cell_formula_units_Z   2
loop_
 _symmetry_equiv_pos_site_id
 _symmetry_equiv_pos_as_xyz
  1  'x, y, z'
loop_
 _atom_site_type_symbol
 _atom_site_label
 _atom_site_symmetry_multiplicity
 _atom_site_fract_x
 _atom_site_fract_y
 _atom_site_fract_z
 _atom_site_occupancy
  Ac  Ac0  1  0.910113  0.910113  0.910113  1
  Ac  Ac1  1  0.410113  0.410113  0.410113  1
  Eu  Eu2  1  0.090975  0.090975  0.090975  1
  Eu  Eu3  1  0.590975  0.590975  0.590975  1
  Al  Al4  1  0.559645  0.751575  0.939201  1
  Al  Al5  1  0.939201  0.559645  0.751575  1
  Al  Al6  1  0.751575  0.939201  0.559645  1
  Al  Al7  1  0.439201  0.251575  0.059645  1
  Al  Al8  1  0.059645  0.439201  0.251575  1
  Al  Al9  1  0.251575  0.059645  0.439201  1
  Au  Au10  1  0.473900  0.865672  0.204421  1
  Au  Au11  1  0.204421  0.473900  0.865672  1
  Au  Au12  1  0.865672  0.204421  0.473900  1
  Au  Au13  1  0.704421  0.365672  0.973900  1
  Au  Au14  1  0.973900  0.704421  0.365672  1
  Au  Au15  1  0.365672  0.973900  0.704421  1
  Au  Au16  1  0.522913  0.132017  0.799568  1
  Au  Au17  1  0.799568  0.522913  0.132017  1
  Au  Au18  1  0.132017  0.799568  0.522913  1
  Au  Au19  1  0.299568  0.632017  0.022913  1
  Au  Au20  1  0.022913  0.299568  0.632017  1
  Au  Au21  1  0.632017  0.022913  0.299568  1
