# generated using pymatgen
data_Zr10AlSn5O
_symmetry_space_group_name_H-M   'P 1'
_cell_length_a   8.46873927
_cell_length_b   8.47981401
_cell_length_c   5.77473747
_cell_angle_alpha   90.09268709
_cell_angle_beta   89.81438318
_cell_angle_gamma   119.95681464
_symmetry_Int_Tables_number   1
_chemical_formula_structural   Zr10AlSn5O
_chemical_formula_sum   'Zr10 Al1 Sn5 O1'
_cell_volume   359.29776202
_cell_formula_units_Z   1
loop_
 _symmetry_equiv_pos_site_id
 _symmetry_equiv_pos_as_xyz
  1  'x, y, z'
loop_
 _atom_site_type_symbol
 _atom_site_label
 _atom_site_symmetry_multiplicity
 _atom_site_fract_x
 _atom_site_fract_y
 _atom_site_fract_z
 _atom_site_occupancy
  Zr  Zr0  1  0.000284  0.766060  0.257831  1
  Zr  Zr1  1  0.234224  0.233940  0.257831  1
  Zr  Zr2  1  0.763888  0.000000  0.255328  1
  Zr  Zr3  1  0.991527  0.228287  0.742869  1
  Zr  Zr4  1  0.763240  0.771713  0.742869  1
  Zr  Zr5  1  0.241360  0.000000  0.744487  1
  Zr  Zr6  1  0.337247  0.672274  0.502090  1
  Zr  Zr7  1  0.664974  0.327726  0.502090  1
  Zr  Zr8  1  0.664898  0.327373  0.997620  1
  Zr  Zr9  1  0.337524  0.672627  0.997620  1
  Al  Al10  1  0.602353  0.000000  0.753186  1
  Sn  Sn11  1  0.002093  0.398830  0.246394  1
  Sn  Sn12  1  0.603263  0.601170  0.246394  1
  Sn  Sn13  1  0.399441  0.000000  0.246116  1
  Sn  Sn14  1  0.998165  0.603111  0.753631  1
  Sn  Sn15  1  0.395054  0.396889  0.753631  1
  O  O16  1  0.000463  0.000000  0.500012  1
