# generated using pymatgen
data_Tl7F9
_symmetry_space_group_name_H-M   'P 1'
_cell_length_a   11.04199600
_cell_length_b   11.04199600
_cell_length_c   11.04199600
_cell_angle_alpha   90.00000000
_cell_angle_beta   90.00000000
_cell_angle_gamma   90.00000000
_symmetry_Int_Tables_number   1
_chemical_formula_structural   Tl7F9
_chemical_formula_sum   'Tl28 F36'
_cell_volume   1346.30282298
_cell_formula_units_Z   4
loop_
 _symmetry_equiv_pos_site_id
 _symmetry_equiv_pos_as_xyz
  1  'x, y, z'
loop_
 _atom_site_type_symbol
 _atom_site_label
 _atom_site_symmetry_multiplicity
 _atom_site_fract_x
 _atom_site_fract_y
 _atom_site_fract_z
 _atom_site_occupancy
  Tl  Tl0  1  0.500000  0.000000  0.000000  1
  Tl  Tl1  1  0.000000  0.500000  0.000000  1
  Tl  Tl2  1  0.664648  0.316840  0.064778  1
  Tl  Tl3  1  0.835352  0.816839  0.064778  1
  Tl  Tl4  1  0.316840  0.435222  0.164649  1
  Tl  Tl5  1  0.183160  0.935222  0.164649  1
  Tl  Tl6  1  0.935222  0.164649  0.183160  1
  Tl  Tl7  1  0.564778  0.664648  0.183160  1
  Tl  Tl8  1  0.435222  0.164649  0.316840  1
  Tl  Tl9  1  0.064778  0.664648  0.316840  1
  Tl  Tl10  1  0.816839  0.435222  0.335352  1
  Tl  Tl11  1  0.683160  0.935222  0.335352  1
  Tl  Tl12  1  0.164649  0.316840  0.435222  1
  Tl  Tl13  1  0.335352  0.816839  0.435222  1
  Tl  Tl14  1  0.000000  0.000000  0.500000  1
  Tl  Tl15  1  0.500000  0.500000  0.500000  1
  Tl  Tl16  1  0.664648  0.183160  0.564778  1
  Tl  Tl17  1  0.835352  0.683160  0.564778  1
  Tl  Tl18  1  0.316840  0.064778  0.664648  1
  Tl  Tl19  1  0.183160  0.564778  0.664648  1
  Tl  Tl20  1  0.935222  0.335352  0.683160  1
  Tl  Tl21  1  0.564778  0.835352  0.683160  1
  Tl  Tl22  1  0.435222  0.335352  0.816839  1
  Tl  Tl23  1  0.064778  0.835352  0.816839  1
  Tl  Tl24  1  0.816839  0.064778  0.835352  1
  Tl  Tl25  1  0.683160  0.564778  0.835352  1
  Tl  Tl26  1  0.164649  0.183160  0.935222  1
  Tl  Tl27  1  0.335352  0.683160  0.935222  1
  F  F28  1  0.000000  0.000000  0.000000  1
  F  F29  1  0.500000  0.500000  0.000000  1
  F  F30  1  0.454329  0.191604  0.040481  1
  F  F31  1  0.045672  0.691604  0.040481  1
  F  F32  1  0.691604  0.040481  0.045672  1
  F  F33  1  0.808396  0.540481  0.045672  1
  F  F34  1  0.163155  0.163155  0.163155  1
  F  F35  1  0.336846  0.663155  0.163155  1
  F  F36  1  0.040481  0.454329  0.191604  1
  F  F37  1  0.459519  0.954329  0.191604  1
  F  F38  1  0.540481  0.454329  0.308396  1
  F  F39  1  0.959519  0.954329  0.308396  1
  F  F40  1  0.663155  0.163155  0.336846  1
  F  F41  1  0.836846  0.663155  0.336846  1
  F  F42  1  0.191604  0.040481  0.454329  1
  F  F43  1  0.308396  0.540481  0.454329  1
  F  F44  1  0.954329  0.191604  0.459519  1
  F  F45  1  0.545672  0.691604  0.459519  1
  F  F46  1  0.500000  0.000000  0.500000  1
  F  F47  1  0.000000  0.500000  0.500000  1
  F  F48  1  0.454329  0.308396  0.540481  1
  F  F49  1  0.045672  0.808396  0.540481  1
  F  F50  1  0.691604  0.459519  0.545672  1
  F  F51  1  0.808396  0.959519  0.545672  1
  F  F52  1  0.163155  0.336846  0.663155  1
  F  F53  1  0.336846  0.836846  0.663155  1
  F  F54  1  0.040481  0.045672  0.691604  1
  F  F55  1  0.459519  0.545672  0.691604  1
  F  F56  1  0.540481  0.045672  0.808396  1
  F  F57  1  0.959519  0.545672  0.808396  1
  F  F58  1  0.663155  0.336846  0.836846  1
  F  F59  1  0.836846  0.836846  0.836846  1
  F  F60  1  0.191604  0.459519  0.954329  1
  F  F61  1  0.308396  0.959519  0.954329  1
  F  F62  1  0.954329  0.308396  0.959519  1
  F  F63  1  0.545672  0.808396  0.959519  1
